MODEL 1
REMARK VINA RESULT:     -11.5      0.000      0.000
REMARK SMILES C[NH+](C)[C@H]1CCN(C(=O)C(=O)c2ccccc2)C[C@H]1CCC(=O)OCCOC(=O)c1ccc(-c2c3nc(c(-c4cc(S(=O)(=O)[O-])ccc4F)c4ccc([nH]4)c(-c4cc(S(=O)(=O)[O-])ccc4F)c4nc(c(-c5cc(S(=O)(=O)[O-])ccc5F)c5ccc2[nH]5)C=C4)C=C3)cc1
REMARK SMILES IDX 25 1 24 2 22 3 23 4 21 5 20 6 19 7 4 8 5 9 6 10 18 11 7 12
REMARK SMILES IDX 2 13 1 14 3 15 8 17 9 18 10 19 11 20 12 21 13 22 17 23 14 24
REMARK SMILES IDX 16 25 15 26 26 27 27 28 28 29 29 30 30 31 31 32 92 33 32 34
REMARK SMILES IDX 91 35 33 36 34 37 35 38 85 39 36 40 90 41 84 42 86 43 37 44
REMARK SMILES IDX 89 45 83 46 82 47 38 49 70 50 50 51 69 52 51 53 54 54 68 55
REMARK SMILES IDX 87 56 52 57 53 58 67 60 88 61 55 62 39 63 40 64 48 65 41 66
REMARK SMILES IDX 47 67 49 68 46 69 42 70 43 71 44 72 45 73 71 74 72 75 80 76
REMARK SMILES IDX 73 77 79 78 81 79 78 80 74 81 75 82 76 83 77 84 56 85 57 86
REMARK SMILES IDX 65 87 58 88 64 89 66 90 63 91 59 92 60 93 61 94 62 95
REMARK H PARENT 2 16 86 48 54 59
REMARK Flexibility Score: inf
ROOT
ATOM      1  C   UNL A   1      36.192  21.290  25.525  1.00  0.00     0.274 C 
ENDROOT
BRANCH   1   2
ATOM      2  O   UNL A   1      35.642  21.677  24.251  1.00  0.00    -0.462 OA
BRANCH   2   3
ATOM      3  C   UNL A   1      35.998  22.891  23.758  1.00  0.00     0.305 C 
ATOM      4  O   UNL A   1      36.649  23.055  22.733  1.00  0.00    -0.252 OA
BRANCH   3   5
ATOM      5  C   UNL A   1      35.473  24.051  24.581  1.00  0.00     0.123 C 
BRANCH   5   6
ATOM      6  C   UNL A   1      34.092  24.605  24.225  1.00  0.00     0.023 C 
BRANCH   6   7
ATOM      7  C   UNL A   1      33.324  23.972  23.031  1.00  0.00     0.067 C 
ATOM      8  C   UNL A   1      32.159  22.998  23.401  1.00  0.00     0.190 C 
ATOM      9  C   UNL A   1      31.022  23.809  24.056  1.00  0.00     0.087 C 
ATOM     10  C   UNL A   1      30.550  24.928  23.137  1.00  0.00     0.126 C 
ATOM     11  C   UNL A   1      32.801  25.122  22.134  1.00  0.00     0.129 C 
ATOM     12  N   UNL A   1      31.634  25.795  22.707  1.00  0.00    -0.335 N 
BRANCH   8  13
ATOM     13  N   UNL A   1      32.653  21.855  24.202  1.00  0.00    -0.337 N 
ATOM     14  C   UNL A   1      32.521  20.571  23.515  1.00  0.00     0.332 C 
ATOM     15  C   UNL A   1      32.140  21.747  25.564  1.00  0.00     0.332 C 
ATOM     16  H   UNL A   1      33.643  22.085  24.300  1.00  0.00     0.347 HD
ENDBRANCH   8  13
BRANCH  12  17
ATOM     17  C   UNL A   1      31.380  27.174  22.650  1.00  0.00     0.294 C 
ATOM     18  O   UNL A   1      30.448  27.648  22.003  1.00  0.00    -0.265 OA
BRANCH  17  19
ATOM     19  C   UNL A   1      32.326  28.155  23.347  1.00  0.00     0.250 C 
ATOM     20  O   UNL A   1      32.967  28.950  22.665  1.00  0.00    -0.283 OA
BRANCH  19  21
ATOM     21  C   UNL A   1      32.347  28.236  24.839  1.00  0.00     0.028 A 
ATOM     22  C   UNL A   1      33.338  29.023  25.444  1.00  0.00     0.012 A 
ATOM     23  C   UNL A   1      31.401  27.592  25.647  1.00  0.00     0.012 A 
ATOM     24  C   UNL A   1      33.364  29.191  26.831  1.00  0.00     0.001 A 
ATOM     25  C   UNL A   1      31.430  27.762  27.036  1.00  0.00     0.001 A 
ATOM     26  C   UNL A   1      32.406  28.564  27.626  1.00  0.00     0.000 A 
ENDBRANCH  19  21
ENDBRANCH  17  19
ENDBRANCH  12  17
ENDBRANCH   6   7
ENDBRANCH   5   6
ENDBRANCH   3   5
ENDBRANCH   2   3
ENDBRANCH   1   2
BRANCH   1  27
ATOM     27  C   UNL A   1      37.538  20.592  25.327  1.00  0.00     0.275 C 
BRANCH  27  28
ATOM     28  O   UNL A   1      38.605  21.557  25.353  1.00  0.00    -0.458 OA
BRANCH  28  29
ATOM     29  C   UNL A   1      39.500  21.378  26.351  1.00  0.00     0.338 C 
ATOM     30  O   UNL A   1      40.048  20.333  26.678  1.00  0.00    -0.246 OA
BRANCH  29  31
ATOM     31  C   UNL A   1      39.880  22.687  26.892  1.00  0.00     0.060 A 
ATOM     32  C   UNL A   1      39.274  23.811  26.329  1.00  0.00     0.016 A 
ATOM     33  C   UNL A   1      40.866  22.825  27.866  1.00  0.00     0.016 A 
ATOM     34  C   UNL A   1      39.657  25.087  26.719  1.00  0.00     0.010 A 
ATOM     35  C   UNL A   1      41.252  24.111  28.261  1.00  0.00     0.010 A 
ATOM     36  C   UNL A   1      40.664  25.247  27.675  1.00  0.00    -0.014 A 
BRANCH  36  37
ATOM     37  C   UNL A   1      41.177  26.609  27.963  1.00  0.00     0.031 A 
ATOM     38  C   UNL A   1      42.578  26.962  27.548  1.00  0.00     0.074 A 
ATOM     39  C   UNL A   1      40.381  27.529  28.539  1.00  0.00     0.049 A 
ATOM     40  N   UNL A   1      43.273  28.040  27.799  1.00  0.00    -0.248 NA
ATOM     41  C   UNL A   1      43.292  25.956  26.747  1.00  0.00     0.031 C 
ATOM     42  C   UNL A   1      38.981  27.317  28.914  1.00  0.00     0.029 A 
ATOM     43  N   UNL A   1      40.634  28.825  28.907  1.00  0.00    -0.354 N 
ATOM     44  C   UNL A   1      44.520  27.829  27.221  1.00  0.00     0.074 A 
ATOM     45  C   UNL A   1      44.487  26.513  26.618  1.00  0.00     0.031 C 
ATOM     46  C   UNL A   1      38.500  28.446  29.457  1.00  0.00     0.029 A 
ATOM     47  C   UNL A   1      39.568  29.439  29.524  1.00  0.00     0.049 A 
ATOM     48  H   UNL A   1      41.495  29.273  28.745  1.00  0.00     0.167 HD
ATOM     49  C   UNL A   1      45.594  28.659  27.203  1.00  0.00     0.034 A 
ATOM     50  C   UNL A   1      39.479  30.650  30.108  1.00  0.00     0.034 A 
ATOM     51  C   UNL A   1      45.594  29.973  27.800  1.00  0.00     0.049 A 
ATOM     52  C   UNL A   1      40.696  31.541  30.107  1.00  0.00     0.074 A 
ATOM     53  C   UNL A   1      46.624  30.894  27.866  1.00  0.00     0.029 A 
ATOM     54  N   UNL A   1      44.500  30.558  28.430  1.00  0.00    -0.354 N 
ATOM     55  N   UNL A   1      41.892  31.308  29.615  1.00  0.00    -0.248 NA
ATOM     56  C   UNL A   1      40.550  32.858  30.738  1.00  0.00     0.031 C 
ATOM     57  C   UNL A   1      46.171  32.012  28.579  1.00  0.00     0.029 A 
ATOM     58  C   UNL A   1      44.836  31.819  28.899  1.00  0.00     0.049 A 
ATOM     59  H   UNL A   1      43.616  30.138  28.530  1.00  0.00     0.167 HD
ATOM     60  C   UNL A   1      42.633  32.460  29.859  1.00  0.00     0.074 A 
ATOM     61  C   UNL A   1      41.743  33.391  30.522  1.00  0.00     0.031 C 
ATOM     62  C   UNL A   1      43.933  32.727  29.567  1.00  0.00     0.034 A 
BRANCH  49  63
ATOM     63  C   UNL A   1      46.865  28.129  26.585  1.00  0.00     0.023 A 
ATOM     64  C   UNL A   1      47.109  28.198  25.201  1.00  0.00     0.031 A 
ATOM     65  C   UNL A   1      47.826  27.495  27.392  1.00  0.00     0.131 A 
ATOM     66  C   UNL A   1      48.250  27.581  24.661  1.00  0.00     0.055 A 
ATOM     67  C   UNL A   1      48.995  26.951  26.858  1.00  0.00     0.041 A 
ATOM     68  F   UNL A   1      47.635  27.376  28.716  1.00  0.00    -0.206 F 
ATOM     69  C   UNL A   1      49.205  26.979  25.483  1.00  0.00     0.022 A 
BRANCH  66  70
ATOM     70  S   UNL A   1      48.402  27.456  22.857  1.00  0.00     0.124 S 
ATOM     71  O   UNL A   1      48.345  26.011  22.653  1.00  0.00    -0.237 OA
ATOM     72  O   UNL A   1      47.247  28.213  22.388  1.00  0.00    -0.237 OA
ATOM     73  O   UNL A   1      49.701  28.066  22.578  1.00  0.00    -0.744 OA
ENDBRANCH  66  70
ENDBRANCH  49  63
BRANCH  50  74
ATOM     74  C   UNL A   1      38.222  31.071  30.790  1.00  0.00     0.023 A 
ATOM     75  C   UNL A   1      37.203  31.742  30.096  1.00  0.00     0.031 A 
ATOM     76  C   UNL A   1      38.043  30.846  32.168  1.00  0.00     0.131 A 
ATOM     77  C   UNL A   1      36.071  32.201  30.789  1.00  0.00     0.055 A 
ATOM     78  C   UNL A   1      36.892  31.259  32.840  1.00  0.00     0.041 A 
ATOM     79  F   UNL A   1      38.987  30.211  32.880  1.00  0.00    -0.206 F 
ATOM     80  C   UNL A   1      35.903  31.952  32.152  1.00  0.00     0.022 A 
BRANCH  77  81
ATOM     81  S   UNL A   1      34.852  33.205  29.894  1.00  0.00     0.124 S 
ATOM     82  O   UNL A   1      34.025  33.711  30.984  1.00  0.00    -0.237 OA
ATOM     83  O   UNL A   1      35.699  34.185  29.225  1.00  0.00    -0.237 OA
ATOM     84  O   UNL A   1      34.199  32.240  29.012  1.00  0.00    -0.744 OA
ENDBRANCH  77  81
ENDBRANCH  50  74
BRANCH  62  85
ATOM     85  C   UNL A   1      44.437  34.102  29.926  1.00  0.00     0.023 A 
ATOM     86  C   UNL A   1      44.200  35.214  29.100  1.00  0.00     0.031 A 
ATOM     87  C   UNL A   1      45.197  34.291  31.093  1.00  0.00     0.131 A 
ATOM     88  C   UNL A   1      44.775  36.454  29.419  1.00  0.00     0.055 A 
ATOM     89  C   UNL A   1      45.718  35.539  31.436  1.00  0.00     0.041 A 
ATOM     90  F   UNL A   1      45.454  33.261  31.916  1.00  0.00    -0.206 F 
ATOM     91  C   UNL A   1      45.521  36.627  30.589  1.00  0.00     0.022 A 
BRANCH  88  92
ATOM     92  S   UNL A   1      44.627  37.814  28.227  1.00  0.00     0.124 S 
ATOM     93  O   UNL A   1      43.532  37.357  27.377  1.00  0.00    -0.237 OA
ATOM     94  O   UNL A   1      44.332  38.953  29.091  1.00  0.00    -0.237 OA
ATOM     95  O   UNL A   1      45.939  37.849  27.583  1.00  0.00    -0.744 OA
ENDBRANCH  88  92
ENDBRANCH  62  85
ENDBRANCH  36  37
ENDBRANCH  29  31
ENDBRANCH  28  29
ENDBRANCH  27  28
ENDBRANCH   1  27
TORSDOF 20
ENDMDL
MODEL 2
REMARK VINA RESULT:     -11.3      4.735      7.532
REMARK SMILES C[NH+](C)[C@H]1CCN(C(=O)C(=O)c2ccccc2)C[C@H]1CCC(=O)OCCOC(=O)c1ccc(-c2c3nc(c(-c4cc(S(=O)(=O)[O-])ccc4F)c4ccc([nH]4)c(-c4cc(S(=O)(=O)[O-])ccc4F)c4nc(c(-c5cc(S(=O)(=O)[O-])ccc5F)c5ccc2[nH]5)C=C4)C=C3)cc1
REMARK SMILES IDX 25 1 24 2 22 3 23 4 21 5 20 6 19 7 4 8 5 9 6 10 18 11 7 12
REMARK SMILES IDX 2 13 1 14 3 15 8 17 9 18 10 19 11 20 12 21 13 22 17 23 14 24
REMARK SMILES IDX 16 25 15 26 26 27 27 28 28 29 29 30 30 31 31 32 92 33 32 34
REMARK SMILES IDX 91 35 33 36 34 37 35 38 85 39 36 40 90 41 84 42 86 43 37 44
REMARK SMILES IDX 89 45 83 46 82 47 38 49 70 50 50 51 69 52 51 53 54 54 68 55
REMARK SMILES IDX 87 56 52 57 53 58 67 60 88 61 55 62 39 63 40 64 48 65 41 66
REMARK SMILES IDX 47 67 49 68 46 69 42 70 43 71 44 72 45 73 71 74 72 75 80 76
REMARK SMILES IDX 73 77 79 78 81 79 78 80 74 81 75 82 76 83 77 84 56 85 57 86
REMARK SMILES IDX 65 87 58 88 64 89 66 90 63 91 59 92 60 93 61 94 62 95
REMARK H PARENT 2 16 86 48 54 59
REMARK Flexibility Score: inf
ROOT
ATOM      1  C   UNL A   1      32.636  29.024  25.165  1.00  0.00     0.274 C 
ENDROOT
BRANCH   1   2
ATOM      2  O   UNL A   1      31.936  27.765  25.186  1.00  0.00    -0.462 OA
BRANCH   2   3
ATOM      3  C   UNL A   1      31.918  27.079  26.357  1.00  0.00     0.305 C 
ATOM      4  O   UNL A   1      31.109  27.273  27.258  1.00  0.00    -0.252 OA
BRANCH   3   5
ATOM      5  C   UNL A   1      32.979  26.000  26.438  1.00  0.00     0.123 C 
BRANCH   5   6
ATOM      6  C   UNL A   1      33.040  24.978  25.300  1.00  0.00     0.023 C 
BRANCH   6   7
ATOM      7  C   UNL A   1      31.732  24.654  24.523  1.00  0.00     0.067 C 
ATOM      8  C   UNL A   1      31.793  24.830  22.971  1.00  0.00     0.190 C 
ATOM      9  C   UNL A   1      32.730  23.755  22.386  1.00  0.00     0.087 C 
ATOM     10  C   UNL A   1      32.270  22.357  22.776  1.00  0.00     0.126 C 
ATOM     11  C   UNL A   1      31.306  23.210  24.886  1.00  0.00     0.129 C 
ATOM     12  N   UNL A   1      32.121  22.197  24.212  1.00  0.00    -0.335 N 
BRANCH   8  13
ATOM     13  N   UNL A   1      32.132  26.224  22.606  1.00  0.00    -0.337 N 
ATOM     14  C   UNL A   1      30.978  26.997  22.149  1.00  0.00     0.332 C 
ATOM     15  C   UNL A   1      33.247  26.398  21.679  1.00  0.00     0.332 C 
ATOM     16  H   UNL A   1      32.458  26.597  23.498  1.00  0.00     0.347 HD
ENDBRANCH   8  13
BRANCH  12  17
ATOM     17  C   UNL A   1      32.549  20.987  24.780  1.00  0.00     0.294 C 
ATOM     18  O   UNL A   1      31.781  20.213  25.347  1.00  0.00    -0.265 OA
BRANCH  17  19
ATOM     19  C   UNL A   1      34.037  20.626  24.775  1.00  0.00     0.250 C 
ATOM     20  O   UNL A   1      34.370  19.477  24.494  1.00  0.00    -0.283 OA
BRANCH  19  21
ATOM     21  C   UNL A   1      35.064  21.696  24.961  1.00  0.00     0.028 A 
ATOM     22  C   UNL A   1      35.803  22.105  23.841  1.00  0.00     0.012 A 
ATOM     23  C   UNL A   1      35.289  22.325  26.193  1.00  0.00     0.012 A 
ATOM     24  C   UNL A   1      36.728  23.147  23.942  1.00  0.00     0.001 A 
ATOM     25  C   UNL A   1      36.216  23.369  26.289  1.00  0.00     0.001 A 
ATOM     26  C   UNL A   1      36.930  23.782  25.165  1.00  0.00     0.000 A 
ENDBRANCH  19  21
ENDBRANCH  17  19
ENDBRANCH  12  17
ENDBRANCH   6   7
ENDBRANCH   5   6
ENDBRANCH   3   5
ENDBRANCH   2   3
ENDBRANCH   1   2
BRANCH   1  27
ATOM     27  C   UNL A   1      31.855  30.073  25.957  1.00  0.00     0.275 C 
BRANCH  27  28
ATOM     28  O   UNL A   1      32.477  30.292  27.235  1.00  0.00    -0.458 OA
BRANCH  28  29
ATOM     29  C   UNL A   1      33.140  31.465  27.345  1.00  0.00     0.338 C 
ATOM     30  O   UNL A   1      32.677  32.593  27.229  1.00  0.00    -0.246 OA
BRANCH  29  31
ATOM     31  C   UNL A   1      34.501  31.202  27.822  1.00  0.00     0.060 A 
ATOM     32  C   UNL A   1      34.810  29.889  28.179  1.00  0.00     0.016 A 
ATOM     33  C   UNL A   1      35.432  32.224  27.997  1.00  0.00     0.016 A 
ATOM     34  C   UNL A   1      36.046  29.583  28.733  1.00  0.00     0.010 A 
ATOM     35  C   UNL A   1      36.678  31.916  28.554  1.00  0.00     0.010 A 
ATOM     36  C   UNL A   1      36.983  30.598  28.944  1.00  0.00    -0.014 A 
BRANCH  36  37
ATOM     37  C   UNL A   1      38.231  30.288  29.683  1.00  0.00     0.031 A 
ATOM     38  C   UNL A   1      39.242  29.371  29.053  1.00  0.00     0.074 A 
ATOM     39  C   UNL A   1      38.476  30.860  30.877  1.00  0.00     0.049 A 
ATOM     40  N   UNL A   1      40.338  28.870  29.558  1.00  0.00    -0.248 NA
ATOM     41  C   UNL A   1      38.973  28.962  27.666  1.00  0.00     0.031 C 
ATOM     42  C   UNL A   1      37.598  31.823  31.546  1.00  0.00     0.029 A 
ATOM     43  N   UNL A   1      39.534  30.719  31.736  1.00  0.00    -0.354 N 
ATOM     44  C   UNL A   1      40.872  28.053  28.567  1.00  0.00     0.074 A 
ATOM     45  C   UNL A   1      39.970  28.120  27.436  1.00  0.00     0.031 C 
ATOM     46  C   UNL A   1      38.157  32.186  32.712  1.00  0.00     0.029 A 
ATOM     47  C   UNL A   1      39.399  31.440  32.899  1.00  0.00     0.049 A 
ATOM     48  H   UNL A   1      40.317  30.155  31.539  1.00  0.00     0.167 HD
ATOM     49  C   UNL A   1      42.009  27.313  28.603  1.00  0.00     0.034 A 
ATOM     50  C   UNL A   1      40.170  31.466  34.004  1.00  0.00     0.034 A 
ATOM     51  C   UNL A   1      42.899  27.277  29.739  1.00  0.00     0.049 A 
ATOM     52  C   UNL A   1      41.411  30.608  34.036  1.00  0.00     0.074 A 
ATOM     53  C   UNL A   1      44.064  26.550  29.904  1.00  0.00     0.029 A 
ATOM     54  N   UNL A   1      42.722  28.010  30.908  1.00  0.00    -0.354 N 
ATOM     55  N   UNL A   1      41.874  29.789  33.119  1.00  0.00    -0.248 NA
ATOM     56  C   UNL A   1      42.231  30.679  35.251  1.00  0.00     0.031 C 
ATOM     57  C   UNL A   1      44.564  26.803  31.188  1.00  0.00     0.029 A 
ATOM     58  C   UNL A   1      43.748  27.741  31.801  1.00  0.00     0.049 A 
ATOM     59  H   UNL A   1      41.976  28.629  31.078  1.00  0.00     0.167 HD
ATOM     60  C   UNL A   1      43.053  29.265  33.640  1.00  0.00     0.074 A 
ATOM     61  C   UNL A   1      43.238  29.877  34.940  1.00  0.00     0.031 C 
ATOM     62  C   UNL A   1      43.907  28.357  33.098  1.00  0.00     0.034 A 
BRANCH  49  63
ATOM     63  C   UNL A   1      42.298  26.434  27.411  1.00  0.00     0.023 A 
ATOM     64  C   UNL A   1      41.868  25.096  27.345  1.00  0.00     0.031 A 
ATOM     65  C   UNL A   1      43.066  26.932  26.343  1.00  0.00     0.131 A 
ATOM     66  C   UNL A   1      42.267  24.286  26.270  1.00  0.00     0.055 A 
ATOM     67  C   UNL A   1      43.395  26.142  25.240  1.00  0.00     0.041 A 
ATOM     68  F   UNL A   1      43.526  28.193  26.362  1.00  0.00    -0.206 F 
ATOM     69  C   UNL A   1      43.008  24.806  25.206  1.00  0.00     0.022 A 
BRANCH  66  70
ATOM     70  S   UNL A   1      41.922  22.506  26.345  1.00  0.00     0.124 S 
ATOM     71  O   UNL A   1      42.485  22.148  27.644  1.00  0.00    -0.237 OA
ATOM     72  O   UNL A   1      40.468  22.459  26.246  1.00  0.00    -0.237 OA
ATOM     73  O   UNL A   1      42.642  21.966  25.192  1.00  0.00    -0.744 OA
ENDBRANCH  66  70
ENDBRANCH  49  63
BRANCH  50  74
ATOM     74  C   UNL A   1      39.771  32.280  35.187  1.00  0.00     0.023 A 
ATOM     75  C   UNL A   1      38.978  31.740  36.212  1.00  0.00     0.031 A 
ATOM     76  C   UNL A   1      40.143  33.634  35.286  1.00  0.00     0.131 A 
ATOM     77  C   UNL A   1      38.548  32.560  37.268  1.00  0.00     0.055 A 
ATOM     78  C   UNL A   1      39.757  34.430  36.365  1.00  0.00     0.041 A 
ATOM     79  F   UNL A   1      40.900  34.201  34.333  1.00  0.00    -0.206 F 
ATOM     80  C   UNL A   1      38.944  33.896  37.358  1.00  0.00     0.022 A 
BRANCH  77  81
ATOM     81  S   UNL A   1      37.393  31.873  38.488  1.00  0.00     0.124 S 
ATOM     82  O   UNL A   1      36.269  32.796  38.385  1.00  0.00    -0.237 OA
ATOM     83  O   UNL A   1      37.168  30.529  37.968  1.00  0.00    -0.237 OA
ATOM     84  O   UNL A   1      38.142  31.938  39.740  1.00  0.00    -0.744 OA
ENDBRANCH  77  81
ENDBRANCH  50  74
BRANCH  62  85
ATOM     85  C   UNL A   1      45.136  28.022  33.904  1.00  0.00     0.023 A 
ATOM     86  C   UNL A   1      45.145  26.966  34.832  1.00  0.00     0.031 A 
ATOM     87  C   UNL A   1      46.302  28.795  33.767  1.00  0.00     0.131 A 
ATOM     88  C   UNL A   1      46.275  26.754  35.636  1.00  0.00     0.055 A 
ATOM     89  C   UNL A   1      47.443  28.542  34.527  1.00  0.00     0.041 A 
ATOM     90  F   UNL A   1      46.346  29.815  32.895  1.00  0.00    -0.206 F 
ATOM     91  C   UNL A   1      47.429  27.527  35.480  1.00  0.00     0.022 A 
BRANCH  88  92
ATOM     92  S   UNL A   1      46.179  25.524  36.967  1.00  0.00     0.124 S 
ATOM     93  O   UNL A   1      46.168  26.367  38.159  1.00  0.00    -0.237 OA
ATOM     94  O   UNL A   1      44.929  24.834  36.662  1.00  0.00    -0.237 OA
ATOM     95  O   UNL A   1      47.389  24.726  36.783  1.00  0.00    -0.744 OA
ENDBRANCH  88  92
ENDBRANCH  62  85
ENDBRANCH  36  37
ENDBRANCH  29  31
ENDBRANCH  28  29
ENDBRANCH  27  28
ENDBRANCH   1  27
TORSDOF 20
ENDMDL
MODEL 3
REMARK VINA RESULT:     -11.3      4.844     10.188
REMARK SMILES C[NH+](C)[C@H]1CCN(C(=O)C(=O)c2ccccc2)C[C@H]1CCC(=O)OCCOC(=O)c1ccc(-c2c3nc(c(-c4cc(S(=O)(=O)[O-])ccc4F)c4ccc([nH]4)c(-c4cc(S(=O)(=O)[O-])ccc4F)c4nc(c(-c5cc(S(=O)(=O)[O-])ccc5F)c5ccc2[nH]5)C=C4)C=C3)cc1
REMARK SMILES IDX 25 1 24 2 22 3 23 4 21 5 20 6 19 7 4 8 5 9 6 10 18 11 7 12
REMARK SMILES IDX 2 13 1 14 3 15 8 17 9 18 10 19 11 20 12 21 13 22 17 23 14 24
REMARK SMILES IDX 16 25 15 26 26 27 27 28 28 29 29 30 30 31 31 32 92 33 32 34
REMARK SMILES IDX 91 35 33 36 34 37 35 38 85 39 36 40 90 41 84 42 86 43 37 44
REMARK SMILES IDX 89 45 83 46 82 47 38 49 70 50 50 51 69 52 51 53 54 54 68 55
REMARK SMILES IDX 87 56 52 57 53 58 67 60 88 61 55 62 39 63 40 64 48 65 41 66
REMARK SMILES IDX 47 67 49 68 46 69 42 70 43 71 44 72 45 73 71 74 72 75 80 76
REMARK SMILES IDX 73 77 79 78 81 79 78 80 74 81 75 82 76 83 77 84 56 85 57 86
REMARK SMILES IDX 65 87 58 88 64 89 66 90 63 91 59 92 60 93 61 94 62 95
REMARK H PARENT 2 16 86 48 54 59
REMARK Flexibility Score: inf
ROOT
ATOM      1  C   UNL A   1      32.247  29.706  25.216  1.00  0.00     0.274 C 
ENDROOT
BRANCH   1   2
ATOM      2  O   UNL A   1      31.532  28.497  25.536  1.00  0.00    -0.462 OA
BRANCH   2   3
ATOM      3  C   UNL A   1      32.037  27.714  26.523  1.00  0.00     0.305 C 
ATOM      4  O   UNL A   1      31.395  27.324  27.492  1.00  0.00    -0.252 OA
BRANCH   3   5
ATOM      5  C   UNL A   1      33.484  27.320  26.297  1.00  0.00     0.123 C 
BRANCH   5   6
ATOM      6  C   UNL A   1      33.754  25.985  25.600  1.00  0.00     0.023 C 
BRANCH   6   7
ATOM      7  C   UNL A   1      32.565  25.250  24.917  1.00  0.00     0.067 C 
ATOM      8  C   UNL A   1      32.423  25.456  23.375  1.00  0.00     0.190 C 
ATOM      9  C   UNL A   1      33.609  24.767  22.670  1.00  0.00     0.087 C 
ATOM     10  C   UNL A   1      33.680  23.290  23.036  1.00  0.00     0.126 C 
ATOM     11  C   UNL A   1      32.681  23.742  25.252  1.00  0.00     0.129 C 
ATOM     12  N   UNL A   1      33.723  23.071  24.472  1.00  0.00    -0.335 N 
BRANCH   8  13
ATOM     13  N   UNL A   1      32.244  26.888  23.042  1.00  0.00    -0.337 N 
ATOM     14  C   UNL A   1      30.977  27.167  22.367  1.00  0.00     0.332 C 
ATOM     15  C   UNL A   1      33.342  27.530  22.326  1.00  0.00     0.332 C 
ATOM     16  H   UNL A   1      32.234  27.315  23.969  1.00  0.00     0.347 HD
ENDBRANCH   8  13
BRANCH  12  17
ATOM     17  C   UNL A   1      34.580  22.069  24.952  1.00  0.00     0.294 C 
ATOM     18  O   UNL A   1      35.804  22.155  24.878  1.00  0.00    -0.265 OA
BRANCH  17  19
ATOM     19  C   UNL A   1      33.997  20.776  25.526  1.00  0.00     0.250 C 
ATOM     20  O   UNL A   1      33.643  20.753  26.702  1.00  0.00    -0.283 OA
BRANCH  19  21
ATOM     21  C   UNL A   1      33.728  19.615  24.624  1.00  0.00     0.028 A 
ATOM     22  C   UNL A   1      34.639  18.548  24.628  1.00  0.00     0.012 A 
ATOM     23  C   UNL A   1      32.591  19.536  23.808  1.00  0.00     0.012 A 
ATOM     24  C   UNL A   1      34.402  17.408  23.856  1.00  0.00     0.001 A 
ATOM     25  C   UNL A   1      32.358  18.392  23.036  1.00  0.00     0.001 A 
ATOM     26  C   UNL A   1      33.259  17.329  23.064  1.00  0.00     0.000 A 
ENDBRANCH  19  21
ENDBRANCH  17  19
ENDBRANCH  12  17
ENDBRANCH   6   7
ENDBRANCH   5   6
ENDBRANCH   3   5
ENDBRANCH   2   3
ENDBRANCH   1   2
BRANCH   1  27
ATOM     27  C   UNL A   1      31.747  30.860  26.086  1.00  0.00     0.275 C 
BRANCH  27  28
ATOM     28  O   UNL A   1      32.491  30.910  27.316  1.00  0.00    -0.458 OA
BRANCH  28  29
ATOM     29  C   UNL A   1      33.333  31.963  27.421  1.00  0.00     0.338 C 
ATOM     30  O   UNL A   1      33.063  33.148  27.270  1.00  0.00    -0.246 OA
BRANCH  29  31
ATOM     31  C   UNL A   1      34.621  31.494  27.941  1.00  0.00     0.060 A 
ATOM     32  C   UNL A   1      34.728  30.138  28.255  1.00  0.00     0.016 A 
ATOM     33  C   UNL A   1      35.675  32.367  28.198  1.00  0.00     0.016 A 
ATOM     34  C   UNL A   1      35.882  29.641  28.846  1.00  0.00     0.010 A 
ATOM     35  C   UNL A   1      36.840  31.867  28.792  1.00  0.00     0.010 A 
ATOM     36  C   UNL A   1      36.940  30.506  29.137  1.00  0.00    -0.014 A 
BRANCH  36  37
ATOM     37  C   UNL A   1      38.097  29.997  29.913  1.00  0.00     0.031 A 
ATOM     38  C   UNL A   1      38.292  30.472  31.326  1.00  0.00     0.074 A 
ATOM     39  C   UNL A   1      38.928  29.084  29.377  1.00  0.00     0.049 A 
ATOM     40  N   UNL A   1      39.287  30.256  32.146  1.00  0.00    -0.248 NA
ATOM     41  C   UNL A   1      37.219  31.309  31.884  1.00  0.00     0.031 C 
ATOM     42  C   UNL A   1      38.789  28.498  28.042  1.00  0.00     0.029 A 
ATOM     43  N   UNL A   1      40.051  28.487  29.889  1.00  0.00    -0.354 N 
ATOM     44  C   UNL A   1      38.982  30.963  33.304  1.00  0.00     0.074 A 
ATOM     45  C   UNL A   1      37.713  31.622  33.073  1.00  0.00     0.031 C 
ATOM     46  C   UNL A   1      39.789  27.624  27.843  1.00  0.00     0.029 A 
ATOM     47  C   UNL A   1      40.670  27.632  29.007  1.00  0.00     0.049 A 
ATOM     48  H   UNL A   1      40.383  28.655  30.800  1.00  0.00     0.167 HD
ATOM     49  C   UNL A   1      39.700  31.054  34.452  1.00  0.00     0.034 A 
ATOM     50  C   UNL A   1      41.834  26.961  29.115  1.00  0.00     0.034 A 
ATOM     51  C   UNL A   1      40.956  30.373  34.661  1.00  0.00     0.049 A 
ATOM     52  C   UNL A   1      42.634  27.106  30.386  1.00  0.00     0.074 A 
ATOM     53  C   UNL A   1      41.785  30.406  35.768  1.00  0.00     0.029 A 
ATOM     54  N   UNL A   1      41.561  29.526  33.739  1.00  0.00    -0.354 N 
ATOM     55  N   UNL A   1      42.369  27.827  31.451  1.00  0.00    -0.248 NA
ATOM     56  C   UNL A   1      43.886  26.346  30.467  1.00  0.00     0.031 C 
ATOM     57  C   UNL A   1      42.913  29.622  35.497  1.00  0.00     0.029 A 
ATOM     58  C   UNL A   1      42.757  29.043  34.247  1.00  0.00     0.049 A 
ATOM     59  H   UNL A   1      41.194  29.301  32.854  1.00  0.00     0.167 HD
ATOM     60  C   UNL A   1      43.414  27.588  32.339  1.00  0.00     0.074 A 
ATOM     61  C   UNL A   1      44.298  26.641  31.691  1.00  0.00     0.031 C 
ATOM     62  C   UNL A   1      43.628  28.105  33.577  1.00  0.00     0.034 A 
BRANCH  49  63
ATOM     63  C   UNL A   1      39.175  31.979  35.523  1.00  0.00     0.023 A 
ATOM     64  C   UNL A   1      39.612  33.312  35.641  1.00  0.00     0.031 A 
ATOM     65  C   UNL A   1      38.258  31.501  36.475  1.00  0.00     0.131 A 
ATOM     66  C   UNL A   1      39.185  34.093  36.727  1.00  0.00     0.055 A 
ATOM     67  C   UNL A   1      37.779  32.308  37.508  1.00  0.00     0.041 A 
ATOM     68  F   UNL A   1      37.825  30.231  36.428  1.00  0.00    -0.206 F 
ATOM     69  C   UNL A   1      38.254  33.608  37.647  1.00  0.00     0.022 A 
BRANCH  66  70
ATOM     70  S   UNL A   1      39.967  35.708  36.998  1.00  0.00     0.124 S 
ATOM     71  O   UNL A   1      39.278  36.175  38.198  1.00  0.00    -0.237 OA
ATOM     72  O   UNL A   1      41.372  35.357  37.166  1.00  0.00    -0.237 OA
ATOM     73  O   UNL A   1      39.653  36.452  35.780  1.00  0.00    -0.744 OA
ENDBRANCH  66  70
ENDBRANCH  49  63
BRANCH  50  74
ATOM     74  C   UNL A   1      42.345  26.144  27.977  1.00  0.00     0.023 A 
ATOM     75  C   UNL A   1      41.922  24.820  27.781  1.00  0.00     0.031 A 
ATOM     76  C   UNL A   1      43.307  26.666  27.092  1.00  0.00     0.131 A 
ATOM     77  C   UNL A   1      42.489  24.050  26.752  1.00  0.00     0.055 A 
ATOM     78  C   UNL A   1      43.827  25.914  26.038  1.00  0.00     0.041 A 
ATOM     79  F   UNL A   1      43.747  27.927  27.235  1.00  0.00    -0.206 F 
ATOM     80  C   UNL A   1      43.428  24.593  25.872  1.00  0.00     0.022 A 
BRANCH  77  81
ATOM     81  S   UNL A   1      42.040  22.297  26.628  1.00  0.00     0.124 S 
ATOM     82  O   UNL A   1      42.643  21.749  27.838  1.00  0.00    -0.237 OA
ATOM     83  O   UNL A   1      40.583  22.358  26.610  1.00  0.00    -0.237 OA
ATOM     84  O   UNL A   1      42.660  21.874  25.374  1.00  0.00    -0.744 OA
ENDBRANCH  77  81
ENDBRANCH  50  74
BRANCH  62  85
ATOM     85  C   UNL A   1      44.846  27.608  34.314  1.00  0.00     0.023 A 
ATOM     86  C   UNL A   1      44.776  26.530  35.214  1.00  0.00     0.031 A 
ATOM     87  C   UNL A   1      46.086  28.248  34.141  1.00  0.00     0.131 A 
ATOM     88  C   UNL A   1      45.910  26.166  35.956  1.00  0.00     0.055 A 
ATOM     89  C   UNL A   1      47.224  27.844  34.838  1.00  0.00     0.041 A 
ATOM     90  F   UNL A   1      46.207  29.283  33.294  1.00  0.00    -0.206 F 
ATOM     91  C   UNL A   1      47.137  26.808  35.764  1.00  0.00     0.022 A 
BRANCH  88  92
ATOM     92  S   UNL A   1      45.734  24.915  37.258  1.00  0.00     0.124 S 
ATOM     93  O   UNL A   1      46.983  25.067  37.997  1.00  0.00    -0.237 OA
ATOM     94  O   UNL A   1      44.526  25.354  37.950  1.00  0.00    -0.237 OA
ATOM     95  O   UNL A   1      45.602  23.663  36.514  1.00  0.00    -0.744 OA
ENDBRANCH  88  92
ENDBRANCH  62  85
ENDBRANCH  36  37
ENDBRANCH  29  31
ENDBRANCH  28  29
ENDBRANCH  27  28
ENDBRANCH   1  27
TORSDOF 20
ENDMDL
