MODEL 1
REMARK VINA RESULT:     -11.5      0.000      0.000
REMARK SMILES COc1ccc(C(=O)OCCOC(=O)c2ccc(-c3c4nc(c(-c5cc(S(=O)(=O)[O-])ccc5F)c5ccc([nH]5)c(-c5cc(S(=O)(=O)[O-])ccc5F)c5nc(c(-c6cc(S(=O)(=O)[O-])ccc6F)c6ccc3[nH]6)C=C5)C=C4)cc2)cc1NCc1cc(C#N)cs1
REMARK SMILES IDX 10 1 9 2 7 3 8 4 6 5 3 6 4 7 79 8 5 9 78 10 2 11 1 12 80 13
REMARK SMILES IDX 81 15 82 16 83 17 88 18 84 19 87 20 85 21 86 22 11 23 12 24
REMARK SMILES IDX 13 25 14 26 15 27 16 28 77 29 17 30 76 31 18 32 19 33 20 34
REMARK SMILES IDX 70 35 21 36 75 37 69 38 71 39 22 40 74 41 68 42 67 43 23 45
REMARK SMILES IDX 55 46 35 47 54 48 36 49 39 50 53 51 72 52 37 53 38 54 52 56
REMARK SMILES IDX 73 57 40 58 24 59 25 60 33 61 26 62 32 63 34 64 31 65 27 66
REMARK SMILES IDX 28 67 29 68 30 69 56 70 57 71 65 72 58 73 64 74 66 75 63 76
REMARK SMILES IDX 59 77 60 78 61 79 62 80 41 81 42 82 50 83 43 84 49 85 51 86
REMARK SMILES IDX 48 87 44 88 45 89 46 90 47 91
REMARK H PARENT 80 14 71 44 39 55
REMARK Flexibility Score: inf
ROOT
ATOM      1  C   UNL A   1      35.250  20.856  24.965  1.00  0.00     0.275 C 
ENDROOT
BRANCH   1   2
ATOM      2  O   UNL A   1      34.001  20.738  25.677  1.00  0.00    -0.458 OA
BRANCH   2   3
ATOM      3  C   UNL A   1      32.873  21.079  24.998  1.00  0.00     0.338 C 
ATOM      4  O   UNL A   1      31.794  20.515  25.066  1.00  0.00    -0.246 OA
BRANCH   3   5
ATOM      5  C   UNL A   1      33.109  22.294  24.173  1.00  0.00     0.062 A 
ATOM      6  C   UNL A   1      33.540  24.575  22.640  1.00  0.00     0.142 A 
ATOM      7  C   UNL A   1      33.220  23.376  22.008  1.00  0.00     0.049 A 
ATOM      8  C   UNL A   1      33.638  24.670  24.043  1.00  0.00     0.078 A 
ATOM      9  C   UNL A   1      33.045  22.230  22.776  1.00  0.00     0.019 A 
ATOM     10  C   UNL A   1      33.421  23.507  24.793  1.00  0.00     0.045 A 
BRANCH   6  11
ATOM     11  O   UNL A   1      33.710  25.681  21.841  1.00  0.00    -0.495 OA
ATOM     12  C   UNL A   1      32.606  25.848  20.950  1.00  0.00     0.278 C 
ENDBRANCH   6  11
BRANCH   8  13
ATOM     13  N   UNL A   1      33.921  25.889  24.627  1.00  0.00    -0.377 N 
ATOM     14  H   UNL A   1      34.844  26.220  24.542  1.00  0.00     0.161 HD
BRANCH  13  15
ATOM     15  C   UNL A   1      32.994  26.726  25.353  1.00  0.00     0.160 C 
BRANCH  15  16
ATOM     16  C   UNL A   1      31.788  27.136  24.554  1.00  0.00     0.025 A 
ATOM     17  C   UNL A   1      31.656  28.170  23.645  1.00  0.00     0.036 A 
ATOM     18  S   UNL A   1      30.321  26.261  24.726  1.00  0.00    -0.146 S 
ATOM     19  C   UNL A   1      30.336  28.254  23.110  1.00  0.00     0.063 A 
ATOM     20  C   UNL A   1      29.515  27.264  23.603  1.00  0.00     0.084 A 
BRANCH  19  21
ATOM     21  C   UNL A   1      29.878  29.244  22.178  1.00  0.00     0.100 C 
ATOM     22  N   UNL A   1      29.523  30.064  21.441  1.00  0.00    -0.192 NA
ENDBRANCH  19  21
ENDBRANCH  15  16
ENDBRANCH  13  15
ENDBRANCH   8  13
ENDBRANCH   3   5
ENDBRANCH   2   3
ENDBRANCH   1   2
BRANCH   1  23
ATOM     23  C   UNL A   1      36.389  21.330  25.873  1.00  0.00     0.275 C 
BRANCH  23  24
ATOM     24  O   UNL A   1      37.582  21.598  25.117  1.00  0.00    -0.458 OA
BRANCH  24  25
ATOM     25  C   UNL A   1      38.725  21.246  25.750  1.00  0.00     0.338 C 
ATOM     26  O   UNL A   1      39.311  20.180  25.671  1.00  0.00    -0.246 OA
BRANCH  25  27
ATOM     27  C   UNL A   1      39.282  22.390  26.480  1.00  0.00     0.060 A 
ATOM     28  C   UNL A   1      38.834  23.647  26.107  1.00  0.00     0.016 A 
ATOM     29  C   UNL A   1      40.372  22.262  27.332  1.00  0.00     0.016 A 
ATOM     30  C   UNL A   1      39.562  24.780  26.433  1.00  0.00     0.010 A 
ATOM     31  C   UNL A   1      41.013  23.421  27.794  1.00  0.00     0.010 A 
ATOM     32  C   UNL A   1      40.644  24.693  27.313  1.00  0.00    -0.014 A 
BRANCH  32  33
ATOM     33  C   UNL A   1      41.376  25.931  27.709  1.00  0.00     0.031 A 
ATOM     34  C   UNL A   1      40.698  26.979  28.553  1.00  0.00     0.074 A 
ATOM     35  C   UNL A   1      42.660  26.108  27.327  1.00  0.00     0.049 A 
ATOM     36  N   UNL A   1      41.095  28.192  28.845  1.00  0.00    -0.248 NA
ATOM     37  C   UNL A   1      39.391  26.625  29.128  1.00  0.00     0.031 C 
ATOM     38  C   UNL A   1      43.458  25.144  26.563  1.00  0.00     0.029 A 
ATOM     39  N   UNL A   1      43.526  27.155  27.531  1.00  0.00    -0.354 N 
ATOM     40  C   UNL A   1      40.069  28.763  29.591  1.00  0.00     0.074 A 
ATOM     41  C   UNL A   1      39.019  27.769  29.683  1.00  0.00     0.031 C 
ATOM     42  C   UNL A   1      44.700  25.620  26.406  1.00  0.00     0.029 A 
ATOM     43  C   UNL A   1      44.755  26.974  26.936  1.00  0.00     0.049 A 
ATOM     44  H   UNL A   1      43.291  27.955  28.052  1.00  0.00     0.167 HD
ATOM     45  C   UNL A   1      40.013  30.000  30.146  1.00  0.00     0.034 A 
ATOM     46  C   UNL A   1      45.790  27.819  26.768  1.00  0.00     0.034 A 
ATOM     47  C   UNL A   1      41.087  30.962  30.058  1.00  0.00     0.049 A 
ATOM     48  C   UNL A   1      45.665  29.220  27.305  1.00  0.00     0.074 A 
ATOM     49  C   UNL A   1      41.144  32.238  30.591  1.00  0.00     0.029 A 
ATOM     50  N   UNL A   1      42.290  30.759  29.392  1.00  0.00    -0.354 N 
ATOM     51  N   UNL A   1      44.669  29.762  27.966  1.00  0.00    -0.248 NA
ATOM     52  C   UNL A   1      46.798  30.121  27.069  1.00  0.00     0.031 C 
ATOM     53  C   UNL A   1      42.335  32.837  30.170  1.00  0.00     0.029 A 
ATOM     54  C   UNL A   1      43.074  31.901  29.466  1.00  0.00     0.049 A 
ATOM     55  H   UNL A   1      42.547  29.926  28.934  1.00  0.00     0.167 HD
ATOM     56  C   UNL A   1      45.072  31.062  28.254  1.00  0.00     0.074 A 
ATOM     57  C   UNL A   1      46.407  31.211  27.709  1.00  0.00     0.031 C 
ATOM     58  C   UNL A   1      44.402  32.041  28.912  1.00  0.00     0.034 A 
BRANCH  45  59
ATOM     59  C   UNL A   1      38.730  30.406  30.833  1.00  0.00     0.023 A 
ATOM     60  C   UNL A   1      37.663  31.003  30.140  1.00  0.00     0.031 A 
ATOM     61  C   UNL A   1      38.582  30.212  32.220  1.00  0.00     0.131 A 
ATOM     62  C   UNL A   1      36.533  31.451  30.844  1.00  0.00     0.055 A 
ATOM     63  C   UNL A   1      37.417  30.574  32.898  1.00  0.00     0.041 A 
ATOM     64  F   UNL A   1      39.575  29.671  32.944  1.00  0.00    -0.206 F 
ATOM     65  C   UNL A   1      36.390  31.213  32.213  1.00  0.00     0.022 A 
BRANCH  62  66
ATOM     66  S   UNL A   1      35.327  32.492  29.975  1.00  0.00     0.124 S 
ATOM     67  O   UNL A   1      34.929  31.621  28.872  1.00  0.00    -0.237 OA
ATOM     68  O   UNL A   1      34.318  32.728  31.000  1.00  0.00    -0.237 OA
ATOM     69  O   UNL A   1      36.107  33.664  29.583  1.00  0.00    -0.744 OA
ENDBRANCH  62  66
ENDBRANCH  45  59
BRANCH  46  70
ATOM     70  C   UNL A   1      46.997  27.395  25.998  1.00  0.00     0.023 A 
ATOM     71  C   UNL A   1      47.179  27.791  24.664  1.00  0.00     0.031 A 
ATOM     72  C   UNL A   1      47.968  26.551  26.571  1.00  0.00     0.131 A 
ATOM     73  C   UNL A   1      48.273  27.303  23.934  1.00  0.00     0.055 A 
ATOM     74  C   UNL A   1      49.094  26.131  25.863  1.00  0.00     0.041 A 
ATOM     75  F   UNL A   1      47.842  26.132  27.840  1.00  0.00    -0.206 F 
ATOM     76  C   UNL A   1      49.244  26.494  24.530  1.00  0.00     0.022 A 
BRANCH  73  77
ATOM     77  S   UNL A   1      48.346  27.646  22.155  1.00  0.00     0.124 S 
ATOM     78  O   UNL A   1      47.056  28.285  21.926  1.00  0.00    -0.237 OA
ATOM     79  O   UNL A   1      49.518  28.510  22.060  1.00  0.00    -0.237 OA
ATOM     80  O   UNL A   1      48.500  26.320  21.560  1.00  0.00    -0.744 OA
ENDBRANCH  73  77
ENDBRANCH  46  70
BRANCH  58  81
ATOM     81  C   UNL A   1      45.133  33.343  29.134  1.00  0.00     0.023 A 
ATOM     82  C   UNL A   1      45.120  34.377  28.183  1.00  0.00     0.031 A 
ATOM     83  C   UNL A   1      45.871  33.541  30.316  1.00  0.00     0.131 A 
ATOM     84  C   UNL A   1      45.882  35.534  28.400  1.00  0.00     0.055 A 
ATOM     85  C   UNL A   1      46.561  34.727  30.561  1.00  0.00     0.041 A 
ATOM     86  F   UNL A   1      45.929  32.584  31.256  1.00  0.00    -0.206 F 
ATOM     87  C   UNL A   1      46.583  35.726  29.593  1.00  0.00     0.022 A 
BRANCH  84  88
ATOM     88  S   UNL A   1      46.047  36.732  27.049  1.00  0.00     0.124 S 
ATOM     89  O   UNL A   1      46.206  35.860  25.890  1.00  0.00    -0.237 OA
ATOM     90  O   UNL A   1      44.787  37.465  27.127  1.00  0.00    -0.237 OA
ATOM     91  O   UNL A   1      47.235  37.501  27.415  1.00  0.00    -0.744 OA
ENDBRANCH  84  88
ENDBRANCH  58  81
ENDBRANCH  32  33
ENDBRANCH  25  27
ENDBRANCH  24  25
ENDBRANCH  23  24
ENDBRANCH   1  23
TORSDOF 19
ENDMDL
MODEL 2
REMARK VINA RESULT:     -11.4      1.489      2.022
REMARK SMILES COc1ccc(C(=O)OCCOC(=O)c2ccc(-c3c4nc(c(-c5cc(S(=O)(=O)[O-])ccc5F)c5ccc([nH]5)c(-c5cc(S(=O)(=O)[O-])ccc5F)c5nc(c(-c6cc(S(=O)(=O)[O-])ccc6F)c6ccc3[nH]6)C=C5)C=C4)cc2)cc1NCc1cc(C#N)cs1
REMARK SMILES IDX 10 1 9 2 7 3 8 4 6 5 3 6 4 7 79 8 5 9 78 10 2 11 1 12 80 13
REMARK SMILES IDX 81 15 82 16 83 17 88 18 84 19 87 20 85 21 86 22 11 23 12 24
REMARK SMILES IDX 13 25 14 26 15 27 16 28 77 29 17 30 76 31 18 32 19 33 20 34
REMARK SMILES IDX 70 35 21 36 75 37 69 38 71 39 22 40 74 41 68 42 67 43 23 45
REMARK SMILES IDX 55 46 35 47 54 48 36 49 39 50 53 51 72 52 37 53 38 54 52 56
REMARK SMILES IDX 73 57 40 58 24 59 25 60 33 61 26 62 32 63 34 64 31 65 27 66
REMARK SMILES IDX 28 67 29 68 30 69 56 70 57 71 65 72 58 73 64 74 66 75 63 76
REMARK SMILES IDX 59 77 60 78 61 79 62 80 41 81 42 82 50 83 43 84 49 85 51 86
REMARK SMILES IDX 48 87 44 88 45 89 46 90 47 91
REMARK H PARENT 80 14 71 44 39 55
REMARK Flexibility Score: inf
ROOT
ATOM      1  C   UNL A   1      35.970  20.568  25.096  1.00  0.00     0.275 C 
ENDROOT
BRANCH   1   2
ATOM      2  O   UNL A   1      35.419  21.465  26.084  1.00  0.00    -0.458 OA
BRANCH   2   3
ATOM      3  C   UNL A   1      34.077  21.679  26.037  1.00  0.00     0.338 C 
ATOM      4  O   UNL A   1      33.211  20.821  26.049  1.00  0.00    -0.246 OA
BRANCH   3   5
ATOM      5  C   UNL A   1      33.782  23.137  26.019  1.00  0.00     0.062 A 
ATOM      6  C   UNL A   1      33.217  25.860  25.976  1.00  0.00     0.142 A 
ATOM      7  C   UNL A   1      34.519  25.428  25.738  1.00  0.00     0.049 A 
ATOM      8  C   UNL A   1      32.168  24.951  26.225  1.00  0.00     0.078 A 
ATOM      9  C   UNL A   1      34.804  24.067  25.800  1.00  0.00     0.019 A 
ATOM     10  C   UNL A   1      32.478  23.586  26.246  1.00  0.00     0.045 A 
BRANCH   6  11
ATOM     11  O   UNL A   1      32.982  27.213  25.910  1.00  0.00    -0.495 OA
ATOM     12  C   UNL A   1      34.047  27.951  26.512  1.00  0.00     0.278 C 
ENDBRANCH   6  11
BRANCH   8  13
ATOM     13  N   UNL A   1      30.885  25.425  26.418  1.00  0.00    -0.377 N 
ATOM     14  H   UNL A   1      30.630  25.654  27.341  1.00  0.00     0.161 HD
BRANCH  13  15
ATOM     15  C   UNL A   1      29.881  25.616  25.398  1.00  0.00     0.160 C 
BRANCH  15  16
ATOM     16  C   UNL A   1      30.428  26.111  24.088  1.00  0.00     0.025 A 
ATOM     17  C   UNL A   1      31.121  25.415  23.115  1.00  0.00     0.036 A 
ATOM     18  S   UNL A   1      30.213  27.757  23.648  1.00  0.00    -0.146 S 
ATOM     19  C   UNL A   1      31.496  26.246  22.018  1.00  0.00     0.063 A 
ATOM     20  C   UNL A   1      31.050  27.540  22.175  1.00  0.00     0.084 A 
BRANCH  19  21
ATOM     21  C   UNL A   1      32.257  25.826  20.877  1.00  0.00     0.100 C 
ATOM     22  N   UNL A   1      32.876  25.458  19.969  1.00  0.00    -0.192 NA
ENDBRANCH  19  21
ENDBRANCH  15  16
ENDBRANCH  13  15
ENDBRANCH   8  13
ENDBRANCH   3   5
ENDBRANCH   2   3
ENDBRANCH   1   2
BRANCH   1  23
ATOM     23  C   UNL A   1      37.381  20.982  24.665  1.00  0.00     0.275 C 
BRANCH  23  24
ATOM     24  O   UNL A   1      37.878  22.061  25.474  1.00  0.00    -0.458 OA
BRANCH  24  25
ATOM     25  C   UNL A   1      39.031  21.777  26.122  1.00  0.00     0.338 C 
ATOM     26  O   UNL A   1      39.686  20.752  26.043  1.00  0.00    -0.246 OA
BRANCH  25  27
ATOM     27  C   UNL A   1      39.502  22.947  26.871  1.00  0.00     0.060 A 
ATOM     28  C   UNL A   1      38.986  24.177  26.497  1.00  0.00     0.016 A 
ATOM     29  C   UNL A   1      40.581  22.880  27.744  1.00  0.00     0.016 A 
ATOM     30  C   UNL A   1      39.635  25.350  26.846  1.00  0.00     0.010 A 
ATOM     31  C   UNL A   1      41.139  24.071  28.227  1.00  0.00     0.010 A 
ATOM     32  C   UNL A   1      40.702  25.322  27.748  1.00  0.00    -0.014 A 
BRANCH  32  33
ATOM     33  C   UNL A   1      41.350  26.600  28.167  1.00  0.00     0.031 A 
ATOM     34  C   UNL A   1      40.560  27.641  28.917  1.00  0.00     0.074 A 
ATOM     35  C   UNL A   1      42.654  26.819  27.892  1.00  0.00     0.049 A 
ATOM     36  N   UNL A   1      40.884  28.877  29.205  1.00  0.00    -0.248 NA
ATOM     37  C   UNL A   1      39.223  27.250  29.388  1.00  0.00     0.031 C 
ATOM     38  C   UNL A   1      43.552  25.868  27.229  1.00  0.00     0.029 A 
ATOM     39  N   UNL A   1      43.458  27.905  28.137  1.00  0.00    -0.354 N 
ATOM     40  C   UNL A   1      39.775  29.425  29.842  1.00  0.00     0.074 A 
ATOM     41  C   UNL A   1      38.760  28.392  29.874  1.00  0.00     0.031 C 
ATOM     42  C   UNL A   1      44.784  26.390  27.165  1.00  0.00     0.029 A 
ATOM     43  C   UNL A   1      44.740  27.758  27.655  1.00  0.00     0.049 A 
ATOM     44  H   UNL A   1      43.148  28.709  28.611  1.00  0.00     0.167 HD
ATOM     45  C   UNL A   1      39.623  30.673  30.352  1.00  0.00     0.034 A 
ATOM     46  C   UNL A   1      45.753  28.640  27.552  1.00  0.00     0.034 A 
ATOM     47  C   UNL A   1      40.663  31.676  30.327  1.00  0.00     0.049 A 
ATOM     48  C   UNL A   1      45.527  30.049  28.033  1.00  0.00     0.074 A 
ATOM     49  C   UNL A   1      40.624  32.968  30.824  1.00  0.00     0.029 A 
ATOM     50  N   UNL A   1      41.926  31.505  29.774  1.00  0.00    -0.354 N 
ATOM     51  N   UNL A   1      44.457  30.568  28.588  1.00  0.00    -0.248 NA
ATOM     52  C   UNL A   1      46.641  30.989  27.868  1.00  0.00     0.031 C 
ATOM     53  C   UNL A   1      41.823  33.603  30.489  1.00  0.00     0.029 A 
ATOM     54  C   UNL A   1      42.657  32.679  29.880  1.00  0.00     0.049 A 
ATOM     55  H   UNL A   1      42.255  30.671  29.365  1.00  0.00     0.167 HD
ATOM     56  C   UNL A   1      44.783  31.891  28.870  1.00  0.00     0.074 A 
ATOM     57  C   UNL A   1      46.154  32.080  28.438  1.00  0.00     0.031 C 
ATOM     58  C   UNL A   1      44.021  32.859  29.439  1.00  0.00     0.034 A 
BRANCH  45  59
ATOM     59  C   UNL A   1      38.270  31.045  30.914  1.00  0.00     0.023 A 
ATOM     60  C   UNL A   1      37.265  31.632  30.126  1.00  0.00     0.031 A 
ATOM     61  C   UNL A   1      37.990  30.828  32.277  1.00  0.00     0.131 A 
ATOM     62  C   UNL A   1      36.062  32.047  30.720  1.00  0.00     0.055 A 
ATOM     63  C   UNL A   1      36.757  31.158  32.840  1.00  0.00     0.041 A 
ATOM     64  F   UNL A   1      38.917  30.296  33.088  1.00  0.00    -0.206 F 
ATOM     65  C   UNL A   1      35.789  31.787  32.064  1.00  0.00     0.022 A 
BRANCH  62  66
ATOM     66  S   UNL A   1      34.928  33.078  29.748  1.00  0.00     0.124 S 
ATOM     67  O   UNL A   1      35.854  34.000  29.096  1.00  0.00    -0.237 OA
ATOM     68  O   UNL A   1      34.279  32.102  28.881  1.00  0.00    -0.237 OA
ATOM     69  O   UNL A   1      34.066  33.685  30.760  1.00  0.00    -0.744 OA
ENDBRANCH  62  66
ENDBRANCH  45  59
BRANCH  46  70
ATOM     70  C   UNL A   1      47.037  28.247  26.902  1.00  0.00     0.023 A 
ATOM     71  C   UNL A   1      47.153  28.190  25.505  1.00  0.00     0.031 A 
ATOM     72  C   UNL A   1      48.159  27.878  27.669  1.00  0.00     0.131 A 
ATOM     73  C   UNL A   1      48.342  27.726  24.920  1.00  0.00     0.055 A 
ATOM     74  C   UNL A   1      49.364  27.491  27.081  1.00  0.00     0.041 A 
ATOM     75  F   UNL A   1      48.105  27.903  29.010  1.00  0.00    -0.206 F 
ATOM     76  C   UNL A   1      49.455  27.397  25.698  1.00  0.00     0.022 A 
BRANCH  73  77
ATOM     77  S   UNL A   1      48.371  27.445  23.130  1.00  0.00     0.124 S 
ATOM     78  O   UNL A   1      49.635  28.068  22.754  1.00  0.00    -0.237 OA
ATOM     79  O   UNL A   1      48.323  25.989  23.049  1.00  0.00    -0.237 OA
ATOM     80  O   UNL A   1      47.171  28.134  22.658  1.00  0.00    -0.744 OA
ENDBRANCH  73  77
ENDBRANCH  46  70
BRANCH  58  81
ATOM     81  C   UNL A   1      44.679  34.195  29.683  1.00  0.00     0.023 A 
ATOM     82  C   UNL A   1      44.712  35.201  28.701  1.00  0.00     0.031 A 
ATOM     83  C   UNL A   1      45.300  34.457  30.918  1.00  0.00     0.131 A 
ATOM     84  C   UNL A   1      45.407  36.393  28.948  1.00  0.00     0.055 A 
ATOM     85  C   UNL A   1      45.920  35.677  31.186  1.00  0.00     0.041 A 
ATOM     86  F   UNL A   1      45.309  33.530  31.890  1.00  0.00    -0.206 F 
ATOM     87  C   UNL A   1      45.991  36.648  30.192  1.00  0.00     0.022 A 
BRANCH  84  88
ATOM     88  S   UNL A   1      45.648  37.558  27.579  1.00  0.00     0.124 S 
ATOM     89  O   UNL A   1      46.553  38.537  28.172  1.00  0.00    -0.237 OA
ATOM     90  O   UNL A   1      46.222  36.707  26.542  1.00  0.00    -0.237 OA
ATOM     91  O   UNL A   1      44.298  38.047  27.303  1.00  0.00    -0.744 OA
ENDBRANCH  84  88
ENDBRANCH  58  81
ENDBRANCH  32  33
ENDBRANCH  25  27
ENDBRANCH  24  25
ENDBRANCH  23  24
ENDBRANCH   1  23
TORSDOF 19
ENDMDL
MODEL 3
REMARK VINA RESULT:     -11.2      5.237     10.245
REMARK SMILES COc1ccc(C(=O)OCCOC(=O)c2ccc(-c3c4nc(c(-c5cc(S(=O)(=O)[O-])ccc5F)c5ccc([nH]5)c(-c5cc(S(=O)(=O)[O-])ccc5F)c5nc(c(-c6cc(S(=O)(=O)[O-])ccc6F)c6ccc3[nH]6)C=C5)C=C4)cc2)cc1NCc1cc(C#N)cs1
REMARK SMILES IDX 10 1 9 2 7 3 8 4 6 5 3 6 4 7 79 8 5 9 78 10 2 11 1 12 80 13
REMARK SMILES IDX 81 15 82 16 83 17 88 18 84 19 87 20 85 21 86 22 11 23 12 24
REMARK SMILES IDX 13 25 14 26 15 27 16 28 77 29 17 30 76 31 18 32 19 33 20 34
REMARK SMILES IDX 70 35 21 36 75 37 69 38 71 39 22 40 74 41 68 42 67 43 23 45
REMARK SMILES IDX 55 46 35 47 54 48 36 49 39 50 53 51 72 52 37 53 38 54 52 56
REMARK SMILES IDX 73 57 40 58 24 59 25 60 33 61 26 62 32 63 34 64 31 65 27 66
REMARK SMILES IDX 28 67 29 68 30 69 56 70 57 71 65 72 58 73 64 74 66 75 63 76
REMARK SMILES IDX 59 77 60 78 61 79 62 80 41 81 42 82 50 83 43 84 49 85 51 86
REMARK SMILES IDX 48 87 44 88 45 89 46 90 47 91
REMARK H PARENT 80 14 71 44 39 55
REMARK Flexibility Score: inf
ROOT
ATOM      1  C   UNL A   1      32.054  28.804  25.292  1.00  0.00     0.275 C 
ENDROOT
BRANCH   1   2
ATOM      2  O   UNL A   1      32.290  27.815  26.316  1.00  0.00    -0.458 OA
BRANCH   2   3
ATOM      3  C   UNL A   1      31.733  26.589  26.125  1.00  0.00     0.338 C 
ATOM      4  O   UNL A   1      30.608  26.251  26.453  1.00  0.00    -0.246 OA
BRANCH   3   5
ATOM      5  C   UNL A   1      32.674  25.697  25.397  1.00  0.00     0.062 A 
ATOM      6  C   UNL A   1      34.425  24.015  24.038  1.00  0.00     0.142 A 
ATOM      7  C   UNL A   1      34.919  24.862  25.027  1.00  0.00     0.049 A 
ATOM      8  C   UNL A   1      33.053  23.974  23.714  1.00  0.00     0.078 A 
ATOM      9  C   UNL A   1      34.046  25.729  25.676  1.00  0.00     0.019 A 
ATOM     10  C   UNL A   1      32.193  24.834  24.408  1.00  0.00     0.045 A 
BRANCH   6  11
ATOM     11  O   UNL A   1      35.324  23.179  23.420  1.00  0.00    -0.495 OA
ATOM     12  C   UNL A   1      36.588  23.199  24.086  1.00  0.00     0.278 C 
ENDBRANCH   6  11
BRANCH   8  13
ATOM     13  N   UNL A   1      32.604  23.091  22.751  1.00  0.00    -0.377 N 
ATOM     14  H   UNL A   1      32.963  23.205  21.842  1.00  0.00     0.161 HD
BRANCH  13  15
ATOM     15  C   UNL A   1      31.659  22.018  22.950  1.00  0.00     0.160 C 
BRANCH  15  16
ATOM     16  C   UNL A   1      32.258  20.781  23.559  1.00  0.00     0.025 A 
ATOM     17  C   UNL A   1      32.565  19.574  22.957  1.00  0.00     0.036 A 
ATOM     18  S   UNL A   1      32.650  20.766  25.231  1.00  0.00    -0.146 S 
ATOM     19  C   UNL A   1      33.102  18.629  23.882  1.00  0.00     0.063 A 
ATOM     20  C   UNL A   1      33.215  19.156  25.150  1.00  0.00     0.084 A 
BRANCH  19  21
ATOM     21  C   UNL A   1      33.477  17.281  23.570  1.00  0.00     0.100 C 
ATOM     22  N   UNL A   1      33.809  16.199  23.322  1.00  0.00    -0.192 NA
ENDBRANCH  19  21
ENDBRANCH  15  16
ENDBRANCH  13  15
ENDBRANCH   8  13
ENDBRANCH   3   5
ENDBRANCH   2   3
ENDBRANCH   1   2
BRANCH   1  23
ATOM     23  C   UNL A   1      31.864  30.206  25.879  1.00  0.00     0.275 C 
BRANCH  23  24
ATOM     24  O   UNL A   1      32.529  30.337  27.146  1.00  0.00    -0.458 OA
BRANCH  24  25
ATOM     25  C   UNL A   1      33.218  31.491  27.289  1.00  0.00     0.338 C 
ATOM     26  O   UNL A   1      32.772  32.626  27.244  1.00  0.00    -0.246 OA
BRANCH  25  27
ATOM     27  C   UNL A   1      34.613  31.217  27.652  1.00  0.00     0.060 A 
ATOM     28  C   UNL A   1      34.929  29.906  27.972  1.00  0.00     0.016 A 
ATOM     29  C   UNL A   1      35.526  32.235  27.898  1.00  0.00     0.016 A 
ATOM     30  C   UNL A   1      36.074  29.613  28.694  1.00  0.00     0.010 A 
ATOM     31  C   UNL A   1      36.758  31.914  28.485  1.00  0.00     0.010 A 
ATOM     32  C   UNL A   1      37.029  30.605  28.932  1.00  0.00    -0.014 A 
BRANCH  32  33
ATOM     33  C   UNL A   1      38.289  30.260  29.653  1.00  0.00     0.031 A 
ATOM     34  C   UNL A   1      39.281  29.309  29.035  1.00  0.00     0.074 A 
ATOM     35  C   UNL A   1      38.555  30.816  30.855  1.00  0.00     0.049 A 
ATOM     36  N   UNL A   1      40.334  28.746  29.573  1.00  0.00    -0.248 NA
ATOM     37  C   UNL A   1      39.049  28.923  27.635  1.00  0.00     0.031 C 
ATOM     38  C   UNL A   1      37.711  31.802  31.538  1.00  0.00     0.029 A 
ATOM     39  N   UNL A   1      39.609  30.640  31.718  1.00  0.00    -0.354 N 
ATOM     40  C   UNL A   1      40.859  27.903  28.599  1.00  0.00     0.074 A 
ATOM     41  C   UNL A   1      39.990  28.009  27.445  1.00  0.00     0.031 C 
ATOM     42  C   UNL A   1      38.300  32.176  32.681  1.00  0.00     0.029 A 
ATOM     43  C   UNL A   1      39.491  31.365  32.883  1.00  0.00     0.049 A 
ATOM     44  H   UNL A   1      40.374  30.054  31.522  1.00  0.00     0.167 HD
ATOM     45  C   UNL A   1      41.962  27.116  28.665  1.00  0.00     0.034 A 
ATOM     46  C   UNL A   1      40.213  31.337  34.019  1.00  0.00     0.034 A 
ATOM     47  C   UNL A   1      42.824  27.048  29.822  1.00  0.00     0.049 A 
ATOM     48  C   UNL A   1      41.374  30.382  34.107  1.00  0.00     0.074 A 
ATOM     49  C   UNL A   1      43.974  26.297  29.996  1.00  0.00     0.029 A 
ATOM     50  N   UNL A   1      42.632  27.753  31.005  1.00  0.00    -0.354 N 
ATOM     51  N   UNL A   1      41.829  29.554  33.196  1.00  0.00    -0.248 NA
ATOM     52  C   UNL A   1      42.112  30.354  35.374  1.00  0.00     0.031 C 
ATOM     53  C   UNL A   1      44.421  26.475  31.308  1.00  0.00     0.029 A 
ATOM     54  C   UNL A   1      43.617  27.421  31.923  1.00  0.00     0.049 A 
ATOM     55  H   UNL A   1      41.904  28.395  31.167  1.00  0.00     0.167 HD
ATOM     56  C   UNL A   1      42.931  28.930  33.772  1.00  0.00     0.074 A 
ATOM     57  C   UNL A   1      43.078  29.492  35.099  1.00  0.00     0.031 C 
ATOM     58  C   UNL A   1      43.749  27.982  33.248  1.00  0.00     0.034 A 
BRANCH  45  59
ATOM     59  C   UNL A   1      42.259  26.218  27.486  1.00  0.00     0.023 A 
ATOM     60  C   UNL A   1      41.789  24.896  27.411  1.00  0.00     0.031 A 
ATOM     61  C   UNL A   1      43.053  26.691  26.423  1.00  0.00     0.131 A 
ATOM     62  C   UNL A   1      42.175  24.074  26.340  1.00  0.00     0.055 A 
ATOM     63  C   UNL A   1      43.356  25.898  25.316  1.00  0.00     0.041 A 
ATOM     64  F   UNL A   1      43.555  27.935  26.447  1.00  0.00    -0.206 F 
ATOM     65  C   UNL A   1      42.930  24.575  25.278  1.00  0.00     0.022 A 
BRANCH  62  66
ATOM     66  S   UNL A   1      41.814  22.298  26.437  1.00  0.00     0.124 S 
ATOM     67  O   UNL A   1      42.152  22.006  27.828  1.00  0.00    -0.237 OA
ATOM     68  O   UNL A   1      40.398  22.246  26.099  1.00  0.00    -0.237 OA
ATOM     69  O   UNL A   1      42.716  21.711  25.449  1.00  0.00    -0.744 OA
ENDBRANCH  62  66
ENDBRANCH  45  59
BRANCH  46  70
ATOM     70  C   UNL A   1      39.819  32.177  35.189  1.00  0.00     0.023 A 
ATOM     71  C   UNL A   1      39.043  31.647  36.231  1.00  0.00     0.031 A 
ATOM     72  C   UNL A   1      40.176  33.537  35.263  1.00  0.00     0.131 A 
ATOM     73  C   UNL A   1      38.606  32.481  37.271  1.00  0.00     0.055 A 
ATOM     74  C   UNL A   1      39.803  34.344  36.338  1.00  0.00     0.041 A 
ATOM     75  F   UNL A   1      40.909  34.102  34.290  1.00  0.00    -0.206 F 
ATOM     76  C   UNL A   1      38.999  33.820  37.344  1.00  0.00     0.022 A 
BRANCH  73  77
ATOM     77  S   UNL A   1      37.417  31.819  38.468  1.00  0.00     0.124 S 
ATOM     78  O   UNL A   1      38.150  31.959  39.720  1.00  0.00    -0.237 OA
ATOM     79  O   UNL A   1      36.275  32.709  38.288  1.00  0.00    -0.237 OA
ATOM     80  O   UNL A   1      37.211  30.443  38.016  1.00  0.00    -0.744 OA
ENDBRANCH  73  77
ENDBRANCH  46  70
BRANCH  58  81
ATOM     81  C   UNL A   1      44.917  27.541  34.097  1.00  0.00     0.023 A 
ATOM     82  C   UNL A   1      44.789  26.549  35.085  1.00  0.00     0.031 A 
ATOM     83  C   UNL A   1      46.179  28.139  33.921  1.00  0.00     0.131 A 
ATOM     84  C   UNL A   1      45.884  26.233  35.901  1.00  0.00     0.055 A 
ATOM     85  C   UNL A   1      47.284  27.762  34.682  1.00  0.00     0.041 A 
ATOM     86  F   UNL A   1      46.359  29.099  32.999  1.00  0.00    -0.206 F 
ATOM     87  C   UNL A   1      47.137  26.815  35.691  1.00  0.00     0.022 A 
BRANCH  84  88
ATOM     88  S   UNL A   1      45.619  25.142  37.325  1.00  0.00     0.124 S 
ATOM     89  O   UNL A   1      44.234  24.724  37.132  1.00  0.00    -0.237 OA
ATOM     90  O   UNL A   1      46.630  24.110  37.119  1.00  0.00    -0.237 OA
ATOM     91  O   UNL A   1      45.850  26.014  38.475  1.00  0.00    -0.744 OA
ENDBRANCH  84  88
ENDBRANCH  58  81
ENDBRANCH  32  33
ENDBRANCH  25  27
ENDBRANCH  24  25
ENDBRANCH  23  24
ENDBRANCH   1  23
TORSDOF 19
ENDMDL
