MODEL 1
REMARK VINA RESULT:     -12.1      0.000      0.000
REMARK SMILES NS(=O)(=O)c1ccc(/N=C/c2ccc(O)c(C(=O)OCCOC(=O)c3ccc(-c4c5nc(c(-c6cc(S(=O)(=O)[O-])ccc6F)c6ccc([nH]6)c(-c6cc(S(=O)(=O)[O-])ccc6F)c6nc(c(-c7cc(S(=O)(=O)[O-])ccc7F)c7ccc4[nH]7)C=C6)C=C5)cc3)c2)cc1
REMARK SMILES IDX 20 1 19 2 17 3 18 4 16 5 11 6 12 7 88 8 13 9 14 10 10 11
REMARK SMILES IDX 9 12 8 13 5 14 6 15 90 16 7 17 89 18 2 19 3 20 4 21 1 22
REMARK SMILES IDX 15 25 21 27 22 28 23 29 24 30 25 31 26 32 87 33 27 34 86 35
REMARK SMILES IDX 28 36 29 37 30 38 80 39 31 40 85 41 79 42 81 43 32 44 84 45
REMARK SMILES IDX 78 46 77 47 33 49 65 50 45 51 64 52 46 53 49 54 63 55 82 56
REMARK SMILES IDX 47 57 48 58 62 60 83 61 50 62 34 63 35 64 43 65 36 66 42 67
REMARK SMILES IDX 44 68 41 69 37 70 38 71 39 72 40 73 66 74 67 75 75 76 68 77
REMARK SMILES IDX 74 78 76 79 73 80 69 81 70 82 71 83 72 84 51 85 52 86 60 87
REMARK SMILES IDX 53 88 59 89 61 90 58 91 54 92 55 93 56 94 57 95
REMARK H PARENT 1 23 1 24 15 26 81 48 49 59
REMARK Flexibility Score: inf
ROOT
ATOM      1  C   UNL A   1      36.210  22.818  24.055  1.00  0.00     0.275 C 
ENDROOT
BRANCH   1   2
ATOM      2  O   UNL A   1      34.979  22.247  23.571  1.00  0.00    -0.458 OA
BRANCH   2   3
ATOM      3  C   UNL A   1      34.299  21.462  24.439  1.00  0.00     0.342 C 
ATOM      4  O   UNL A   1      34.466  20.263  24.621  1.00  0.00    -0.246 OA
BRANCH   3   5
ATOM      5  C   UNL A   1      33.369  22.254  25.278  1.00  0.00     0.102 A 
ATOM      6  C   UNL A   1      31.918  24.156  25.646  1.00  0.00    -0.006 A 
ATOM      7  C   UNL A   1      31.790  23.817  26.995  1.00  0.00     0.013 A 
ATOM      8  C   UNL A   1      32.728  23.399  24.790  1.00  0.00     0.029 A 
ATOM      9  C   UNL A   1      32.397  22.657  27.472  1.00  0.00     0.048 A 
ATOM     10  C   UNL A   1      33.147  21.861  26.607  1.00  0.00     0.130 A 
BRANCH   6  11
ATOM     11  C   UNL A   1      31.096  25.270  25.128  1.00  0.00     0.119 C 
ATOM     12  N   UNL A   1      31.528  26.487  25.172  1.00  0.00    -0.256 NA
BRANCH  12  13
ATOM     13  C   UNL A   1      30.808  27.524  24.560  1.00  0.00     0.063 A 
ATOM     14  C   UNL A   1      29.291  29.443  23.180  1.00  0.00     0.082 A 
ATOM     15  C   UNL A   1      28.894  28.106  23.165  1.00  0.00     0.024 A 
ATOM     16  C   UNL A   1      30.426  29.835  23.893  1.00  0.00     0.024 A 
ATOM     17  C   UNL A   1      29.656  27.157  23.851  1.00  0.00     0.030 A 
ATOM     18  C   UNL A   1      31.185  28.873  24.572  1.00  0.00     0.030 A 
BRANCH  14  19
ATOM     19  S   UNL A   1      28.326  30.608  22.269  1.00  0.00     0.238 S 
ATOM     20  O   UNL A   1      27.244  31.070  23.105  1.00  0.00    -0.207 OA
ATOM     21  O   UNL A   1      28.113  30.084  20.939  1.00  0.00    -0.207 OA
BRANCH  19  22
ATOM     22  N   UNL A   1      29.332  31.940  22.075  1.00  0.00    -0.225 NA
ATOM     23  H   UNL A   1      28.884  32.617  21.457  1.00  0.00     0.137 HD
ATOM     24  H   UNL A   1      30.217  31.641  21.668  1.00  0.00     0.137 HD
ENDBRANCH  19  22
ENDBRANCH  14  19
ENDBRANCH  12  13
ENDBRANCH   6  11
BRANCH  10  25
ATOM     25  O   UNL A   1      33.663  20.716  27.153  1.00  0.00    -0.507 OA
ATOM     26  H   UNL A   1      33.919  20.701  28.054  1.00  0.00     0.293 HD
ENDBRANCH  10  25
ENDBRANCH   3   5
ENDBRANCH   2   3
ENDBRANCH   1   2
BRANCH   1  27
ATOM     27  C   UNL A   1      37.215  21.728  24.435  1.00  0.00     0.275 C 
BRANCH  27  28
ATOM     28  O   UNL A   1      37.558  21.802  25.832  1.00  0.00    -0.458 OA
BRANCH  28  29
ATOM     29  C   UNL A   1      38.829  21.444  26.138  1.00  0.00     0.338 C 
ATOM     30  O   UNL A   1      39.364  20.372  25.911  1.00  0.00    -0.246 OA
BRANCH  29  31
ATOM     31  C   UNL A   1      39.558  22.630  26.624  1.00  0.00     0.060 A 
ATOM     32  C   UNL A   1      39.212  23.860  26.063  1.00  0.00     0.016 A 
ATOM     33  C   UNL A   1      40.559  22.556  27.594  1.00  0.00     0.016 A 
ATOM     34  C   UNL A   1      39.812  25.035  26.510  1.00  0.00     0.010 A 
ATOM     35  C   UNL A   1      41.195  23.734  28.014  1.00  0.00     0.010 A 
ATOM     36  C   UNL A   1      40.814  24.981  27.484  1.00  0.00    -0.014 A 
BRANCH  36  37
ATOM     37  C   UNL A   1      41.511  26.227  27.883  1.00  0.00     0.031 A 
ATOM     38  C   UNL A   1      40.766  27.268  28.666  1.00  0.00     0.074 A 
ATOM     39  C   UNL A   1      42.812  26.405  27.586  1.00  0.00     0.049 A 
ATOM     40  N   UNL A   1      41.153  28.460  29.038  1.00  0.00    -0.248 NA
ATOM     41  C   UNL A   1      39.406  26.911  29.093  1.00  0.00     0.031 C 
ATOM     42  C   UNL A   1      43.666  25.422  26.919  1.00  0.00     0.029 A 
ATOM     43  N   UNL A   1      43.642  27.476  27.807  1.00  0.00    -0.354 N 
ATOM     44  C   UNL A   1      40.085  29.000  29.745  1.00  0.00     0.074 A 
ATOM     45  C   UNL A   1      39.027  28.010  29.728  1.00  0.00     0.031 C 
ATOM     46  C   UNL A   1      44.896  25.944  26.769  1.00  0.00     0.029 A 
ATOM     47  C   UNL A   1      44.903  27.314  27.279  1.00  0.00     0.049 A 
ATOM     48  H   UNL A   1      43.363  28.284  28.296  1.00  0.00     0.167 HD
ATOM     49  C   UNL A   1      39.997  30.210  30.351  1.00  0.00     0.034 A 
ATOM     50  C   UNL A   1      45.928  28.186  27.182  1.00  0.00     0.034 A 
ATOM     51  C   UNL A   1      41.053  31.195  30.337  1.00  0.00     0.049 A 
ATOM     52  C   UNL A   1      45.752  29.581  27.735  1.00  0.00     0.074 A 
ATOM     53  C   UNL A   1      41.061  32.459  30.901  1.00  0.00     0.029 A 
ATOM     54  N   UNL A   1      42.284  31.033  29.714  1.00  0.00    -0.354 N 
ATOM     55  N   UNL A   1      44.725  30.098  28.370  1.00  0.00    -0.248 NA
ATOM     56  C   UNL A   1      46.873  30.514  27.549  1.00  0.00     0.031 C 
ATOM     57  C   UNL A   1      42.264  33.086  30.556  1.00  0.00     0.029 A 
ATOM     58  C   UNL A   1      43.042  32.188  29.845  1.00  0.00     0.049 A 
ATOM     59  H   UNL A   1      42.576  30.217  29.247  1.00  0.00     0.167 HD
ATOM     60  C   UNL A   1      45.089  31.407  28.680  1.00  0.00     0.074 A 
ATOM     61  C   UNL A   1      46.434  31.594  28.179  1.00  0.00     0.031 C 
ATOM     62  C   UNL A   1      44.376  32.367  29.324  1.00  0.00     0.034 A 
BRANCH  49  63
ATOM     63  C   UNL A   1      38.688  30.556  31.014  1.00  0.00     0.023 A 
ATOM     64  C   UNL A   1      37.647  31.192  30.317  1.00  0.00     0.031 A 
ATOM     65  C   UNL A   1      38.492  30.272  32.378  1.00  0.00     0.131 A 
ATOM     66  C   UNL A   1      36.482  31.578  30.998  1.00  0.00     0.055 A 
ATOM     67  C   UNL A   1      37.302  30.593  33.032  1.00  0.00     0.041 A 
ATOM     68  F   UNL A   1      39.461  29.689  33.100  1.00  0.00    -0.206 F 
ATOM     69  C   UNL A   1      36.294  31.262  32.346  1.00  0.00     0.022 A 
BRANCH  66  70
ATOM     70  S   UNL A   1      35.272  32.615  30.134  1.00  0.00     0.124 S 
ATOM     71  O   UNL A   1      36.081  33.777  29.773  1.00  0.00    -0.237 OA
ATOM     72  O   UNL A   1      34.854  31.761  29.028  1.00  0.00    -0.237 OA
ATOM     73  O   UNL A   1      34.250  32.868  31.147  1.00  0.00    -0.744 OA
ENDBRANCH  66  70
ENDBRANCH  49  63
BRANCH  50  74
ATOM     74  C   UNL A   1      47.182  27.812  26.465  1.00  0.00     0.023 A 
ATOM     75  C   UNL A   1      47.305  27.974  25.076  1.00  0.00     0.031 A 
ATOM     76  C   UNL A   1      48.249  27.205  27.153  1.00  0.00     0.131 A 
ATOM     77  C   UNL A   1      48.445  27.488  24.413  1.00  0.00     0.055 A 
ATOM     78  C   UNL A   1      49.405  26.778  26.498  1.00  0.00     0.041 A 
ATOM     79  F   UNL A   1      48.181  27.013  28.480  1.00  0.00    -0.206 F 
ATOM     80  C   UNL A   1      49.500  26.904  25.117  1.00  0.00     0.022 A 
BRANCH  77  81
ATOM     81  S   UNL A   1      48.480  27.533  22.599  1.00  0.00     0.124 S 
ATOM     82  O   UNL A   1      48.482  26.113  22.267  1.00  0.00    -0.237 OA
ATOM     83  O   UNL A   1      47.256  28.263  22.289  1.00  0.00    -0.237 OA
ATOM     84  O   UNL A   1      49.721  28.245  22.300  1.00  0.00    -0.744 OA
ENDBRANCH  77  81
ENDBRANCH  50  74
BRANCH  62  85
ATOM     85  C   UNL A   1      45.061  33.695  29.550  1.00  0.00     0.023 A 
ATOM     86  C   UNL A   1      44.970  34.743  28.617  1.00  0.00     0.031 A 
ATOM     87  C   UNL A   1      45.825  33.907  30.711  1.00  0.00     0.131 A 
ATOM     88  C   UNL A   1      45.674  35.937  28.837  1.00  0.00     0.055 A 
ATOM     89  C   UNL A   1      46.474  35.120  30.953  1.00  0.00     0.041 A 
ATOM     90  F   UNL A   1      45.949  32.941  31.635  1.00  0.00    -0.206 F 
ATOM     91  C   UNL A   1      46.410  36.138  30.007  1.00  0.00     0.022 A 
BRANCH  88  92
ATOM     92  S   UNL A   1      45.680  37.200  27.533  1.00  0.00     0.124 S 
ATOM     93  O   UNL A   1      46.506  38.245  28.128  1.00  0.00    -0.237 OA
ATOM     94  O   UNL A   1      46.271  36.483  26.408  1.00  0.00    -0.237 OA
ATOM     95  O   UNL A   1      44.266  37.539  27.377  1.00  0.00    -0.744 OA
ENDBRANCH  88  92
ENDBRANCH  62  85
ENDBRANCH  36  37
ENDBRANCH  29  31
ENDBRANCH  28  29
ENDBRANCH  27  28
ENDBRANCH   1  27
TORSDOF 19
ENDMDL
MODEL 2
REMARK VINA RESULT:     -11.9      5.397     10.586
REMARK SMILES NS(=O)(=O)c1ccc(/N=C/c2ccc(O)c(C(=O)OCCOC(=O)c3ccc(-c4c5nc(c(-c6cc(S(=O)(=O)[O-])ccc6F)c6ccc([nH]6)c(-c6cc(S(=O)(=O)[O-])ccc6F)c6nc(c(-c7cc(S(=O)(=O)[O-])ccc7F)c7ccc4[nH]7)C=C6)C=C5)cc3)c2)cc1
REMARK SMILES IDX 20 1 19 2 17 3 18 4 16 5 11 6 12 7 88 8 13 9 14 10 10 11
REMARK SMILES IDX 9 12 8 13 5 14 6 15 90 16 7 17 89 18 2 19 3 20 4 21 1 22
REMARK SMILES IDX 15 25 21 27 22 28 23 29 24 30 25 31 26 32 87 33 27 34 86 35
REMARK SMILES IDX 28 36 29 37 30 38 80 39 31 40 85 41 79 42 81 43 32 44 84 45
REMARK SMILES IDX 78 46 77 47 33 49 65 50 45 51 64 52 46 53 49 54 63 55 82 56
REMARK SMILES IDX 47 57 48 58 62 60 83 61 50 62 34 63 35 64 43 65 36 66 42 67
REMARK SMILES IDX 44 68 41 69 37 70 38 71 39 72 40 73 66 74 67 75 75 76 68 77
REMARK SMILES IDX 74 78 76 79 73 80 69 81 70 82 71 83 72 84 51 85 52 86 60 87
REMARK SMILES IDX 53 88 59 89 61 90 58 91 54 92 55 93 56 94 57 95
REMARK H PARENT 1 23 1 24 15 26 81 48 49 59
REMARK Flexibility Score: inf
ROOT
ATOM      1  C   UNL A   1      31.400  28.653  25.379  1.00  0.00     0.275 C 
ENDROOT
BRANCH   1   2
ATOM      2  O   UNL A   1      30.501  28.494  24.264  1.00  0.00    -0.458 OA
BRANCH   2   3
ATOM      3  C   UNL A   1      30.168  27.223  23.938  1.00  0.00     0.342 C 
ATOM      4  O   UNL A   1      29.044  26.738  23.952  1.00  0.00    -0.246 OA
BRANCH   3   5
ATOM      5  C   UNL A   1      31.334  26.470  23.421  1.00  0.00     0.102 A 
ATOM      6  C   UNL A   1      32.780  24.529  23.390  1.00  0.00    -0.006 A 
ATOM      7  C   UNL A   1      33.679  25.193  22.552  1.00  0.00     0.013 A 
ATOM      8  C   UNL A   1      31.623  25.169  23.852  1.00  0.00     0.029 A 
ATOM      9  C   UNL A   1      33.373  26.472  22.092  1.00  0.00     0.048 A 
ATOM     10  C   UNL A   1      32.188  27.087  22.493  1.00  0.00     0.130 A 
BRANCH   6  11
ATOM     11  C   UNL A   1      33.032  23.104  23.689  1.00  0.00     0.119 C 
ATOM     12  N   UNL A   1      32.209  22.189  23.294  1.00  0.00    -0.256 NA
BRANCH  12  13
ATOM     13  C   UNL A   1      32.517  20.830  23.460  1.00  0.00     0.063 A 
ATOM     14  C   UNL A   1      33.326  18.177  23.902  1.00  0.00     0.082 A 
ATOM     15  C   UNL A   1      33.724  19.179  24.788  1.00  0.00     0.024 A 
ATOM     16  C   UNL A   1      32.513  18.483  22.809  1.00  0.00     0.024 A 
ATOM     17  C   UNL A   1      33.320  20.496  24.558  1.00  0.00     0.030 A 
ATOM     18  C   UNL A   1      32.119  19.809  22.587  1.00  0.00     0.030 A 
BRANCH  14  19
ATOM     19  S   UNL A   1      33.889  16.530  24.200  1.00  0.00     0.238 S 
ATOM     20  O   UNL A   1      34.912  16.566  25.219  1.00  0.00    -0.207 OA
ATOM     21  O   UNL A   1      34.082  15.875  22.926  1.00  0.00    -0.207 OA
BRANCH  19  22
ATOM     22  N   UNL A   1      32.582  15.753  24.916  1.00  0.00    -0.225 NA
ATOM     23  H   UNL A   1      31.967  15.385  24.190  1.00  0.00     0.137 HD
ATOM     24  H   UNL A   1      32.068  16.415  25.495  1.00  0.00     0.137 HD
ENDBRANCH  19  22
ENDBRANCH  14  19
ENDBRANCH  12  13
ENDBRANCH   6  11
BRANCH  10  25
ATOM     25  O   UNL A   1      31.948  28.322  21.951  1.00  0.00    -0.507 OA
ATOM     26  H   UNL A   1      31.072  28.652  21.908  1.00  0.00     0.293 HD
ENDBRANCH  10  25
ENDBRANCH   3   5
ENDBRANCH   2   3
ENDBRANCH   1   2
BRANCH   1  27
ATOM     27  C   UNL A   1      31.599  30.131  25.725  1.00  0.00     0.275 C 
BRANCH  27  28
ATOM     28  O   UNL A   1      32.976  30.409  26.041  1.00  0.00    -0.458 OA
BRANCH  28  29
ATOM     29  C   UNL A   1      33.180  31.463  26.869  1.00  0.00     0.338 C 
ATOM     30  O   UNL A   1      32.402  32.372  27.105  1.00  0.00    -0.246 OA
BRANCH  29  31
ATOM     31  C   UNL A   1      34.434  31.252  27.615  1.00  0.00     0.060 A 
ATOM     32  C   UNL A   1      34.708  29.951  28.040  1.00  0.00     0.016 A 
ATOM     33  C   UNL A   1      35.324  32.289  27.906  1.00  0.00     0.016 A 
ATOM     34  C   UNL A   1      35.899  29.658  28.699  1.00  0.00     0.010 A 
ATOM     35  C   UNL A   1      36.504  32.002  28.608  1.00  0.00     0.010 A 
ATOM     36  C   UNL A   1      36.804  30.683  28.995  1.00  0.00    -0.014 A 
BRANCH  36  37
ATOM     37  C   UNL A   1      38.023  30.374  29.780  1.00  0.00     0.031 A 
ATOM     38  C   UNL A   1      39.061  29.459  29.198  1.00  0.00     0.074 A 
ATOM     39  C   UNL A   1      38.222  30.944  30.983  1.00  0.00     0.049 A 
ATOM     40  N   UNL A   1      40.152  28.989  29.743  1.00  0.00    -0.248 NA
ATOM     41  C   UNL A   1      38.840  29.026  27.811  1.00  0.00     0.031 C 
ATOM     42  C   UNL A   1      37.334  31.926  31.607  1.00  0.00     0.029 A 
ATOM     43  N   UNL A   1      39.233  30.778  31.897  1.00  0.00    -0.354 N 
ATOM     44  C   UNL A   1      40.752  28.201  28.768  1.00  0.00     0.074 A 
ATOM     45  C   UNL A   1      39.889  28.243  27.605  1.00  0.00     0.031 C 
ATOM     46  C   UNL A   1      37.833  32.261  32.810  1.00  0.00     0.029 A 
ATOM     47  C   UNL A   1      39.042  31.480  33.065  1.00  0.00     0.049 A 
ATOM     48  H   UNL A   1      40.021  30.209  31.733  1.00  0.00     0.167 HD
ATOM     49  C   UNL A   1      41.916  27.509  28.839  1.00  0.00     0.034 A 
ATOM     50  C   UNL A   1      39.739  31.461  34.219  1.00  0.00     0.034 A 
ATOM     51  C   UNL A   1      42.752  27.459  30.015  1.00  0.00     0.049 A 
ATOM     52  C   UNL A   1      40.952  30.566  34.324  1.00  0.00     0.074 A 
ATOM     53  C   UNL A   1      43.939  26.772  30.201  1.00  0.00     0.029 A 
ATOM     54  N   UNL A   1      42.481  28.110  31.212  1.00  0.00    -0.354 N 
ATOM     55  N   UNL A   1      41.493  29.794  33.409  1.00  0.00    -0.248 NA
ATOM     56  C   UNL A   1      41.641  30.532  35.622  1.00  0.00     0.031 C 
ATOM     57  C   UNL A   1      44.345  26.948  31.529  1.00  0.00     0.029 A 
ATOM     58  C   UNL A   1      43.456  27.808  32.152  1.00  0.00     0.049 A 
ATOM     59  H   UNL A   1      41.709  28.700  31.370  1.00  0.00     0.167 HD
ATOM     60  C   UNL A   1      42.601  29.205  34.016  1.00  0.00     0.074 A 
ATOM     61  C   UNL A   1      42.659  29.724  35.366  1.00  0.00     0.031 C 
ATOM     62  C   UNL A   1      43.492  28.318  33.503  1.00  0.00     0.034 A 
BRANCH  49  63
ATOM     63  C   UNL A   1      42.309  26.695  27.632  1.00  0.00     0.023 A 
ATOM     64  C   UNL A   1      41.895  25.362  27.469  1.00  0.00     0.031 A 
ATOM     65  C   UNL A   1      43.138  27.254  26.644  1.00  0.00     0.131 A 
ATOM     66  C   UNL A   1      42.360  24.614  26.376  1.00  0.00     0.055 A 
ATOM     67  C   UNL A   1      43.539  26.528  25.522  1.00  0.00     0.041 A 
ATOM     68  F   UNL A   1      43.585  28.514  26.761  1.00  0.00    -0.206 F 
ATOM     69  C   UNL A   1      43.161  25.195  25.389  1.00  0.00     0.022 A 
BRANCH  66  70
ATOM     70  S   UNL A   1      42.015  22.834  26.329  1.00  0.00     0.124 S 
ATOM     71  O   UNL A   1      42.760  22.357  27.491  1.00  0.00    -0.237 OA
ATOM     72  O   UNL A   1      40.561  22.791  26.441  1.00  0.00    -0.237 OA
ATOM     73  O   UNL A   1      42.554  22.413  25.038  1.00  0.00    -0.744 OA
ENDBRANCH  66  70
ENDBRANCH  49  63
BRANCH  50  74
ATOM     74  C   UNL A   1      39.275  32.243  35.403  1.00  0.00     0.023 A 
ATOM     75  C   UNL A   1      39.676  33.574  35.602  1.00  0.00     0.031 A 
ATOM     76  C   UNL A   1      38.489  31.638  36.401  1.00  0.00     0.131 A 
ATOM     77  C   UNL A   1      39.333  34.238  36.791  1.00  0.00     0.055 A 
ATOM     78  C   UNL A   1      38.101  32.321  37.554  1.00  0.00     0.041 A 
ATOM     79  F   UNL A   1      38.087  30.363  36.271  1.00  0.00    -0.206 F 
ATOM     80  C   UNL A   1      38.537  33.625  37.761  1.00  0.00     0.022 A 
BRANCH  77  81
ATOM     81  S   UNL A   1      40.035  35.883  37.102  1.00  0.00     0.124 S 
ATOM     82  O   UNL A   1      39.686  36.591  35.877  1.00  0.00    -0.237 OA
ATOM     83  O   UNL A   1      39.324  36.293  38.307  1.00  0.00    -0.237 OA
ATOM     84  O   UNL A   1      41.461  35.615  37.284  1.00  0.00    -0.744 OA
ENDBRANCH  77  81
ENDBRANCH  50  74
BRANCH  62  85
ATOM     85  C   UNL A   1      44.624  27.884  34.403  1.00  0.00     0.023 A 
ATOM     86  C   UNL A   1      44.563  26.693  35.147  1.00  0.00     0.031 A 
ATOM     87  C   UNL A   1      45.777  28.681  34.523  1.00  0.00     0.131 A 
ATOM     88  C   UNL A   1      45.611  26.359  36.019  1.00  0.00     0.055 A 
ATOM     89  C   UNL A   1      46.843  28.313  35.347  1.00  0.00     0.041 A 
ATOM     90  F   UNL A   1      45.889  29.829  33.837  1.00  0.00    -0.206 F 
ATOM     91  C   UNL A   1      46.758  27.152  36.110  1.00  0.00     0.022 A 
BRANCH  88  92
ATOM     92  S   UNL A   1      45.423  24.911  37.097  1.00  0.00     0.124 S 
ATOM     93  O   UNL A   1      44.828  25.500  38.293  1.00  0.00    -0.237 OA
ATOM     94  O   UNL A   1      44.550  24.047  36.310  1.00  0.00    -0.237 OA
ATOM     95  O   UNL A   1      46.792  24.424  37.260  1.00  0.00    -0.744 OA
ENDBRANCH  88  92
ENDBRANCH  62  85
ENDBRANCH  36  37
ENDBRANCH  29  31
ENDBRANCH  28  29
ENDBRANCH  27  28
ENDBRANCH   1  27
TORSDOF 19
ENDMDL
MODEL 3
REMARK VINA RESULT:     -11.7      5.347      8.302
REMARK SMILES NS(=O)(=O)c1ccc(/N=C/c2ccc(O)c(C(=O)OCCOC(=O)c3ccc(-c4c5nc(c(-c6cc(S(=O)(=O)[O-])ccc6F)c6ccc([nH]6)c(-c6cc(S(=O)(=O)[O-])ccc6F)c6nc(c(-c7cc(S(=O)(=O)[O-])ccc7F)c7ccc4[nH]7)C=C6)C=C5)cc3)c2)cc1
REMARK SMILES IDX 20 1 19 2 17 3 18 4 16 5 11 6 12 7 88 8 13 9 14 10 10 11
REMARK SMILES IDX 9 12 8 13 5 14 6 15 90 16 7 17 89 18 2 19 3 20 4 21 1 22
REMARK SMILES IDX 15 25 21 27 22 28 23 29 24 30 25 31 26 32 87 33 27 34 86 35
REMARK SMILES IDX 28 36 29 37 30 38 80 39 31 40 85 41 79 42 81 43 32 44 84 45
REMARK SMILES IDX 78 46 77 47 33 49 65 50 45 51 64 52 46 53 49 54 63 55 82 56
REMARK SMILES IDX 47 57 48 58 62 60 83 61 50 62 34 63 35 64 43 65 36 66 42 67
REMARK SMILES IDX 44 68 41 69 37 70 38 71 39 72 40 73 66 74 67 75 75 76 68 77
REMARK SMILES IDX 74 78 76 79 73 80 69 81 70 82 71 83 72 84 51 85 52 86 60 87
REMARK SMILES IDX 53 88 59 89 61 90 58 91 54 92 55 93 56 94 57 95
REMARK H PARENT 1 23 1 24 15 26 81 48 49 59
REMARK Flexibility Score: inf
ROOT
ATOM      1  C   UNL A   1      31.954  29.194  24.836  1.00  0.00     0.275 C 
ENDROOT
BRANCH   1   2
ATOM      2  O   UNL A   1      31.039  28.147  25.214  1.00  0.00    -0.458 OA
BRANCH   2   3
ATOM      3  C   UNL A   1      31.570  27.105  25.897  1.00  0.00     0.342 C 
ATOM      4  O   UNL A   1      31.518  26.924  27.106  1.00  0.00    -0.246 OA
BRANCH   3   5
ATOM      5  C   UNL A   1      32.145  26.091  24.982  1.00  0.00     0.102 A 
ATOM      6  C   UNL A   1      33.982  24.733  24.183  1.00  0.00    -0.006 A 
ATOM      7  C   UNL A   1      33.224  24.328  23.082  1.00  0.00     0.013 A 
ATOM      8  C   UNL A   1      33.462  25.636  25.119  1.00  0.00     0.029 A 
ATOM      9  C   UNL A   1      31.901  24.751  22.966  1.00  0.00     0.048 A 
ATOM     10  C   UNL A   1      31.356  25.593  23.933  1.00  0.00     0.130 A 
BRANCH   6  11
ATOM     11  C   UNL A   1      35.304  24.105  24.385  1.00  0.00     0.119 C 
ATOM     12  N   UNL A   1      35.916  24.199  25.519  1.00  0.00    -0.256 NA
BRANCH  12  13
ATOM     13  C   UNL A   1      37.104  23.491  25.753  1.00  0.00     0.063 A 
ATOM     14  C   UNL A   1      39.356  21.878  26.219  1.00  0.00     0.082 A 
ATOM     15  C   UNL A   1      38.257  21.352  25.540  1.00  0.00     0.024 A 
ATOM     16  C   UNL A   1      39.350  23.206  26.651  1.00  0.00     0.024 A 
ATOM     17  C   UNL A   1      37.140  22.160  25.315  1.00  0.00     0.030 A 
ATOM     18  C   UNL A   1      38.221  24.004  26.425  1.00  0.00     0.030 A 
BRANCH  14  19
ATOM     19  S   UNL A   1      40.733  20.816  26.521  1.00  0.00     0.238 S 
ATOM     20  O   UNL A   1      40.855  20.606  27.945  1.00  0.00    -0.207 OA
ATOM     21  O   UNL A   1      41.840  21.257  25.703  1.00  0.00    -0.207 OA
BRANCH  19  22
ATOM     22  N   UNL A   1      40.273  19.326  25.896  1.00  0.00    -0.225 NA
ATOM     23  H   UNL A   1      40.938  19.039  25.177  1.00  0.00     0.137 HD
ATOM     24  H   UNL A   1      39.342  19.402  25.487  1.00  0.00     0.137 HD
ENDBRANCH  19  22
ENDBRANCH  14  19
ENDBRANCH  12  13
ENDBRANCH   6  11
BRANCH  10  25
ATOM     25  O   UNL A   1      30.036  25.914  23.763  1.00  0.00    -0.507 OA
ATOM     26  H   UNL A   1      29.741  26.789  23.928  1.00  0.00     0.293 HD
ENDBRANCH  10  25
ENDBRANCH   3   5
ENDBRANCH   2   3
ENDBRANCH   1   2
BRANCH   1  27
ATOM     27  C   UNL A   1      32.136  30.208  25.969  1.00  0.00     0.275 C 
BRANCH  27  28
ATOM     28  O   UNL A   1      33.501  30.235  26.427  1.00  0.00    -0.458 OA
BRANCH  28  29
ATOM     29  C   UNL A   1      33.834  31.300  27.197  1.00  0.00     0.338 C 
ATOM     30  O   UNL A   1      33.177  32.312  27.372  1.00  0.00    -0.246 OA
BRANCH  29  31
ATOM     31  C   UNL A   1      35.047  30.975  27.968  1.00  0.00     0.060 A 
ATOM     32  C   UNL A   1      35.091  29.722  28.582  1.00  0.00     0.016 A 
ATOM     33  C   UNL A   1      36.117  31.862  28.103  1.00  0.00     0.016 A 
ATOM     34  C   UNL A   1      36.226  29.315  29.280  1.00  0.00     0.010 A 
ATOM     35  C   UNL A   1      37.243  31.470  28.842  1.00  0.00     0.010 A 
ATOM     36  C   UNL A   1      37.309  30.190  29.422  1.00  0.00    -0.014 A 
BRANCH  36  37
ATOM     37  C   UNL A   1      38.471  29.781  30.246  1.00  0.00     0.031 A 
ATOM     38  C   UNL A   1      38.608  30.314  31.642  1.00  0.00     0.074 A 
ATOM     39  C   UNL A   1      39.373  28.905  29.765  1.00  0.00     0.049 A 
ATOM     40  N   UNL A   1      39.583  30.158  32.498  1.00  0.00    -0.248 NA
ATOM     41  C   UNL A   1      37.486  31.123  32.141  1.00  0.00     0.031 C 
ATOM     42  C   UNL A   1      39.292  28.243  28.463  1.00  0.00     0.029 A 
ATOM     43  N   UNL A   1      40.535  28.422  30.315  1.00  0.00    -0.354 N 
ATOM     44  C   UNL A   1      39.198  30.849  33.641  1.00  0.00     0.074 A 
ATOM     45  C   UNL A   1      37.908  31.443  33.356  1.00  0.00     0.031 C 
ATOM     46  C   UNL A   1      40.369  27.453  28.308  1.00  0.00     0.029 A 
ATOM     47  C   UNL A   1      41.241  27.595  29.473  1.00  0.00     0.049 A 
ATOM     48  H   UNL A   1      40.835  28.648  31.226  1.00  0.00     0.167 HD
ATOM     49  C   UNL A   1      39.862  30.976  34.816  1.00  0.00     0.034 A 
ATOM     50  C   UNL A   1      42.468  27.050  29.611  1.00  0.00     0.034 A 
ATOM     51  C   UNL A   1      41.159  30.398  35.074  1.00  0.00     0.049 A 
ATOM     52  C   UNL A   1      43.252  27.327  30.872  1.00  0.00     0.074 A 
ATOM     53  C   UNL A   1      41.928  30.481  36.222  1.00  0.00     0.029 A 
ATOM     54  N   UNL A   1      41.887  29.639  34.165  1.00  0.00    -0.354 N 
ATOM     55  N   UNL A   1      42.896  28.014  31.934  1.00  0.00    -0.248 NA
ATOM     56  C   UNL A   1      44.607  26.764  30.949  1.00  0.00     0.031 C 
ATOM     57  C   UNL A   1      43.148  29.839  35.980  1.00  0.00     0.029 A 
ATOM     58  C   UNL A   1      43.112  29.285  34.711  1.00  0.00     0.049 A 
ATOM     59  H   UNL A   1      41.578  29.391  33.264  1.00  0.00     0.167 HD
ATOM     60  C   UNL A   1      43.975  27.941  32.813  1.00  0.00     0.074 A 
ATOM     61  C   UNL A   1      44.984  27.131  32.164  1.00  0.00     0.031 C 
ATOM     62  C   UNL A   1      44.118  28.492  34.046  1.00  0.00     0.034 A 
BRANCH  49  63
ATOM     63  C   UNL A   1      39.222  31.831  35.880  1.00  0.00     0.023 A 
ATOM     64  C   UNL A   1      38.507  31.271  36.953  1.00  0.00     0.031 A 
ATOM     65  C   UNL A   1      39.301  33.233  35.801  1.00  0.00     0.131 A 
ATOM     66  C   UNL A   1      37.850  32.108  37.868  1.00  0.00     0.055 A 
ATOM     67  C   UNL A   1      38.707  34.060  36.755  1.00  0.00     0.041 A 
ATOM     68  F   UNL A   1      39.949  33.823  34.784  1.00  0.00    -0.206 F 
ATOM     69  C   UNL A   1      37.964  33.499  37.790  1.00  0.00     0.022 A 
BRANCH  66  70
ATOM     70  S   UNL A   1      36.734  31.359  39.086  1.00  0.00     0.124 S 
ATOM     71  O   UNL A   1      35.628  32.314  39.101  1.00  0.00    -0.237 OA
ATOM     72  O   UNL A   1      36.446  30.058  38.494  1.00  0.00    -0.237 OA
ATOM     73  O   UNL A   1      37.533  31.325  40.309  1.00  0.00    -0.744 OA
ENDBRANCH  66  70
ENDBRANCH  49  63
BRANCH  50  74
ATOM     74  C   UNL A   1      43.079  26.257  28.503  1.00  0.00     0.023 A 
ATOM     75  C   UNL A   1      44.063  26.809  27.667  1.00  0.00     0.031 A 
ATOM     76  C   UNL A   1      42.621  24.959  28.212  1.00  0.00     0.131 A 
ATOM     77  C   UNL A   1      44.521  26.086  26.553  1.00  0.00     0.055 A 
ATOM     78  C   UNL A   1      43.122  24.221  27.138  1.00  0.00     0.041 A 
ATOM     79  F   UNL A   1      41.672  24.385  28.969  1.00  0.00    -0.206 F 
ATOM     80  C   UNL A   1      44.066  24.791  26.291  1.00  0.00     0.022 A 
BRANCH  77  81
ATOM     81  S   UNL A   1      45.640  26.907  25.384  1.00  0.00     0.124 S 
ATOM     82  O   UNL A   1      46.132  25.779  24.603  1.00  0.00    -0.237 OA
ATOM     83  O   UNL A   1      44.740  27.823  24.694  1.00  0.00    -0.237 OA
ATOM     84  O   UNL A   1      46.630  27.543  26.251  1.00  0.00    -0.744 OA
ENDBRANCH  77  81
ENDBRANCH  50  74
BRANCH  62  85
ATOM     85  C   UNL A   1      45.404  28.200  34.783  1.00  0.00     0.023 A 
ATOM     86  C   UNL A   1      45.542  27.076  35.616  1.00  0.00     0.031 A 
ATOM     87  C   UNL A   1      46.504  29.068  34.656  1.00  0.00     0.131 A 
ATOM     88  C   UNL A   1      46.734  26.877  36.330  1.00  0.00     0.055 A 
ATOM     89  C   UNL A   1      47.708  28.833  35.323  1.00  0.00     0.041 A 
ATOM     90  F   UNL A   1      46.429  30.158  33.876  1.00  0.00    -0.206 F 
ATOM     91  C   UNL A   1      47.823  27.739  36.175  1.00  0.00     0.022 A 
BRANCH  88  92
ATOM     92  S   UNL A   1      46.815  25.520  37.531  1.00  0.00     0.124 S 
ATOM     93  O   UNL A   1      45.780  24.617  37.039  1.00  0.00    -0.237 OA
ATOM     94  O   UNL A   1      48.190  25.054  37.384  1.00  0.00    -0.237 OA
ATOM     95  O   UNL A   1      46.516  26.171  38.806  1.00  0.00    -0.744 OA
ENDBRANCH  88  92
ENDBRANCH  62  85
ENDBRANCH  36  37
ENDBRANCH  29  31
ENDBRANCH  28  29
ENDBRANCH  27  28
ENDBRANCH   1  27
TORSDOF 19
ENDMDL
