MODEL 1
REMARK VINA RESULT:      -9.3      0.000      0.000
REMARK SMILES CC(=O)N1CCC[C@H]1COCC(=O)OCCOC(=O)c1ccc(-c2c3nc(c(-c4cc(S(=O)(=O)[O-])ccc4F)c4ccc([nH]4)c(-c4cc(S(=O)(=O)[O-])ccc4F)c4nc(c(-c5cc(S(=O)(=O)[O-])ccc5F)c5ccc2[nH]5)C=C4)C=C3)cc1
REMARK SMILES IDX 15 1 14 2 12 3 13 4 11 5 10 6 9 7 8 8 4 9 5 10 6 11 7 12
REMARK SMILES IDX 2 13 1 14 3 15 16 16 17 17 18 18 19 19 20 20 21 21 82 22
REMARK SMILES IDX 22 23 81 24 23 25 24 26 25 27 75 28 26 29 80 30 74 31 76 32
REMARK SMILES IDX 27 33 79 34 73 35 72 36 28 38 60 39 40 40 59 41 41 42 44 43
REMARK SMILES IDX 58 44 77 45 42 46 43 47 57 49 78 50 45 51 29 52 30 53 38 54
REMARK SMILES IDX 31 55 37 56 39 57 36 58 32 59 33 60 34 61 35 62 61 63 62 64
REMARK SMILES IDX 70 65 63 66 69 67 71 68 68 69 64 70 65 71 66 72 67 73 46 74
REMARK SMILES IDX 47 75 55 76 48 77 54 78 56 79 53 80 49 81 50 82 51 83 52 84
REMARK H PARENT 76 37 44 48
REMARK Flexibility Score: inf
ROOT
ATOM      1  C   UNL A   1      33.640  34.523  28.647  1.00  0.00     0.274 C 
ENDROOT
BRANCH   1   2
ATOM      2  O   UNL A   1      32.558  34.939  29.517  1.00  0.00    -0.460 OA
BRANCH   2   3
ATOM      3  C   UNL A   1      32.923  35.632  30.629  1.00  0.00     0.332 C 
ATOM      4  O   UNL A   1      32.417  36.702  30.969  1.00  0.00    -0.250 OA
BRANCH   3   5
ATOM      5  C   UNL A   1      34.040  34.967  31.468  1.00  0.00     0.282 C 
BRANCH   5   6
ATOM      6  O   UNL A   1      34.239  33.588  31.713  1.00  0.00    -0.368 OA
BRANCH   6   7
ATOM      7  C   UNL A   1      35.571  33.072  31.524  1.00  0.00     0.186 C 
BRANCH   7   8
ATOM      8  C   UNL A   1      36.609  34.069  30.954  1.00  0.00     0.111 C 
ATOM      9  N   UNL A   1      37.825  34.343  31.742  1.00  0.00    -0.338 N 
ATOM     10  C   UNL A   1      39.008  34.374  30.884  1.00  0.00     0.120 C 
ATOM     11  C   UNL A   1      38.458  34.419  29.469  1.00  0.00     0.024 C 
ATOM     12  C   UNL A   1      37.157  33.634  29.585  1.00  0.00     0.029 C 
BRANCH   9  13
ATOM     13  C   UNL A   1      37.825  34.657  33.087  1.00  0.00     0.219 C 
ATOM     14  C   UNL A   1      39.154  34.567  33.797  1.00  0.00     0.114 C 
ATOM     15  O   UNL A   1      36.829  35.003  33.719  1.00  0.00    -0.275 OA
ENDBRANCH   9  13
ENDBRANCH   7   8
ENDBRANCH   6   7
ENDBRANCH   5   6
ENDBRANCH   3   5
ENDBRANCH   2   3
ENDBRANCH   1   2
BRANCH   1  16
ATOM     16  C   UNL A   1      33.417  33.128  28.025  1.00  0.00     0.275 C 
BRANCH  16  17
ATOM     17  O   UNL A   1      34.081  32.047  28.725  1.00  0.00    -0.458 OA
BRANCH  17  18
ATOM     18  C   UNL A   1      34.436  31.049  27.893  1.00  0.00     0.338 C 
ATOM     19  O   UNL A   1      33.829  30.720  26.892  1.00  0.00    -0.246 OA
BRANCH  18  20
ATOM     20  C   UNL A   1      35.694  30.368  28.170  1.00  0.00     0.060 A 
ATOM     21  C   UNL A   1      35.761  29.682  29.389  1.00  0.00     0.016 A 
ATOM     22  C   UNL A   1      36.848  30.672  27.450  1.00  0.00     0.016 A 
ATOM     23  C   UNL A   1      36.993  29.323  29.913  1.00  0.00     0.010 A 
ATOM     24  C   UNL A   1      38.087  30.270  27.959  1.00  0.00     0.010 A 
ATOM     25  C   UNL A   1      38.164  29.605  29.196  1.00  0.00    -0.014 A 
BRANCH  25  26
ATOM     26  C   UNL A   1      39.457  29.110  29.715  1.00  0.00     0.031 A 
ATOM     27  C   UNL A   1      40.179  27.971  29.062  1.00  0.00     0.074 A 
ATOM     28  C   UNL A   1      39.976  29.735  30.787  1.00  0.00     0.049 A 
ATOM     29  N   UNL A   1      41.265  27.353  29.448  1.00  0.00    -0.248 NA
ATOM     30  C   UNL A   1      39.605  27.460  27.811  1.00  0.00     0.031 C 
ATOM     31  C   UNL A   1      39.367  30.885  31.459  1.00  0.00     0.029 A 
ATOM     32  N   UNL A   1      41.120  29.496  31.497  1.00  0.00    -0.354 N 
ATOM     33  C   UNL A   1      41.495  26.359  28.503  1.00  0.00     0.074 A 
ATOM     34  C   UNL A   1      40.427  26.457  27.528  1.00  0.00     0.031 C 
ATOM     35  C   UNL A   1      40.146  31.254  32.485  1.00  0.00     0.029 A 
ATOM     36  C   UNL A   1      41.267  30.329  32.579  1.00  0.00     0.049 A 
ATOM     37  H   UNL A   1      41.771  28.798  31.257  1.00  0.00     0.167 HD
ATOM     38  C   UNL A   1      42.506  25.453  28.466  1.00  0.00     0.034 A 
ATOM     39  C   UNL A   1      42.182  30.320  33.565  1.00  0.00     0.034 A 
ATOM     40  C   UNL A   1      43.559  25.390  29.456  1.00  0.00     0.049 A 
ATOM     41  C   UNL A   1      43.262  29.280  33.529  1.00  0.00     0.074 A 
ATOM     42  C   UNL A   1      44.639  24.525  29.521  1.00  0.00     0.029 A 
ATOM     43  N   UNL A   1      43.661  26.226  30.563  1.00  0.00    -0.354 N 
ATOM     44  N   UNL A   1      43.448  28.317  32.656  1.00  0.00    -0.248 NA
ATOM     45  C   UNL A   1      44.252  29.325  34.608  1.00  0.00     0.031 C 
ATOM     46  C   UNL A   1      45.360  24.805  30.689  1.00  0.00     0.029 A 
ATOM     47  C   UNL A   1      44.768  25.884  31.325  1.00  0.00     0.049 A 
ATOM     48  H   UNL A   1      43.036  26.957  30.776  1.00  0.00     0.167 HD
ATOM     49  C   UNL A   1      44.584  27.640  33.079  1.00  0.00     0.074 A 
ATOM     50  C   UNL A   1      45.050  28.321  34.273  1.00  0.00     0.031 C 
ATOM     51  C   UNL A   1      45.191  26.557  32.531  1.00  0.00     0.034 A 
BRANCH  38  52
ATOM     52  C   UNL A   1      42.483  24.426  27.360  1.00  0.00     0.023 A 
ATOM     53  C   UNL A   1      41.639  23.303  27.402  1.00  0.00     0.031 A 
ATOM     54  C   UNL A   1      43.341  24.561  26.252  1.00  0.00     0.131 A 
ATOM     55  C   UNL A   1      41.717  22.327  26.396  1.00  0.00     0.055 A 
ATOM     56  C   UNL A   1      43.361  23.624  25.215  1.00  0.00     0.041 A 
ATOM     57  F   UNL A   1      44.186  25.599  26.164  1.00  0.00    -0.206 F 
ATOM     58  C   UNL A   1      42.556  22.492  25.291  1.00  0.00     0.022 A 
BRANCH  55  59
ATOM     59  S   UNL A   1      40.815  20.771  26.625  1.00  0.00     0.124 S 
ATOM     60  O   UNL A   1      39.513  21.093  26.043  1.00  0.00    -0.237 OA
ATOM     61  O   UNL A   1      41.631  19.821  25.879  1.00  0.00    -0.237 OA
ATOM     62  O   UNL A   1      40.810  20.586  28.075  1.00  0.00    -0.744 OA
ENDBRANCH  55  59
ENDBRANCH  38  52
BRANCH  39  63
ATOM     63  C   UNL A   1      42.065  31.294  34.679  1.00  0.00     0.023 A 
ATOM     64  C   UNL A   1      42.651  32.563  34.598  1.00  0.00     0.031 A 
ATOM     65  C   UNL A   1      41.326  30.972  35.833  1.00  0.00     0.131 A 
ATOM     66  C   UNL A   1      42.503  33.465  35.663  1.00  0.00     0.055 A 
ATOM     67  C   UNL A   1      41.148  31.886  36.870  1.00  0.00     0.041 A 
ATOM     68  F   UNL A   1      40.733  29.772  35.947  1.00  0.00    -0.206 F 
ATOM     69  C   UNL A   1      41.744  33.140  36.791  1.00  0.00     0.022 A 
BRANCH  66  70
ATOM     70  S   UNL A   1      43.346  35.066  35.564  1.00  0.00     0.124 S 
ATOM     71  O   UNL A   1      44.737  34.662  35.402  1.00  0.00    -0.237 OA
ATOM     72  O   UNL A   1      42.713  35.670  34.395  1.00  0.00    -0.237 OA
ATOM     73  O   UNL A   1      43.023  35.699  36.841  1.00  0.00    -0.744 OA
ENDBRANCH  66  70
ENDBRANCH  39  63
BRANCH  51  74
ATOM     74  C   UNL A   1      46.434  26.073  33.227  1.00  0.00     0.023 A 
ATOM     75  C   UNL A   1      46.375  25.088  34.228  1.00  0.00     0.031 A 
ATOM     76  C   UNL A   1      47.683  26.640  32.922  1.00  0.00     0.131 A 
ATOM     77  C   UNL A   1      47.536  24.741  34.932  1.00  0.00     0.055 A 
ATOM     78  C   UNL A   1      48.844  26.255  33.593  1.00  0.00     0.041 A 
ATOM     79  F   UNL A   1      47.790  27.587  31.977  1.00  0.00    -0.206 F 
ATOM     80  C   UNL A   1      48.773  25.311  34.614  1.00  0.00     0.022 A 
BRANCH  77  81
ATOM     81  S   UNL A   1      47.394  23.605  36.339  1.00  0.00     0.124 S 
ATOM     82  O   UNL A   1      46.650  22.493  35.755  1.00  0.00    -0.237 OA
ATOM     83  O   UNL A   1      48.790  23.336  36.665  1.00  0.00    -0.237 OA
ATOM     84  O   UNL A   1      46.663  24.384  37.337  1.00  0.00    -0.744 OA
ENDBRANCH  77  81
ENDBRANCH  51  74
ENDBRANCH  25  26
ENDBRANCH  18  20
ENDBRANCH  17  18
ENDBRANCH  16  17
ENDBRANCH   1  16
TORSDOF 18
ENDMDL
MODEL 2
REMARK VINA RESULT:      -9.0      3.966     10.532
REMARK SMILES CC(=O)N1CCC[C@H]1COCC(=O)OCCOC(=O)c1ccc(-c2c3nc(c(-c4cc(S(=O)(=O)[O-])ccc4F)c4ccc([nH]4)c(-c4cc(S(=O)(=O)[O-])ccc4F)c4nc(c(-c5cc(S(=O)(=O)[O-])ccc5F)c5ccc2[nH]5)C=C4)C=C3)cc1
REMARK SMILES IDX 15 1 14 2 12 3 13 4 11 5 10 6 9 7 8 8 4 9 5 10 6 11 7 12
REMARK SMILES IDX 2 13 1 14 3 15 16 16 17 17 18 18 19 19 20 20 21 21 82 22
REMARK SMILES IDX 22 23 81 24 23 25 24 26 25 27 75 28 26 29 80 30 74 31 76 32
REMARK SMILES IDX 27 33 79 34 73 35 72 36 28 38 60 39 40 40 59 41 41 42 44 43
REMARK SMILES IDX 58 44 77 45 42 46 43 47 57 49 78 50 45 51 29 52 30 53 38 54
REMARK SMILES IDX 31 55 37 56 39 57 36 58 32 59 33 60 34 61 35 62 61 63 62 64
REMARK SMILES IDX 70 65 63 66 69 67 71 68 68 69 64 70 65 71 66 72 67 73 46 74
REMARK SMILES IDX 47 75 55 76 48 77 54 78 56 79 53 80 49 81 50 82 51 83 52 84
REMARK H PARENT 76 37 44 48
REMARK Flexibility Score: inf
ROOT
ATOM      1  C   UNL A   1      40.458  19.766  26.481  1.00  0.00     0.274 C 
ENDROOT
BRANCH   1   2
ATOM      2  O   UNL A   1      41.397  19.557  25.397  1.00  0.00    -0.460 OA
BRANCH   2   3
ATOM      3  C   UNL A   1      42.701  19.417  25.759  1.00  0.00     0.332 C 
ATOM      4  O   UNL A   1      43.190  18.366  26.173  1.00  0.00    -0.250 OA
BRANCH   3   5
ATOM      5  C   UNL A   1      43.556  20.697  25.605  1.00  0.00     0.282 C 
BRANCH   5   6
ATOM      6  O   UNL A   1      43.166  21.942  25.055  1.00  0.00    -0.368 OA
BRANCH   6   7
ATOM      7  C   UNL A   1      43.199  23.086  25.930  1.00  0.00     0.186 C 
BRANCH   7   8
ATOM      8  C   UNL A   1      43.797  22.846  27.337  1.00  0.00     0.111 C 
ATOM      9  N   UNL A   1      44.989  23.618  27.735  1.00  0.00    -0.338 N 
ATOM     10  C   UNL A   1      44.868  24.096  29.110  1.00  0.00     0.120 C 
ATOM     11  C   UNL A   1      43.685  23.334  29.682  1.00  0.00     0.024 C 
ATOM     12  C   UNL A   1      42.790  23.131  28.464  1.00  0.00     0.029 C 
BRANCH   9  13
ATOM     13  C   UNL A   1      46.121  23.756  26.955  1.00  0.00     0.219 C 
ATOM     14  C   UNL A   1      46.841  25.079  27.046  1.00  0.00     0.114 C 
ATOM     15  O   UNL A   1      46.565  22.880  26.215  1.00  0.00    -0.275 OA
ENDBRANCH   9  13
ENDBRANCH   7   8
ENDBRANCH   6   7
ENDBRANCH   5   6
ENDBRANCH   3   5
ENDBRANCH   2   3
ENDBRANCH   1   2
BRANCH   1  16
ATOM     16  C   UNL A   1      40.144  21.256  26.735  1.00  0.00     0.275 C 
BRANCH  16  17
ATOM     17  O   UNL A   1      39.298  21.869  25.733  1.00  0.00    -0.458 OA
BRANCH  17  18
ATOM     18  C   UNL A   1      38.615  22.921  26.223  1.00  0.00     0.338 C 
ATOM     19  O   UNL A   1      37.409  22.969  26.368  1.00  0.00    -0.246 OA
BRANCH  18  20
ATOM     20  C   UNL A   1      39.395  24.058  26.696  1.00  0.00     0.060 A 
ATOM     21  C   UNL A   1      39.168  24.445  28.022  1.00  0.00     0.016 A 
ATOM     22  C   UNL A   1      40.043  24.906  25.798  1.00  0.00     0.016 A 
ATOM     23  C   UNL A   1      39.563  25.704  28.451  1.00  0.00     0.010 A 
ATOM     24  C   UNL A   1      40.479  26.157  26.245  1.00  0.00     0.010 A 
ATOM     25  C   UNL A   1      40.230  26.563  27.569  1.00  0.00    -0.014 A 
BRANCH  25  26
ATOM     26  C   UNL A   1      40.746  27.852  28.079  1.00  0.00     0.031 A 
ATOM     27  C   UNL A   1      42.213  28.156  28.096  1.00  0.00     0.074 A 
ATOM     28  C   UNL A   1      39.847  28.754  28.509  1.00  0.00     0.049 A 
ATOM     29  N   UNL A   1      42.835  29.191  28.601  1.00  0.00    -0.248 NA
ATOM     30  C   UNL A   1      43.097  27.169  27.465  1.00  0.00     0.031 C 
ATOM     31  C   UNL A   1      38.394  28.563  28.483  1.00  0.00     0.029 A 
ATOM     32  N   UNL A   1      40.013  29.999  29.049  1.00  0.00    -0.354 N 
ATOM     33  C   UNL A   1      44.189  28.971  28.373  1.00  0.00     0.074 A 
ATOM     34  C   UNL A   1      44.294  27.698  27.689  1.00  0.00     0.031 C 
ATOM     35  C   UNL A   1      37.802  29.655  28.984  1.00  0.00     0.029 A 
ATOM     36  C   UNL A   1      38.831  30.588  29.423  1.00  0.00     0.049 A 
ATOM     37  H   UNL A   1      40.892  30.429  29.158  1.00  0.00     0.167 HD
ATOM     38  C   UNL A   1      45.237  29.765  28.712  1.00  0.00     0.034 A 
ATOM     39  C   UNL A   1      38.603  31.734  30.088  1.00  0.00     0.034 A 
ATOM     40  C   UNL A   1      45.092  31.034  29.391  1.00  0.00     0.049 A 
ATOM     41  C   UNL A   1      39.779  32.572  30.495  1.00  0.00     0.074 A 
ATOM     42  C   UNL A   1      46.075  31.930  29.777  1.00  0.00     0.029 A 
ATOM     43  N   UNL A   1      43.879  31.588  29.790  1.00  0.00    -0.354 N 
ATOM     44  N   UNL A   1      41.058  32.336  30.314  1.00  0.00    -0.248 NA
ATOM     45  C   UNL A   1      39.482  33.825  31.192  1.00  0.00     0.031 C 
ATOM     46  C   UNL A   1      45.463  32.994  30.453  1.00  0.00     0.029 A 
ATOM     47  C   UNL A   1      44.092  32.797  30.436  1.00  0.00     0.049 A 
ATOM     48  H   UNL A   1      42.997  31.181  29.635  1.00  0.00     0.167 HD
ATOM     49  C   UNL A   1      41.722  33.420  30.874  1.00  0.00     0.074 A 
ATOM     50  C   UNL A   1      40.699  34.316  31.378  1.00  0.00     0.031 C 
ATOM     51  C   UNL A   1      43.056  33.655  30.961  1.00  0.00     0.034 A 
BRANCH  38  52
ATOM     52  C   UNL A   1      46.626  29.255  28.410  1.00  0.00     0.023 A 
ATOM     53  C   UNL A   1      47.313  28.401  29.289  1.00  0.00     0.031 A 
ATOM     54  C   UNL A   1      47.284  29.651  27.230  1.00  0.00     0.131 A 
ATOM     55  C   UNL A   1      48.637  28.024  29.011  1.00  0.00     0.055 A 
ATOM     56  C   UNL A   1      48.575  29.213  26.923  1.00  0.00     0.041 A 
ATOM     57  F   UNL A   1      46.689  30.483  26.362  1.00  0.00    -0.206 F 
ATOM     58  C   UNL A   1      49.264  28.406  27.822  1.00  0.00     0.022 A 
BRANCH  55  59
ATOM     59  S   UNL A   1      49.578  27.151  30.293  1.00  0.00     0.124 S 
ATOM     60  O   UNL A   1      49.472  28.076  31.420  1.00  0.00    -0.237 OA
ATOM     61  O   UNL A   1      48.844  25.898  30.423  1.00  0.00    -0.237 OA
ATOM     62  O   UNL A   1      50.916  27.035  29.718  1.00  0.00    -0.744 OA
ENDBRANCH  55  59
ENDBRANCH  38  52
BRANCH  39  63
ATOM     63  C   UNL A   1      37.211  32.107  30.448  1.00  0.00     0.023 A 
ATOM     64  C   UNL A   1      36.367  32.736  29.524  1.00  0.00     0.031 A 
ATOM     65  C   UNL A   1      36.697  31.799  31.721  1.00  0.00     0.131 A 
ATOM     66  C   UNL A   1      35.051  33.055  29.892  1.00  0.00     0.055 A 
ATOM     67  C   UNL A   1      35.376  32.082  32.068  1.00  0.00     0.041 A 
ATOM     68  F   UNL A   1      37.465  31.181  32.633  1.00  0.00    -0.206 F 
ATOM     69  C   UNL A   1      34.547  32.720  31.152  1.00  0.00     0.022 A 
BRANCH  66  70
ATOM     70  S   UNL A   1      34.012  33.946  28.705  1.00  0.00     0.124 S 
ATOM     71  O   UNL A   1      34.954  34.910  28.148  1.00  0.00    -0.237 OA
ATOM     72  O   UNL A   1      33.586  32.874  27.810  1.00  0.00    -0.237 OA
ATOM     73  O   UNL A   1      32.956  34.516  29.538  1.00  0.00    -0.744 OA
ENDBRANCH  66  70
ENDBRANCH  39  63
BRANCH  51  74
ATOM     74  C   UNL A   1      43.457  34.950  31.615  1.00  0.00     0.023 A 
ATOM     75  C   UNL A   1      43.675  36.114  30.859  1.00  0.00     0.031 A 
ATOM     76  C   UNL A   1      43.675  35.005  33.002  1.00  0.00     0.131 A 
ATOM     77  C   UNL A   1      44.155  37.272  31.486  1.00  0.00     0.055 A 
ATOM     78  C   UNL A   1      44.105  36.175  33.629  1.00  0.00     0.041 A 
ATOM     79  F   UNL A   1      43.485  33.918  33.767  1.00  0.00    -0.206 F 
ATOM     80  C   UNL A   1      44.361  37.313  32.869  1.00  0.00     0.022 A 
BRANCH  77  81
ATOM     81  S   UNL A   1      44.599  38.698  30.458  1.00  0.00     0.124 S 
ATOM     82  O   UNL A   1      45.715  38.173  29.677  1.00  0.00    -0.237 OA
ATOM     83  O   UNL A   1      43.365  38.946  29.719  1.00  0.00    -0.237 OA
ATOM     84  O   UNL A   1      44.955  39.728  31.433  1.00  0.00    -0.744 OA
ENDBRANCH  77  81
ENDBRANCH  51  74
ENDBRANCH  25  26
ENDBRANCH  18  20
ENDBRANCH  17  18
ENDBRANCH  16  17
ENDBRANCH   1  16
TORSDOF 18
ENDMDL
MODEL 3
REMARK VINA RESULT:      -9.0      3.915      6.122
REMARK SMILES CC(=O)N1CCC[C@H]1COCC(=O)OCCOC(=O)c1ccc(-c2c3nc(c(-c4cc(S(=O)(=O)[O-])ccc4F)c4ccc([nH]4)c(-c4cc(S(=O)(=O)[O-])ccc4F)c4nc(c(-c5cc(S(=O)(=O)[O-])ccc5F)c5ccc2[nH]5)C=C4)C=C3)cc1
REMARK SMILES IDX 15 1 14 2 12 3 13 4 11 5 10 6 9 7 8 8 4 9 5 10 6 11 7 12
REMARK SMILES IDX 2 13 1 14 3 15 16 16 17 17 18 18 19 19 20 20 21 21 82 22
REMARK SMILES IDX 22 23 81 24 23 25 24 26 25 27 75 28 26 29 80 30 74 31 76 32
REMARK SMILES IDX 27 33 79 34 73 35 72 36 28 38 60 39 40 40 59 41 41 42 44 43
REMARK SMILES IDX 58 44 77 45 42 46 43 47 57 49 78 50 45 51 29 52 30 53 38 54
REMARK SMILES IDX 31 55 37 56 39 57 36 58 32 59 33 60 34 61 35 62 61 63 62 64
REMARK SMILES IDX 70 65 63 66 69 67 71 68 68 69 64 70 65 71 66 72 67 73 46 74
REMARK SMILES IDX 47 75 55 76 48 77 54 78 56 79 53 80 49 81 50 82 51 83 52 84
REMARK H PARENT 76 37 44 48
REMARK Flexibility Score: inf
ROOT
ATOM      1  C   UNL A   1      31.885  29.272  24.748  1.00  0.00     0.274 C 
ENDROOT
BRANCH   1   2
ATOM      2  O   UNL A   1      30.651  28.956  24.057  1.00  0.00    -0.460 OA
BRANCH   2   3
ATOM      3  C   UNL A   1      30.704  27.902  23.199  1.00  0.00     0.332 C 
ATOM      4  O   UNL A   1      30.585  28.002  21.978  1.00  0.00    -0.250 OA
BRANCH   3   5
ATOM      5  C   UNL A   1      30.940  26.530  23.875  1.00  0.00     0.282 C 
BRANCH   5   6
ATOM      6  O   UNL A   1      31.834  25.508  23.477  1.00  0.00    -0.368 OA
BRANCH   6   7
ATOM      7  C   UNL A   1      31.318  24.163  23.437  1.00  0.00     0.186 C 
BRANCH   7   8
ATOM      8  C   UNL A   1      32.161  23.093  24.173  1.00  0.00     0.111 C 
ATOM      9  N   UNL A   1      31.590  22.452  25.373  1.00  0.00    -0.338 N 
ATOM     10  C   UNL A   1      31.842  21.013  25.366  1.00  0.00     0.120 C 
ATOM     11  C   UNL A   1      32.868  20.804  24.267  1.00  0.00     0.024 C 
ATOM     12  C   UNL A   1      32.526  21.904  23.269  1.00  0.00     0.029 C 
BRANCH   9  13
ATOM     13  C   UNL A   1      31.012  23.142  26.420  1.00  0.00     0.219 C 
ATOM     14  C   UNL A   1      29.706  22.596  26.943  1.00  0.00     0.114 C 
ATOM     15  O   UNL A   1      31.494  24.145  26.941  1.00  0.00    -0.275 OA
ENDBRANCH   9  13
ENDBRANCH   7   8
ENDBRANCH   6   7
ENDBRANCH   5   6
ENDBRANCH   3   5
ENDBRANCH   2   3
ENDBRANCH   1   2
BRANCH   1  16
ATOM     16  C   UNL A   1      31.759  30.489  25.691  1.00  0.00     0.275 C 
BRANCH  16  17
ATOM     17  O   UNL A   1      32.418  30.326  26.969  1.00  0.00    -0.458 OA
BRANCH  17  18
ATOM     18  C   UNL A   1      33.219  31.368  27.262  1.00  0.00     0.338 C 
ATOM     19  O   UNL A   1      32.875  32.535  27.278  1.00  0.00    -0.246 OA
BRANCH  18  20
ATOM     20  C   UNL A   1      34.583  31.064  27.676  1.00  0.00     0.060 A 
ATOM     21  C   UNL A   1      34.807  29.756  28.124  1.00  0.00     0.016 A 
ATOM     22  C   UNL A   1      35.496  32.083  27.940  1.00  0.00     0.016 A 
ATOM     23  C   UNL A   1      35.939  29.467  28.871  1.00  0.00     0.010 A 
ATOM     24  C   UNL A   1      36.659  31.779  28.656  1.00  0.00     0.010 A 
ATOM     25  C   UNL A   1      36.877  30.474  29.133  1.00  0.00    -0.014 A 
BRANCH  25  26
ATOM     26  C   UNL A   1      38.133  30.119  29.829  1.00  0.00     0.031 A 
ATOM     27  C   UNL A   1      39.132  29.187  29.215  1.00  0.00     0.074 A 
ATOM     28  C   UNL A   1      38.356  30.680  31.030  1.00  0.00     0.049 A 
ATOM     29  N   UNL A   1      40.228  28.695  29.733  1.00  0.00    -0.248 NA
ATOM     30  C   UNL A   1      38.864  28.749  27.840  1.00  0.00     0.031 C 
ATOM     31  C   UNL A   1      37.462  31.639  31.685  1.00  0.00     0.029 A 
ATOM     32  N   UNL A   1      39.392  30.532  31.910  1.00  0.00    -0.354 N 
ATOM     33  C   UNL A   1      40.773  27.867  28.758  1.00  0.00     0.074 A 
ATOM     34  C   UNL A   1      39.877  27.921  27.619  1.00  0.00     0.031 C 
ATOM     35  C   UNL A   1      37.989  31.994  32.864  1.00  0.00     0.029 A 
ATOM     36  C   UNL A   1      39.219  31.241  33.073  1.00  0.00     0.049 A 
ATOM     37  H   UNL A   1      40.181  29.972  31.729  1.00  0.00     0.167 HD
ATOM     38  C   UNL A   1      41.913  27.133  28.821  1.00  0.00     0.034 A 
ATOM     39  C   UNL A   1      39.948  31.250  34.203  1.00  0.00     0.034 A 
ATOM     40  C   UNL A   1      42.785  27.109  29.975  1.00  0.00     0.049 A 
ATOM     41  C   UNL A   1      41.178  30.394  34.268  1.00  0.00     0.074 A 
ATOM     42  C   UNL A   1      43.970  26.413  30.154  1.00  0.00     0.029 A 
ATOM     43  N   UNL A   1      42.563  27.812  31.154  1.00  0.00    -0.354 N 
ATOM     44  N   UNL A   1      41.663  29.581  33.358  1.00  0.00    -0.248 NA
ATOM     45  C   UNL A   1      41.956  30.457  35.507  1.00  0.00     0.031 C 
ATOM     46  C   UNL A   1      44.433  26.655  31.454  1.00  0.00     0.029 A 
ATOM     47  C   UNL A   1      43.572  27.550  32.069  1.00  0.00     0.049 A 
ATOM     48  H   UNL A   1      41.799  28.411  31.316  1.00  0.00     0.167 HD
ATOM     49  C   UNL A   1      42.812  29.036  33.915  1.00  0.00     0.074 A 
ATOM     50  C   UNL A   1      42.955  29.630  35.231  1.00  0.00     0.031 C 
ATOM     51  C   UNL A   1      43.673  28.129  33.388  1.00  0.00     0.034 A 
BRANCH  38  52
ATOM     52  C   UNL A   1      42.244  26.254  27.638  1.00  0.00     0.023 A 
ATOM     53  C   UNL A   1      41.798  24.924  27.549  1.00  0.00     0.031 A 
ATOM     54  C   UNL A   1      43.044  26.749  26.591  1.00  0.00     0.131 A 
ATOM     55  C   UNL A   1      42.205  24.117  26.476  1.00  0.00     0.055 A 
ATOM     56  C   UNL A   1      43.385  25.963  25.488  1.00  0.00     0.041 A 
ATOM     57  F   UNL A   1      43.520  28.003  26.629  1.00  0.00    -0.206 F 
ATOM     58  C   UNL A   1      42.978  24.634  25.433  1.00  0.00     0.022 A 
BRANCH  55  59
ATOM     59  S   UNL A   1      41.835  22.342  26.536  1.00  0.00     0.124 S 
ATOM     60  O   UNL A   1      42.625  21.836  25.415  1.00  0.00    -0.237 OA
ATOM     61  O   UNL A   1      42.301  21.969  27.866  1.00  0.00    -0.237 OA
ATOM     62  O   UNL A   1      40.388  22.286  26.342  1.00  0.00    -0.744 OA
ENDBRANCH  55  59
ENDBRANCH  38  52
BRANCH  39  63
ATOM     63  C   UNL A   1      39.489  32.055  35.363  1.00  0.00     0.023 A 
ATOM     64  C   UNL A   1      39.902  33.382  35.535  1.00  0.00     0.031 A 
ATOM     65  C   UNL A   1      38.593  31.508  36.301  1.00  0.00     0.131 A 
ATOM     66  C   UNL A   1      39.431  34.119  36.632  1.00  0.00     0.055 A 
ATOM     67  C   UNL A   1      38.097  32.257  37.367  1.00  0.00     0.041 A 
ATOM     68  F   UNL A   1      38.157  30.245  36.167  1.00  0.00    -0.206 F 
ATOM     69  C   UNL A   1      38.522  33.570  37.540  1.00  0.00     0.022 A 
BRANCH  66  70
ATOM     70  S   UNL A   1      40.052  35.804  36.873  1.00  0.00     0.124 S 
ATOM     71  O   UNL A   1      41.480  35.573  37.055  1.00  0.00    -0.237 OA
ATOM     72  O   UNL A   1      39.661  36.453  35.625  1.00  0.00    -0.237 OA
ATOM     73  O   UNL A   1      39.337  36.263  38.062  1.00  0.00    -0.744 OA
ENDBRANCH  66  70
ENDBRANCH  39  63
BRANCH  51  74
ATOM     74  C   UNL A   1      44.849  27.755  34.250  1.00  0.00     0.023 A 
ATOM     75  C   UNL A   1      44.810  26.629  35.091  1.00  0.00     0.031 A 
ATOM     76  C   UNL A   1      45.998  28.564  34.269  1.00  0.00     0.131 A 
ATOM     77  C   UNL A   1      45.879  26.375  35.961  1.00  0.00     0.055 A 
ATOM     78  C   UNL A   1      47.079  28.277  35.102  1.00  0.00     0.041 A 
ATOM     79  F   UNL A   1      46.080  29.652  33.488  1.00  0.00    -0.206 F 
ATOM     80  C   UNL A   1      47.018  27.185  35.965  1.00  0.00     0.022 A 
BRANCH  77  81
ATOM     81  S   UNL A   1      45.720  25.023  37.160  1.00  0.00     0.124 S 
ATOM     82  O   UNL A   1      46.095  25.681  38.408  1.00  0.00    -0.237 OA
ATOM     83  O   UNL A   1      44.315  24.655  37.031  1.00  0.00    -0.237 OA
ATOM     84  O   UNL A   1      46.670  24.022  36.677  1.00  0.00    -0.744 OA
ENDBRANCH  77  81
ENDBRANCH  51  74
ENDBRANCH  25  26
ENDBRANCH  18  20
ENDBRANCH  17  18
ENDBRANCH  16  17
ENDBRANCH   1  16
TORSDOF 18
ENDMDL
