MODEL 1
REMARK VINA RESULT:     -11.2      0.000      0.000
REMARK SMILES CC(C)N(CC(=O)OCCOC(=O)c1ccc(-c2c3nc(c(-c4cc(S(=O)(=O)[O-])ccc4F)c4ccc([nH]4)c(-c4cc(S(=O)(=O)[O-])ccc4F)c4nc(c(-c5cc(S(=O)(=O)[O-])ccc5F)c5ccc2[nH]5)C=C4)C=C3)cc1)C(=O)NC1C(C)(C)C1(C)C
REMARK SMILES IDX 9 1 8 2 6 3 7 4 5 5 4 6 2 7 1 8 3 9 77 10 78 11 79 12 80 14
REMARK SMILES IDX 81 15 84 16 82 17 83 18 85 19 86 20 10 21 11 22 12 23 13 24
REMARK SMILES IDX 14 25 15 26 76 27 16 28 75 29 17 30 18 31 19 32 69 33 20 34
REMARK SMILES IDX 74 35 68 36 70 37 21 38 73 39 67 40 66 41 22 43 54 44 34 45
REMARK SMILES IDX 53 46 35 47 38 48 52 49 71 50 36 51 37 52 51 54 72 55 39 56
REMARK SMILES IDX 23 57 24 58 32 59 25 60 31 61 33 62 30 63 26 64 27 65 28 66
REMARK SMILES IDX 29 67 55 68 56 69 64 70 57 71 63 72 65 73 62 74 58 75 59 76
REMARK SMILES IDX 60 77 61 78 40 79 41 80 49 81 42 82 48 83 50 84 47 85 43 86
REMARK SMILES IDX 44 87 45 88 46 89
REMARK H PARENT 79 13 70 42 38 53
REMARK Flexibility Score: inf
ROOT
ATOM      1  C   UNL A   1      31.135  28.922  24.046  1.00  0.00     0.274 C 
ENDROOT
BRANCH   1   2
ATOM      2  O   UNL A   1      30.660  27.630  24.510  1.00  0.00    -0.461 OA
BRANCH   2   3
ATOM      3  C   UNL A   1      30.714  26.592  23.624  1.00  0.00     0.325 C 
ATOM      4  O   UNL A   1      30.784  26.743  22.425  1.00  0.00    -0.250 OA
BRANCH   3   5
ATOM      5  C   UNL A   1      30.535  25.250  24.347  1.00  0.00     0.244 C 
BRANCH   5   6
ATOM      6  N   UNL A   1      31.676  24.715  25.090  1.00  0.00    -0.311 N 
BRANCH   6   7
ATOM      7  C   UNL A   1      33.028  25.220  24.756  1.00  0.00     0.081 C 
ATOM      8  C   UNL A   1      34.098  25.037  25.851  1.00  0.00     0.031 C 
ATOM      9  C   UNL A   1      33.572  24.656  23.442  1.00  0.00     0.031 C 
ENDBRANCH   6   7
BRANCH   6  10
ATOM     10  C   UNL A   1      31.542  23.822  26.107  1.00  0.00     0.318 C 
ATOM     11  O   UNL A   1      31.061  24.167  27.191  1.00  0.00    -0.249 OA
ATOM     12  N   UNL A   1      31.839  22.515  25.976  1.00  0.00    -0.334 N 
ATOM     13  H   UNL A   1      31.552  22.032  26.785  1.00  0.00     0.165 HD
BRANCH  12  14
ATOM     14  C   UNL A   1      32.432  21.597  25.060  1.00  0.00     0.096 C 
ATOM     15  C   UNL A   1      33.874  21.190  25.294  1.00  0.00    -0.007 C 
ATOM     16  C   UNL A   1      32.817  20.129  24.968  1.00  0.00    -0.007 C 
ATOM     17  C   UNL A   1      34.954  21.468  24.276  1.00  0.00     0.014 C 
ATOM     18  C   UNL A   1      34.373  21.395  26.713  1.00  0.00     0.014 C 
ATOM     19  C   UNL A   1      32.727  19.018  25.976  1.00  0.00     0.014 C 
ATOM     20  C   UNL A   1      32.677  19.558  23.554  1.00  0.00     0.014 C 
ENDBRANCH  12  14
ENDBRANCH   6  10
ENDBRANCH   5   6
ENDBRANCH   3   5
ENDBRANCH   2   3
ENDBRANCH   1   2
BRANCH   1  21
ATOM     21  C   UNL A   1      31.227  30.060  25.085  1.00  0.00     0.275 C 
BRANCH  21  22
ATOM     22  O   UNL A   1      32.405  29.889  25.913  1.00  0.00    -0.458 OA
BRANCH  22  23
ATOM     23  C   UNL A   1      32.706  30.923  26.751  1.00  0.00     0.338 C 
ATOM     24  O   UNL A   1      31.947  31.838  27.034  1.00  0.00    -0.246 OA
BRANCH  23  25
ATOM     25  C   UNL A   1      34.095  30.798  27.307  1.00  0.00     0.060 A 
ATOM     26  C   UNL A   1      34.635  29.553  27.587  1.00  0.00     0.016 A 
ATOM     27  C   UNL A   1      34.851  31.919  27.665  1.00  0.00     0.016 A 
ATOM     28  C   UNL A   1      35.833  29.427  28.316  1.00  0.00     0.010 A 
ATOM     29  C   UNL A   1      36.119  31.778  28.291  1.00  0.00     0.010 A 
ATOM     30  C   UNL A   1      36.630  30.521  28.672  1.00  0.00    -0.014 A 
BRANCH  30  31
ATOM     31  C   UNL A   1      37.919  30.350  29.469  1.00  0.00     0.031 A 
ATOM     32  C   UNL A   1      39.087  29.564  28.891  1.00  0.00     0.074 A 
ATOM     33  C   UNL A   1      38.134  30.922  30.683  1.00  0.00     0.049 A 
ATOM     34  N   UNL A   1      40.127  29.037  29.496  1.00  0.00    -0.248 NA
ATOM     35  C   UNL A   1      39.080  29.349  27.438  1.00  0.00     0.031 C 
ATOM     36  C   UNL A   1      37.226  31.832  31.381  1.00  0.00     0.029 A 
ATOM     37  N   UNL A   1      39.212  30.835  31.549  1.00  0.00    -0.354 N 
ATOM     38  C   UNL A   1      40.845  28.351  28.515  1.00  0.00     0.074 A 
ATOM     39  C   UNL A   1      40.127  28.552  27.272  1.00  0.00     0.031 C 
ATOM     40  C   UNL A   1      37.807  32.277  32.505  1.00  0.00     0.029 A 
ATOM     41  C   UNL A   1      39.052  31.549  32.720  1.00  0.00     0.049 A 
ATOM     42  H   UNL A   1      40.020  30.310  31.348  1.00  0.00     0.167 HD
ATOM     43  C   UNL A   1      41.980  27.612  28.639  1.00  0.00     0.034 A 
ATOM     44  C   UNL A   1      39.747  31.567  33.882  1.00  0.00     0.034 A 
ATOM     45  C   UNL A   1      42.743  27.478  29.863  1.00  0.00     0.049 A 
ATOM     46  C   UNL A   1      40.927  30.641  34.050  1.00  0.00     0.074 A 
ATOM     47  C   UNL A   1      43.887  26.727  30.092  1.00  0.00     0.029 A 
ATOM     48  N   UNL A   1      42.459  28.124  31.058  1.00  0.00    -0.354 N 
ATOM     49  N   UNL A   1      41.488  29.845  33.170  1.00  0.00    -0.248 NA
ATOM     50  C   UNL A   1      41.541  30.585  35.385  1.00  0.00     0.031 C 
ATOM     51  C   UNL A   1      44.245  26.858  31.438  1.00  0.00     0.029 A 
ATOM     52  C   UNL A   1      43.380  27.760  32.033  1.00  0.00     0.049 A 
ATOM     53  H   UNL A   1      41.712  28.750  31.196  1.00  0.00     0.167 HD
ATOM     54  C   UNL A   1      42.526  29.206  33.845  1.00  0.00     0.074 A 
ATOM     55  C   UNL A   1      42.533  29.728  35.194  1.00  0.00     0.031 C 
ATOM     56  C   UNL A   1      43.388  28.263  33.387  1.00  0.00     0.034 A 
BRANCH  43  57
ATOM     57  C   UNL A   1      42.412  26.788  27.443  1.00  0.00     0.023 A 
ATOM     58  C   UNL A   1      42.146  25.413  27.320  1.00  0.00     0.031 A 
ATOM     59  C   UNL A   1      43.142  27.407  26.407  1.00  0.00     0.131 A 
ATOM     60  C   UNL A   1      42.674  24.693  26.235  1.00  0.00     0.055 A 
ATOM     61  C   UNL A   1      43.589  26.703  25.289  1.00  0.00     0.041 A 
ATOM     62  F   UNL A   1      43.442  28.714  26.471  1.00  0.00    -0.206 F 
ATOM     63  C   UNL A   1      43.372  25.333  25.206  1.00  0.00     0.022 A 
BRANCH  60  64
ATOM     64  S   UNL A   1      42.579  22.881  26.262  1.00  0.00     0.124 S 
ATOM     65  O   UNL A   1      42.785  22.554  24.854  1.00  0.00    -0.237 OA
ATOM     66  O   UNL A   1      43.664  22.523  27.168  1.00  0.00    -0.237 OA
ATOM     67  O   UNL A   1      41.232  22.615  26.765  1.00  0.00    -0.744 OA
ENDBRANCH  60  64
ENDBRANCH  43  57
BRANCH  44  68
ATOM     68  C   UNL A   1      39.269  32.377  35.053  1.00  0.00     0.023 A 
ATOM     69  C   UNL A   1      39.737  33.681  35.289  1.00  0.00     0.031 A 
ATOM     70  C   UNL A   1      38.390  31.820  36.003  1.00  0.00     0.131 A 
ATOM     71  C   UNL A   1      39.349  34.367  36.455  1.00  0.00     0.055 A 
ATOM     72  C   UNL A   1      37.948  32.533  37.118  1.00  0.00     0.041 A 
ATOM     73  F   UNL A   1      37.933  30.566  35.856  1.00  0.00    -0.206 F 
ATOM     74  C   UNL A   1      38.438  33.811  37.356  1.00  0.00     0.022 A 
BRANCH  71  75
ATOM     75  S   UNL A   1      40.126  35.962  36.839  1.00  0.00     0.124 S 
ATOM     76  O   UNL A   1      39.863  36.720  35.621  1.00  0.00    -0.237 OA
ATOM     77  O   UNL A   1      39.392  36.381  38.028  1.00  0.00    -0.237 OA
ATOM     78  O   UNL A   1      41.527  35.612  37.066  1.00  0.00    -0.744 OA
ENDBRANCH  71  75
ENDBRANCH  44  68
BRANCH  56  79
ATOM     79  C   UNL A   1      44.446  27.769  34.348  1.00  0.00     0.023 A 
ATOM     80  C   UNL A   1      44.295  26.570  35.068  1.00  0.00     0.031 A 
ATOM     81  C   UNL A   1      45.608  28.529  34.575  1.00  0.00     0.131 A 
ATOM     82  C   UNL A   1      45.253  26.199  36.025  1.00  0.00     0.055 A 
ATOM     83  C   UNL A   1      46.590  28.122  35.481  1.00  0.00     0.041 A 
ATOM     84  F   UNL A   1      45.806  29.686  33.925  1.00  0.00    -0.206 F 
ATOM     85  C   UNL A   1      46.409  26.959  36.223  1.00  0.00     0.022 A 
BRANCH  82  86
ATOM     86  S   UNL A   1      44.917  24.768  37.090  1.00  0.00     0.124 S 
ATOM     87  O   UNL A   1      44.042  23.961  36.247  1.00  0.00    -0.237 OA
ATOM     88  O   UNL A   1      46.253  24.230  37.323  1.00  0.00    -0.237 OA
ATOM     89  O   UNL A   1      44.275  25.357  38.264  1.00  0.00    -0.744 OA
ENDBRANCH  82  86
ENDBRANCH  56  79
ENDBRANCH  30  31
ENDBRANCH  23  25
ENDBRANCH  22  23
ENDBRANCH  21  22
ENDBRANCH   1  21
TORSDOF 18
ENDMDL
MODEL 2
REMARK VINA RESULT:     -10.9      4.735      9.923
REMARK SMILES CC(C)N(CC(=O)OCCOC(=O)c1ccc(-c2c3nc(c(-c4cc(S(=O)(=O)[O-])ccc4F)c4ccc([nH]4)c(-c4cc(S(=O)(=O)[O-])ccc4F)c4nc(c(-c5cc(S(=O)(=O)[O-])ccc5F)c5ccc2[nH]5)C=C4)C=C3)cc1)C(=O)NC1C(C)(C)C1(C)C
REMARK SMILES IDX 9 1 8 2 6 3 7 4 5 5 4 6 2 7 1 8 3 9 77 10 78 11 79 12 80 14
REMARK SMILES IDX 81 15 84 16 82 17 83 18 85 19 86 20 10 21 11 22 12 23 13 24
REMARK SMILES IDX 14 25 15 26 76 27 16 28 75 29 17 30 18 31 19 32 69 33 20 34
REMARK SMILES IDX 74 35 68 36 70 37 21 38 73 39 67 40 66 41 22 43 54 44 34 45
REMARK SMILES IDX 53 46 35 47 38 48 52 49 71 50 36 51 37 52 51 54 72 55 39 56
REMARK SMILES IDX 23 57 24 58 32 59 25 60 31 61 33 62 30 63 26 64 27 65 28 66
REMARK SMILES IDX 29 67 55 68 56 69 64 70 57 71 63 72 65 73 62 74 58 75 59 76
REMARK SMILES IDX 60 77 61 78 40 79 41 80 49 81 42 82 48 83 50 84 47 85 43 86
REMARK SMILES IDX 44 87 45 88 46 89
REMARK H PARENT 79 13 70 42 38 53
REMARK Flexibility Score: inf
ROOT
ATOM      1  C   UNL A   1      33.873  20.617  26.078  1.00  0.00     0.274 C 
ENDROOT
BRANCH   1   2
ATOM      2  O   UNL A   1      32.670  21.312  25.654  1.00  0.00    -0.461 OA
BRANCH   2   3
ATOM      3  C   UNL A   1      32.457  22.558  26.170  1.00  0.00     0.325 C 
ATOM      4  O   UNL A   1      32.462  22.797  27.356  1.00  0.00    -0.250 OA
BRANCH   3   5
ATOM      5  C   UNL A   1      32.078  23.548  25.060  1.00  0.00     0.244 C 
BRANCH   5   6
ATOM      6  N   UNL A   1      33.075  24.542  24.660  1.00  0.00    -0.311 N 
BRANCH   6   7
ATOM      7  C   UNL A   1      33.765  24.357  23.363  1.00  0.00     0.081 C 
ATOM      8  C   UNL A   1      35.193  23.779  23.444  1.00  0.00     0.031 C 
ATOM      9  C   UNL A   1      32.958  23.526  22.365  1.00  0.00     0.031 C 
ENDBRANCH   6   7
BRANCH   6  10
ATOM     10  C   UNL A   1      33.352  25.650  25.399  1.00  0.00     0.318 C 
ATOM     11  O   UNL A   1      34.350  25.691  26.125  1.00  0.00    -0.249 OA
ATOM     12  N   UNL A   1      32.619  26.777  25.328  1.00  0.00    -0.334 N 
ATOM     13  H   UNL A   1      33.063  27.488  25.845  1.00  0.00     0.165 HD
BRANCH  12  14
ATOM     14  C   UNL A   1      31.416  27.286  24.758  1.00  0.00     0.096 C 
ATOM     15  C   UNL A   1      31.504  28.547  23.919  1.00  0.00    -0.007 C 
ATOM     16  C   UNL A   1      30.695  27.344  23.420  1.00  0.00    -0.007 C 
ATOM     17  C   UNL A   1      30.763  29.807  24.297  1.00  0.00     0.014 C 
ATOM     18  C   UNL A   1      32.885  28.851  23.366  1.00  0.00     0.014 C 
ATOM     19  C   UNL A   1      31.097  26.852  22.059  1.00  0.00     0.014 C 
ATOM     20  C   UNL A   1      29.170  27.304  23.558  1.00  0.00     0.014 C 
ENDBRANCH  12  14
ENDBRANCH   6  10
ENDBRANCH   5   6
ENDBRANCH   3   5
ENDBRANCH   2   3
ENDBRANCH   1   2
BRANCH   1  21
ATOM     21  C   UNL A   1      35.145  20.811  25.224  1.00  0.00     0.275 C 
BRANCH  21  22
ATOM     22  O   UNL A   1      36.202  21.397  26.026  1.00  0.00    -0.458 OA
BRANCH  22  23
ATOM     23  C   UNL A   1      37.479  21.122  25.629  1.00  0.00     0.338 C 
ATOM     24  O   UNL A   1      37.837  20.085  25.091  1.00  0.00    -0.246 OA
BRANCH  23  25
ATOM     25  C   UNL A   1      38.406  22.266  25.921  1.00  0.00     0.060 A 
ATOM     26  C   UNL A   1      39.656  22.040  26.476  1.00  0.00     0.016 A 
ATOM     27  C   UNL A   1      38.011  23.598  25.752  1.00  0.00     0.016 A 
ATOM     28  C   UNL A   1      40.437  23.104  26.965  1.00  0.00     0.010 A 
ATOM     29  C   UNL A   1      38.864  24.668  26.136  1.00  0.00     0.010 A 
ATOM     30  C   UNL A   1      40.090  24.450  26.794  1.00  0.00    -0.014 A 
BRANCH  30  31
ATOM     31  C   UNL A   1      40.956  25.578  27.343  1.00  0.00     0.031 A 
ATOM     32  C   UNL A   1      40.370  26.609  28.298  1.00  0.00     0.074 A 
ATOM     33  C   UNL A   1      42.284  25.703  27.081  1.00  0.00     0.049 A 
ATOM     34  N   UNL A   1      40.819  27.797  28.630  1.00  0.00    -0.248 NA
ATOM     35  C   UNL A   1      39.115  26.245  28.968  1.00  0.00     0.031 C 
ATOM     36  C   UNL A   1      43.103  24.767  26.310  1.00  0.00     0.029 A 
ATOM     37  N   UNL A   1      43.196  26.677  27.456  1.00  0.00    -0.354 N 
ATOM     38  C   UNL A   1      39.856  28.359  29.471  1.00  0.00     0.074 A 
ATOM     39  C   UNL A   1      38.812  27.364  29.611  1.00  0.00     0.031 C 
ATOM     40  C   UNL A   1      44.386  25.158  26.341  1.00  0.00     0.029 A 
ATOM     41  C   UNL A   1      44.471  26.472  26.967  1.00  0.00     0.049 A 
ATOM     42  H   UNL A   1      42.956  27.447  28.020  1.00  0.00     0.167 HD
ATOM     43  C   UNL A   1      39.834  29.587  30.054  1.00  0.00     0.034 A 
ATOM     44  C   UNL A   1      45.570  27.261  26.923  1.00  0.00     0.034 A 
ATOM     45  C   UNL A   1      40.915  30.549  29.981  1.00  0.00     0.049 A 
ATOM     46  C   UNL A   1      45.489  28.671  27.457  1.00  0.00     0.074 A 
ATOM     47  C   UNL A   1      40.970  31.830  30.514  1.00  0.00     0.029 A 
ATOM     48  N   UNL A   1      42.137  30.336  29.359  1.00  0.00    -0.354 N 
ATOM     49  N   UNL A   1      44.501  29.263  28.085  1.00  0.00    -0.248 NA
ATOM     50  C   UNL A   1      46.660  29.532  27.235  1.00  0.00     0.031 C 
ATOM     51  C   UNL A   1      42.188  32.413  30.148  1.00  0.00     0.029 A 
ATOM     52  C   UNL A   1      42.934  31.470  29.462  1.00  0.00     0.049 A 
ATOM     53  H   UNL A   1      42.401  29.501  28.909  1.00  0.00     0.167 HD
ATOM     54  C   UNL A   1      44.939  30.561  28.341  1.00  0.00     0.074 A 
ATOM     55  C   UNL A   1      46.288  30.656  27.828  1.00  0.00     0.031 C 
ATOM     56  C   UNL A   1      44.276  31.582  28.940  1.00  0.00     0.034 A 
BRANCH  43  57
ATOM     57  C   UNL A   1      38.550  30.016  30.734  1.00  0.00     0.023 A 
ATOM     58  C   UNL A   1      37.527  30.717  30.072  1.00  0.00     0.031 A 
ATOM     59  C   UNL A   1      38.367  29.733  32.103  1.00  0.00     0.131 A 
ATOM     60  C   UNL A   1      36.414  31.177  30.795  1.00  0.00     0.055 A 
ATOM     61  C   UNL A   1      37.218  30.119  32.795  1.00  0.00     0.041 A 
ATOM     62  F   UNL A   1      39.313  29.081  32.797  1.00  0.00    -0.206 F 
ATOM     63  C   UNL A   1      36.240  30.862  32.146  1.00  0.00     0.022 A 
BRANCH  60  64
ATOM     64  S   UNL A   1      35.270  32.335  29.991  1.00  0.00     0.124 S 
ATOM     65  O   UNL A   1      36.187  33.355  29.489  1.00  0.00    -0.237 OA
ATOM     66  O   UNL A   1      34.631  31.498  28.984  1.00  0.00    -0.237 OA
ATOM     67  O   UNL A   1      34.401  32.773  31.082  1.00  0.00    -0.744 OA
ENDBRANCH  60  64
ENDBRANCH  43  57
BRANCH  44  68
ATOM     68  C   UNL A   1      46.815  26.808  26.215  1.00  0.00     0.023 A 
ATOM     69  C   UNL A   1      47.879  26.203  26.907  1.00  0.00     0.031 A 
ATOM     70  C   UNL A   1      46.990  27.051  24.838  1.00  0.00     0.131 A 
ATOM     71  C   UNL A   1      49.071  25.891  26.228  1.00  0.00     0.055 A 
ATOM     72  C   UNL A   1      48.145  26.670  24.155  1.00  0.00     0.041 A 
ATOM     73  F   UNL A   1      46.027  27.657  24.126  1.00  0.00    -0.206 F 
ATOM     74  C   UNL A   1      49.200  26.097  24.853  1.00  0.00     0.022 A 
BRANCH  71  75
ATOM     75  S   UNL A   1      50.500  25.302  27.182  1.00  0.00     0.124 S 
ATOM     76  O   UNL A   1      50.839  26.483  27.967  1.00  0.00    -0.237 OA
ATOM     77  O   UNL A   1      49.932  24.180  27.921  1.00  0.00    -0.237 OA
ATOM     78  O   UNL A   1      51.471  24.938  26.151  1.00  0.00    -0.744 OA
ENDBRANCH  71  75
ENDBRANCH  44  68
BRANCH  56  79
ATOM     79  C   UNL A   1      45.025  32.885  29.114  1.00  0.00     0.023 A 
ATOM     80  C   UNL A   1      44.980  33.903  28.145  1.00  0.00     0.031 A 
ATOM     81  C   UNL A   1      45.827  33.095  30.251  1.00  0.00     0.131 A 
ATOM     82  C   UNL A   1      45.770  35.054  28.298  1.00  0.00     0.055 A 
ATOM     83  C   UNL A   1      46.560  34.270  30.429  1.00  0.00     0.041 A 
ATOM     84  F   UNL A   1      45.918  32.156  31.206  1.00  0.00    -0.206 F 
ATOM     85  C   UNL A   1      46.547  35.251  29.442  1.00  0.00     0.022 A 
BRANCH  82  86
ATOM     86  S   UNL A   1      45.859  36.242  26.928  1.00  0.00     0.124 S 
ATOM     87  O   UNL A   1      46.059  35.365  25.779  1.00  0.00    -0.237 OA
ATOM     88  O   UNL A   1      44.563  36.907  27.005  1.00  0.00    -0.237 OA
ATOM     89  O   UNL A   1      47.006  37.080  27.274  1.00  0.00    -0.744 OA
ENDBRANCH  82  86
ENDBRANCH  56  79
ENDBRANCH  30  31
ENDBRANCH  23  25
ENDBRANCH  22  23
ENDBRANCH  21  22
ENDBRANCH   1  21
TORSDOF 18
ENDMDL
MODEL 3
REMARK VINA RESULT:     -10.5      4.899      7.325
REMARK SMILES CC(C)N(CC(=O)OCCOC(=O)c1ccc(-c2c3nc(c(-c4cc(S(=O)(=O)[O-])ccc4F)c4ccc([nH]4)c(-c4cc(S(=O)(=O)[O-])ccc4F)c4nc(c(-c5cc(S(=O)(=O)[O-])ccc5F)c5ccc2[nH]5)C=C4)C=C3)cc1)C(=O)NC1C(C)(C)C1(C)C
REMARK SMILES IDX 9 1 8 2 6 3 7 4 5 5 4 6 2 7 1 8 3 9 77 10 78 11 79 12 80 14
REMARK SMILES IDX 81 15 84 16 82 17 83 18 85 19 86 20 10 21 11 22 12 23 13 24
REMARK SMILES IDX 14 25 15 26 76 27 16 28 75 29 17 30 18 31 19 32 69 33 20 34
REMARK SMILES IDX 74 35 68 36 70 37 21 38 73 39 67 40 66 41 22 43 54 44 34 45
REMARK SMILES IDX 53 46 35 47 38 48 52 49 71 50 36 51 37 52 51 54 72 55 39 56
REMARK SMILES IDX 23 57 24 58 32 59 25 60 31 61 33 62 30 63 26 64 27 65 28 66
REMARK SMILES IDX 29 67 55 68 56 69 64 70 57 71 63 72 65 73 62 74 58 75 59 76
REMARK SMILES IDX 60 77 61 78 40 79 41 80 49 81 42 82 48 83 50 84 47 85 43 86
REMARK SMILES IDX 44 87 45 88 46 89
REMARK H PARENT 79 13 70 42 38 53
REMARK Flexibility Score: inf
ROOT
ATOM      1  C   UNL A   1      35.302  20.243  24.546  1.00  0.00     0.274 C 
ENDROOT
BRANCH   1   2
ATOM      2  O   UNL A   1      34.175  19.476  25.047  1.00  0.00    -0.461 OA
BRANCH   2   3
ATOM      3  C   UNL A   1      32.928  19.989  24.834  1.00  0.00     0.325 C 
ATOM      4  O   UNL A   1      31.938  19.304  24.712  1.00  0.00    -0.250 OA
BRANCH   3   5
ATOM      5  C   UNL A   1      32.993  21.510  24.635  1.00  0.00     0.244 C 
BRANCH   5   6
ATOM      6  N   UNL A   1      32.479  22.363  25.708  1.00  0.00    -0.311 N 
BRANCH   6   7
ATOM      7  C   UNL A   1      33.449  22.943  26.665  1.00  0.00     0.081 C 
ATOM      8  C   UNL A   1      33.994  21.971  27.732  1.00  0.00     0.031 C 
ATOM      9  C   UNL A   1      34.631  23.632  25.981  1.00  0.00     0.031 C 
ENDBRANCH   6   7
BRANCH   6  10
ATOM     10  C   UNL A   1      31.164  22.688  25.827  1.00  0.00     0.318 C 
ATOM     11  O   UNL A   1      30.328  21.833  26.137  1.00  0.00    -0.249 OA
ATOM     12  N   UNL A   1      30.708  23.948  25.700  1.00  0.00    -0.334 N 
ATOM     13  H   UNL A   1      29.755  23.978  25.946  1.00  0.00     0.165 HD
BRANCH  12  14
ATOM     14  C   UNL A   1      31.141  25.254  25.326  1.00  0.00     0.096 C 
ATOM     15  C   UNL A   1      31.591  25.472  23.894  1.00  0.00    -0.007 C 
ATOM     16  C   UNL A   1      30.644  26.474  24.566  1.00  0.00    -0.007 C 
ATOM     17  C   UNL A   1      32.993  25.920  23.560  1.00  0.00     0.014 C 
ATOM     18  C   UNL A   1      31.076  24.447  22.900  1.00  0.00     0.014 C 
ATOM     19  C   UNL A   1      29.366  26.715  23.813  1.00  0.00     0.014 C 
ATOM     20  C   UNL A   1      31.166  27.794  25.140  1.00  0.00     0.014 C 
ENDBRANCH  12  14
ENDBRANCH   6  10
ENDBRANCH   5   6
ENDBRANCH   3   5
ENDBRANCH   2   3
ENDBRANCH   1   2
BRANCH   1  21
ATOM     21  C   UNL A   1      36.713  19.816  25.004  1.00  0.00     0.275 C 
BRANCH  21  22
ATOM     22  O   UNL A   1      37.610  20.956  24.991  1.00  0.00    -0.458 OA
BRANCH  22  23
ATOM     23  C   UNL A   1      38.799  20.792  25.641  1.00  0.00     0.338 C 
ATOM     24  O   UNL A   1      39.393  19.730  25.756  1.00  0.00    -0.246 OA
BRANCH  23  25
ATOM     25  C   UNL A   1      39.312  22.090  26.193  1.00  0.00     0.060 A 
ATOM     26  C   UNL A   1      38.587  23.261  26.034  1.00  0.00     0.016 A 
ATOM     27  C   UNL A   1      40.576  22.194  26.783  1.00  0.00     0.016 A 
ATOM     28  C   UNL A   1      39.154  24.514  26.338  1.00  0.00     0.010 A 
ATOM     29  C   UNL A   1      41.088  23.453  27.200  1.00  0.00     0.010 A 
ATOM     30  C   UNL A   1      40.404  24.659  26.951  1.00  0.00    -0.014 A 
BRANCH  30  31
ATOM     31  C   UNL A   1      40.992  26.032  27.260  1.00  0.00     0.031 A 
ATOM     32  C   UNL A   1      42.358  26.428  26.718  1.00  0.00     0.074 A 
ATOM     33  C   UNL A   1      40.333  26.991  27.961  1.00  0.00     0.049 A 
ATOM     34  N   UNL A   1      43.168  27.388  27.102  1.00  0.00    -0.248 NA
ATOM     35  C   UNL A   1      42.873  25.637  25.593  1.00  0.00     0.031 C 
ATOM     36  C   UNL A   1      38.962  26.905  28.464  1.00  0.00     0.029 A 
ATOM     37  N   UNL A   1      40.731  28.257  28.364  1.00  0.00    -0.354 N 
ATOM     38  C   UNL A   1      44.324  27.256  26.331  1.00  0.00     0.074 A 
ATOM     39  C   UNL A   1      44.093  26.134  25.443  1.00  0.00     0.031 C 
ATOM     40  C   UNL A   1      38.610  28.073  29.022  1.00  0.00     0.029 A 
ATOM     41  C   UNL A   1      39.780  28.940  29.095  1.00  0.00     0.049 A 
ATOM     42  H   UNL A   1      41.614  28.634  28.148  1.00  0.00     0.167 HD
ATOM     43  C   UNL A   1      45.471  27.986  26.369  1.00  0.00     0.034 A 
ATOM     44  C   UNL A   1      39.834  30.076  29.829  1.00  0.00     0.034 A 
ATOM     45  C   UNL A   1      45.671  29.158  27.197  1.00  0.00     0.049 A 
ATOM     46  C   UNL A   1      41.151  30.802  29.969  1.00  0.00     0.074 A 
ATOM     47  C   UNL A   1      46.809  29.942  27.325  1.00  0.00     0.029 A 
ATOM     48  N   UNL A   1      44.711  29.730  28.019  1.00  0.00    -0.354 N 
ATOM     49  N   UNL A   1      42.298  30.557  29.382  1.00  0.00    -0.248 NA
ATOM     50  C   UNL A   1      41.187  31.934  30.907  1.00  0.00     0.031 C 
ATOM     51  C   UNL A   1      46.560  30.936  28.278  1.00  0.00     0.029 A 
ATOM     52  C   UNL A   1      45.241  30.831  28.683  1.00  0.00     0.049 A 
ATOM     53  H   UNL A   1      43.788  29.404  28.118  1.00  0.00     0.167 HD
ATOM     54  C   UNL A   1      43.186  31.513  29.873  1.00  0.00     0.074 A 
ATOM     55  C   UNL A   1      42.436  32.355  30.779  1.00  0.00     0.031 C 
ATOM     56  C   UNL A   1      44.507  31.669  29.602  1.00  0.00     0.034 A 
BRANCH  43  57
ATOM     57  C   UNL A   1      46.653  27.472  25.572  1.00  0.00     0.023 A 
ATOM     58  C   UNL A   1      47.021  27.994  24.320  1.00  0.00     0.031 A 
ATOM     59  C   UNL A   1      47.414  26.400  26.082  1.00  0.00     0.131 A 
ATOM     60  C   UNL A   1      48.062  27.395  23.590  1.00  0.00     0.055 A 
ATOM     61  C   UNL A   1      48.502  25.865  25.390  1.00  0.00     0.041 A 
ATOM     62  F   UNL A   1      47.105  25.846  27.264  1.00  0.00    -0.206 F 
ATOM     63  C   UNL A   1      48.820  26.350  24.127  1.00  0.00     0.022 A 
BRANCH  60  64
ATOM     64  S   UNL A   1      48.310  27.886  21.861  1.00  0.00     0.124 S 
ATOM     65  O   UNL A   1      47.146  28.736  21.626  1.00  0.00    -0.237 OA
ATOM     66  O   UNL A   1      49.599  28.564  21.908  1.00  0.00    -0.237 OA
ATOM     67  O   UNL A   1      48.299  26.615  21.138  1.00  0.00    -0.744 OA
ENDBRANCH  60  64
ENDBRANCH  43  57
BRANCH  44  68
ATOM     68  C   UNL A   1      38.647  30.535  30.626  1.00  0.00     0.023 A 
ATOM     69  C   UNL A   1      37.747  31.492  30.126  1.00  0.00     0.031 A 
ATOM     70  C   UNL A   1      38.442  30.077  31.943  1.00  0.00     0.131 A 
ATOM     71  C   UNL A   1      36.710  31.976  30.944  1.00  0.00     0.055 A 
ATOM     72  C   UNL A   1      37.368  30.504  32.722  1.00  0.00     0.041 A 
ATOM     73  F   UNL A   1      39.287  29.189  32.493  1.00  0.00    -0.206 F 
ATOM     74  C   UNL A   1      36.500  31.469  32.228  1.00  0.00     0.022 A 
BRANCH  71  75
ATOM     75  S   UNL A   1      35.690  33.357  30.350  1.00  0.00     0.124 S 
ATOM     76  O   UNL A   1      35.868  34.337  31.416  1.00  0.00    -0.237 OA
ATOM     77  O   UNL A   1      36.321  33.674  29.074  1.00  0.00    -0.237 OA
ATOM     78  O   UNL A   1      34.353  32.775  30.253  1.00  0.00    -0.744 OA
ENDBRANCH  71  75
ENDBRANCH  44  68
BRANCH  56  79
ATOM     79  C   UNL A   1      45.216  32.830  30.264  1.00  0.00     0.023 A 
ATOM     80  C   UNL A   1      45.252  34.109  29.679  1.00  0.00     0.031 A 
ATOM     81  C   UNL A   1      45.898  32.644  31.480  1.00  0.00     0.131 A 
ATOM     82  C   UNL A   1      46.007  35.132  30.275  1.00  0.00     0.055 A 
ATOM     83  C   UNL A   1      46.592  33.684  32.102  1.00  0.00     0.041 A 
ATOM     84  F   UNL A   1      45.907  31.445  32.082  1.00  0.00    -0.206 F 
ATOM     85  C   UNL A   1      46.663  34.933  31.492  1.00  0.00     0.022 A 
BRANCH  82  86
ATOM     86  S   UNL A   1      46.214  36.699  29.382  1.00  0.00     0.124 S 
ATOM     87  O   UNL A   1      46.002  37.681  30.440  1.00  0.00    -0.237 OA
ATOM     88  O   UNL A   1      47.578  36.592  28.874  1.00  0.00    -0.237 OA
ATOM     89  O   UNL A   1      45.169  36.654  28.360  1.00  0.00    -0.744 OA
ENDBRANCH  82  86
ENDBRANCH  56  79
ENDBRANCH  30  31
ENDBRANCH  23  25
ENDBRANCH  22  23
ENDBRANCH  21  22
ENDBRANCH   1  21
TORSDOF 18
ENDMDL
