MODEL 1
REMARK VINA RESULT:     -12.6      0.000      0.000
REMARK SMILES O=C(OCCOC(=O)[C@H]1Cc2c([nH]c3ccccc23)[C@@H](c2ccc(OC(F)(F)F)cc2)[NH2+]1)c1ccc(-c2c3nc(c(-c4cc(S(=O)(=O)[O-])ccc4F)c4ccc([nH]4)c(-c4cc(S(=O)(=O)[O-])ccc4F)c4nc(c(-c5cc(S(=O)(=O)[O-])ccc5F)c5ccc2[nH]5)C=C4)C=C3)cc1
REMARK SMILES IDX 4 1 3 2 2 3 1 4 33 5 34 6 95 7 35 8 94 9 36 10 37 11 38 12
REMARK SMILES IDX 88 13 39 14 93 15 87 16 89 17 40 18 92 19 86 20 85 21 41 23
REMARK SMILES IDX 73 24 53 25 72 26 54 27 57 28 71 29 90 30 55 31 56 32 70 34
REMARK SMILES IDX 91 35 58 36 42 37 43 38 51 39 44 40 50 41 52 42 49 43 45 44
REMARK SMILES IDX 46 45 47 46 48 47 74 48 75 49 83 50 76 51 82 52 84 53 81 54
REMARK SMILES IDX 77 55 78 56 79 57 80 58 59 59 60 60 68 61 61 62 67 63 69 64
REMARK SMILES IDX 66 65 62 66 63 67 64 68 65 69 5 70 6 71 7 72 8 73 9 74 10 75
REMARK SMILES IDX 32 76 11 77 20 78 12 81 19 82 13 83 14 84 18 85 15 87 17 88
REMARK SMILES IDX 16 89 21 90 22 91 31 92 23 93 30 94 24 95 25 96 26 97 27 98
REMARK SMILES IDX 28 99 29 100
REMARK H PARENT 89 22 57 33 32 79 32 80 13 86
REMARK Flexibility Score: inf
ROOT
ATOM      1  C   UNL A   1      32.857  29.558  25.466  1.00  0.00     0.275 C 
ENDROOT
BRANCH   1   2
ATOM      2  O   UNL A   1      32.502  30.493  26.504  1.00  0.00    -0.458 OA
BRANCH   2   3
ATOM      3  C   UNL A   1      33.256  31.344  27.238  1.00  0.00     0.338 C 
ATOM      4  O   UNL A   1      32.893  32.519  27.311  1.00  0.00    -0.246 OA
BRANCH   3   5
ATOM      5  C   UNL A   1      34.579  30.997  27.855  1.00  0.00     0.060 A 
ATOM      6  C   UNL A   1      35.007  29.724  28.233  1.00  0.00     0.016 A 
ATOM      7  C   UNL A   1      35.499  32.060  27.996  1.00  0.00     0.016 A 
ATOM      8  C   UNL A   1      36.320  29.492  28.642  1.00  0.00     0.010 A 
ATOM      9  C   UNL A   1      36.819  31.836  28.409  1.00  0.00     0.010 A 
ATOM     10  C   UNL A   1      37.234  30.542  28.729  1.00  0.00    -0.014 A 
BRANCH  10  11
ATOM     11  C   UNL A   1      38.538  30.269  29.368  1.00  0.00     0.031 A 
ATOM     12  C   UNL A   1      38.735  30.770  30.767  1.00  0.00     0.074 A 
ATOM     13  C   UNL A   1      39.448  29.481  28.767  1.00  0.00     0.049 A 
ATOM     14  N   UNL A   1      39.719  30.554  31.595  1.00  0.00    -0.248 NA
ATOM     15  C   UNL A   1      37.660  31.617  31.308  1.00  0.00     0.031 C 
ATOM     16  C   UNL A   1      39.311  28.898  27.432  1.00  0.00     0.029 A 
ATOM     17  N   UNL A   1      40.655  29.008  29.212  1.00  0.00    -0.354 N 
ATOM     18  C   UNL A   1      39.377  31.228  32.761  1.00  0.00     0.074 A 
ATOM     19  C   UNL A   1      38.125  31.904  32.512  1.00  0.00     0.031 C 
ATOM     20  C   UNL A   1      40.384  28.129  27.174  1.00  0.00     0.029 A 
ATOM     21  C   UNL A   1      41.294  28.182  28.313  1.00  0.00     0.049 A 
ATOM     22  H   UNL A   1      41.031  29.237  30.092  1.00  0.00     0.167 HD
ATOM     23  C   UNL A   1      40.044  31.262  33.940  1.00  0.00     0.034 A 
ATOM     24  C   UNL A   1      42.481  27.549  28.411  1.00  0.00     0.034 A 
ATOM     25  C   UNL A   1      41.310  30.608  34.142  1.00  0.00     0.049 A 
ATOM     26  C   UNL A   1      43.264  27.709  29.690  1.00  0.00     0.074 A 
ATOM     27  C   UNL A   1      42.108  30.600  35.270  1.00  0.00     0.029 A 
ATOM     28  N   UNL A   1      41.975  29.861  33.176  1.00  0.00    -0.354 N 
ATOM     29  N   UNL A   1      42.933  28.351  30.789  1.00  0.00    -0.248 NA
ATOM     30  C   UNL A   1      44.573  27.050  29.746  1.00  0.00     0.031 C 
ATOM     31  C   UNL A   1      43.290  29.918  34.959  1.00  0.00     0.029 A 
ATOM     32  C   UNL A   1      43.191  29.419  33.668  1.00  0.00     0.049 A 
ATOM     33  H   UNL A   1      41.632  29.673  32.272  1.00  0.00     0.167 HD
ATOM     34  C   UNL A   1      43.981  28.140  31.680  1.00  0.00     0.074 A 
ATOM     35  C   UNL A   1      44.944  27.302  30.993  1.00  0.00     0.031 C 
ATOM     36  C   UNL A   1      44.134  28.589  32.953  1.00  0.00     0.034 A 
BRANCH  23  37
ATOM     37  C   UNL A   1      39.438  32.105  35.034  1.00  0.00     0.023 A 
ATOM     38  C   UNL A   1      39.869  33.422  35.278  1.00  0.00     0.031 A 
ATOM     39  C   UNL A   1      38.497  31.545  35.915  1.00  0.00     0.131 A 
ATOM     40  C   UNL A   1      39.440  34.094  36.433  1.00  0.00     0.055 A 
ATOM     41  C   UNL A   1      38.003  32.256  37.010  1.00  0.00     0.041 A 
ATOM     42  F   UNL A   1      38.074  30.282  35.752  1.00  0.00    -0.206 F 
ATOM     43  C   UNL A   1      38.490  33.530  37.286  1.00  0.00     0.022 A 
BRANCH  40  44
ATOM     44  S   UNL A   1      40.287  35.628  36.907  1.00  0.00     0.124 S 
ATOM     45  O   UNL A   1      40.005  35.690  38.340  1.00  0.00    -0.237 OA
ATOM     46  O   UNL A   1      41.671  35.351  36.542  1.00  0.00    -0.237 OA
ATOM     47  O   UNL A   1      39.620  36.650  36.105  1.00  0.00    -0.744 OA
ENDBRANCH  40  44
ENDBRANCH  23  37
BRANCH  24  48
ATOM     48  C   UNL A   1      43.033  26.748  27.279  1.00  0.00     0.023 A 
ATOM     49  C   UNL A   1      42.845  25.358  27.195  1.00  0.00     0.031 A 
ATOM     50  C   UNL A   1      43.850  27.358  26.312  1.00  0.00     0.131 A 
ATOM     51  C   UNL A   1      43.498  24.620  26.192  1.00  0.00     0.055 A 
ATOM     52  C   UNL A   1      44.451  26.628  25.284  1.00  0.00     0.041 A 
ATOM     53  F   UNL A   1      44.097  28.675  26.371  1.00  0.00    -0.206 F 
ATOM     54  C   UNL A   1      44.284  25.249  25.224  1.00  0.00     0.022 A 
BRANCH  51  55
ATOM     55  S   UNL A   1      43.401  22.808  26.231  1.00  0.00     0.124 S 
ATOM     56  O   UNL A   1      44.811  22.437  26.243  1.00  0.00    -0.237 OA
ATOM     57  O   UNL A   1      42.665  22.570  27.468  1.00  0.00    -0.237 OA
ATOM     58  O   UNL A   1      42.678  22.478  25.005  1.00  0.00    -0.744 OA
ENDBRANCH  51  55
ENDBRANCH  24  48
BRANCH  36  59
ATOM     59  C   UNL A   1      45.365  28.128  33.692  1.00  0.00     0.023 A 
ATOM     60  C   UNL A   1      45.374  26.947  34.452  1.00  0.00     0.031 A 
ATOM     61  C   UNL A   1      46.542  28.897  33.644  1.00  0.00     0.131 A 
ATOM     62  C   UNL A   1      46.516  26.604  35.191  1.00  0.00     0.055 A 
ATOM     63  C   UNL A   1      47.698  28.510  34.320  1.00  0.00     0.041 A 
ATOM     64  F   UNL A   1      46.585  30.037  32.937  1.00  0.00    -0.206 F 
ATOM     65  C   UNL A   1      47.684  27.365  35.111  1.00  0.00     0.022 A 
BRANCH  62  66
ATOM     66  S   UNL A   1      46.412  25.214  36.350  1.00  0.00     0.124 S 
ATOM     67  O   UNL A   1      47.793  25.096  36.805  1.00  0.00    -0.237 OA
ATOM     68  O   UNL A   1      45.455  25.702  37.337  1.00  0.00    -0.237 OA
ATOM     69  O   UNL A   1      45.937  24.110  35.518  1.00  0.00    -0.744 OA
ENDBRANCH  62  66
ENDBRANCH  36  59
ENDBRANCH  10  11
ENDBRANCH   3   5
ENDBRANCH   2   3
ENDBRANCH   1   2
BRANCH   1  70
ATOM     70  C   UNL A   1      32.566  28.093  25.812  1.00  0.00     0.274 C 
BRANCH  70  71
ATOM     71  O   UNL A   1      32.953  27.186  24.769  1.00  0.00    -0.458 OA
BRANCH  71  72
ATOM     72  C   UNL A   1      32.463  25.912  24.870  1.00  0.00     0.365 C 
ATOM     73  O   UNL A   1      31.297  25.643  25.137  1.00  0.00    -0.245 OA
BRANCH  72  74
ATOM     74  C   UNL A   1      33.555  24.895  24.522  1.00  0.00     0.298 C 
ATOM     75  C   UNL A   1      34.674  24.932  25.577  1.00  0.00     0.115 C 
ATOM     76  N   UNL A   1      32.951  23.543  24.376  1.00  0.00    -0.323 N 
ATOM     77  C   UNL A   1      35.621  23.815  25.304  1.00  0.00    -0.006 A 
ATOM     78  C   UNL A   1      33.892  22.506  23.912  1.00  0.00     0.262 C 
ATOM     79  H   UNL A   1      32.186  23.606  23.703  1.00  0.00     0.347 HD
ATOM     80  H   UNL A   1      32.638  23.260  25.305  1.00  0.00     0.347 HD
ATOM     81  C   UNL A   1      35.243  22.739  24.522  1.00  0.00     0.083 A 
ATOM     82  C   UNL A   1      36.940  23.578  25.761  1.00  0.00     0.003 A 
ATOM     83  N   UNL A   1      36.336  21.922  24.383  1.00  0.00    -0.353 N 
ATOM     84  C   UNL A   1      37.349  22.361  25.209  1.00  0.00     0.046 A 
ATOM     85  C   UNL A   1      37.822  24.270  26.610  1.00  0.00     0.010 A 
ATOM     86  H   UNL A   1      36.389  21.143  23.784  1.00  0.00     0.166 HD
ATOM     87  C   UNL A   1      38.588  21.781  25.500  1.00  0.00     0.026 A 
ATOM     88  C   UNL A   1      39.059  23.698  26.919  1.00  0.00     0.001 A 
ATOM     89  C   UNL A   1      39.431  22.467  26.378  1.00  0.00     0.002 A 
BRANCH  78  90
ATOM     90  C   UNL A   1      33.272  21.148  24.243  1.00  0.00     0.016 A 
ATOM     91  C   UNL A   1      32.730  20.308  23.259  1.00  0.00     0.014 A 
ATOM     92  C   UNL A   1      33.344  20.656  25.558  1.00  0.00     0.014 A 
ATOM     93  C   UNL A   1      32.273  19.028  23.579  1.00  0.00     0.047 A 
ATOM     94  C   UNL A   1      32.915  19.360  25.872  1.00  0.00     0.047 A 
ATOM     95  C   UNL A   1      32.392  18.535  24.877  1.00  0.00     0.129 A 
BRANCH  95  96
ATOM     96  O   UNL A   1      31.968  17.247  25.029  1.00  0.00    -0.406 OA
BRANCH  96  97
ATOM     97  C   UNL A   1      32.934  16.226  24.862  1.00  0.00     0.573 C 
ATOM     98  F   UNL A   1      33.432  16.205  23.608  1.00  0.00    -0.132 F 
ATOM     99  F   UNL A   1      33.941  16.362  25.749  1.00  0.00    -0.132 F 
ATOM    100  F   UNL A   1      32.338  15.032  25.091  1.00  0.00    -0.132 F 
ENDBRANCH  96  97
ENDBRANCH  95  96
ENDBRANCH  78  90
ENDBRANCH  72  74
ENDBRANCH  71  72
ENDBRANCH  70  71
ENDBRANCH   1  70
TORSDOF 17
ENDMDL
MODEL 2
REMARK VINA RESULT:     -12.6      5.003     10.197
REMARK SMILES O=C(OCCOC(=O)[C@H]1Cc2c([nH]c3ccccc23)[C@@H](c2ccc(OC(F)(F)F)cc2)[NH2+]1)c1ccc(-c2c3nc(c(-c4cc(S(=O)(=O)[O-])ccc4F)c4ccc([nH]4)c(-c4cc(S(=O)(=O)[O-])ccc4F)c4nc(c(-c5cc(S(=O)(=O)[O-])ccc5F)c5ccc2[nH]5)C=C4)C=C3)cc1
REMARK SMILES IDX 4 1 3 2 2 3 1 4 33 5 34 6 95 7 35 8 94 9 36 10 37 11 38 12
REMARK SMILES IDX 88 13 39 14 93 15 87 16 89 17 40 18 92 19 86 20 85 21 41 23
REMARK SMILES IDX 73 24 53 25 72 26 54 27 57 28 71 29 90 30 55 31 56 32 70 34
REMARK SMILES IDX 91 35 58 36 42 37 43 38 51 39 44 40 50 41 52 42 49 43 45 44
REMARK SMILES IDX 46 45 47 46 48 47 74 48 75 49 83 50 76 51 82 52 84 53 81 54
REMARK SMILES IDX 77 55 78 56 79 57 80 58 59 59 60 60 68 61 61 62 67 63 69 64
REMARK SMILES IDX 66 65 62 66 63 67 64 68 65 69 5 70 6 71 7 72 8 73 9 74 10 75
REMARK SMILES IDX 32 76 11 77 20 78 12 81 19 82 13 83 14 84 18 85 15 87 17 88
REMARK SMILES IDX 16 89 21 90 22 91 31 92 23 93 30 94 24 95 25 96 26 97 27 98
REMARK SMILES IDX 28 99 29 100
REMARK H PARENT 89 22 57 33 32 79 32 80 13 86
REMARK Flexibility Score: inf
ROOT
ATOM      1  C   UNL A   1      35.680  21.430  25.725  1.00  0.00     0.275 C 
ENDROOT
BRANCH   1   2
ATOM      2  O   UNL A   1      36.989  21.677  25.174  1.00  0.00    -0.458 OA
BRANCH   2   3
ATOM      3  C   UNL A   1      38.215  21.679  25.748  1.00  0.00     0.338 C 
ATOM      4  O   UNL A   1      38.762  20.592  25.942  1.00  0.00    -0.246 OA
BRANCH   3   5
ATOM      5  C   UNL A   1      38.900  22.898  26.294  1.00  0.00     0.060 A 
ATOM      6  C   UNL A   1      38.519  24.224  26.085  1.00  0.00     0.016 A 
ATOM      7  C   UNL A   1      39.993  22.664  27.157  1.00  0.00     0.016 A 
ATOM      8  C   UNL A   1      39.128  25.271  26.776  1.00  0.00     0.010 A 
ATOM      9  C   UNL A   1      40.612  23.710  27.854  1.00  0.00     0.010 A 
ATOM     10  C   UNL A   1      40.173  25.022  27.666  1.00  0.00    -0.014 A 
BRANCH  10  11
ATOM     11  C   UNL A   1      40.913  26.183  28.202  1.00  0.00     0.031 A 
ATOM     12  C   UNL A   1      42.322  26.377  27.730  1.00  0.00     0.074 A 
ATOM     13  C   UNL A   1      40.293  27.102  28.966  1.00  0.00     0.049 A 
ATOM     14  N   UNL A   1      43.138  27.374  27.936  1.00  0.00    -0.248 NA
ATOM     15  C   UNL A   1      42.878  25.300  26.895  1.00  0.00     0.031 C 
ATOM     16  C   UNL A   1      38.904  27.026  29.419  1.00  0.00     0.029 A 
ATOM     17  N   UNL A   1      40.741  28.295  29.471  1.00  0.00    -0.354 N 
ATOM     18  C   UNL A   1      44.300  27.051  27.245  1.00  0.00     0.074 A 
ATOM     19  C   UNL A   1      44.102  25.744  26.663  1.00  0.00     0.031 C 
ATOM     20  C   UNL A   1      38.608  28.135  30.120  1.00  0.00     0.029 A 
ATOM     21  C   UNL A   1      39.790  28.989  30.185  1.00  0.00     0.049 A 
ATOM     22  H   UNL A   1      41.659  28.626  29.336  1.00  0.00     0.167 HD
ATOM     23  C   UNL A   1      45.423  27.792  27.097  1.00  0.00     0.034 A 
ATOM     24  C   UNL A   1      39.876  30.178  30.816  1.00  0.00     0.034 A 
ATOM     25  C   UNL A   1      45.602  29.076  27.723  1.00  0.00     0.049 A 
ATOM     26  C   UNL A   1      41.185  30.924  30.741  1.00  0.00     0.074 A 
ATOM     27  C   UNL A   1      46.706  29.908  27.688  1.00  0.00     0.029 A 
ATOM     28  N   UNL A   1      44.652  29.704  28.521  1.00  0.00    -0.354 N 
ATOM     29  N   UNL A   1      42.281  30.610  30.086  1.00  0.00    -0.248 NA
ATOM     30  C   UNL A   1      41.263  32.189  31.480  1.00  0.00     0.031 C 
ATOM     31  C   UNL A   1      46.452  30.998  28.531  1.00  0.00     0.029 A 
ATOM     32  C   UNL A   1      45.157  30.895  29.016  1.00  0.00     0.049 A 
ATOM     33  H   UNL A   1      43.750  29.354  28.707  1.00  0.00     0.167 HD
ATOM     34  C   UNL A   1      43.167  31.660  30.307  1.00  0.00     0.074 A 
ATOM     35  C   UNL A   1      42.470  32.618  31.142  1.00  0.00     0.031 C 
ATOM     36  C   UNL A   1      44.437  31.826  29.856  1.00  0.00     0.034 A 
BRANCH  23  37
ATOM     37  C   UNL A   1      46.544  27.168  26.303  1.00  0.00     0.023 A 
ATOM     38  C   UNL A   1      47.613  26.502  26.931  1.00  0.00     0.031 A 
ATOM     39  C   UNL A   1      46.601  27.340  24.910  1.00  0.00     0.131 A 
ATOM     40  C   UNL A   1      48.738  26.127  26.180  1.00  0.00     0.055 A 
ATOM     41  C   UNL A   1      47.682  26.880  24.157  1.00  0.00     0.041 A 
ATOM     42  F   UNL A   1      45.627  27.998  24.262  1.00  0.00    -0.206 F 
ATOM     43  C   UNL A   1      48.769  26.288  24.794  1.00  0.00     0.022 A 
BRANCH  40  44
ATOM     44  S   UNL A   1      50.236  25.610  27.067  1.00  0.00     0.124 S 
ATOM     45  O   UNL A   1      51.205  25.514  25.976  1.00  0.00    -0.237 OA
ATOM     46  O   UNL A   1      50.441  26.705  28.007  1.00  0.00    -0.237 OA
ATOM     47  O   UNL A   1      49.856  24.333  27.665  1.00  0.00    -0.744 OA
ENDBRANCH  40  44
ENDBRANCH  23  37
BRANCH  24  48
ATOM     48  C   UNL A   1      38.734  30.727  31.604  1.00  0.00     0.023 A 
ATOM     49  C   UNL A   1      37.770  31.569  31.022  1.00  0.00     0.031 A 
ATOM     50  C   UNL A   1      38.650  30.494  32.987  1.00  0.00     0.131 A 
ATOM     51  C   UNL A   1      36.792  32.179  31.828  1.00  0.00     0.055 A 
ATOM     52  C   UNL A   1      37.642  31.058  33.774  1.00  0.00     0.041 A 
ATOM     53  F   UNL A   1      39.569  29.733  33.600  1.00  0.00    -0.206 F 
ATOM     54  C   UNL A   1      36.710  31.912  33.197  1.00  0.00     0.022 A 
BRANCH  51  55
ATOM     55  S   UNL A   1      35.692  33.417  31.087  1.00  0.00     0.124 S 
ATOM     56  O   UNL A   1      35.753  34.492  32.069  1.00  0.00    -0.237 OA
ATOM     57  O   UNL A   1      36.345  33.677  29.808  1.00  0.00    -0.237 OA
ATOM     58  O   UNL A   1      34.408  32.724  30.998  1.00  0.00    -0.744 OA
ENDBRANCH  51  55
ENDBRANCH  24  48
BRANCH  36  59
ATOM     59  C   UNL A   1      45.122  33.119  30.216  1.00  0.00     0.023 A 
ATOM     60  C   UNL A   1      45.039  34.257  29.396  1.00  0.00     0.031 A 
ATOM     61  C   UNL A   1      45.885  33.205  31.396  1.00  0.00     0.131 A 
ATOM     62  C   UNL A   1      45.764  35.410  29.730  1.00  0.00     0.055 A 
ATOM     63  C   UNL A   1      46.541  34.379  31.761  1.00  0.00     0.041 A 
ATOM     64  F   UNL A   1      46.002  32.146  32.212  1.00  0.00    -0.206 F 
ATOM     65  C   UNL A   1      46.495  35.486  30.918  1.00  0.00     0.022 A 
BRANCH  62  66
ATOM     66  S   UNL A   1      45.833  36.767  28.530  1.00  0.00     0.124 S 
ATOM     67  O   UNL A   1      45.285  37.879  29.299  1.00  0.00    -0.237 OA
ATOM     68  O   UNL A   1      47.257  36.843  28.227  1.00  0.00    -0.237 OA
ATOM     69  O   UNL A   1      44.989  36.296  27.434  1.00  0.00    -0.744 OA
ENDBRANCH  62  66
ENDBRANCH  36  59
ENDBRANCH  10  11
ENDBRANCH   3   5
ENDBRANCH   2   3
ENDBRANCH   1   2
BRANCH   1  70
ATOM     70  C   UNL A   1      34.957  22.688  26.221  1.00  0.00     0.274 C 
BRANCH  70  71
ATOM     71  O   UNL A   1      34.938  23.742  25.246  1.00  0.00    -0.458 OA
BRANCH  71  72
ATOM     72  C   UNL A   1      33.714  24.045  24.715  1.00  0.00     0.365 C 
ATOM     73  O   UNL A   1      33.139  23.360  23.875  1.00  0.00    -0.245 OA
BRANCH  72  74
ATOM     74  C   UNL A   1      33.144  25.302  25.379  1.00  0.00     0.298 C 
ATOM     75  C   UNL A   1      34.270  26.314  25.659  1.00  0.00     0.115 C 
ATOM     76  N   UNL A   1      32.063  25.871  24.530  1.00  0.00    -0.323 N 
ATOM     77  C   UNL A   1      33.657  27.584  26.138  1.00  0.00    -0.006 A 
ATOM     78  C   UNL A   1      31.352  27.012  25.137  1.00  0.00     0.262 C 
ATOM     79  H   UNL A   1      31.383  25.133  24.343  1.00  0.00     0.347 HD
ATOM     80  H   UNL A   1      32.509  26.221  23.682  1.00  0.00     0.347 HD
ATOM     81  C   UNL A   1      32.322  27.861  25.906  1.00  0.00     0.083 A 
ATOM     82  C   UNL A   1      34.223  28.700  26.803  1.00  0.00     0.003 A 
ATOM     83  N   UNL A   1      32.030  29.048  26.526  1.00  0.00    -0.353 N 
ATOM     84  C   UNL A   1      33.193  29.624  26.992  1.00  0.00     0.046 A 
ATOM     85  C   UNL A   1      35.517  29.023  27.245  1.00  0.00     0.010 A 
ATOM     86  H   UNL A   1      31.128  29.430  26.624  1.00  0.00     0.166 HD
ATOM     87  C   UNL A   1      33.406  30.881  27.569  1.00  0.00     0.026 A 
ATOM     88  C   UNL A   1      35.748  30.279  27.813  1.00  0.00     0.001 A 
ATOM     89  C   UNL A   1      34.709  31.196  27.963  1.00  0.00     0.002 A 
BRANCH  78  90
ATOM     90  C   UNL A   1      30.623  27.745  24.011  1.00  0.00     0.016 A 
ATOM     91  C   UNL A   1      29.229  27.691  23.856  1.00  0.00     0.014 A 
ATOM     92  C   UNL A   1      31.345  28.603  23.162  1.00  0.00     0.014 A 
ATOM     93  C   UNL A   1      28.584  28.459  22.886  1.00  0.00     0.047 A 
ATOM     94  C   UNL A   1      30.692  29.399  22.211  1.00  0.00     0.047 A 
ATOM     95  C   UNL A   1      29.305  29.341  22.081  1.00  0.00     0.129 A 
BRANCH  95  96
ATOM     96  O   UNL A   1      28.537  30.076  21.227  1.00  0.00    -0.406 OA
BRANCH  96  97
ATOM     97  C   UNL A   1      28.180  31.382  21.642  1.00  0.00     0.573 C 
ATOM     98  F   UNL A   1      27.281  31.362  22.648  1.00  0.00    -0.132 F 
ATOM     99  F   UNL A   1      29.269  32.085  22.019  1.00  0.00    -0.132 F 
ATOM    100  F   UNL A   1      27.614  32.024  20.593  1.00  0.00    -0.132 F 
ENDBRANCH  96  97
ENDBRANCH  95  96
ENDBRANCH  78  90
ENDBRANCH  72  74
ENDBRANCH  71  72
ENDBRANCH  70  71
ENDBRANCH   1  70
TORSDOF 17
ENDMDL
MODEL 3
REMARK VINA RESULT:     -12.3      1.949      2.158
REMARK SMILES O=C(OCCOC(=O)[C@H]1Cc2c([nH]c3ccccc23)[C@@H](c2ccc(OC(F)(F)F)cc2)[NH2+]1)c1ccc(-c2c3nc(c(-c4cc(S(=O)(=O)[O-])ccc4F)c4ccc([nH]4)c(-c4cc(S(=O)(=O)[O-])ccc4F)c4nc(c(-c5cc(S(=O)(=O)[O-])ccc5F)c5ccc2[nH]5)C=C4)C=C3)cc1
REMARK SMILES IDX 4 1 3 2 2 3 1 4 33 5 34 6 95 7 35 8 94 9 36 10 37 11 38 12
REMARK SMILES IDX 88 13 39 14 93 15 87 16 89 17 40 18 92 19 86 20 85 21 41 23
REMARK SMILES IDX 73 24 53 25 72 26 54 27 57 28 71 29 90 30 55 31 56 32 70 34
REMARK SMILES IDX 91 35 58 36 42 37 43 38 51 39 44 40 50 41 52 42 49 43 45 44
REMARK SMILES IDX 46 45 47 46 48 47 74 48 75 49 83 50 76 51 82 52 84 53 81 54
REMARK SMILES IDX 77 55 78 56 79 57 80 58 59 59 60 60 68 61 61 62 67 63 69 64
REMARK SMILES IDX 66 65 62 66 63 67 64 68 65 69 5 70 6 71 7 72 8 73 9 74 10 75
REMARK SMILES IDX 32 76 11 77 20 78 12 81 19 82 13 83 14 84 18 85 15 87 17 88
REMARK SMILES IDX 16 89 21 90 22 91 31 92 23 93 30 94 24 95 25 96 26 97 27 98
REMARK SMILES IDX 28 99 29 100
REMARK H PARENT 89 22 57 33 32 79 32 80 13 86
REMARK Flexibility Score: inf
ROOT
ATOM      1  C   UNL A   1      33.250  29.397  25.741  1.00  0.00     0.275 C 
ENDROOT
BRANCH   1   2
ATOM      2  O   UNL A   1      32.978  30.208  26.902  1.00  0.00    -0.458 OA
BRANCH   2   3
ATOM      3  C   UNL A   1      33.747  31.098  27.572  1.00  0.00     0.338 C 
ATOM      4  O   UNL A   1      33.348  32.261  27.647  1.00  0.00    -0.246 OA
BRANCH   3   5
ATOM      5  C   UNL A   1      35.117  30.807  28.111  1.00  0.00     0.060 A 
ATOM      6  C   UNL A   1      35.583  29.571  28.561  1.00  0.00     0.016 A 
ATOM      7  C   UNL A   1      36.035  31.880  28.090  1.00  0.00     0.016 A 
ATOM      8  C   UNL A   1      36.926  29.377  28.884  1.00  0.00     0.010 A 
ATOM      9  C   UNL A   1      37.385  31.694  28.416  1.00  0.00     0.010 A 
ATOM     10  C   UNL A   1      37.835  30.432  28.811  1.00  0.00    -0.014 A 
BRANCH  10  11
ATOM     11  C   UNL A   1      39.187  30.217  29.367  1.00  0.00     0.031 A 
ATOM     12  C   UNL A   1      39.474  30.800  30.717  1.00  0.00     0.074 A 
ATOM     13  C   UNL A   1      40.067  29.410  28.745  1.00  0.00     0.049 A 
ATOM     14  N   UNL A   1      40.520  30.647  31.482  1.00  0.00    -0.248 NA
ATOM     15  C   UNL A   1      38.425  31.660  31.288  1.00  0.00     0.031 C 
ATOM     16  C   UNL A   1      39.845  28.750  27.459  1.00  0.00     0.029 A 
ATOM     17  N   UNL A   1      41.312  28.982  29.127  1.00  0.00    -0.354 N 
ATOM     18  C   UNL A   1      40.250  31.381  32.631  1.00  0.00     0.074 A 
ATOM     19  C   UNL A   1      38.969  32.022  32.437  1.00  0.00     0.031 C 
ATOM     20  C   UNL A   1      40.912  27.985  27.166  1.00  0.00     0.029 A 
ATOM     21  C   UNL A   1      41.901  28.117  28.231  1.00  0.00     0.049 A 
ATOM     22  H   UNL A   1      41.746  29.267  29.963  1.00  0.00     0.167 HD
ATOM     23  C   UNL A   1      40.998  31.493  33.753  1.00  0.00     0.034 A 
ATOM     24  C   UNL A   1      43.104  27.509  28.277  1.00  0.00     0.034 A 
ATOM     25  C   UNL A   1      42.289  30.872  33.898  1.00  0.00     0.049 A 
ATOM     26  C   UNL A   1      43.973  27.754  29.485  1.00  0.00     0.074 A 
ATOM     27  C   UNL A   1      43.167  30.941  34.964  1.00  0.00     0.029 A 
ATOM     28  N   UNL A   1      42.898  30.081  32.929  1.00  0.00    -0.354 N 
ATOM     29  N   UNL A   1      43.711  28.452  30.567  1.00  0.00    -0.248 NA
ATOM     30  C   UNL A   1      45.296  27.120  29.481  1.00  0.00     0.031 C 
ATOM     31  C   UNL A   1      44.337  30.261  34.605  1.00  0.00     0.029 A 
ATOM     32  C   UNL A   1      44.154  29.687  33.356  1.00  0.00     0.049 A 
ATOM     33  H   UNL A   1      42.493  29.836  32.065  1.00  0.00     0.167 HD
ATOM     34  C   UNL A   1      44.824  28.310  31.389  1.00  0.00     0.074 A 
ATOM     35  C   UNL A   1      45.751  27.449  30.681  1.00  0.00     0.031 C 
ATOM     36  C   UNL A   1      45.060  28.834  32.620  1.00  0.00     0.034 A 
BRANCH  23  37
ATOM     37  C   UNL A   1      40.456  32.387  34.840  1.00  0.00     0.023 A 
ATOM     38  C   UNL A   1      39.661  31.883  35.886  1.00  0.00     0.031 A 
ATOM     39  C   UNL A   1      40.644  33.778  34.766  1.00  0.00     0.131 A 
ATOM     40  C   UNL A   1      38.999  32.770  36.749  1.00  0.00     0.055 A 
ATOM     41  C   UNL A   1      40.058  34.648  35.687  1.00  0.00     0.041 A 
ATOM     42  F   UNL A   1      41.365  34.319  33.772  1.00  0.00    -0.206 F 
ATOM     43  C   UNL A   1      39.213  34.147  36.673  1.00  0.00     0.022 A 
BRANCH  40  44
ATOM     44  S   UNL A   1      37.706  32.112  37.841  1.00  0.00     0.124 S 
ATOM     45  O   UNL A   1      37.563  30.747  37.337  1.00  0.00    -0.237 OA
ATOM     46  O   UNL A   1      38.309  32.245  39.161  1.00  0.00    -0.237 OA
ATOM     47  O   UNL A   1      36.563  32.985  37.583  1.00  0.00    -0.744 OA
ENDBRANCH  40  44
ENDBRANCH  23  37
BRANCH  24  48
ATOM     48  C   UNL A   1      43.588  26.653  27.154  1.00  0.00     0.023 A 
ATOM     49  C   UNL A   1      43.251  25.293  27.061  1.00  0.00     0.031 A 
ATOM     50  C   UNL A   1      44.488  27.171  26.207  1.00  0.00     0.131 A 
ATOM     51  C   UNL A   1      43.840  24.489  26.070  1.00  0.00     0.055 A 
ATOM     52  C   UNL A   1      45.028  26.381  25.189  1.00  0.00     0.041 A 
ATOM     53  F   UNL A   1      44.877  28.453  26.275  1.00  0.00    -0.206 F 
ATOM     54  C   UNL A   1      44.711  25.029  25.121  1.00  0.00     0.022 A 
BRANCH  51  55
ATOM     55  S   UNL A   1      43.544  22.698  26.101  1.00  0.00     0.124 S 
ATOM     56  O   UNL A   1      44.866  22.175  25.780  1.00  0.00    -0.237 OA
ATOM     57  O   UNL A   1      43.085  22.490  27.470  1.00  0.00    -0.237 OA
ATOM     58  O   UNL A   1      42.527  22.502  25.070  1.00  0.00    -0.744 OA
ENDBRANCH  51  55
ENDBRANCH  24  48
BRANCH  36  59
ATOM     59  C   UNL A   1      46.349  28.435  33.292  1.00  0.00     0.023 A 
ATOM     60  C   UNL A   1      47.522  29.197  33.158  1.00  0.00     0.031 A 
ATOM     61  C   UNL A   1      46.405  27.261  34.066  1.00  0.00     0.131 A 
ATOM     62  C   UNL A   1      48.718  28.739  33.731  1.00  0.00     0.055 A 
ATOM     63  C   UNL A   1      47.578  26.852  34.696  1.00  0.00     0.041 A 
ATOM     64  F   UNL A   1      45.314  26.494  34.221  1.00  0.00    -0.206 F 
ATOM     65  C   UNL A   1      48.748  27.585  34.517  1.00  0.00     0.022 A 
BRANCH  62  66
ATOM     66  S   UNL A   1      50.257  29.611  33.334  1.00  0.00     0.124 S 
ATOM     67  O   UNL A   1      49.795  30.627  32.393  1.00  0.00    -0.237 OA
ATOM     68  O   UNL A   1      50.685  30.100  34.640  1.00  0.00    -0.237 OA
ATOM     69  O   UNL A   1      51.101  28.568  32.755  1.00  0.00    -0.744 OA
ENDBRANCH  62  66
ENDBRANCH  36  59
ENDBRANCH  10  11
ENDBRANCH   3   5
ENDBRANCH   2   3
ENDBRANCH   1   2
BRANCH   1  70
ATOM     70  C   UNL A   1      32.758  27.949  25.854  1.00  0.00     0.274 C 
BRANCH  70  71
ATOM     71  O   UNL A   1      33.162  27.134  24.744  1.00  0.00    -0.458 OA
BRANCH  71  72
ATOM     72  C   UNL A   1      32.610  25.884  24.686  1.00  0.00     0.365 C 
ATOM     73  O   UNL A   1      31.409  25.656  24.789  1.00  0.00    -0.245 OA
BRANCH  72  74
ATOM     74  C   UNL A   1      33.692  24.840  24.394  1.00  0.00     0.298 C 
ATOM     75  C   UNL A   1      34.792  24.897  25.468  1.00  0.00     0.115 C 
ATOM     76  N   UNL A   1      33.071  23.492  24.283  1.00  0.00    -0.323 N 
ATOM     77  C   UNL A   1      35.727  23.757  25.252  1.00  0.00    -0.006 A 
ATOM     78  C   UNL A   1      34.004  22.426  23.872  1.00  0.00     0.262 C 
ATOM     79  H   UNL A   1      32.320  23.543  23.594  1.00  0.00     0.347 HD
ATOM     80  H   UNL A   1      32.736  23.247  25.215  1.00  0.00     0.347 HD
ATOM     81  C   UNL A   1      35.347  22.660  24.500  1.00  0.00     0.083 A 
ATOM     82  C   UNL A   1      37.033  23.516  25.742  1.00  0.00     0.003 A 
ATOM     83  N   UNL A   1      36.429  21.823  24.410  1.00  0.00    -0.353 N 
ATOM     84  C   UNL A   1      37.433  22.276  25.240  1.00  0.00     0.046 A 
ATOM     85  C   UNL A   1      37.910  24.224  26.583  1.00  0.00     0.010 A 
ATOM     86  H   UNL A   1      36.481  21.023  23.839  1.00  0.00     0.166 HD
ATOM     87  C   UNL A   1      38.658  21.688  25.574  1.00  0.00     0.026 A 
ATOM     88  C   UNL A   1      39.132  23.645  26.935  1.00  0.00     0.001 A 
ATOM     89  C   UNL A   1      39.495  22.391  26.444  1.00  0.00     0.002 A 
BRANCH  78  90
ATOM     90  C   UNL A   1      33.357  21.090  24.238  1.00  0.00     0.016 A 
ATOM     91  C   UNL A   1      32.749  20.262  23.282  1.00  0.00     0.014 A 
ATOM     92  C   UNL A   1      33.470  20.603  25.552  1.00  0.00     0.014 A 
ATOM     93  C   UNL A   1      32.267  18.999  23.629  1.00  0.00     0.047 A 
ATOM     94  C   UNL A   1      33.015  19.322  25.892  1.00  0.00     0.047 A 
ATOM     95  C   UNL A   1      32.425  18.508  24.925  1.00  0.00     0.129 A 
BRANCH  95  96
ATOM     96  O   UNL A   1      31.968  17.235  25.103  1.00  0.00    -0.406 OA
BRANCH  96  97
ATOM     97  C   UNL A   1      32.916  16.189  24.995  1.00  0.00     0.573 C 
ATOM     98  F   UNL A   1      33.501  16.163  23.779  1.00  0.00    -0.132 F 
ATOM     99  F   UNL A   1      33.862  16.292  25.952  1.00  0.00    -0.132 F 
ATOM    100  F   UNL A   1      32.274  15.010  25.171  1.00  0.00    -0.132 F 
ENDBRANCH  96  97
ENDBRANCH  95  96
ENDBRANCH  78  90
ENDBRANCH  72  74
ENDBRANCH  71  72
ENDBRANCH  70  71
ENDBRANCH   1  70
TORSDOF 17
ENDMDL
