MODEL 1
REMARK VINA RESULT:     -12.0      0.000      0.000
REMARK SMILES O=C(OCCOC(=O)c1cccc(S(=O)(=O)NC[C@@H]2COc3ccccc3O2)c1)c1ccc(-c2c3nc(c(-c4cc(S(=O)(=O)[O-])ccc4F)c4ccc([nH]4)c(-c4cc(S(=O)(=O)[O-])ccc4F)c4nc(c(-c5cc(S(=O)(=O)[O-])ccc5F)c5ccc2[nH]5)C=C4)C=C3)cc1
REMARK SMILES IDX 5 1 4 2 3 3 2 4 1 5 30 6 31 7 92 8 32 9 91 10 33 11 34 12
REMARK SMILES IDX 35 13 85 14 36 15 90 16 84 17 86 18 37 19 89 20 83 21 82 22
REMARK SMILES IDX 38 24 70 25 50 26 69 27 51 28 54 29 68 30 87 31 52 32 53 33
REMARK SMILES IDX 67 35 88 36 55 37 39 38 40 39 48 40 41 41 47 42 49 43 46 44
REMARK SMILES IDX 42 45 43 46 44 47 45 48 71 49 72 50 80 51 73 52 79 53 81 54
REMARK SMILES IDX 78 55 74 56 75 57 76 58 77 59 56 60 57 61 65 62 58 63 64 64
REMARK SMILES IDX 66 65 63 66 59 67 60 68 61 69 62 70 6 71 7 72 8 73 9 74
REMARK SMILES IDX 10 75 29 76 11 77 13 78 12 79 14 80 15 81 16 82 17 83 18 85
REMARK SMILES IDX 19 86 20 87 28 88 21 89 27 90 22 91 26 92 23 93 25 94 24 95
REMARK H PARENT 86 23 54 34 17 84
REMARK Flexibility Score: inf
ROOT
ATOM      1  C   UNL A   1      37.923  20.087  24.935  1.00  0.00     0.275 C 
ENDROOT
BRANCH   1   2
ATOM      2  C   UNL A   1      38.828  20.493  26.101  1.00  0.00     0.275 C 
BRANCH   2   3
ATOM      3  O   UNL A   1      40.124  19.866  26.144  1.00  0.00    -0.458 OA
BRANCH   3   4
ATOM      4  C   UNL A   1      41.294  20.317  26.661  1.00  0.00     0.338 C 
ATOM      5  O   UNL A   1      42.130  19.504  27.051  1.00  0.00    -0.246 OA
BRANCH   4   6
ATOM      6  C   UNL A   1      41.557  21.765  26.914  1.00  0.00     0.060 A 
ATOM      7  C   UNL A   1      41.683  22.737  25.921  1.00  0.00     0.016 A 
ATOM      8  C   UNL A   1      41.712  22.157  28.256  1.00  0.00     0.016 A 
ATOM      9  C   UNL A   1      41.857  24.082  26.257  1.00  0.00     0.010 A 
ATOM     10  C   UNL A   1      41.898  23.502  28.598  1.00  0.00     0.010 A 
ATOM     11  C   UNL A   1      41.965  24.476  27.594  1.00  0.00    -0.014 A 
BRANCH  11  12
ATOM     12  C   UNL A   1      42.301  25.883  27.907  1.00  0.00     0.031 A 
ATOM     13  C   UNL A   1      43.713  26.347  27.719  1.00  0.00     0.074 A 
ATOM     14  C   UNL A   1      41.346  26.768  28.251  1.00  0.00     0.049 A 
ATOM     15  N   UNL A   1      44.205  27.549  27.850  1.00  0.00    -0.248 NA
ATOM     16  C   UNL A   1      44.682  25.341  27.257  1.00  0.00     0.031 C 
ATOM     17  C   UNL A   1      39.915  26.480  28.313  1.00  0.00     0.029 A 
ATOM     18  N   UNL A   1      41.434  28.083  28.633  1.00  0.00    -0.354 N 
ATOM     19  C   UNL A   1      45.508  27.469  27.386  1.00  0.00     0.074 A 
ATOM     20  C   UNL A   1      45.767  26.079  27.078  1.00  0.00     0.031 C 
ATOM     21  C   UNL A   1      39.275  27.552  28.817  1.00  0.00     0.029 A 
ATOM     22  C   UNL A   1      40.248  28.586  29.120  1.00  0.00     0.049 A 
ATOM     23  H   UNL A   1      42.261  28.613  28.567  1.00  0.00     0.167 HD
ATOM     24  C   UNL A   1      46.385  28.481  27.177  1.00  0.00     0.034 A 
ATOM     25  C   UNL A   1      39.986  29.735  29.771  1.00  0.00     0.034 A 
ATOM     26  C   UNL A   1      46.134  29.845  27.565  1.00  0.00     0.049 A 
ATOM     27  C   UNL A   1      41.071  30.770  29.821  1.00  0.00     0.074 A 
ATOM     28  C   UNL A   1      46.960  30.948  27.441  1.00  0.00     0.029 A 
ATOM     29  N   UNL A   1      44.972  30.291  28.188  1.00  0.00    -0.354 N 
ATOM     30  N   UNL A   1      42.294  30.698  29.350  1.00  0.00    -0.248 NA
ATOM     31  C   UNL A   1      40.717  32.065  30.409  1.00  0.00     0.031 C 
ATOM     32  C   UNL A   1      46.326  32.041  28.046  1.00  0.00     0.029 A 
ATOM     33  C   UNL A   1      45.076  31.640  28.491  1.00  0.00     0.049 A 
ATOM     34  H   UNL A   1      44.188  29.729  28.384  1.00  0.00     0.167 HD
ATOM     35  C   UNL A   1      42.834  31.966  29.516  1.00  0.00     0.074 A 
ATOM     36  C   UNL A   1      41.807  32.772  30.148  1.00  0.00     0.031 C 
ATOM     37  C   UNL A   1      44.055  32.427  29.143  1.00  0.00     0.034 A 
BRANCH  24  38
ATOM     38  C   UNL A   1      47.688  28.111  26.520  1.00  0.00     0.023 A 
ATOM     39  C   UNL A   1      47.778  27.967  25.123  1.00  0.00     0.031 A 
ATOM     40  C   UNL A   1      48.829  27.839  27.289  1.00  0.00     0.131 A 
ATOM     41  C   UNL A   1      48.966  27.500  24.542  1.00  0.00     0.055 A 
ATOM     42  C   UNL A   1      50.029  27.435  26.700  1.00  0.00     0.041 A 
ATOM     43  F   UNL A   1      48.789  27.932  28.628  1.00  0.00    -0.206 F 
ATOM     44  C   UNL A   1      50.098  27.252  25.321  1.00  0.00     0.022 A 
BRANCH  41  45
ATOM     45  S   UNL A   1      48.973  27.102  22.772  1.00  0.00     0.124 S 
ATOM     46  O   UNL A   1      48.312  25.800  22.757  1.00  0.00    -0.237 OA
ATOM     47  O   UNL A   1      48.217  28.208  22.195  1.00  0.00    -0.237 OA
ATOM     48  O   UNL A   1      50.395  27.076  22.433  1.00  0.00    -0.744 OA
ENDBRANCH  41  45
ENDBRANCH  24  38
BRANCH  25  49
ATOM     49  C   UNL A   1      38.671  29.970  30.434  1.00  0.00     0.023 A 
ATOM     50  C   UNL A   1      37.682  30.777  29.853  1.00  0.00     0.031 A 
ATOM     51  C   UNL A   1      38.425  29.450  31.719  1.00  0.00     0.131 A 
ATOM     52  C   UNL A   1      36.509  31.070  30.571  1.00  0.00     0.055 A 
ATOM     53  C   UNL A   1      37.241  29.711  32.411  1.00  0.00     0.041 A 
ATOM     54  F   UNL A   1      39.352  28.707  32.341  1.00  0.00    -0.206 F 
ATOM     55  C   UNL A   1      36.277  30.535  31.841  1.00  0.00     0.022 A 
BRANCH  52  56
ATOM     56  S   UNL A   1      35.324  32.247  29.861  1.00  0.00     0.124 S 
ATOM     57  O   UNL A   1      36.190  33.360  29.489  1.00  0.00    -0.237 OA
ATOM     58  O   UNL A   1      34.762  31.474  28.757  1.00  0.00    -0.237 OA
ATOM     59  O   UNL A   1      34.404  32.513  30.964  1.00  0.00    -0.744 OA
ENDBRANCH  52  56
ENDBRANCH  25  49
BRANCH  37  60
ATOM     60  C   UNL A   1      44.304  33.895  29.367  1.00  0.00     0.023 A 
ATOM     61  C   UNL A   1      43.862  34.862  28.450  1.00  0.00     0.031 A 
ATOM     62  C   UNL A   1      45.060  34.321  30.472  1.00  0.00     0.131 A 
ATOM     63  C   UNL A   1      44.254  36.198  28.607  1.00  0.00     0.055 A 
ATOM     64  C   UNL A   1      45.384  35.663  30.664  1.00  0.00     0.041 A 
ATOM     65  F   UNL A   1      45.514  33.436  31.374  1.00  0.00    -0.206 F 
ATOM     66  C   UNL A   1      44.996  36.609  29.717  1.00  0.00     0.022 A 
BRANCH  63  67
ATOM     67  S   UNL A   1      43.890  37.367  27.270  1.00  0.00     0.124 S 
ATOM     68  O   UNL A   1      42.882  36.642  26.503  1.00  0.00    -0.237 OA
ATOM     69  O   UNL A   1      43.413  38.539  28.000  1.00  0.00    -0.237 OA
ATOM     70  O   UNL A   1      45.179  37.535  26.603  1.00  0.00    -0.744 OA
ENDBRANCH  63  67
ENDBRANCH  37  60
ENDBRANCH  11  12
ENDBRANCH   4   6
ENDBRANCH   3   4
ENDBRANCH   2   3
ENDBRANCH   1   2
BRANCH   1  71
ATOM     71  O   UNL A   1      37.143  21.164  24.395  1.00  0.00    -0.458 OA
BRANCH  71  72
ATOM     72  C   UNL A   1      35.825  21.111  24.715  1.00  0.00     0.338 C 
ATOM     73  O   UNL A   1      35.198  20.112  25.026  1.00  0.00    -0.246 OA
BRANCH  72  74
ATOM     74  C   UNL A   1      35.207  22.457  24.676  1.00  0.00     0.061 A 
ATOM     75  C   UNL A   1      34.966  23.101  25.891  1.00  0.00     0.016 A 
ATOM     76  C   UNL A   1      34.796  23.050  23.480  1.00  0.00     0.037 A 
ATOM     77  C   UNL A   1      34.301  24.327  25.908  1.00  0.00     0.002 A 
ATOM     78  C   UNL A   1      34.008  24.200  23.510  1.00  0.00     0.083 A 
ATOM     79  C   UNL A   1      33.793  24.860  24.723  1.00  0.00     0.022 A 
BRANCH  78  80
ATOM     80  S   UNL A   1      33.282  24.878  22.031  1.00  0.00     0.240 S 
ATOM     81  O   UNL A   1      33.960  26.141  21.788  1.00  0.00    -0.207 OA
ATOM     82  O   UNL A   1      33.279  23.833  21.058  1.00  0.00    -0.207 OA
BRANCH  80  83
ATOM     83  N   UNL A   1      31.696  25.337  22.396  1.00  0.00    -0.207 NA
ATOM     84  H   UNL A   1      31.594  25.209  23.404  1.00  0.00     0.141 HD
BRANCH  83  85
ATOM     85  C   UNL A   1      31.143  26.681  22.099  1.00  0.00     0.147 C 
BRANCH  85  86
ATOM     86  C   UNL A   1      30.207  27.114  23.249  1.00  0.00     0.226 C 
ATOM     87  C   UNL A   1      29.914  28.618  23.242  1.00  0.00     0.276 C 
ATOM     88  O   UNL A   1      30.692  26.641  24.519  1.00  0.00    -0.482 OA
ATOM     89  O   UNL A   1      31.025  29.382  23.690  1.00  0.00    -0.486 OA
ATOM     90  C   UNL A   1      31.183  27.621  25.339  1.00  0.00     0.161 A 
ATOM     91  C   UNL A   1      31.361  28.947  24.942  1.00  0.00     0.161 A 
ATOM     92  C   UNL A   1      31.494  27.249  26.643  1.00  0.00     0.050 A 
ATOM     93  C   UNL A   1      31.868  29.896  25.825  1.00  0.00     0.050 A 
ATOM     94  C   UNL A   1      31.968  28.204  27.546  1.00  0.00     0.004 A 
ATOM     95  C   UNL A   1      32.159  29.525  27.136  1.00  0.00     0.004 A 
ENDBRANCH  85  86
ENDBRANCH  83  85
ENDBRANCH  80  83
ENDBRANCH  78  80
ENDBRANCH  72  74
ENDBRANCH  71  72
ENDBRANCH   1  71
TORSDOF 18
ENDMDL
MODEL 2
REMARK VINA RESULT:     -11.8      5.109      8.678
REMARK SMILES O=C(OCCOC(=O)c1cccc(S(=O)(=O)NC[C@@H]2COc3ccccc3O2)c1)c1ccc(-c2c3nc(c(-c4cc(S(=O)(=O)[O-])ccc4F)c4ccc([nH]4)c(-c4cc(S(=O)(=O)[O-])ccc4F)c4nc(c(-c5cc(S(=O)(=O)[O-])ccc5F)c5ccc2[nH]5)C=C4)C=C3)cc1
REMARK SMILES IDX 5 1 4 2 3 3 2 4 1 5 30 6 31 7 92 8 32 9 91 10 33 11 34 12
REMARK SMILES IDX 35 13 85 14 36 15 90 16 84 17 86 18 37 19 89 20 83 21 82 22
REMARK SMILES IDX 38 24 70 25 50 26 69 27 51 28 54 29 68 30 87 31 52 32 53 33
REMARK SMILES IDX 67 35 88 36 55 37 39 38 40 39 48 40 41 41 47 42 49 43 46 44
REMARK SMILES IDX 42 45 43 46 44 47 45 48 71 49 72 50 80 51 73 52 79 53 81 54
REMARK SMILES IDX 78 55 74 56 75 57 76 58 77 59 56 60 57 61 65 62 58 63 64 64
REMARK SMILES IDX 66 65 63 66 59 67 60 68 61 69 62 70 6 71 7 72 8 73 9 74
REMARK SMILES IDX 10 75 29 76 11 77 13 78 12 79 14 80 15 81 16 82 17 83 18 85
REMARK SMILES IDX 19 86 20 87 28 88 21 89 27 90 22 91 26 92 23 93 25 94 24 95
REMARK H PARENT 86 23 54 34 17 84
REMARK Flexibility Score: inf
ROOT
ATOM      1  C   UNL A   1      32.549  31.053  26.905  1.00  0.00     0.275 C 
ENDROOT
BRANCH   1   2
ATOM      2  C   UNL A   1      31.712  32.293  27.230  1.00  0.00     0.275 C 
BRANCH   2   3
ATOM      3  O   UNL A   1      32.419  33.548  27.244  1.00  0.00    -0.458 OA
BRANCH   3   4
ATOM      4  C   UNL A   1      33.131  34.136  28.237  1.00  0.00     0.338 C 
ATOM      5  O   UNL A   1      32.942  35.325  28.485  1.00  0.00    -0.246 OA
BRANCH   4   6
ATOM      6  C   UNL A   1      34.244  33.441  28.950  1.00  0.00     0.060 A 
ATOM      7  C   UNL A   1      34.090  32.656  30.093  1.00  0.00     0.016 A 
ATOM      8  C   UNL A   1      35.540  33.622  28.434  1.00  0.00     0.016 A 
ATOM      9  C   UNL A   1      35.181  31.984  30.650  1.00  0.00     0.010 A 
ATOM     10  C   UNL A   1      36.639  32.960  28.995  1.00  0.00     0.010 A 
ATOM     11  C   UNL A   1      36.461  32.129  30.107  1.00  0.00    -0.014 A 
BRANCH  11  12
ATOM     12  C   UNL A   1      37.616  31.527  30.812  1.00  0.00     0.031 A 
ATOM     13  C   UNL A   1      38.319  30.364  30.182  1.00  0.00     0.074 A 
ATOM     14  C   UNL A   1      38.104  32.073  31.942  1.00  0.00     0.049 A 
ATOM     15  N   UNL A   1      39.396  29.744  30.580  1.00  0.00    -0.248 NA
ATOM     16  C   UNL A   1      37.778  29.881  28.901  1.00  0.00     0.031 C 
ATOM     17  C   UNL A   1      37.610  33.296  32.568  1.00  0.00     0.029 A 
ATOM     18  N   UNL A   1      39.111  31.658  32.779  1.00  0.00    -0.354 N 
ATOM     19  C   UNL A   1      39.725  28.873  29.554  1.00  0.00     0.074 A 
ATOM     20  C   UNL A   1      38.671  28.963  28.566  1.00  0.00     0.031 C 
ATOM     21  C   UNL A   1      38.239  33.470  33.745  1.00  0.00     0.029 A 
ATOM     22  C   UNL A   1      39.163  32.370  33.956  1.00  0.00     0.049 A 
ATOM     23  H   UNL A   1      39.731  30.926  32.559  1.00  0.00     0.167 HD
ATOM     24  C   UNL A   1      40.842  28.118  29.423  1.00  0.00     0.034 A 
ATOM     25  C   UNL A   1      39.852  32.137  35.090  1.00  0.00     0.034 A 
ATOM     26  C   UNL A   1      41.839  27.985  30.454  1.00  0.00     0.049 A 
ATOM     27  C   UNL A   1      40.905  31.070  35.058  1.00  0.00     0.074 A 
ATOM     28  C   UNL A   1      42.991  27.219  30.453  1.00  0.00     0.029 A 
ATOM     29  N   UNL A   1      41.784  28.614  31.694  1.00  0.00    -0.354 N 
ATOM     30  N   UNL A   1      41.232  30.271  34.069  1.00  0.00    -0.248 NA
ATOM     31  C   UNL A   1      41.737  30.931  36.257  1.00  0.00     0.031 C 
ATOM     32  C   UNL A   1      43.595  27.334  31.713  1.00  0.00     0.029 A 
ATOM     33  C   UNL A   1      42.857  28.222  32.480  1.00  0.00     0.049 A 
ATOM     34  H   UNL A   1      41.084  29.248  31.974  1.00  0.00     0.167 HD
ATOM     35  C   UNL A   1      42.358  29.584  34.500  1.00  0.00     0.074 A 
ATOM     36  C   UNL A   1      42.638  30.054  35.844  1.00  0.00     0.031 C 
ATOM     37  C   UNL A   1      43.113  28.678  33.826  1.00  0.00     0.034 A 
BRANCH  24  38
ATOM     38  C   UNL A   1      41.000  27.377  28.123  1.00  0.00     0.023 A 
ATOM     39  C   UNL A   1      40.762  25.992  28.045  1.00  0.00     0.031 A 
ATOM     40  C   UNL A   1      41.450  28.037  26.970  1.00  0.00     0.131 A 
ATOM     41  C   UNL A   1      41.037  25.299  26.858  1.00  0.00     0.055 A 
ATOM     42  C   UNL A   1      41.661  27.353  25.771  1.00  0.00     0.041 A 
ATOM     43  F   UNL A   1      41.720  29.352  26.996  1.00  0.00    -0.206 F 
ATOM     44  C   UNL A   1      41.467  25.975  25.713  1.00  0.00     0.022 A 
BRANCH  41  45
ATOM     45  S   UNL A   1      40.944  23.487  26.864  1.00  0.00     0.124 S 
ATOM     46  O   UNL A   1      41.881  23.137  25.799  1.00  0.00    -0.237 OA
ATOM     47  O   UNL A   1      41.366  23.152  28.219  1.00  0.00    -0.237 OA
ATOM     48  O   UNL A   1      39.540  23.215  26.563  1.00  0.00    -0.744 OA
ENDBRANCH  41  45
ENDBRANCH  24  38
BRANCH  25  49
ATOM     49  C   UNL A   1      39.570  32.900  36.340  1.00  0.00     0.023 A 
ATOM     50  C   UNL A   1      38.715  32.403  37.335  1.00  0.00     0.031 A 
ATOM     51  C   UNL A   1      40.095  34.195  36.510  1.00  0.00     0.131 A 
ATOM     52  C   UNL A   1      38.382  33.211  38.436  1.00  0.00     0.055 A 
ATOM     53  C   UNL A   1      39.794  34.977  37.627  1.00  0.00     0.041 A 
ATOM     54  F   UNL A   1      40.884  34.738  35.572  1.00  0.00    -0.206 F 
ATOM     55  C   UNL A   1      38.923  34.490  38.594  1.00  0.00     0.022 A 
BRANCH  52  56
ATOM     56  S   UNL A   1      37.148  32.603  39.620  1.00  0.00     0.124 S 
ATOM     57  O   UNL A   1      37.320  33.527  40.735  1.00  0.00    -0.237 OA
ATOM     58  O   UNL A   1      35.911  32.740  38.858  1.00  0.00    -0.237 OA
ATOM     59  O   UNL A   1      37.570  31.229  39.878  1.00  0.00    -0.744 OA
ENDBRANCH  52  56
ENDBRANCH  25  49
BRANCH  37  60
ATOM     60  C   UNL A   1      44.348  28.190  34.535  1.00  0.00     0.023 A 
ATOM     61  C   UNL A   1      45.581  28.846  34.397  1.00  0.00     0.031 A 
ATOM     62  C   UNL A   1      44.304  27.008  35.295  1.00  0.00     0.131 A 
ATOM     63  C   UNL A   1      46.739  28.270  34.937  1.00  0.00     0.055 A 
ATOM     64  C   UNL A   1      45.447  26.479  35.894  1.00  0.00     0.041 A 
ATOM     65  F   UNL A   1      43.151  26.337  35.452  1.00  0.00    -0.206 F 
ATOM     66  C   UNL A   1      46.678  27.101  35.700  1.00  0.00     0.022 A 
BRANCH  63  67
ATOM     67  S   UNL A   1      48.344  29.002  34.516  1.00  0.00     0.124 S 
ATOM     68  O   UNL A   1      49.166  27.816  34.298  1.00  0.00    -0.237 OA
ATOM     69  O   UNL A   1      48.028  29.786  33.326  1.00  0.00    -0.237 OA
ATOM     70  O   UNL A   1      48.684  29.786  35.702  1.00  0.00    -0.744 OA
ENDBRANCH  63  67
ENDBRANCH  37  60
ENDBRANCH  11  12
ENDBRANCH   4   6
ENDBRANCH   3   4
ENDBRANCH   2   3
ENDBRANCH   1   2
BRANCH   1  71
ATOM     71  O   UNL A   1      31.792  29.835  26.841  1.00  0.00    -0.458 OA
BRANCH  71  72
ATOM     72  C   UNL A   1      32.551  28.711  26.785  1.00  0.00     0.338 C 
ATOM     73  O   UNL A   1      33.667  28.571  27.256  1.00  0.00    -0.246 OA
BRANCH  72  74
ATOM     74  C   UNL A   1      31.839  27.615  26.089  1.00  0.00     0.061 A 
ATOM     75  C   UNL A   1      31.043  27.945  24.990  1.00  0.00     0.016 A 
ATOM     76  C   UNL A   1      31.881  26.295  26.546  1.00  0.00     0.037 A 
ATOM     77  C   UNL A   1      30.280  26.961  24.363  1.00  0.00     0.002 A 
ATOM     78  C   UNL A   1      31.012  25.346  26.009  1.00  0.00     0.083 A 
ATOM     79  C   UNL A   1      30.238  25.671  24.891  1.00  0.00     0.022 A 
BRANCH  78  80
ATOM     80  S   UNL A   1      30.873  23.707  26.694  1.00  0.00     0.240 S 
ATOM     81  O   UNL A   1      32.103  23.471  27.434  1.00  0.00    -0.207 OA
ATOM     82  O   UNL A   1      29.596  23.633  27.327  1.00  0.00    -0.207 OA
BRANCH  80  83
ATOM     83  N   UNL A   1      30.954  22.604  25.416  1.00  0.00    -0.207 NA
ATOM     84  H   UNL A   1      31.077  23.164  24.572  1.00  0.00     0.141 HD
BRANCH  83  85
ATOM     85  C   UNL A   1      31.962  21.518  25.333  1.00  0.00     0.147 C 
BRANCH  85  86
ATOM     86  C   UNL A   1      32.893  21.775  24.127  1.00  0.00     0.226 C 
ATOM     87  C   UNL A   1      34.259  22.333  24.541  1.00  0.00     0.276 C 
ATOM     88  O   UNL A   1      32.237  22.576  23.127  1.00  0.00    -0.482 OA
ATOM     89  O   UNL A   1      34.183  23.696  24.936  1.00  0.00    -0.486 OA
ATOM     90  C   UNL A   1      32.717  23.853  23.018  1.00  0.00     0.161 A 
ATOM     91  C   UNL A   1      33.649  24.408  23.898  1.00  0.00     0.161 A 
ATOM     92  C   UNL A   1      32.249  24.610  21.949  1.00  0.00     0.050 A 
ATOM     93  C   UNL A   1      34.096  25.716  23.733  1.00  0.00     0.050 A 
ATOM     94  C   UNL A   1      32.721  25.911  21.757  1.00  0.00     0.004 A 
ATOM     95  C   UNL A   1      33.640  26.465  22.650  1.00  0.00     0.004 A 
ENDBRANCH  85  86
ENDBRANCH  83  85
ENDBRANCH  80  83
ENDBRANCH  78  80
ENDBRANCH  72  74
ENDBRANCH  71  72
ENDBRANCH   1  71
TORSDOF 18
ENDMDL
MODEL 3
REMARK VINA RESULT:     -11.7      1.463      1.942
REMARK SMILES O=C(OCCOC(=O)c1cccc(S(=O)(=O)NC[C@@H]2COc3ccccc3O2)c1)c1ccc(-c2c3nc(c(-c4cc(S(=O)(=O)[O-])ccc4F)c4ccc([nH]4)c(-c4cc(S(=O)(=O)[O-])ccc4F)c4nc(c(-c5cc(S(=O)(=O)[O-])ccc5F)c5ccc2[nH]5)C=C4)C=C3)cc1
REMARK SMILES IDX 5 1 4 2 3 3 2 4 1 5 30 6 31 7 92 8 32 9 91 10 33 11 34 12
REMARK SMILES IDX 35 13 85 14 36 15 90 16 84 17 86 18 37 19 89 20 83 21 82 22
REMARK SMILES IDX 38 24 70 25 50 26 69 27 51 28 54 29 68 30 87 31 52 32 53 33
REMARK SMILES IDX 67 35 88 36 55 37 39 38 40 39 48 40 41 41 47 42 49 43 46 44
REMARK SMILES IDX 42 45 43 46 44 47 45 48 71 49 72 50 80 51 73 52 79 53 81 54
REMARK SMILES IDX 78 55 74 56 75 57 76 58 77 59 56 60 57 61 65 62 58 63 64 64
REMARK SMILES IDX 66 65 63 66 59 67 60 68 61 69 62 70 6 71 7 72 8 73 9 74
REMARK SMILES IDX 10 75 29 76 11 77 13 78 12 79 14 80 15 81 16 82 17 83 18 85
REMARK SMILES IDX 19 86 20 87 28 88 21 89 27 90 22 91 26 92 23 93 25 94 24 95
REMARK H PARENT 86 23 54 34 17 84
REMARK Flexibility Score: inf
ROOT
ATOM      1  C   UNL A   1      38.181  20.163  25.329  1.00  0.00     0.275 C 
ENDROOT
BRANCH   1   2
ATOM      2  C   UNL A   1      39.179  19.084  25.761  1.00  0.00     0.275 C 
BRANCH   2   3
ATOM      3  O   UNL A   1      40.573  19.424  25.631  1.00  0.00    -0.458 OA
BRANCH   3   4
ATOM      4  C   UNL A   1      41.453  19.863  26.565  1.00  0.00     0.338 C 
ATOM      5  O   UNL A   1      41.963  19.051  27.335  1.00  0.00    -0.246 OA
BRANCH   4   6
ATOM      6  C   UNL A   1      41.725  21.313  26.797  1.00  0.00     0.060 A 
ATOM      7  C   UNL A   1      41.890  22.264  25.789  1.00  0.00     0.016 A 
ATOM      8  C   UNL A   1      41.846  21.730  28.135  1.00  0.00     0.016 A 
ATOM      9  C   UNL A   1      42.070  23.613  26.103  1.00  0.00     0.010 A 
ATOM     10  C   UNL A   1      42.036  23.080  28.455  1.00  0.00     0.010 A 
ATOM     11  C   UNL A   1      42.143  24.032  27.435  1.00  0.00    -0.014 A 
BRANCH  11  12
ATOM     12  C   UNL A   1      42.486  25.442  27.730  1.00  0.00     0.031 A 
ATOM     13  C   UNL A   1      43.879  25.919  27.455  1.00  0.00     0.074 A 
ATOM     14  C   UNL A   1      41.546  26.317  28.134  1.00  0.00     0.049 A 
ATOM     15  N   UNL A   1      44.367  27.124  27.558  1.00  0.00    -0.248 NA
ATOM     16  C   UNL A   1      44.826  24.922  26.931  1.00  0.00     0.031 C 
ATOM     17  C   UNL A   1      40.124  26.017  28.286  1.00  0.00     0.029 A 
ATOM     18  N   UNL A   1      41.647  27.633  28.514  1.00  0.00    -0.354 N 
ATOM     19  C   UNL A   1      45.640  27.058  27.013  1.00  0.00     0.074 A 
ATOM     20  C   UNL A   1      45.891  25.670  26.686  1.00  0.00     0.031 C 
ATOM     21  C   UNL A   1      39.508  27.081  28.830  1.00  0.00     0.029 A 
ATOM     22  C   UNL A   1      40.489  28.124  29.075  1.00  0.00     0.049 A 
ATOM     23  H   UNL A   1      42.463  28.170  28.397  1.00  0.00     0.167 HD
ATOM     24  C   UNL A   1      46.493  28.077  26.753  1.00  0.00     0.034 A 
ATOM     25  C   UNL A   1      40.258  29.269  29.744  1.00  0.00     0.034 A 
ATOM     26  C   UNL A   1      46.255  29.439  27.158  1.00  0.00     0.049 A 
ATOM     27  C   UNL A   1      41.334  30.314  29.728  1.00  0.00     0.074 A 
ATOM     28  C   UNL A   1      47.062  30.549  26.986  1.00  0.00     0.029 A 
ATOM     29  N   UNL A   1      45.130  29.873  27.854  1.00  0.00    -0.354 N 
ATOM     30  N   UNL A   1      42.526  30.254  29.182  1.00  0.00    -0.248 NA
ATOM     31  C   UNL A   1      41.007  31.605  30.341  1.00  0.00     0.031 C 
ATOM     32  C   UNL A   1      46.457  31.635  27.633  1.00  0.00     0.029 A 
ATOM     33  C   UNL A   1      45.241  31.222  28.154  1.00  0.00     0.049 A 
ATOM     34  H   UNL A   1      44.364  29.303  28.097  1.00  0.00     0.167 HD
ATOM     35  C   UNL A   1      43.065  31.526  29.317  1.00  0.00     0.074 A 
ATOM     36  C   UNL A   1      42.071  32.322  30.014  1.00  0.00     0.031 C 
ATOM     37  C   UNL A   1      44.256  31.998  28.869  1.00  0.00     0.034 A 
BRANCH  24  38
ATOM     38  C   UNL A   1      47.755  27.721  26.015  1.00  0.00     0.023 A 
ATOM     39  C   UNL A   1      47.843  27.868  24.618  1.00  0.00     0.031 A 
ATOM     40  C   UNL A   1      48.854  27.173  26.693  1.00  0.00     0.131 A 
ATOM     41  C   UNL A   1      48.980  27.412  23.935  1.00  0.00     0.055 A 
ATOM     42  C   UNL A   1      50.010  26.779  26.016  1.00  0.00     0.041 A 
ATOM     43  F   UNL A   1      48.812  26.984  28.022  1.00  0.00    -0.206 F 
ATOM     44  C   UNL A   1      50.073  26.887  24.628  1.00  0.00     0.022 A 
BRANCH  41  45
ATOM     45  S   UNL A   1      48.961  27.401  22.121  1.00  0.00     0.124 S 
ATOM     46  O   UNL A   1      50.342  27.758  21.807  1.00  0.00    -0.237 OA
ATOM     47  O   UNL A   1      48.573  26.029  21.816  1.00  0.00    -0.237 OA
ATOM     48  O   UNL A   1      47.969  28.419  21.782  1.00  0.00    -0.744 OA
ENDBRANCH  41  45
ENDBRANCH  24  38
BRANCH  25  49
ATOM     49  C   UNL A   1      38.985  29.491  30.488  1.00  0.00     0.023 A 
ATOM     50  C   UNL A   1      38.007  30.389  30.034  1.00  0.00     0.031 A 
ATOM     51  C   UNL A   1      38.772  28.860  31.728  1.00  0.00     0.131 A 
ATOM     52  C   UNL A   1      36.882  30.658  30.833  1.00  0.00     0.055 A 
ATOM     53  C   UNL A   1      37.632  29.100  32.498  1.00  0.00     0.041 A 
ATOM     54  F   UNL A   1      39.692  28.024  32.232  1.00  0.00    -0.206 F 
ATOM     55  C   UNL A   1      36.682  30.013  32.056  1.00  0.00     0.022 A 
BRANCH  52  56
ATOM     56  S   UNL A   1      35.720  31.945  30.294  1.00  0.00     0.124 S 
ATOM     57  O   UNL A   1      36.609  33.079  30.069  1.00  0.00    -0.237 OA
ATOM     58  O   UNL A   1      35.137  31.339  29.101  1.00  0.00    -0.237 OA
ATOM     59  O   UNL A   1      34.810  32.080  31.429  1.00  0.00    -0.744 OA
ENDBRANCH  52  56
ENDBRANCH  25  49
BRANCH  37  60
ATOM     60  C   UNL A   1      44.505  33.468  29.081  1.00  0.00     0.023 A 
ATOM     61  C   UNL A   1      43.818  34.443  28.339  1.00  0.00     0.031 A 
ATOM     62  C   UNL A   1      45.498  33.892  29.981  1.00  0.00     0.131 A 
ATOM     63  C   UNL A   1      44.194  35.789  28.446  1.00  0.00     0.055 A 
ATOM     64  C   UNL A   1      45.816  35.241  30.138  1.00  0.00     0.041 A 
ATOM     65  F   UNL A   1      46.189  33.000  30.709  1.00  0.00    -0.206 F 
ATOM     66  C   UNL A   1      45.175  36.197  29.353  1.00  0.00     0.022 A 
BRANCH  63  67
ATOM     67  S   UNL A   1      43.472  36.980  27.286  1.00  0.00     0.124 S 
ATOM     68  O   UNL A   1      43.024  36.112  26.203  1.00  0.00    -0.237 OA
ATOM     69  O   UNL A   1      42.418  37.598  28.086  1.00  0.00    -0.237 OA
ATOM     70  O   UNL A   1      44.593  37.859  26.956  1.00  0.00    -0.744 OA
ENDBRANCH  63  67
ENDBRANCH  37  60
ENDBRANCH  11  12
ENDBRANCH   4   6
ENDBRANCH   3   4
ENDBRANCH   2   3
ENDBRANCH   1   2
BRANCH   1  71
ATOM     71  O   UNL A   1      38.763  21.463  25.154  1.00  0.00    -0.458 OA
BRANCH  71  72
ATOM     72  C   UNL A   1      38.028  22.476  25.678  1.00  0.00     0.338 C 
ATOM     73  O   UNL A   1      38.410  23.295  26.498  1.00  0.00    -0.246 OA
BRANCH  72  74
ATOM     74  C   UNL A   1      36.663  22.506  25.103  1.00  0.00     0.061 A 
ATOM     75  C   UNL A   1      36.514  22.980  23.797  1.00  0.00     0.016 A 
ATOM     76  C   UNL A   1      35.536  22.152  25.848  1.00  0.00     0.037 A 
ATOM     77  C   UNL A   1      35.239  23.113  23.248  1.00  0.00     0.002 A 
ATOM     78  C   UNL A   1      34.262  22.421  25.351  1.00  0.00     0.083 A 
ATOM     79  C   UNL A   1      34.113  22.867  24.034  1.00  0.00     0.022 A 
BRANCH  78  80
ATOM     80  S   UNL A   1      32.799  22.187  26.340  1.00  0.00     0.240 S 
ATOM     81  O   UNL A   1      31.877  21.411  25.527  1.00  0.00    -0.207 OA
ATOM     82  O   UNL A   1      33.238  21.724  27.619  1.00  0.00    -0.207 OA
BRANCH  80  83
ATOM     83  N   UNL A   1      32.033  23.686  26.496  1.00  0.00    -0.207 NA
ATOM     84  H   UNL A   1      32.550  24.327  25.893  1.00  0.00     0.141 HD
BRANCH  83  85
ATOM     85  C   UNL A   1      30.598  23.909  26.192  1.00  0.00     0.147 C 
BRANCH  85  86
ATOM     86  C   UNL A   1      30.412  25.334  25.624  1.00  0.00     0.226 C 
ATOM     87  C   UNL A   1      31.344  25.629  24.444  1.00  0.00     0.276 C 
ATOM     88  O   UNL A   1      30.494  26.322  26.667  1.00  0.00    -0.482 OA
ATOM     89  O   UNL A   1      32.687  25.834  24.860  1.00  0.00    -0.486 OA
ATOM     90  C   UNL A   1      31.625  27.093  26.630  1.00  0.00     0.161 A 
ATOM     91  C   UNL A   1      32.698  26.855  25.769  1.00  0.00     0.161 A 
ATOM     92  C   UNL A   1      31.671  28.180  27.498  1.00  0.00     0.050 A 
ATOM     93  C   UNL A   1      33.822  27.675  25.784  1.00  0.00     0.050 A 
ATOM     94  C   UNL A   1      32.780  29.030  27.492  1.00  0.00     0.004 A 
ATOM     95  C   UNL A   1      33.856  28.775  26.639  1.00  0.00     0.004 A 
ENDBRANCH  85  86
ENDBRANCH  83  85
ENDBRANCH  80  83
ENDBRANCH  78  80
ENDBRANCH  72  74
ENDBRANCH  71  72
ENDBRANCH   1  71
TORSDOF 18
ENDMDL
