MODEL 1
REMARK VINA RESULT:     -12.1      0.000      0.000
REMARK SMILES O=C(OCCOC(=O)[C@H]1Cc2[nH]cnc2CN1S(=O)(=O)c1cccs1)c1ccc(-c2c3nc(c(-c4cc(S(=O)(=O)[O-])ccc4F)c4ccc([nH]4)c(-c4cc(S(=O)(=O)[O-])ccc4F)c4nc(c(-c5cc(S(=O)(=O)[O-])ccc5F)c5ccc2[nH]5)C=C4)C=C3)cc1
REMARK SMILES IDX 4 1 3 2 2 3 1 4 26 5 27 6 88 7 28 8 87 9 29 10 30 11 31 12
REMARK SMILES IDX 81 13 32 14 86 15 80 16 82 17 33 18 85 19 79 20 78 21 34 23
REMARK SMILES IDX 66 24 46 25 65 26 47 27 50 28 64 29 83 30 48 31 49 32 63 34
REMARK SMILES IDX 84 35 51 36 35 37 36 38 44 39 37 40 43 41 45 42 42 43 38 44
REMARK SMILES IDX 39 45 40 46 41 47 67 48 68 49 76 50 69 51 75 52 77 53 74 54
REMARK SMILES IDX 70 55 71 56 72 57 73 58 52 59 53 60 61 61 54 62 60 63 62 64
REMARK SMILES IDX 59 65 55 66 56 67 57 68 58 69 5 70 6 71 7 72 8 73 9 74 10 75
REMARK SMILES IDX 17 76 11 77 16 78 12 79 15 80 13 81 14 83 18 84 19 85 20 86
REMARK SMILES IDX 21 87 22 88 25 89 23 90 24 91
REMARK H PARENT 82 22 50 33 12 82
REMARK Flexibility Score: inf
ROOT
ATOM      1  C   UNL A   1      33.841  30.487  26.975  1.00  0.00     0.275 C 
ENDROOT
BRANCH   1   2
ATOM      2  O   UNL A   1      34.582  31.099  28.045  1.00  0.00    -0.458 OA
BRANCH   2   3
ATOM      3  C   UNL A   1      35.834  31.594  28.117  1.00  0.00     0.338 C 
ATOM      4  O   UNL A   1      36.043  32.713  27.646  1.00  0.00    -0.246 OA
BRANCH   3   5
ATOM      5  C   UNL A   1      36.982  30.913  28.787  1.00  0.00     0.060 A 
ATOM      6  C   UNL A   1      38.207  31.501  29.113  1.00  0.00     0.016 A 
ATOM      7  C   UNL A   1      36.855  29.514  28.905  1.00  0.00     0.016 A 
ATOM      8  C   UNL A   1      39.312  30.702  29.403  1.00  0.00     0.010 A 
ATOM      9  C   UNL A   1      37.960  28.715  29.156  1.00  0.00     0.010 A 
ATOM     10  C   UNL A   1      39.200  29.314  29.334  1.00  0.00    -0.014 A 
BRANCH  10  11
ATOM     11  C   UNL A   1      40.375  28.491  29.594  1.00  0.00     0.031 A 
ATOM     12  C   UNL A   1      40.700  28.398  31.040  1.00  0.00     0.074 A 
ATOM     13  C   UNL A   1      40.996  27.758  28.643  1.00  0.00     0.049 A 
ATOM     14  N   UNL A   1      41.714  28.898  31.664  1.00  0.00    -0.248 NA
ATOM     15  C   UNL A   1      39.672  27.849  31.943  1.00  0.00     0.031 C 
ATOM     16  C   UNL A   1      40.605  27.577  27.243  1.00  0.00     0.029 A 
ATOM     17  N   UNL A   1      42.076  26.931  28.751  1.00  0.00    -0.354 N 
ATOM     18  C   UNL A   1      41.603  28.456  32.978  1.00  0.00     0.074 A 
ATOM     19  C   UNL A   1      40.239  28.039  33.134  1.00  0.00     0.031 C 
ATOM     20  C   UNL A   1      41.279  26.527  26.716  1.00  0.00     0.029 A 
ATOM     21  C   UNL A   1      42.241  26.035  27.689  1.00  0.00     0.049 A 
ATOM     22  H   UNL A   1      42.692  26.961  29.518  1.00  0.00     0.167 HD
ATOM     23  C   UNL A   1      42.712  28.193  33.725  1.00  0.00     0.034 A 
ATOM     24  C   UNL A   1      43.069  24.947  27.642  1.00  0.00     0.034 A 
ATOM     25  C   UNL A   1      43.875  28.851  33.164  1.00  0.00     0.049 A 
ATOM     26  C   UNL A   1      44.113  25.165  28.676  1.00  0.00     0.074 A 
ATOM     27  C   UNL A   1      44.164  30.159  32.813  1.00  0.00     0.029 A 
ATOM     28  N   UNL A   1      44.806  28.087  32.490  1.00  0.00    -0.354 N 
ATOM     29  N   UNL A   1      44.998  26.121  28.595  1.00  0.00    -0.248 NA
ATOM     30  C   UNL A   1      43.838  24.686  30.024  1.00  0.00     0.031 C 
ATOM     31  C   UNL A   1      44.833  30.055  31.556  1.00  0.00     0.029 A 
ATOM     32  C   UNL A   1      45.030  28.700  31.281  1.00  0.00     0.049 A 
ATOM     33  H   UNL A   1      45.230  27.260  32.815  1.00  0.00     0.167 HD
ATOM     34  C   UNL A   1      45.054  26.663  29.869  1.00  0.00     0.074 A 
ATOM     35  C   UNL A   1      44.374  25.690  30.727  1.00  0.00     0.031 C 
ATOM     36  C   UNL A   1      45.366  27.979  30.069  1.00  0.00     0.034 A 
BRANCH  23  37
ATOM     37  C   UNL A   1      42.830  27.011  34.676  1.00  0.00     0.023 A 
ATOM     38  C   UNL A   1      43.627  25.935  34.243  1.00  0.00     0.031 A 
ATOM     39  C   UNL A   1      41.992  26.737  35.782  1.00  0.00     0.131 A 
ATOM     40  C   UNL A   1      43.451  24.647  34.775  1.00  0.00     0.055 A 
ATOM     41  C   UNL A   1      41.878  25.470  36.359  1.00  0.00     0.041 A 
ATOM     42  F   UNL A   1      41.175  27.644  36.327  1.00  0.00    -0.206 F 
ATOM     43  C   UNL A   1      42.577  24.403  35.828  1.00  0.00     0.022 A 
BRANCH  40  44
ATOM     44  S   UNL A   1      44.228  23.264  33.907  1.00  0.00     0.124 S 
ATOM     45  O   UNL A   1      45.449  23.893  33.414  1.00  0.00    -0.237 OA
ATOM     46  O   UNL A   1      44.393  22.294  34.984  1.00  0.00    -0.237 OA
ATOM     47  O   UNL A   1      43.244  22.908  32.889  1.00  0.00    -0.744 OA
ENDBRANCH  40  44
ENDBRANCH  23  37
BRANCH  24  48
ATOM     48  C   UNL A   1      42.810  23.608  27.015  1.00  0.00     0.023 A 
ATOM     49  C   UNL A   1      43.752  22.912  26.214  1.00  0.00     0.031 A 
ATOM     50  C   UNL A   1      41.680  22.867  27.426  1.00  0.00     0.131 A 
ATOM     51  C   UNL A   1      43.536  21.551  25.862  1.00  0.00     0.055 A 
ATOM     52  C   UNL A   1      41.474  21.528  27.082  1.00  0.00     0.041 A 
ATOM     53  F   UNL A   1      40.769  23.395  28.258  1.00  0.00    -0.206 F 
ATOM     54  C   UNL A   1      42.406  20.861  26.306  1.00  0.00     0.022 A 
BRANCH  51  55
ATOM     55  S   UNL A   1      44.759  20.612  24.877  1.00  0.00     0.124 S 
ATOM     56  O   UNL A   1      44.318  19.235  25.060  1.00  0.00    -0.237 OA
ATOM     57  O   UNL A   1      44.592  21.177  23.543  1.00  0.00    -0.237 OA
ATOM     58  O   UNL A   1      46.036  20.935  25.518  1.00  0.00    -0.744 OA
ENDBRANCH  51  55
ENDBRANCH  24  48
BRANCH  36  59
ATOM     59  C   UNL A   1      45.913  28.792  28.911  1.00  0.00     0.023 A 
ATOM     60  C   UNL A   1      47.268  28.829  28.502  1.00  0.00     0.031 A 
ATOM     61  C   UNL A   1      44.976  29.472  28.112  1.00  0.00     0.131 A 
ATOM     62  C   UNL A   1      47.634  29.542  27.340  1.00  0.00     0.055 A 
ATOM     63  C   UNL A   1      45.339  30.154  26.953  1.00  0.00     0.041 A 
ATOM     64  F   UNL A   1      43.670  29.452  28.428  1.00  0.00    -0.206 F 
ATOM     65  C   UNL A   1      46.672  30.199  26.567  1.00  0.00     0.022 A 
BRANCH  62  66
ATOM     66  S   UNL A   1      49.377  29.654  26.816  1.00  0.00     0.124 S 
ATOM     67  O   UNL A   1      49.406  28.919  25.558  1.00  0.00    -0.237 OA
ATOM     68  O   UNL A   1      49.582  31.097  26.720  1.00  0.00    -0.237 OA
ATOM     69  O   UNL A   1      50.102  29.011  27.915  1.00  0.00    -0.744 OA
ENDBRANCH  62  66
ENDBRANCH  36  59
ENDBRANCH  10  11
ENDBRANCH   3   5
ENDBRANCH   2   3
ENDBRANCH   1   2
BRANCH   1  70
ATOM     70  C   UNL A   1      33.922  28.966  26.973  1.00  0.00     0.274 C 
BRANCH  70  71
ATOM     71  O   UNL A   1      33.120  28.328  25.967  1.00  0.00    -0.461 OA
BRANCH  71  72
ATOM     72  C   UNL A   1      31.845  28.011  26.316  1.00  0.00     0.325 C 
ATOM     73  O   UNL A   1      31.527  27.549  27.400  1.00  0.00    -0.250 OA
BRANCH  72  74
ATOM     74  C   UNL A   1      30.842  28.218  25.210  1.00  0.00     0.189 C 
ATOM     75  C   UNL A   1      31.021  29.650  24.624  1.00  0.00     0.088 C 
ATOM     76  N   UNL A   1      30.865  27.158  24.097  1.00  0.00    -0.176 NA
ATOM     77  C   UNL A   1      30.037  29.825  23.543  1.00  0.00     0.041 A 
ATOM     78  C   UNL A   1      29.676  27.347  23.143  1.00  0.00     0.161 C 
ATOM     79  N   UNL A   1      29.528  30.978  23.028  1.00  0.00    -0.348 N 
ATOM     80  C   UNL A   1      29.434  28.796  22.866  1.00  0.00     0.077 A 
ATOM     81  C   UNL A   1      28.590  30.602  22.101  1.00  0.00     0.197 A 
ATOM     82  H   UNL A   1      29.783  31.897  23.272  1.00  0.00     0.167 HD
ATOM     83  N   UNL A   1      28.520  29.292  21.974  1.00  0.00    -0.240 NA
BRANCH  76  84
ATOM     84  S   UNL A   1      30.857  25.510  24.609  1.00  0.00     0.253 S 
ATOM     85  O   UNL A   1      30.024  25.428  25.782  1.00  0.00    -0.206 OA
ATOM     86  O   UNL A   1      30.537  24.708  23.435  1.00  0.00    -0.206 OA
BRANCH  84  87
ATOM     87  C   UNL A   1      32.463  24.918  25.122  1.00  0.00     0.135 A 
ATOM     88  C   UNL A   1      32.852  24.121  26.187  1.00  0.00     0.033 A 
ATOM     89  S   UNL A   1      33.805  25.323  24.141  1.00  0.00    -0.131 S 
ATOM     90  C   UNL A   1      34.258  23.905  26.236  1.00  0.00     0.013 A 
ATOM     91  C   UNL A   1      34.894  24.463  25.151  1.00  0.00     0.066 A 
ENDBRANCH  84  87
ENDBRANCH  76  84
ENDBRANCH  72  74
ENDBRANCH  71  72
ENDBRANCH  70  71
ENDBRANCH   1  70
TORSDOF 16
ENDMDL
MODEL 2
REMARK VINA RESULT:     -12.1      1.252      1.459
REMARK SMILES O=C(OCCOC(=O)[C@H]1Cc2[nH]cnc2CN1S(=O)(=O)c1cccs1)c1ccc(-c2c3nc(c(-c4cc(S(=O)(=O)[O-])ccc4F)c4ccc([nH]4)c(-c4cc(S(=O)(=O)[O-])ccc4F)c4nc(c(-c5cc(S(=O)(=O)[O-])ccc5F)c5ccc2[nH]5)C=C4)C=C3)cc1
REMARK SMILES IDX 4 1 3 2 2 3 1 4 26 5 27 6 88 7 28 8 87 9 29 10 30 11 31 12
REMARK SMILES IDX 81 13 32 14 86 15 80 16 82 17 33 18 85 19 79 20 78 21 34 23
REMARK SMILES IDX 66 24 46 25 65 26 47 27 50 28 64 29 83 30 48 31 49 32 63 34
REMARK SMILES IDX 84 35 51 36 35 37 36 38 44 39 37 40 43 41 45 42 42 43 38 44
REMARK SMILES IDX 39 45 40 46 41 47 67 48 68 49 76 50 69 51 75 52 77 53 74 54
REMARK SMILES IDX 70 55 71 56 72 57 73 58 52 59 53 60 61 61 54 62 60 63 62 64
REMARK SMILES IDX 59 65 55 66 56 67 57 68 58 69 5 70 6 71 7 72 8 73 9 74 10 75
REMARK SMILES IDX 17 76 11 77 16 78 12 79 15 80 13 81 14 83 18 84 19 85 20 86
REMARK SMILES IDX 21 87 22 88 25 89 23 90 24 91
REMARK H PARENT 82 22 50 33 12 82
REMARK Flexibility Score: inf
ROOT
ATOM      1  C   UNL A   1      33.807  30.293  27.009  1.00  0.00     0.275 C 
ENDROOT
BRANCH   1   2
ATOM      2  O   UNL A   1      34.440  30.987  28.098  1.00  0.00    -0.458 OA
BRANCH   2   3
ATOM      3  C   UNL A   1      35.651  31.565  28.227  1.00  0.00     0.338 C 
ATOM      4  O   UNL A   1      35.784  32.724  27.833  1.00  0.00    -0.246 OA
BRANCH   3   5
ATOM      5  C   UNL A   1      36.834  30.926  28.876  1.00  0.00     0.060 A 
ATOM      6  C   UNL A   1      38.055  31.549  29.149  1.00  0.00     0.016 A 
ATOM      7  C   UNL A   1      36.744  29.528  29.030  1.00  0.00     0.016 A 
ATOM      8  C   UNL A   1      39.187  30.783  29.422  1.00  0.00     0.010 A 
ATOM      9  C   UNL A   1      37.875  28.760  29.264  1.00  0.00     0.010 A 
ATOM     10  C   UNL A   1      39.105  29.391  29.388  1.00  0.00    -0.014 A 
BRANCH  10  11
ATOM     11  C   UNL A   1      40.307  28.601  29.629  1.00  0.00     0.031 A 
ATOM     12  C   UNL A   1      40.644  28.498  31.072  1.00  0.00     0.074 A 
ATOM     13  C   UNL A   1      40.944  27.901  28.664  1.00  0.00     0.049 A 
ATOM     14  N   UNL A   1      41.647  29.021  31.696  1.00  0.00    -0.248 NA
ATOM     15  C   UNL A   1      39.640  27.905  31.973  1.00  0.00     0.031 C 
ATOM     16  C   UNL A   1      40.549  27.728  27.264  1.00  0.00     0.029 A 
ATOM     17  N   UNL A   1      42.049  27.106  28.753  1.00  0.00    -0.354 N 
ATOM     18  C   UNL A   1      41.558  28.557  33.005  1.00  0.00     0.074 A 
ATOM     19  C   UNL A   1      40.208  28.096  33.163  1.00  0.00     0.031 C 
ATOM     20  C   UNL A   1      41.252  26.706  26.718  1.00  0.00     0.029 A 
ATOM     21  C   UNL A   1      42.235  26.231  27.679  1.00  0.00     0.049 A 
ATOM     22  H   UNL A   1      42.669  27.144  29.517  1.00  0.00     0.167 HD
ATOM     23  C   UNL A   1      42.680  28.318  33.741  1.00  0.00     0.034 A 
ATOM     24  C   UNL A   1      43.095  25.170  27.610  1.00  0.00     0.034 A 
ATOM     25  C   UNL A   1      43.818  29.019  33.182  1.00  0.00     0.049 A 
ATOM     26  C   UNL A   1      44.139  25.405  28.641  1.00  0.00     0.074 A 
ATOM     27  C   UNL A   1      44.064  30.340  32.847  1.00  0.00     0.029 A 
ATOM     28  N   UNL A   1      44.768  28.294  32.492  1.00  0.00    -0.354 N 
ATOM     29  N   UNL A   1      44.994  26.389  28.568  1.00  0.00    -0.248 NA
ATOM     30  C   UNL A   1      43.888  24.899  29.984  1.00  0.00     0.031 C 
ATOM     31  C   UNL A   1      44.728  30.274  31.585  1.00  0.00     0.029 A 
ATOM     32  C   UNL A   1      44.965  28.931  31.290  1.00  0.00     0.049 A 
ATOM     33  H   UNL A   1      45.219  27.476  32.802  1.00  0.00     0.167 HD
ATOM     34  C   UNL A   1      45.041  26.915  29.849  1.00  0.00     0.074 A 
ATOM     35  C   UNL A   1      44.397  25.910  30.697  1.00  0.00     0.031 C 
ATOM     36  C   UNL A   1      45.314  28.237  30.066  1.00  0.00     0.034 A 
BRANCH  23  37
ATOM     37  C   UNL A   1      42.840  27.128  34.674  1.00  0.00     0.023 A 
ATOM     38  C   UNL A   1      43.677  26.088  34.227  1.00  0.00     0.031 A 
ATOM     39  C   UNL A   1      42.011  26.806  35.774  1.00  0.00     0.131 A 
ATOM     40  C   UNL A   1      43.549  24.787  34.739  1.00  0.00     0.055 A 
ATOM     41  C   UNL A   1      41.944  25.527  36.332  1.00  0.00     0.041 A 
ATOM     42  F   UNL A   1      41.160  27.672  36.331  1.00  0.00    -0.206 F 
ATOM     43  C   UNL A   1      42.683  24.495  35.787  1.00  0.00     0.022 A 
BRANCH  40  44
ATOM     44  S   UNL A   1      44.379  23.447  33.852  1.00  0.00     0.124 S 
ATOM     45  O   UNL A   1      45.574  24.130  33.368  1.00  0.00    -0.237 OA
ATOM     46  O   UNL A   1      44.582  22.470  34.917  1.00  0.00    -0.237 OA
ATOM     47  O   UNL A   1      43.409  23.067  32.830  1.00  0.00    -0.744 OA
ENDBRANCH  40  44
ENDBRANCH  23  37
BRANCH  24  48
ATOM     48  C   UNL A   1      42.874  23.832  26.967  1.00  0.00     0.023 A 
ATOM     49  C   UNL A   1      43.834  23.174  26.154  1.00  0.00     0.031 A 
ATOM     50  C   UNL A   1      41.767  23.053  27.370  1.00  0.00     0.131 A 
ATOM     51  C   UNL A   1      43.656  21.812  25.785  1.00  0.00     0.055 A 
ATOM     52  C   UNL A   1      41.599  21.714  27.008  1.00  0.00     0.041 A 
ATOM     53  F   UNL A   1      40.843  23.544  28.211  1.00  0.00    -0.206 F 
ATOM     54  C   UNL A   1      42.548  21.084  26.221  1.00  0.00     0.022 A 
BRANCH  51  55
ATOM     55  S   UNL A   1      44.903  20.922  24.785  1.00  0.00     0.124 S 
ATOM     56  O   UNL A   1      44.505  19.530  24.954  1.00  0.00    -0.237 OA
ATOM     57  O   UNL A   1      44.714  21.496  23.457  1.00  0.00    -0.237 OA
ATOM     58  O   UNL A   1      46.172  21.277  25.424  1.00  0.00    -0.744 OA
ENDBRANCH  51  55
ENDBRANCH  24  48
BRANCH  36  59
ATOM     59  C   UNL A   1      45.829  29.082  28.916  1.00  0.00     0.023 A 
ATOM     60  C   UNL A   1      45.156  30.189  28.345  1.00  0.00     0.031 A 
ATOM     61  C   UNL A   1      47.131  28.809  28.460  1.00  0.00     0.131 A 
ATOM     62  C   UNL A   1      45.790  30.961  27.348  1.00  0.00     0.055 A 
ATOM     63  C   UNL A   1      47.761  29.589  27.493  1.00  0.00     0.041 A 
ATOM     64  F   UNL A   1      47.835  27.791  28.980  1.00  0.00    -0.206 F 
ATOM     65  C   UNL A   1      47.089  30.664  26.926  1.00  0.00     0.022 A 
BRANCH  62  66
ATOM     66  S   UNL A   1      44.930  32.361  26.555  1.00  0.00     0.124 S 
ATOM     67  O   UNL A   1      45.976  33.009  25.774  1.00  0.00    -0.237 OA
ATOM     68  O   UNL A   1      43.882  31.690  25.790  1.00  0.00    -0.237 OA
ATOM     69  O   UNL A   1      44.442  33.145  27.692  1.00  0.00    -0.744 OA
ENDBRANCH  62  66
ENDBRANCH  36  59
ENDBRANCH  10  11
ENDBRANCH   3   5
ENDBRANCH   2   3
ENDBRANCH   1   2
BRANCH   1  70
ATOM     70  C   UNL A   1      33.992  28.782  27.062  1.00  0.00     0.274 C 
BRANCH  70  71
ATOM     71  O   UNL A   1      33.221  28.053  26.095  1.00  0.00    -0.461 OA
BRANCH  71  72
ATOM     72  C   UNL A   1      31.908  27.856  26.388  1.00  0.00     0.325 C 
ATOM     73  O   UNL A   1      31.499  27.477  27.474  1.00  0.00    -0.250 OA
BRANCH  72  74
ATOM     74  C   UNL A   1      30.983  28.084  25.220  1.00  0.00     0.189 C 
ATOM     75  C   UNL A   1      31.169  29.541  24.702  1.00  0.00     0.088 C 
ATOM     76  N   UNL A   1      31.112  27.069  24.074  1.00  0.00    -0.176 NA
ATOM     77  C   UNL A   1      30.261  29.736  23.559  1.00  0.00     0.041 A 
ATOM     78  C   UNL A   1      29.991  27.269  23.043  1.00  0.00     0.161 C 
ATOM     79  N   UNL A   1      29.764  30.897  23.052  1.00  0.00    -0.348 N 
ATOM     80  C   UNL A   1      29.734  28.722  22.803  1.00  0.00     0.077 A 
ATOM     81  C   UNL A   1      28.904  30.538  22.046  1.00  0.00     0.197 A 
ATOM     82  H   UNL A   1      29.978  31.811  23.348  1.00  0.00     0.167 HD
ATOM     83  N   UNL A   1      28.875  29.232  21.866  1.00  0.00    -0.240 NA
BRANCH  76  84
ATOM     84  S   UNL A   1      31.107  25.402  24.522  1.00  0.00     0.253 S 
ATOM     85  O   UNL A   1      30.273  25.274  25.690  1.00  0.00    -0.206 OA
ATOM     86  O   UNL A   1      30.790  24.644  23.318  1.00  0.00    -0.206 OA
BRANCH  84  87
ATOM     87  C   UNL A   1      32.713  24.794  25.013  1.00  0.00     0.135 A 
ATOM     88  C   UNL A   1      33.138  24.138  26.158  1.00  0.00     0.033 A 
ATOM     89  S   UNL A   1      34.000  24.969  23.898  1.00  0.00    -0.131 S 
ATOM     90  C   UNL A   1      34.531  23.847  26.148  1.00  0.00     0.013 A 
ATOM     91  C   UNL A   1      35.113  24.200  24.953  1.00  0.00     0.066 A 
ENDBRANCH  84  87
ENDBRANCH  76  84
ENDBRANCH  72  74
ENDBRANCH  71  72
ENDBRANCH  70  71
ENDBRANCH   1  70
TORSDOF 16
ENDMDL
MODEL 3
REMARK VINA RESULT:     -11.9      4.376      9.780
REMARK SMILES O=C(OCCOC(=O)[C@H]1Cc2[nH]cnc2CN1S(=O)(=O)c1cccs1)c1ccc(-c2c3nc(c(-c4cc(S(=O)(=O)[O-])ccc4F)c4ccc([nH]4)c(-c4cc(S(=O)(=O)[O-])ccc4F)c4nc(c(-c5cc(S(=O)(=O)[O-])ccc5F)c5ccc2[nH]5)C=C4)C=C3)cc1
REMARK SMILES IDX 4 1 3 2 2 3 1 4 26 5 27 6 88 7 28 8 87 9 29 10 30 11 31 12
REMARK SMILES IDX 81 13 32 14 86 15 80 16 82 17 33 18 85 19 79 20 78 21 34 23
REMARK SMILES IDX 66 24 46 25 65 26 47 27 50 28 64 29 83 30 48 31 49 32 63 34
REMARK SMILES IDX 84 35 51 36 35 37 36 38 44 39 37 40 43 41 45 42 42 43 38 44
REMARK SMILES IDX 39 45 40 46 41 47 67 48 68 49 76 50 69 51 75 52 77 53 74 54
REMARK SMILES IDX 70 55 71 56 72 57 73 58 52 59 53 60 61 61 54 62 60 63 62 64
REMARK SMILES IDX 59 65 55 66 56 67 57 68 58 69 5 70 6 71 7 72 8 73 9 74 10 75
REMARK SMILES IDX 17 76 11 77 16 78 12 79 15 80 13 81 14 83 18 84 19 85 20 86
REMARK SMILES IDX 21 87 22 88 25 89 23 90 24 91
REMARK H PARENT 82 22 50 33 12 82
REMARK Flexibility Score: inf
ROOT
ATOM      1  C   UNL A   1      38.381  22.241  26.026  1.00  0.00     0.275 C 
ENDROOT
BRANCH   1   2
ATOM      2  O   UNL A   1      39.780  22.481  26.256  1.00  0.00    -0.458 OA
BRANCH   2   3
ATOM      3  C   UNL A   1      40.462  22.918  27.334  1.00  0.00     0.338 C 
ATOM      4  O   UNL A   1      40.850  22.083  28.152  1.00  0.00    -0.246 OA
BRANCH   3   5
ATOM      5  C   UNL A   1      40.843  24.341  27.581  1.00  0.00     0.060 A 
ATOM      6  C   UNL A   1      41.895  24.780  28.390  1.00  0.00     0.016 A 
ATOM      7  C   UNL A   1      39.923  25.294  27.100  1.00  0.00     0.016 A 
ATOM      8  C   UNL A   1      41.938  26.102  28.827  1.00  0.00     0.010 A 
ATOM      9  C   UNL A   1      39.941  26.601  27.561  1.00  0.00     0.010 A 
ATOM     10  C   UNL A   1      40.910  26.979  28.481  1.00  0.00    -0.014 A 
BRANCH  10  11
ATOM     11  C   UNL A   1      40.943  28.348  28.982  1.00  0.00     0.031 A 
ATOM     12  C   UNL A   1      42.052  29.145  28.398  1.00  0.00     0.074 A 
ATOM     13  C   UNL A   1      39.974  28.879  29.761  1.00  0.00     0.049 A 
ATOM     14  N   UNL A   1      43.110  29.592  28.987  1.00  0.00    -0.248 NA
ATOM     15  C   UNL A   1      42.091  29.301  26.932  1.00  0.00     0.031 C 
ATOM     16  C   UNL A   1      38.715  28.262  30.182  1.00  0.00     0.029 A 
ATOM     17  N   UNL A   1      39.864  30.140  30.272  1.00  0.00    -0.354 N 
ATOM     18  C   UNL A   1      43.783  30.346  28.032  1.00  0.00     0.074 A 
ATOM     19  C   UNL A   1      43.252  29.932  26.765  1.00  0.00     0.031 C 
ATOM     20  C   UNL A   1      37.882  29.216  30.665  1.00  0.00     0.029 A 
ATOM     21  C   UNL A   1      38.583  30.489  30.709  1.00  0.00     0.049 A 
ATOM     22  H   UNL A   1      40.629  30.757  30.328  1.00  0.00     0.167 HD
ATOM     23  C   UNL A   1      44.498  31.452  28.387  1.00  0.00     0.034 A 
ATOM     24  C   UNL A   1      38.127  31.737  31.032  1.00  0.00     0.034 A 
ATOM     25  C   UNL A   1      44.817  31.422  29.800  1.00  0.00     0.049 A 
ATOM     26  C   UNL A   1      39.326  32.563  31.327  1.00  0.00     0.074 A 
ATOM     27  C   UNL A   1      45.434  30.499  30.628  1.00  0.00     0.029 A 
ATOM     28  N   UNL A   1      44.125  32.257  30.652  1.00  0.00    -0.354 N 
ATOM     29  N   UNL A   1      40.103  32.338  32.353  1.00  0.00    -0.248 NA
ATOM     30  C   UNL A   1      39.955  33.263  30.216  1.00  0.00     0.031 C 
ATOM     31  C   UNL A   1      44.634  30.483  31.809  1.00  0.00     0.029 A 
ATOM     32  C   UNL A   1      43.666  31.482  31.690  1.00  0.00     0.049 A 
ATOM     33  H   UNL A   1      43.986  33.225  30.539  1.00  0.00     0.167 HD
ATOM     34  C   UNL A   1      41.391  32.452  31.857  1.00  0.00     0.074 A 
ATOM     35  C   UNL A   1      41.239  33.099  30.551  1.00  0.00     0.031 C 
ATOM     36  C   UNL A   1      42.428  31.744  32.397  1.00  0.00     0.034 A 
BRANCH  23  37
ATOM     37  C   UNL A   1      44.519  32.739  27.578  1.00  0.00     0.023 A 
ATOM     38  C   UNL A   1      43.818  33.833  28.120  1.00  0.00     0.031 A 
ATOM     39  C   UNL A   1      44.886  32.871  26.218  1.00  0.00     0.131 A 
ATOM     40  C   UNL A   1      43.374  34.884  27.302  1.00  0.00     0.055 A 
ATOM     41  C   UNL A   1      44.507  33.957  25.426  1.00  0.00     0.041 A 
ATOM     42  F   UNL A   1      45.560  31.934  25.545  1.00  0.00    -0.206 F 
ATOM     43  C   UNL A   1      43.708  34.953  25.954  1.00  0.00     0.022 A 
BRANCH  40  44
ATOM     44  S   UNL A   1      42.164  36.037  27.993  1.00  0.00     0.124 S 
ATOM     45  O   UNL A   1      42.590  36.087  29.388  1.00  0.00    -0.237 OA
ATOM     46  O   UNL A   1      42.413  37.236  27.200  1.00  0.00    -0.237 OA
ATOM     47  O   UNL A   1      40.887  35.376  27.745  1.00  0.00    -0.744 OA
ENDBRANCH  40  44
ENDBRANCH  23  37
BRANCH  24  48
ATOM     48  C   UNL A   1      36.776  32.334  30.762  1.00  0.00     0.023 A 
ATOM     49  C   UNL A   1      35.953  32.918  31.760  1.00  0.00     0.031 A 
ATOM     50  C   UNL A   1      36.383  32.562  29.425  1.00  0.00     0.131 A 
ATOM     51  C   UNL A   1      34.807  33.677  31.398  1.00  0.00     0.055 A 
ATOM     52  C   UNL A   1      35.258  33.313  29.074  1.00  0.00     0.041 A 
ATOM     53  F   UNL A   1      37.134  32.133  28.399  1.00  0.00    -0.206 F 
ATOM     54  C   UNL A   1      34.470  33.883  30.059  1.00  0.00     0.022 A 
BRANCH  51  55
ATOM     55  S   UNL A   1      33.759  34.488  32.660  1.00  0.00     0.124 S 
ATOM     56  O   UNL A   1      32.816  35.244  31.846  1.00  0.00    -0.237 OA
ATOM     57  O   UNL A   1      33.217  33.353  33.399  1.00  0.00    -0.237 OA
ATOM     58  O   UNL A   1      34.707  35.309  33.417  1.00  0.00    -0.744 OA
ENDBRANCH  51  55
ENDBRANCH  24  48
BRANCH  36  59
ATOM     59  C   UNL A   1      42.221  31.026  33.717  1.00  0.00     0.023 A 
ATOM     60  C   UNL A   1      42.064  29.629  33.877  1.00  0.00     0.031 A 
ATOM     61  C   UNL A   1      42.309  31.806  34.885  1.00  0.00     0.131 A 
ATOM     62  C   UNL A   1      41.986  29.071  35.171  1.00  0.00     0.055 A 
ATOM     63  C   UNL A   1      42.256  31.248  36.160  1.00  0.00     0.041 A 
ATOM     64  F   UNL A   1      42.488  33.135  34.805  1.00  0.00    -0.206 F 
ATOM     65  C   UNL A   1      42.085  29.878  36.309  1.00  0.00     0.022 A 
BRANCH  62  66
ATOM     66  S   UNL A   1      41.729  27.282  35.409  1.00  0.00     0.124 S 
ATOM     67  O   UNL A   1      40.795  26.924  34.350  1.00  0.00    -0.237 OA
ATOM     68  O   UNL A   1      43.083  26.751  35.275  1.00  0.00    -0.237 OA
ATOM     69  O   UNL A   1      41.178  27.197  36.764  1.00  0.00    -0.744 OA
ENDBRANCH  62  66
ENDBRANCH  36  59
ENDBRANCH  10  11
ENDBRANCH   3   5
ENDBRANCH   2   3
ENDBRANCH   1   2
BRANCH   1  70
ATOM     70  C   UNL A   1      37.605  23.495  25.644  1.00  0.00     0.274 C 
BRANCH  70  71
ATOM     71  O   UNL A   1      36.458  23.255  24.813  1.00  0.00    -0.461 OA
BRANCH  71  72
ATOM     72  C   UNL A   1      35.309  22.905  25.449  1.00  0.00     0.325 C 
ATOM     73  O   UNL A   1      34.967  23.346  26.536  1.00  0.00    -0.250 OA
BRANCH  72  74
ATOM     74  C   UNL A   1      34.506  21.857  24.724  1.00  0.00     0.189 C 
ATOM     75  C   UNL A   1      34.430  20.575  25.606  1.00  0.00     0.088 C 
ATOM     76  N   UNL A   1      33.106  22.300  24.271  1.00  0.00    -0.176 NA
ATOM     77  C   UNL A   1      33.636  19.570  24.880  1.00  0.00     0.041 A 
ATOM     78  C   UNL A   1      32.465  21.235  23.368  1.00  0.00     0.161 C 
ATOM     79  N   UNL A   1      33.633  18.217  25.024  1.00  0.00    -0.348 N 
ATOM     80  C   UNL A   1      32.744  19.859  23.879  1.00  0.00     0.077 A 
ATOM     81  C   UNL A   1      32.785  17.731  24.062  1.00  0.00     0.197 A 
ATOM     82  H   UNL A   1      34.138  17.692  25.686  1.00  0.00     0.167 HD
ATOM     83  N   UNL A   1      32.226  18.700  23.363  1.00  0.00    -0.240 NA
BRANCH  76  84
ATOM     84  S   UNL A   1      33.012  23.807  23.434  1.00  0.00     0.253 S 
ATOM     85  O   UNL A   1      34.180  23.906  22.596  1.00  0.00    -0.206 OA
ATOM     86  O   UNL A   1      31.684  23.876  22.840  1.00  0.00    -0.206 OA
BRANCH  84  87
ATOM     87  C   UNL A   1      33.083  25.226  24.518  1.00  0.00     0.135 A 
ATOM     88  C   UNL A   1      33.945  26.310  24.559  1.00  0.00     0.033 A 
ATOM     89  S   UNL A   1      31.866  25.369  25.713  1.00  0.00    -0.131 S 
ATOM     90  C   UNL A   1      33.650  27.217  25.616  1.00  0.00     0.013 A 
ATOM     91  C   UNL A   1      32.509  26.851  26.292  1.00  0.00     0.066 A 
ENDBRANCH  84  87
ENDBRANCH  76  84
ENDBRANCH  72  74
ENDBRANCH  71  72
ENDBRANCH  70  71
ENDBRANCH   1  70
TORSDOF 16
ENDMDL
