MODEL 1
REMARK VINA RESULT:     -10.7      0.000      0.000
REMARK SMILES C[C@H](CCC(=O)OCCOC(=O)c1ccc(-c2c3nc(c(-c4cc(S(=O)(=O)[O-])ccc4F)c4ccc([nH]4)c(-c4cc(S(=O)(=O)[O-])ccc4F)c4nc(c(-c5cc(S(=O)(=O)[O-])ccc5F)c5ccc2[nH]5)C=C4)C=C3)cc1)NC(=O)N(C)CCc1cccs1
REMARK SMILES IDX 5 1 6 2 4 3 3 4 2 5 1 6 76 7 77 8 78 10 79 11 80 12 81 13
REMARK SMILES IDX 82 14 83 15 84 16 87 17 85 18 86 19 7 20 8 21 9 22 10 23
REMARK SMILES IDX 11 24 12 25 13 26 14 27 75 28 15 29 74 30 16 31 17 32 18 33
REMARK SMILES IDX 68 34 19 35 73 36 67 37 69 38 20 39 72 40 66 41 65 42 21 44
REMARK SMILES IDX 53 45 33 46 52 47 34 48 37 49 51 50 70 51 35 52 36 53 50 55
REMARK SMILES IDX 71 56 38 57 22 58 23 59 31 60 24 61 30 62 32 63 29 64 25 65
REMARK SMILES IDX 26 66 27 67 28 68 54 69 55 70 63 71 56 72 62 73 64 74 61 75
REMARK SMILES IDX 57 76 58 77 59 78 60 79 39 80 40 81 48 82 41 83 47 84 49 85
REMARK SMILES IDX 46 86 42 87 43 88 44 89 45 90
REMARK H PARENT 76 9 69 43 37 54
REMARK Flexibility Score: inf
ROOT
ATOM      1  C   UNL A   1      35.148  23.205  23.715  1.00  0.00     0.305 C 
ATOM      2  O   UNL A   1      35.887  23.041  22.754  1.00  0.00    -0.252 OA
ENDROOT
BRANCH   1   3
ATOM      3  C   UNL A   1      34.012  24.211  23.736  1.00  0.00     0.125 C 
BRANCH   3   4
ATOM      4  C   UNL A   1      34.348  25.530  24.436  1.00  0.00     0.036 C 
BRANCH   4   5
ATOM      5  C   UNL A   1      33.378  26.725  24.287  1.00  0.00     0.081 C 
ATOM      6  C   UNL A   1      33.969  28.119  24.495  1.00  0.00     0.031 C 
BRANCH   5   7
ATOM      7  N   UNL A   1      32.737  26.653  22.983  1.00  0.00    -0.336 N 
ATOM      8  C   UNL A   1      31.477  26.561  22.533  1.00  0.00     0.317 C 
ATOM      9  H   UNL A   1      33.392  26.675  22.248  1.00  0.00     0.165 HD
ATOM     10  O   UNL A   1      31.394  26.427  21.307  1.00  0.00    -0.249 OA
BRANCH   8  11
ATOM     11  N   UNL A   1      30.369  26.630  23.334  1.00  0.00    -0.328 N 
ATOM     12  C   UNL A   1      29.863  25.645  24.280  1.00  0.00     0.148 C 
BRANCH  11  13
ATOM     13  C   UNL A   1      29.487  27.787  23.131  1.00  0.00     0.126 C 
BRANCH  13  14
ATOM     14  C   UNL A   1      30.170  29.130  23.458  1.00  0.00     0.068 C 
BRANCH  14  15
ATOM     15  C   UNL A   1      29.366  30.340  23.057  1.00  0.00     0.006 A 
ATOM     16  C   UNL A   1      28.859  31.340  23.866  1.00  0.00     0.015 A 
ATOM     17  S   UNL A   1      28.958  30.607  21.414  1.00  0.00    -0.149 S 
ATOM     18  C   UNL A   1      28.051  32.266  23.149  1.00  0.00     0.012 A 
ATOM     19  C   UNL A   1      28.026  31.988  21.802  1.00  0.00     0.065 A 
ENDBRANCH  14  15
ENDBRANCH  13  14
ENDBRANCH  11  13
ENDBRANCH   8  11
ENDBRANCH   5   7
ENDBRANCH   4   5
ENDBRANCH   3   4
ENDBRANCH   1   3
BRANCH   1  20
ATOM     20  O   UNL A   1      35.263  22.560  24.898  1.00  0.00    -0.462 OA
BRANCH  20  21
ATOM     21  C   UNL A   1      35.143  21.127  24.918  1.00  0.00     0.274 C 
BRANCH  21  22
ATOM     22  C   UNL A   1      36.527  20.487  25.017  1.00  0.00     0.275 C 
BRANCH  22  23
ATOM     23  O   UNL A   1      37.520  21.509  25.184  1.00  0.00    -0.458 OA
BRANCH  23  24
ATOM     24  C   UNL A   1      38.662  21.119  25.794  1.00  0.00     0.338 C 
ATOM     25  O   UNL A   1      39.127  19.992  25.844  1.00  0.00    -0.246 OA
BRANCH  24  26
ATOM     26  C   UNL A   1      39.329  22.319  26.318  1.00  0.00     0.060 A 
ATOM     27  C   UNL A   1      38.837  23.587  25.987  1.00  0.00     0.016 A 
ATOM     28  C   UNL A   1      40.456  22.176  27.123  1.00  0.00     0.016 A 
ATOM     29  C   UNL A   1      39.485  24.727  26.456  1.00  0.00     0.010 A 
ATOM     30  C   UNL A   1      41.095  23.317  27.602  1.00  0.00     0.010 A 
ATOM     31  C   UNL A   1      40.623  24.598  27.260  1.00  0.00    -0.014 A 
BRANCH  31  32
ATOM     32  C   UNL A   1      41.395  25.786  27.693  1.00  0.00     0.031 A 
ATOM     33  C   UNL A   1      40.702  26.836  28.510  1.00  0.00     0.074 A 
ATOM     34  C   UNL A   1      42.672  25.947  27.306  1.00  0.00     0.049 A 
ATOM     35  N   UNL A   1      41.088  28.046  28.811  1.00  0.00    -0.248 NA
ATOM     36  C   UNL A   1      39.379  26.471  29.039  1.00  0.00     0.031 C 
ATOM     37  C   UNL A   1      43.458  24.966  26.560  1.00  0.00     0.029 A 
ATOM     38  N   UNL A   1      43.522  27.012  27.464  1.00  0.00    -0.354 N 
ATOM     39  C   UNL A   1      40.043  28.604  29.539  1.00  0.00     0.074 A 
ATOM     40  C   UNL A   1      38.996  27.605  29.603  1.00  0.00     0.031 C 
ATOM     41  C   UNL A   1      44.672  25.482  26.307  1.00  0.00     0.029 A 
ATOM     42  C   UNL A   1      44.724  26.852  26.813  1.00  0.00     0.049 A 
ATOM     43  H   UNL A   1      43.297  27.811  27.992  1.00  0.00     0.167 HD
ATOM     44  C   UNL A   1      39.971  29.838  30.098  1.00  0.00     0.034 A 
ATOM     45  C   UNL A   1      45.726  27.729  26.604  1.00  0.00     0.034 A 
ATOM     46  C   UNL A   1      41.031  30.813  30.003  1.00  0.00     0.049 A 
ATOM     47  C   UNL A   1      45.592  29.128  27.155  1.00  0.00     0.074 A 
ATOM     48  C   UNL A   1      41.079  32.090  30.533  1.00  0.00     0.029 A 
ATOM     49  N   UNL A   1      42.228  30.622  29.321  1.00  0.00    -0.354 N 
ATOM     50  N   UNL A   1      44.594  29.661  27.824  1.00  0.00    -0.248 NA
ATOM     51  C   UNL A   1      46.718  30.041  26.927  1.00  0.00     0.031 C 
ATOM     52  C   UNL A   1      42.263  32.698  30.102  1.00  0.00     0.029 A 
ATOM     53  C   UNL A   1      43.004  31.769  29.388  1.00  0.00     0.049 A 
ATOM     54  H   UNL A   1      42.487  29.793  28.857  1.00  0.00     0.167 HD
ATOM     55  C   UNL A   1      44.992  30.961  28.130  1.00  0.00     0.074 A 
ATOM     56  C   UNL A   1      46.318  31.128  27.571  1.00  0.00     0.031 C 
ATOM     57  C   UNL A   1      44.326  31.921  28.822  1.00  0.00     0.034 A 
BRANCH  44  58
ATOM     58  C   UNL A   1      38.679  30.210  30.788  1.00  0.00     0.023 A 
ATOM     59  C   UNL A   1      37.626  30.844  30.105  1.00  0.00     0.031 A 
ATOM     60  C   UNL A   1      38.523  29.987  32.168  1.00  0.00     0.131 A 
ATOM     61  C   UNL A   1      36.512  31.316  30.817  1.00  0.00     0.055 A 
ATOM     62  C   UNL A   1      37.369  30.372  32.852  1.00  0.00     0.041 A 
ATOM     63  F   UNL A   1      39.502  29.411  32.884  1.00  0.00    -0.206 F 
ATOM     64  C   UNL A   1      36.363  31.060  32.181  1.00  0.00     0.022 A 
BRANCH  61  65
ATOM     65  S   UNL A   1      35.356  32.430  29.972  1.00  0.00     0.124 S 
ATOM     66  O   UNL A   1      36.224  33.555  29.633  1.00  0.00    -0.237 OA
ATOM     67  O   UNL A   1      34.895  31.618  28.852  1.00  0.00    -0.237 OA
ATOM     68  O   UNL A   1      34.349  32.717  30.992  1.00  0.00    -0.744 OA
ENDBRANCH  61  65
ENDBRANCH  44  58
BRANCH  45  69
ATOM     69  C   UNL A   1      46.915  27.328  25.801  1.00  0.00     0.023 A 
ATOM     70  C   UNL A   1      47.065  27.741  24.468  1.00  0.00     0.031 A 
ATOM     71  C   UNL A   1      47.916  26.505  26.351  1.00  0.00     0.131 A 
ATOM     72  C   UNL A   1      48.171  27.306  23.720  1.00  0.00     0.055 A 
ATOM     73  C   UNL A   1      49.040  26.119  25.621  1.00  0.00     0.041 A 
ATOM     74  F   UNL A   1      47.822  26.076  27.621  1.00  0.00    -0.206 F 
ATOM     75  C   UNL A   1      49.168  26.512  24.293  1.00  0.00     0.022 A 
BRANCH  72  76
ATOM     76  S   UNL A   1      48.250  27.733  21.960  1.00  0.00     0.124 S 
ATOM     77  O   UNL A   1      46.964  28.387  21.755  1.00  0.00    -0.237 OA
ATOM     78  O   UNL A   1      49.425  28.596  21.909  1.00  0.00    -0.237 OA
ATOM     79  O   UNL A   1      48.403  26.436  21.302  1.00  0.00    -0.744 OA
ENDBRANCH  72  76
ENDBRANCH  45  69
BRANCH  57  80
ATOM     80  C   UNL A   1      45.055  33.218  29.082  1.00  0.00     0.023 A 
ATOM     81  C   UNL A   1      45.021  34.295  28.178  1.00  0.00     0.031 A 
ATOM     82  C   UNL A   1      45.784  33.380  30.276  1.00  0.00     0.131 A 
ATOM     83  C   UNL A   1      45.739  35.468  28.464  1.00  0.00     0.055 A 
ATOM     84  C   UNL A   1      46.442  34.571  30.582  1.00  0.00     0.041 A 
ATOM     85  F   UNL A   1      45.856  32.383  31.173  1.00  0.00    -0.206 F 
ATOM     86  C   UNL A   1      46.430  35.620  29.669  1.00  0.00     0.022 A 
BRANCH  83  87
ATOM     87  S   UNL A   1      45.828  36.766  27.201  1.00  0.00     0.124 S 
ATOM     88  O   UNL A   1      46.708  37.744  27.831  1.00  0.00    -0.237 OA
ATOM     89  O   UNL A   1      46.383  36.052  26.056  1.00  0.00    -0.237 OA
ATOM     90  O   UNL A   1      44.437  37.192  27.049  1.00  0.00    -0.744 OA
ENDBRANCH  83  87
ENDBRANCH  57  80
ENDBRANCH  31  32
ENDBRANCH  24  26
ENDBRANCH  23  24
ENDBRANCH  22  23
ENDBRANCH  21  22
ENDBRANCH  20  21
ENDBRANCH   1  20
TORSDOF 21
ENDMDL
MODEL 2
REMARK VINA RESULT:     -10.3      1.858      8.026
REMARK SMILES C[C@H](CCC(=O)OCCOC(=O)c1ccc(-c2c3nc(c(-c4cc(S(=O)(=O)[O-])ccc4F)c4ccc([nH]4)c(-c4cc(S(=O)(=O)[O-])ccc4F)c4nc(c(-c5cc(S(=O)(=O)[O-])ccc5F)c5ccc2[nH]5)C=C4)C=C3)cc1)NC(=O)N(C)CCc1cccs1
REMARK SMILES IDX 5 1 6 2 4 3 3 4 2 5 1 6 76 7 77 8 78 10 79 11 80 12 81 13
REMARK SMILES IDX 82 14 83 15 84 16 87 17 85 18 86 19 7 20 8 21 9 22 10 23
REMARK SMILES IDX 11 24 12 25 13 26 14 27 75 28 15 29 74 30 16 31 17 32 18 33
REMARK SMILES IDX 68 34 19 35 73 36 67 37 69 38 20 39 72 40 66 41 65 42 21 44
REMARK SMILES IDX 53 45 33 46 52 47 34 48 37 49 51 50 70 51 35 52 36 53 50 55
REMARK SMILES IDX 71 56 38 57 22 58 23 59 31 60 24 61 30 62 32 63 29 64 25 65
REMARK SMILES IDX 26 66 27 67 28 68 54 69 55 70 63 71 56 72 62 73 64 74 61 75
REMARK SMILES IDX 57 76 58 77 59 78 60 79 39 80 40 81 48 82 41 83 47 84 49 85
REMARK SMILES IDX 46 86 42 87 43 88 44 89 45 90
REMARK H PARENT 76 9 69 43 37 54
REMARK Flexibility Score: inf
ROOT
ATOM      1  C   UNL A   1      36.536  22.078  25.011  1.00  0.00     0.305 C 
ATOM      2  O   UNL A   1      36.507  22.232  23.798  1.00  0.00    -0.252 OA
ENDROOT
BRANCH   1   3
ATOM      3  C   UNL A   1      35.824  22.997  25.988  1.00  0.00     0.125 C 
BRANCH   3   4
ATOM      4  C   UNL A   1      35.470  24.372  25.420  1.00  0.00     0.036 C 
BRANCH   4   5
ATOM      5  C   UNL A   1      34.006  24.866  25.508  1.00  0.00     0.081 C 
ATOM      6  C   UNL A   1      33.099  24.146  26.505  1.00  0.00     0.031 C 
BRANCH   5   7
ATOM      7  N   UNL A   1      34.006  26.294  25.785  1.00  0.00    -0.336 N 
ATOM      8  C   UNL A   1      33.245  27.342  25.440  1.00  0.00     0.317 C 
ATOM      9  H   UNL A   1      34.753  26.556  26.372  1.00  0.00     0.165 HD
ATOM     10  O   UNL A   1      33.679  28.428  25.840  1.00  0.00    -0.249 OA
BRANCH   8  11
ATOM     11  N   UNL A   1      32.080  27.243  24.730  1.00  0.00    -0.328 N 
ATOM     12  C   UNL A   1      30.733  26.973  25.216  1.00  0.00     0.148 C 
BRANCH  11  13
ATOM     13  C   UNL A   1      32.201  27.281  23.266  1.00  0.00     0.126 C 
BRANCH  13  14
ATOM     14  C   UNL A   1      31.336  26.217  22.561  1.00  0.00     0.068 C 
BRANCH  14  15
ATOM     15  C   UNL A   1      31.893  24.820  22.645  1.00  0.00     0.006 A 
ATOM     16  C   UNL A   1      33.098  24.346  22.163  1.00  0.00     0.015 A 
ATOM     17  S   UNL A   1      30.995  23.571  23.403  1.00  0.00    -0.149 S 
ATOM     18  C   UNL A   1      33.237  22.939  22.326  1.00  0.00     0.012 A 
ATOM     19  C   UNL A   1      32.167  22.393  22.995  1.00  0.00     0.065 A 
ENDBRANCH  14  15
ENDBRANCH  13  14
ENDBRANCH  11  13
ENDBRANCH   8  11
ENDBRANCH   5   7
ENDBRANCH   4   5
ENDBRANCH   3   4
ENDBRANCH   1   3
BRANCH   1  20
ATOM     20  O   UNL A   1      37.234  21.114  25.654  1.00  0.00    -0.462 OA
BRANCH  20  21
ATOM     21  C   UNL A   1      37.886  20.097  24.872  1.00  0.00     0.274 C 
BRANCH  21  22
ATOM     22  C   UNL A   1      38.964  19.407  25.705  1.00  0.00     0.275 C 
BRANCH  22  23
ATOM     23  O   UNL A   1      40.108  20.266  25.821  1.00  0.00    -0.458 OA
BRANCH  23  24
ATOM     24  C   UNL A   1      40.573  20.453  27.077  1.00  0.00     0.338 C 
ATOM     25  O   UNL A   1      40.832  19.595  27.905  1.00  0.00    -0.246 OA
BRANCH  24  26
ATOM     26  C   UNL A   1      40.820  21.889  27.260  1.00  0.00     0.060 A 
ATOM     27  C   UNL A   1      40.128  22.818  26.474  1.00  0.00     0.016 A 
ATOM     28  C   UNL A   1      41.757  22.305  28.202  1.00  0.00     0.016 A 
ATOM     29  C   UNL A   1      40.384  24.179  26.623  1.00  0.00     0.010 A 
ATOM     30  C   UNL A   1      42.001  23.667  28.358  1.00  0.00     0.010 A 
ATOM     31  C   UNL A   1      41.327  24.611  27.561  1.00  0.00    -0.014 A 
BRANCH  31  32
ATOM     32  C   UNL A   1      41.697  26.041  27.676  1.00  0.00     0.031 A 
ATOM     33  C   UNL A   1      43.036  26.482  27.164  1.00  0.00     0.074 A 
ATOM     34  C   UNL A   1      40.873  26.911  28.286  1.00  0.00     0.049 A 
ATOM     35  N   UNL A   1      43.669  27.609  27.350  1.00  0.00    -0.248 NA
ATOM     36  C   UNL A   1      43.767  25.502  26.347  1.00  0.00     0.031 C 
ATOM     37  C   UNL A   1      39.528  26.602  28.769  1.00  0.00     0.029 A 
ATOM     38  N   UNL A   1      41.061  28.226  28.627  1.00  0.00    -0.354 N 
ATOM     39  C   UNL A   1      44.890  27.465  26.702  1.00  0.00     0.074 A 
ATOM     40  C   UNL A   1      44.915  26.128  26.145  1.00  0.00     0.031 C 
ATOM     41  C   UNL A   1      39.018  27.694  29.364  1.00  0.00     0.029 A 
ATOM     42  C   UNL A   1      40.024  28.753  29.363  1.00  0.00     0.049 A 
ATOM     43  H   UNL A   1      41.858  28.743  28.371  1.00  0.00     0.167 HD
ATOM     44  C   UNL A   1      45.893  28.371  26.586  1.00  0.00     0.034 A 
ATOM     45  C   UNL A   1      39.923  29.933  30.005  1.00  0.00     0.034 A 
ATOM     46  C   UNL A   1      45.837  29.693  27.164  1.00  0.00     0.049 A 
ATOM     47  C   UNL A   1      41.085  30.895  29.943  1.00  0.00     0.074 A 
ATOM     48  C   UNL A   1      46.784  30.700  27.108  1.00  0.00     0.029 A 
ATOM     49  N   UNL A   1      44.777  30.186  27.918  1.00  0.00    -0.354 N 
ATOM     50  N   UNL A   1      42.248  30.750  29.348  1.00  0.00    -0.248 NA
ATOM     51  C   UNL A   1      40.921  32.179  30.635  1.00  0.00     0.031 C 
ATOM     52  C   UNL A   1      46.334  31.766  27.895  1.00  0.00     0.029 A 
ATOM     53  C   UNL A   1      45.062  31.469  28.360  1.00  0.00     0.049 A 
ATOM     54  H   UNL A   1      43.945  29.696  28.110  1.00  0.00     0.167 HD
ATOM     55  C   UNL A   1      42.936  31.942  29.562  1.00  0.00     0.074 A 
ATOM     56  C   UNL A   1      42.059  32.791  30.341  1.00  0.00     0.031 C 
ATOM     57  C   UNL A   1      44.175  32.304  29.139  1.00  0.00     0.034 A 
BRANCH  44  58
ATOM     58  C   UNL A   1      47.148  27.925  25.872  1.00  0.00     0.023 A 
ATOM     59  C   UNL A   1      47.358  28.180  24.506  1.00  0.00     0.031 A 
ATOM     60  C   UNL A   1      48.123  27.175  26.555  1.00  0.00     0.131 A 
ATOM     61  C   UNL A   1      48.458  27.610  23.847  1.00  0.00     0.055 A 
ATOM     62  C   UNL A   1      49.266  26.693  25.914  1.00  0.00     0.041 A 
ATOM     63  F   UNL A   1      47.970  26.874  27.854  1.00  0.00    -0.206 F 
ATOM     64  C   UNL A   1      49.429  26.892  24.547  1.00  0.00     0.022 A 
BRANCH  61  65
ATOM     65  S   UNL A   1      48.502  27.663  22.034  1.00  0.00     0.124 S 
ATOM     66  O   UNL A   1      47.156  28.135  21.720  1.00  0.00    -0.237 OA
ATOM     67  O   UNL A   1      49.586  28.601  21.770  1.00  0.00    -0.237 OA
ATOM     68  O   UNL A   1      48.770  26.276  21.657  1.00  0.00    -0.744 OA
ENDBRANCH  61  65
ENDBRANCH  44  58
BRANCH  45  69
ATOM     69  C   UNL A   1      38.702  30.250  30.799  1.00  0.00     0.023 A 
ATOM     70  C   UNL A   1      37.648  30.993  30.245  1.00  0.00     0.031 A 
ATOM     71  C   UNL A   1      38.578  29.829  32.137  1.00  0.00     0.131 A 
ATOM     72  C   UNL A   1      36.533  31.321  31.033  1.00  0.00     0.055 A 
ATOM     73  C   UNL A   1      37.444  30.110  32.898  1.00  0.00     0.041 A 
ATOM     74  F   UNL A   1      39.558  29.118  32.718  1.00  0.00    -0.206 F 
ATOM     75  C   UNL A   1      36.416  30.869  32.349  1.00  0.00     0.022 A 
BRANCH  72  76
ATOM     76  S   UNL A   1      35.265  32.411  30.332  1.00  0.00     0.124 S 
ATOM     77  O   UNL A   1      34.406  32.647  31.486  1.00  0.00    -0.237 OA
ATOM     78  O   UNL A   1      36.058  33.547  29.877  1.00  0.00    -0.237 OA
ATOM     79  O   UNL A   1      34.672  31.602  29.267  1.00  0.00    -0.744 OA
ENDBRANCH  72  76
ENDBRANCH  45  69
BRANCH  57  80
ATOM     80  C   UNL A   1      44.627  33.712  29.446  1.00  0.00     0.023 A 
ATOM     81  C   UNL A   1      44.226  34.816  28.672  1.00  0.00     0.031 A 
ATOM     82  C   UNL A   1      45.463  33.949  30.552  1.00  0.00     0.131 A 
ATOM     83  C   UNL A   1      44.698  36.100  28.992  1.00  0.00     0.055 A 
ATOM     84  C   UNL A   1      45.877  35.235  30.902  1.00  0.00     0.041 A 
ATOM     85  F   UNL A   1      45.882  32.932  31.323  1.00  0.00    -0.206 F 
ATOM     86  C   UNL A   1      45.503  36.318  30.114  1.00  0.00     0.022 A 
BRANCH  83  87
ATOM     87  S   UNL A   1      44.316  37.475  27.873  1.00  0.00     0.124 S 
ATOM     88  O   UNL A   1      43.781  36.779  26.708  1.00  0.00    -0.237 OA
ATOM     89  O   UNL A   1      43.354  38.252  28.649  1.00  0.00    -0.237 OA
ATOM     90  O   UNL A   1      45.611  38.121  27.669  1.00  0.00    -0.744 OA
ENDBRANCH  83  87
ENDBRANCH  57  80
ENDBRANCH  31  32
ENDBRANCH  24  26
ENDBRANCH  23  24
ENDBRANCH  22  23
ENDBRANCH  21  22
ENDBRANCH  20  21
ENDBRANCH   1  20
TORSDOF 21
ENDMDL
MODEL 3
REMARK VINA RESULT:     -10.2      2.250      2.627
REMARK SMILES C[C@H](CCC(=O)OCCOC(=O)c1ccc(-c2c3nc(c(-c4cc(S(=O)(=O)[O-])ccc4F)c4ccc([nH]4)c(-c4cc(S(=O)(=O)[O-])ccc4F)c4nc(c(-c5cc(S(=O)(=O)[O-])ccc5F)c5ccc2[nH]5)C=C4)C=C3)cc1)NC(=O)N(C)CCc1cccs1
REMARK SMILES IDX 5 1 6 2 4 3 3 4 2 5 1 6 76 7 77 8 78 10 79 11 80 12 81 13
REMARK SMILES IDX 82 14 83 15 84 16 87 17 85 18 86 19 7 20 8 21 9 22 10 23
REMARK SMILES IDX 11 24 12 25 13 26 14 27 75 28 15 29 74 30 16 31 17 32 18 33
REMARK SMILES IDX 68 34 19 35 73 36 67 37 69 38 20 39 72 40 66 41 65 42 21 44
REMARK SMILES IDX 53 45 33 46 52 47 34 48 37 49 51 50 70 51 35 52 36 53 50 55
REMARK SMILES IDX 71 56 38 57 22 58 23 59 31 60 24 61 30 62 32 63 29 64 25 65
REMARK SMILES IDX 26 66 27 67 28 68 54 69 55 70 63 71 56 72 62 73 64 74 61 75
REMARK SMILES IDX 57 76 58 77 59 78 60 79 39 80 40 81 48 82 41 83 47 84 49 85
REMARK SMILES IDX 46 86 42 87 43 88 44 89 45 90
REMARK H PARENT 76 9 69 43 37 54
REMARK Flexibility Score: inf
ROOT
ATOM      1  C   UNL A   1      35.167  22.952  23.841  1.00  0.00     0.305 C 
ATOM      2  O   UNL A   1      36.050  23.334  23.085  1.00  0.00    -0.252 OA
ENDROOT
BRANCH   1   3
ATOM      3  C   UNL A   1      33.695  23.258  23.632  1.00  0.00     0.125 C 
BRANCH   3   4
ATOM      4  C   UNL A   1      33.038  24.021  24.784  1.00  0.00     0.036 C 
BRANCH   4   5
ATOM      5  C   UNL A   1      33.268  25.547  24.899  1.00  0.00     0.081 C 
ATOM      6  C   UNL A   1      33.333  26.331  23.589  1.00  0.00     0.031 C 
BRANCH   5   7
ATOM      7  N   UNL A   1      32.243  26.114  25.762  1.00  0.00    -0.336 N 
ATOM      8  C   UNL A   1      31.967  27.327  26.262  1.00  0.00     0.317 C 
ATOM      9  H   UNL A   1      31.589  25.436  26.053  1.00  0.00     0.165 HD
ATOM     10  O   UNL A   1      31.019  27.337  27.054  1.00  0.00    -0.249 OA
BRANCH   8  11
ATOM     11  N   UNL A   1      32.644  28.467  25.924  1.00  0.00    -0.328 N 
ATOM     12  C   UNL A   1      34.021  28.836  26.225  1.00  0.00     0.148 C 
BRANCH  11  13
ATOM     13  C   UNL A   1      31.855  29.530  25.286  1.00  0.00     0.126 C 
BRANCH  13  14
ATOM     14  C   UNL A   1      31.313  29.130  23.900  1.00  0.00     0.068 C 
BRANCH  14  15
ATOM     15  C   UNL A   1      29.952  29.694  23.588  1.00  0.00     0.006 A 
ATOM     16  C   UNL A   1      29.451  30.946  23.892  1.00  0.00     0.015 A 
ATOM     17  S   UNL A   1      28.786  28.746  22.762  1.00  0.00    -0.149 S 
ATOM     18  C   UNL A   1      28.080  31.088  23.539  1.00  0.00     0.012 A 
ATOM     19  C   UNL A   1      27.595  29.966  22.907  1.00  0.00     0.065 A 
ENDBRANCH  14  15
ENDBRANCH  13  14
ENDBRANCH  11  13
ENDBRANCH   8  11
ENDBRANCH   5   7
ENDBRANCH   4   5
ENDBRANCH   3   4
ENDBRANCH   1   3
BRANCH   1  20
ATOM     20  O   UNL A   1      35.373  22.255  24.982  1.00  0.00    -0.462 OA
BRANCH  20  21
ATOM     21  C   UNL A   1      35.393  20.818  24.919  1.00  0.00     0.274 C 
BRANCH  21  22
ATOM     22  C   UNL A   1      36.818  20.304  25.111  1.00  0.00     0.275 C 
BRANCH  22  23
ATOM     23  O   UNL A   1      37.681  21.396  25.462  1.00  0.00    -0.458 OA
BRANCH  23  24
ATOM     24  C   UNL A   1      38.900  21.048  25.932  1.00  0.00     0.338 C 
ATOM     25  O   UNL A   1      39.438  19.955  25.857  1.00  0.00    -0.246 OA
BRANCH  24  26
ATOM     26  C   UNL A   1      39.538  22.255  26.474  1.00  0.00     0.060 A 
ATOM     27  C   UNL A   1      39.077  23.518  26.087  1.00  0.00     0.016 A 
ATOM     28  C   UNL A   1      40.609  22.124  27.356  1.00  0.00     0.016 A 
ATOM     29  C   UNL A   1      39.700  24.665  26.575  1.00  0.00     0.010 A 
ATOM     30  C   UNL A   1      41.221  23.271  27.852  1.00  0.00     0.010 A 
ATOM     31  C   UNL A   1      40.781  24.547  27.454  1.00  0.00    -0.014 A 
BRANCH  31  32
ATOM     32  C   UNL A   1      41.530  25.740  27.914  1.00  0.00     0.031 A 
ATOM     33  C   UNL A   1      40.792  26.806  28.670  1.00  0.00     0.074 A 
ATOM     34  C   UNL A   1      42.829  25.891  27.603  1.00  0.00     0.049 A 
ATOM     35  N   UNL A   1      41.164  28.019  28.974  1.00  0.00    -0.248 NA
ATOM     36  C   UNL A   1      39.439  26.453  29.124  1.00  0.00     0.031 C 
ATOM     37  C   UNL A   1      43.655  24.895  26.922  1.00  0.00     0.029 A 
ATOM     38  N   UNL A   1      43.672  26.956  27.795  1.00  0.00    -0.354 N 
ATOM     39  C   UNL A   1      40.079  28.592  29.627  1.00  0.00     0.074 A 
ATOM     40  C   UNL A   1      39.026  27.597  29.645  1.00  0.00     0.031 C 
ATOM     41  C   UNL A   1      44.884  25.404  26.735  1.00  0.00     0.029 A 
ATOM     42  C   UNL A   1      44.910  26.782  27.220  1.00  0.00     0.049 A 
ATOM     43  H   UNL A   1      43.418  27.764  28.294  1.00  0.00     0.167 HD
ATOM     44  C   UNL A   1      39.979  29.835  30.160  1.00  0.00     0.034 A 
ATOM     45  C   UNL A   1      45.926  27.652  27.058  1.00  0.00     0.034 A 
ATOM     46  C   UNL A   1      41.046  30.806  30.114  1.00  0.00     0.049 A 
ATOM     47  C   UNL A   1      45.764  29.060  27.577  1.00  0.00     0.074 A 
ATOM     48  C   UNL A   1      41.066  32.091  30.625  1.00  0.00     0.029 A 
ATOM     49  N   UNL A   1      42.281  30.600  29.509  1.00  0.00    -0.354 N 
ATOM     50  N   UNL A   1      44.730  29.608  28.175  1.00  0.00    -0.248 NA
ATOM     51  C   UNL A   1      46.906  29.967  27.402  1.00  0.00     0.031 C 
ATOM     52  C   UNL A   1      42.277  32.689  30.257  1.00  0.00     0.029 A 
ATOM     53  C   UNL A   1      43.056  31.746  29.604  1.00  0.00     0.049 A 
ATOM     54  H   UNL A   1      42.565  29.763  29.076  1.00  0.00     0.167 HD
ATOM     55  C   UNL A   1      45.114  30.911  28.483  1.00  0.00     0.074 A 
ATOM     56  C   UNL A   1      46.472  31.065  28.002  1.00  0.00     0.031 C 
ATOM     57  C   UNL A   1      44.411  31.884  29.118  1.00  0.00     0.034 A 
BRANCH  44  58
ATOM     58  C   UNL A   1      38.648  30.223  30.765  1.00  0.00     0.023 A 
ATOM     59  C   UNL A   1      37.664  30.901  30.025  1.00  0.00     0.031 A 
ATOM     60  C   UNL A   1      38.386  29.967  32.123  1.00  0.00     0.131 A 
ATOM     61  C   UNL A   1      36.513  31.383  30.667  1.00  0.00     0.055 A 
ATOM     62  C   UNL A   1      37.194  30.364  32.732  1.00  0.00     0.041 A 
ATOM     63  F   UNL A   1      39.296  29.347  32.892  1.00  0.00    -0.206 F 
ATOM     64  C   UNL A   1      36.257  31.096  32.009  1.00  0.00     0.022 A 
BRANCH  61  65
ATOM     65  S   UNL A   1      35.449  32.549  29.772  1.00  0.00     0.124 S 
ATOM     66  O   UNL A   1      35.254  31.855  28.501  1.00  0.00    -0.237 OA
ATOM     67  O   UNL A   1      34.278  32.638  30.637  1.00  0.00    -0.237 OA
ATOM     68  O   UNL A   1      36.260  33.761  29.692  1.00  0.00    -0.744 OA
ENDBRANCH  61  65
ENDBRANCH  44  58
BRANCH  45  69
ATOM     69  C   UNL A   1      47.161  27.234  26.335  1.00  0.00     0.023 A 
ATOM     70  C   UNL A   1      48.164  26.493  26.979  1.00  0.00     0.031 A 
ATOM     71  C   UNL A   1      47.366  27.588  24.988  1.00  0.00     0.131 A 
ATOM     72  C   UNL A   1      49.339  26.158  26.288  1.00  0.00     0.055 A 
ATOM     73  C   UNL A   1      48.511  27.205  24.289  1.00  0.00     0.041 A 
ATOM     74  F   UNL A   1      46.440  28.299  24.324  1.00  0.00    -0.206 F 
ATOM     75  C   UNL A   1      49.512  26.493  24.943  1.00  0.00     0.022 A 
BRANCH  72  76
ATOM     76  S   UNL A   1      50.676  25.336  27.196  1.00  0.00     0.124 S 
ATOM     77  O   UNL A   1      51.149  26.410  28.063  1.00  0.00    -0.237 OA
ATOM     78  O   UNL A   1      49.970  24.243  27.855  1.00  0.00    -0.237 OA
ATOM     79  O   UNL A   1      51.604  24.930  26.142  1.00  0.00    -0.744 OA
ENDBRANCH  72  76
ENDBRANCH  45  69
BRANCH  57  80
ATOM     80  C   UNL A   1      45.128  33.184  29.400  1.00  0.00     0.023 A 
ATOM     81  C   UNL A   1      45.904  33.379  30.556  1.00  0.00     0.031 A 
ATOM     82  C   UNL A   1      45.042  34.240  28.474  1.00  0.00     0.131 A 
ATOM     83  C   UNL A   1      46.528  34.618  30.775  1.00  0.00     0.055 A 
ATOM     84  C   UNL A   1      45.717  35.446  28.668  1.00  0.00     0.041 A 
ATOM     85  F   UNL A   1      44.310  34.112  27.355  1.00  0.00    -0.206 F 
ATOM     86  C   UNL A   1      46.457  35.644  29.828  1.00  0.00     0.022 A 
BRANCH  83  87
ATOM     87  S   UNL A   1      47.368  34.905  32.356  1.00  0.00     0.124 S 
ATOM     88  O   UNL A   1      46.691  33.959  33.236  1.00  0.00    -0.237 OA
ATOM     89  O   UNL A   1      48.757  34.595  32.034  1.00  0.00    -0.237 OA
ATOM     90  O   UNL A   1      47.099  36.314  32.637  1.00  0.00    -0.744 OA
ENDBRANCH  83  87
ENDBRANCH  57  80
ENDBRANCH  31  32
ENDBRANCH  24  26
ENDBRANCH  23  24
ENDBRANCH  22  23
ENDBRANCH  21  22
ENDBRANCH  20  21
ENDBRANCH   1  20
TORSDOF 21
ENDMDL
