MODEL 1
REMARK VINA RESULT:     -11.7      0.000      0.000
REMARK SMILES N#Cc1ccccc1S(=O)(=O)N1CCC(C(=O)OCCOC(=O)c2ccc(-c3c4nc(c(-c5cc(S(=O)(=O)[O-])ccc5F)c5ccc([nH]5)c(-c5cc(S(=O)(=O)[O-])ccc5F)c5nc(c(-c6cc(S(=O)(=O)[O-])ccc6F)c6ccc3[nH]6)C=C5)C=C4)cc2)CC1
REMARK SMILES IDX 19 1 18 2 16 3 17 4 15 5 12 6 13 7 88 8 14 9 87 10 9 11
REMARK SMILES IDX 10 12 11 13 8 14 3 15 4 16 5 17 7 18 6 19 2 20 1 21 20 22
REMARK SMILES IDX 21 23 22 24 23 25 24 26 25 27 86 28 26 29 85 30 27 31 28 32
REMARK SMILES IDX 29 33 79 34 30 35 84 36 78 37 80 38 31 39 83 40 77 41 76 42
REMARK SMILES IDX 32 44 64 45 44 46 63 47 45 48 48 49 62 50 81 51 46 52 47 53
REMARK SMILES IDX 61 55 82 56 49 57 33 58 34 59 42 60 35 61 41 62 43 63 40 64
REMARK SMILES IDX 36 65 37 66 38 67 39 68 65 69 66 70 74 71 67 72 73 73 75 74
REMARK SMILES IDX 72 75 68 76 69 77 70 78 71 79 50 80 51 81 59 82 52 83 58 84
REMARK SMILES IDX 60 85 57 86 53 87 54 88 55 89 56 90
REMARK H PARENT 80 43 48 54
REMARK Flexibility Score: inf
ROOT
ATOM      1  C   UNL A   1      31.415  29.563  24.658  1.00  0.00     0.274 C 
ENDROOT
BRANCH   1   2
ATOM      2  O   UNL A   1      30.181  29.696  23.930  1.00  0.00    -0.462 OA
BRANCH   2   3
ATOM      3  C   UNL A   1      29.986  28.799  22.932  1.00  0.00     0.309 C 
ATOM      4  O   UNL A   1      29.356  29.026  21.904  1.00  0.00    -0.252 OA
BRANCH   3   5
ATOM      5  C   UNL A   1      30.632  27.458  23.198  1.00  0.00     0.102 C 
ATOM      6  N   UNL A   1      31.598  24.757  23.105  1.00  0.00    -0.198 NA
ATOM      7  C   UNL A   1      30.469  25.075  24.013  1.00  0.00     0.103 C 
ATOM      8  C   UNL A   1      32.328  25.830  22.396  1.00  0.00     0.103 C 
ATOM      9  C   UNL A   1      29.701  26.337  23.631  1.00  0.00     0.032 C 
ATOM     10  C   UNL A   1      31.426  26.986  21.993  1.00  0.00     0.032 C 
BRANCH   6  11
ATOM     11  S   UNL A   1      32.371  23.269  23.302  1.00  0.00     0.244 S 
ATOM     12  O   UNL A   1      32.930  22.929  22.007  1.00  0.00    -0.207 OA
ATOM     13  O   UNL A   1      31.437  22.369  23.947  1.00  0.00    -0.207 OA
BRANCH  11  14
ATOM     14  C   UNL A   1      33.780  23.355  24.399  1.00  0.00     0.100 A 
ATOM     15  C   UNL A   1      33.794  23.551  25.779  1.00  0.00     0.072 A 
ATOM     16  C   UNL A   1      35.031  23.589  26.459  1.00  0.00     0.021 A 
ATOM     17  C   UNL A   1      36.238  23.427  25.783  1.00  0.00     0.001 A 
ATOM     18  C   UNL A   1      35.014  23.190  23.728  1.00  0.00     0.023 A 
ATOM     19  C   UNL A   1      36.230  23.225  24.412  1.00  0.00     0.001 A 
BRANCH  15  20
ATOM     20  C   UNL A   1      32.655  23.729  26.618  1.00  0.00     0.101 C 
ATOM     21  N   UNL A   1      31.690  23.812  27.250  1.00  0.00    -0.192 NA
ENDBRANCH  15  20
ENDBRANCH  11  14
ENDBRANCH   6  11
ENDBRANCH   3   5
ENDBRANCH   2   3
ENDBRANCH   1   2
BRANCH   1  22
ATOM     22  C   UNL A   1      31.573  30.693  25.677  1.00  0.00     0.275 C 
BRANCH  22  23
ATOM     23  O   UNL A   1      32.653  30.439  26.595  1.00  0.00    -0.458 OA
BRANCH  23  24
ATOM     24  C   UNL A   1      33.194  31.543  27.164  1.00  0.00     0.338 C 
ATOM     25  O   UNL A   1      32.670  32.638  27.286  1.00  0.00    -0.246 OA
BRANCH  24  26
ATOM     26  C   UNL A   1      34.523  31.229  27.707  1.00  0.00     0.060 A 
ATOM     27  C   UNL A   1      34.803  29.907  28.050  1.00  0.00     0.016 A 
ATOM     28  C   UNL A   1      35.439  32.240  27.997  1.00  0.00     0.016 A 
ATOM     29  C   UNL A   1      35.984  29.588  28.716  1.00  0.00     0.010 A 
ATOM     30  C   UNL A   1      36.642  31.912  28.636  1.00  0.00     0.010 A 
ATOM     31  C   UNL A   1      36.917  30.586  29.017  1.00  0.00    -0.014 A 
BRANCH  31  32
ATOM     32  C   UNL A   1      38.156  30.245  29.767  1.00  0.00     0.031 A 
ATOM     33  C   UNL A   1      39.154  29.287  29.178  1.00  0.00     0.074 A 
ATOM     34  C   UNL A   1      38.391  30.804  30.971  1.00  0.00     0.049 A 
ATOM     35  N   UNL A   1      40.225  28.766  29.718  1.00  0.00    -0.248 NA
ATOM     36  C   UNL A   1      38.903  28.850  27.796  1.00  0.00     0.031 C 
ATOM     37  C   UNL A   1      37.530  31.792  31.624  1.00  0.00     0.029 A 
ATOM     38  N   UNL A   1      39.419  30.619  31.861  1.00  0.00    -0.354 N 
ATOM     39  C   UNL A   1      40.765  27.919  28.756  1.00  0.00     0.074 A 
ATOM     40  C   UNL A   1      39.883  27.979  27.608  1.00  0.00     0.031 C 
ATOM     41  C   UNL A   1      38.068  32.128  32.807  1.00  0.00     0.029 A 
ATOM     42  C   UNL A   1      39.270  31.332  33.028  1.00  0.00     0.049 A 
ATOM     43  H   UNL A   1      40.190  30.033  31.682  1.00  0.00     0.167 HD
ATOM     44  C   UNL A   1      41.893  27.166  28.825  1.00  0.00     0.034 A 
ATOM     45  C   UNL A   1      39.994  31.315  34.166  1.00  0.00     0.034 A 
ATOM     46  C   UNL A   1      42.763  27.127  29.977  1.00  0.00     0.049 A 
ATOM     47  C   UNL A   1      41.194  30.405  34.253  1.00  0.00     0.074 A 
ATOM     48  C   UNL A   1      43.939  26.415  30.146  1.00  0.00     0.029 A 
ATOM     49  N   UNL A   1      42.552  27.824  31.161  1.00  0.00    -0.354 N 
ATOM     50  N   UNL A   1      41.683  29.592  33.344  1.00  0.00    -0.248 NA
ATOM     51  C   UNL A   1      41.938  30.410  35.519  1.00  0.00     0.031 C 
ATOM     52  C   UNL A   1      44.395  26.621  31.453  1.00  0.00     0.029 A 
ATOM     53  C   UNL A   1      43.554  27.529  32.075  1.00  0.00     0.049 A 
ATOM     54  H   UNL A   1      41.800  28.438  31.327  1.00  0.00     0.167 HD
ATOM     55  C   UNL A   1      42.806  29.009  33.923  1.00  0.00     0.074 A 
ATOM     56  C   UNL A   1      42.931  29.577  35.250  1.00  0.00     0.031 C 
ATOM     57  C   UNL A   1      43.660  28.090  33.403  1.00  0.00     0.034 A 
BRANCH  44  58
ATOM     58  C   UNL A   1      42.211  26.280  27.642  1.00  0.00     0.023 A 
ATOM     59  C   UNL A   1      41.737  24.961  27.550  1.00  0.00     0.031 A 
ATOM     60  C   UNL A   1      43.028  26.758  26.600  1.00  0.00     0.131 A 
ATOM     61  C   UNL A   1      42.144  24.142  26.483  1.00  0.00     0.055 A 
ATOM     62  C   UNL A   1      43.362  25.966  25.501  1.00  0.00     0.041 A 
ATOM     63  F   UNL A   1      43.528  28.004  26.640  1.00  0.00    -0.206 F 
ATOM     64  C   UNL A   1      42.933  24.644  25.446  1.00  0.00     0.022 A 
BRANCH  61  65
ATOM     65  S   UNL A   1      41.750  22.372  26.550  1.00  0.00     0.124 S 
ATOM     66  O   UNL A   1      42.308  21.994  27.847  1.00  0.00    -0.237 OA
ATOM     67  O   UNL A   1      40.296  22.369  26.455  1.00  0.00    -0.237 OA
ATOM     68  O   UNL A   1      42.454  21.821  25.394  1.00  0.00    -0.744 OA
ENDBRANCH  61  65
ENDBRANCH  44  58
BRANCH  45  69
ATOM     69  C   UNL A   1      39.578  32.140  35.336  1.00  0.00     0.023 A 
ATOM     70  C   UNL A   1      38.795  31.598  36.366  1.00  0.00     0.031 A 
ATOM     71  C   UNL A   1      39.924  33.502  35.419  1.00  0.00     0.131 A 
ATOM     72  C   UNL A   1      38.350  32.420  37.414  1.00  0.00     0.055 A 
ATOM     73  C   UNL A   1      39.528  34.301  36.492  1.00  0.00     0.041 A 
ATOM     74  F   UNL A   1      40.668  34.074  34.458  1.00  0.00    -0.206 F 
ATOM     75  C   UNL A   1      38.725  33.763  37.492  1.00  0.00     0.022 A 
BRANCH  72  76
ATOM     76  S   UNL A   1      37.203  31.725  38.634  1.00  0.00     0.124 S 
ATOM     77  O   UNL A   1      36.054  32.614  38.501  1.00  0.00    -0.237 OA
ATOM     78  O   UNL A   1      37.021  30.365  38.141  1.00  0.00    -0.237 OA
ATOM     79  O   UNL A   1      37.937  31.838  39.893  1.00  0.00    -0.744 OA
ENDBRANCH  72  76
ENDBRANCH  45  69
BRANCH  57  80
ATOM     80  C   UNL A   1      44.832  27.680  34.263  1.00  0.00     0.023 A 
ATOM     81  C   UNL A   1      44.764  26.579  35.135  1.00  0.00     0.031 A 
ATOM     82  C   UNL A   1      46.030  28.416  34.223  1.00  0.00     0.131 A 
ATOM     83  C   UNL A   1      45.849  26.281  35.972  1.00  0.00     0.055 A 
ATOM     84  C   UNL A   1      47.130  28.075  35.010  1.00  0.00     0.041 A 
ATOM     85  F   UNL A   1      46.151  29.480  33.412  1.00  0.00    -0.206 F 
ATOM     86  C   UNL A   1      47.039  27.011  35.902  1.00  0.00     0.022 A 
BRANCH  83  87
ATOM     87  S   UNL A   1      45.655  24.984  37.225  1.00  0.00     0.124 S 
ATOM     88  O   UNL A   1      44.495  25.457  37.973  1.00  0.00    -0.237 OA
ATOM     89  O   UNL A   1      45.447  23.791  36.411  1.00  0.00    -0.237 OA
ATOM     90  O   UNL A   1      46.920  25.021  37.956  1.00  0.00    -0.744 OA
ENDBRANCH  83  87
ENDBRANCH  57  80
ENDBRANCH  31  32
ENDBRANCH  24  26
ENDBRANCH  23  24
ENDBRANCH  22  23
ENDBRANCH   1  22
TORSDOF 17
ENDMDL
MODEL 2
REMARK VINA RESULT:     -11.6      5.160     10.299
REMARK SMILES N#Cc1ccccc1S(=O)(=O)N1CCC(C(=O)OCCOC(=O)c2ccc(-c3c4nc(c(-c5cc(S(=O)(=O)[O-])ccc5F)c5ccc([nH]5)c(-c5cc(S(=O)(=O)[O-])ccc5F)c5nc(c(-c6cc(S(=O)(=O)[O-])ccc6F)c6ccc3[nH]6)C=C5)C=C4)cc2)CC1
REMARK SMILES IDX 19 1 18 2 16 3 17 4 15 5 12 6 13 7 88 8 14 9 87 10 9 11
REMARK SMILES IDX 10 12 11 13 8 14 3 15 4 16 5 17 7 18 6 19 2 20 1 21 20 22
REMARK SMILES IDX 21 23 22 24 23 25 24 26 25 27 86 28 26 29 85 30 27 31 28 32
REMARK SMILES IDX 29 33 79 34 30 35 84 36 78 37 80 38 31 39 83 40 77 41 76 42
REMARK SMILES IDX 32 44 64 45 44 46 63 47 45 48 48 49 62 50 81 51 46 52 47 53
REMARK SMILES IDX 61 55 82 56 49 57 33 58 34 59 42 60 35 61 41 62 43 63 40 64
REMARK SMILES IDX 36 65 37 66 38 67 39 68 65 69 66 70 74 71 67 72 73 73 75 74
REMARK SMILES IDX 72 75 68 76 69 77 70 78 71 79 50 80 51 81 59 82 52 83 58 84
REMARK SMILES IDX 60 85 57 86 53 87 54 88 55 89 56 90
REMARK H PARENT 80 43 48 54
REMARK Flexibility Score: inf
ROOT
ATOM      1  C   UNL A   1      35.335  20.322  25.016  1.00  0.00     0.274 C 
ENDROOT
BRANCH   1   2
ATOM      2  O   UNL A   1      34.827  21.495  25.677  1.00  0.00    -0.462 OA
BRANCH   2   3
ATOM      3  C   UNL A   1      33.525  21.789  25.438  1.00  0.00     0.309 C 
ATOM      4  O   UNL A   1      32.658  20.959  25.186  1.00  0.00    -0.252 OA
BRANCH   3   5
ATOM      5  C   UNL A   1      33.222  23.269  25.513  1.00  0.00     0.102 C 
ATOM      6  N   UNL A   1      33.078  26.059  26.168  1.00  0.00    -0.198 NA
ATOM      7  C   UNL A   1      31.932  25.187  26.524  1.00  0.00     0.103 C 
ATOM      8  C   UNL A   1      34.192  25.549  25.340  1.00  0.00     0.103 C 
ATOM      9  C   UNL A   1      32.285  23.707  26.628  1.00  0.00     0.032 C 
ATOM     10  C   UNL A   1      34.499  24.083  25.608  1.00  0.00     0.032 C 
BRANCH   6  11
ATOM     11  S   UNL A   1      32.850  27.731  26.246  1.00  0.00     0.244 S 
ATOM     12  O   UNL A   1      34.122  28.329  25.888  1.00  0.00    -0.207 OA
ATOM     13  O   UNL A   1      32.241  28.033  27.525  1.00  0.00    -0.207 OA
BRANCH  11  14
ATOM     14  C   UNL A   1      31.700  28.335  25.019  1.00  0.00     0.100 A 
ATOM     15  C   UNL A   1      31.136  29.606  24.911  1.00  0.00     0.072 A 
ATOM     16  C   UNL A   1      30.239  29.875  23.854  1.00  0.00     0.021 A 
ATOM     17  C   UNL A   1      29.907  28.903  22.915  1.00  0.00     0.001 A 
ATOM     18  C   UNL A   1      31.355  27.359  24.055  1.00  0.00     0.023 A 
ATOM     19  C   UNL A   1      30.469  27.640  23.014  1.00  0.00     0.001 A 
BRANCH  15  20
ATOM     20  C   UNL A   1      31.370  30.711  25.780  1.00  0.00     0.101 C 
ATOM     21  N   UNL A   1      31.503  31.654  26.437  1.00  0.00    -0.192 NA
ENDBRANCH  15  20
ENDBRANCH  11  14
ENDBRANCH   6  11
ENDBRANCH   3   5
ENDBRANCH   2   3
ENDBRANCH   1   2
BRANCH   1  22
ATOM     22  C   UNL A   1      36.844  20.432  24.790  1.00  0.00     0.275 C 
BRANCH  22  23
ATOM     23  O   UNL A   1      37.450  21.391  25.678  1.00  0.00    -0.458 OA
BRANCH  23  24
ATOM     24  C   UNL A   1      38.750  21.155  25.976  1.00  0.00     0.338 C 
ATOM     25  O   UNL A   1      39.377  20.129  25.769  1.00  0.00    -0.246 OA
BRANCH  24  26
ATOM     26  C   UNL A   1      39.364  22.365  26.540  1.00  0.00     0.060 A 
ATOM     27  C   UNL A   1      38.882  23.606  26.129  1.00  0.00     0.016 A 
ATOM     28  C   UNL A   1      40.486  22.285  27.365  1.00  0.00     0.016 A 
ATOM     29  C   UNL A   1      39.535  24.776  26.509  1.00  0.00     0.010 A 
ATOM     30  C   UNL A   1      41.121  23.465  27.776  1.00  0.00     0.010 A 
ATOM     31  C   UNL A   1      40.662  24.720  27.336  1.00  0.00    -0.014 A 
BRANCH  31  32
ATOM     32  C   UNL A   1      41.380  25.970  27.703  1.00  0.00     0.031 A 
ATOM     33  C   UNL A   1      40.684  27.029  28.513  1.00  0.00     0.074 A 
ATOM     34  C   UNL A   1      42.659  26.150  27.318  1.00  0.00     0.049 A 
ATOM     35  N   UNL A   1      41.087  28.233  28.828  1.00  0.00    -0.248 NA
ATOM     36  C   UNL A   1      39.351  26.685  29.029  1.00  0.00     0.031 C 
ATOM     37  C   UNL A   1      43.463  25.174  26.580  1.00  0.00     0.029 A 
ATOM     38  N   UNL A   1      43.506  27.217  27.490  1.00  0.00    -0.354 N 
ATOM     39  C   UNL A   1      40.048  28.804  29.556  1.00  0.00     0.074 A 
ATOM     40  C   UNL A   1      38.988  27.819  29.610  1.00  0.00     0.031 C 
ATOM     41  C   UNL A   1      44.685  25.686  26.366  1.00  0.00     0.029 A 
ATOM     42  C   UNL A   1      44.732  27.047  26.889  1.00  0.00     0.049 A 
ATOM     43  H   UNL A   1      43.261  28.025  27.996  1.00  0.00     0.167 HD
ATOM     44  C   UNL A   1      39.991  30.034  30.128  1.00  0.00     0.034 A 
ATOM     45  C   UNL A   1      45.761  27.905  26.736  1.00  0.00     0.034 A 
ATOM     46  C   UNL A   1      41.064  30.999  30.068  1.00  0.00     0.049 A 
ATOM     47  C   UNL A   1      45.640  29.297  27.304  1.00  0.00     0.074 A 
ATOM     48  C   UNL A   1      41.117  32.266  30.627  1.00  0.00     0.029 A 
ATOM     49  N   UNL A   1      42.271  30.811  29.406  1.00  0.00    -0.354 N 
ATOM     50  N   UNL A   1      44.645  29.833  27.972  1.00  0.00    -0.248 NA
ATOM     51  C   UNL A   1      46.781  30.198  27.095  1.00  0.00     0.031 C 
ATOM     52  C   UNL A   1      42.320  32.868  30.241  1.00  0.00     0.029 A 
ATOM     53  C   UNL A   1      43.058  31.950  29.512  1.00  0.00     0.049 A 
ATOM     54  H   UNL A   1      42.530  29.989  28.931  1.00  0.00     0.167 HD
ATOM     55  C   UNL A   1      45.053  31.127  28.284  1.00  0.00     0.074 A 
ATOM     56  C   UNL A   1      46.389  31.282  27.747  1.00  0.00     0.031 C 
ATOM     57  C   UNL A   1      44.384  32.099  28.957  1.00  0.00     0.034 A 
BRANCH  44  58
ATOM     58  C   UNL A   1      38.700  30.422  30.813  1.00  0.00     0.023 A 
ATOM     59  C   UNL A   1      37.642  31.035  30.119  1.00  0.00     0.031 A 
ATOM     60  C   UNL A   1      38.537  30.199  32.193  1.00  0.00     0.131 A 
ATOM     61  C   UNL A   1      36.505  31.471  30.818  1.00  0.00     0.055 A 
ATOM     62  C   UNL A   1      37.370  30.561  32.867  1.00  0.00     0.041 A 
ATOM     63  F   UNL A   1      39.519  29.636  32.915  1.00  0.00    -0.206 F 
ATOM     64  C   UNL A   1      36.351  31.216  32.182  1.00  0.00     0.022 A 
BRANCH  61  65
ATOM     65  S   UNL A   1      35.298  32.508  29.947  1.00  0.00     0.124 S 
ATOM     66  O   UNL A   1      36.123  33.643  29.539  1.00  0.00    -0.237 OA
ATOM     67  O   UNL A   1      34.843  31.631  28.875  1.00  0.00    -0.237 OA
ATOM     68  O   UNL A   1      34.301  32.810  30.973  1.00  0.00    -0.744 OA
ENDBRANCH  61  65
ENDBRANCH  44  58
BRANCH  45  69
ATOM     69  C   UNL A   1      46.973  27.498  25.968  1.00  0.00     0.023 A 
ATOM     70  C   UNL A   1      47.126  27.842  24.616  1.00  0.00     0.031 A 
ATOM     71  C   UNL A   1      47.980  26.719  26.568  1.00  0.00     0.131 A 
ATOM     72  C   UNL A   1      48.238  27.376  23.897  1.00  0.00     0.055 A 
ATOM     73  C   UNL A   1      49.112  26.306  25.864  1.00  0.00     0.041 A 
ATOM     74  F   UNL A   1      47.882  26.357  27.857  1.00  0.00    -0.206 F 
ATOM     75  C   UNL A   1      49.240  26.625  24.516  1.00  0.00     0.022 A 
BRANCH  72  76
ATOM     76  S   UNL A   1      48.316  27.699  22.115  1.00  0.00     0.124 S 
ATOM     77  O   UNL A   1      47.019  28.317  21.868  1.00  0.00    -0.237 OA
ATOM     78  O   UNL A   1      49.475  28.579  22.016  1.00  0.00    -0.237 OA
ATOM     79  O   UNL A   1      48.495  26.369  21.536  1.00  0.00    -0.744 OA
ENDBRANCH  72  76
ENDBRANCH  45  69
BRANCH  57  80
ATOM     80  C   UNL A   1      45.115  33.400  29.187  1.00  0.00     0.023 A 
ATOM     81  C   UNL A   1      44.999  34.484  28.299  1.00  0.00     0.031 A 
ATOM     82  C   UNL A   1      45.957  33.550  30.304  1.00  0.00     0.131 A 
ATOM     83  C   UNL A   1      45.756  35.646  28.510  1.00  0.00     0.055 A 
ATOM     84  C   UNL A   1      46.658  34.732  30.545  1.00  0.00     0.041 A 
ATOM     85  F   UNL A   1      46.110  32.547  31.184  1.00  0.00    -0.206 F 
ATOM     86  C   UNL A   1      46.571  35.784  29.637  1.00  0.00     0.022 A 
BRANCH  83  87
ATOM     87  S   UNL A   1      45.739  36.942  27.241  1.00  0.00     0.124 S 
ATOM     88  O   UNL A   1      46.328  36.254  26.097  1.00  0.00    -0.237 OA
ATOM     89  O   UNL A   1      44.317  37.255  27.134  1.00  0.00    -0.237 OA
ATOM     90  O   UNL A   1      46.563  38.001  27.820  1.00  0.00    -0.744 OA
ENDBRANCH  83  87
ENDBRANCH  57  80
ENDBRANCH  31  32
ENDBRANCH  24  26
ENDBRANCH  23  24
ENDBRANCH  22  23
ENDBRANCH   1  22
TORSDOF 17
ENDMDL
MODEL 3
REMARK VINA RESULT:     -11.5      1.668      2.078
REMARK SMILES N#Cc1ccccc1S(=O)(=O)N1CCC(C(=O)OCCOC(=O)c2ccc(-c3c4nc(c(-c5cc(S(=O)(=O)[O-])ccc5F)c5ccc([nH]5)c(-c5cc(S(=O)(=O)[O-])ccc5F)c5nc(c(-c6cc(S(=O)(=O)[O-])ccc6F)c6ccc3[nH]6)C=C5)C=C4)cc2)CC1
REMARK SMILES IDX 19 1 18 2 16 3 17 4 15 5 12 6 13 7 88 8 14 9 87 10 9 11
REMARK SMILES IDX 10 12 11 13 8 14 3 15 4 16 5 17 7 18 6 19 2 20 1 21 20 22
REMARK SMILES IDX 21 23 22 24 23 25 24 26 25 27 86 28 26 29 85 30 27 31 28 32
REMARK SMILES IDX 29 33 79 34 30 35 84 36 78 37 80 38 31 39 83 40 77 41 76 42
REMARK SMILES IDX 32 44 64 45 44 46 63 47 45 48 48 49 62 50 81 51 46 52 47 53
REMARK SMILES IDX 61 55 82 56 49 57 33 58 34 59 42 60 35 61 41 62 43 63 40 64
REMARK SMILES IDX 36 65 37 66 38 67 39 68 65 69 66 70 74 71 67 72 73 73 75 74
REMARK SMILES IDX 72 75 68 76 69 77 70 78 71 79 50 80 51 81 59 82 52 83 58 84
REMARK SMILES IDX 60 85 57 86 53 87 54 88 55 89 56 90
REMARK H PARENT 80 43 48 54
REMARK Flexibility Score: inf
ROOT
ATOM      1  C   UNL A   1      31.730  29.243  24.930  1.00  0.00     0.274 C 
ENDROOT
BRANCH   1   2
ATOM      2  O   UNL A   1      30.981  29.335  23.705  1.00  0.00    -0.462 OA
BRANCH   2   3
ATOM      3  C   UNL A   1      30.629  28.154  23.140  1.00  0.00     0.309 C 
ATOM      4  O   UNL A   1      30.187  28.030  22.002  1.00  0.00    -0.252 OA
BRANCH   3   5
ATOM      5  C   UNL A   1      30.836  26.967  24.054  1.00  0.00     0.102 C 
ATOM      6  N   UNL A   1      31.050  24.366  25.246  1.00  0.00    -0.198 NA
ATOM      7  C   UNL A   1      29.902  25.227  25.624  1.00  0.00     0.103 C 
ATOM      8  C   UNL A   1      32.153  24.893  24.416  1.00  0.00     0.103 C 
ATOM      9  C   UNL A   1      29.578  26.313  24.603  1.00  0.00     0.032 C 
ATOM     10  C   UNL A   1      31.679  25.900  23.380  1.00  0.00     0.032 C 
BRANCH   6  11
ATOM     11  S   UNL A   1      31.351  22.998  26.190  1.00  0.00     0.244 S 
ATOM     12  O   UNL A   1      30.377  22.003  25.779  1.00  0.00    -0.207 OA
ATOM     13  O   UNL A   1      31.414  23.422  27.573  1.00  0.00    -0.207 OA
BRANCH  11  14
ATOM     14  C   UNL A   1      32.938  22.251  25.850  1.00  0.00     0.100 A 
ATOM     15  C   UNL A   1      33.366  21.617  24.684  1.00  0.00     0.072 A 
ATOM     16  C   UNL A   1      34.675  21.089  24.626  1.00  0.00     0.021 A 
ATOM     17  C   UNL A   1      35.550  21.192  25.704  1.00  0.00     0.001 A 
ATOM     18  C   UNL A   1      33.840  22.350  26.935  1.00  0.00     0.023 A 
ATOM     19  C   UNL A   1      35.132  21.827  26.863  1.00  0.00     0.001 A 
BRANCH  15  20
ATOM     20  C   UNL A   1      32.603  21.430  23.495  1.00  0.00     0.101 C 
ATOM     21  N   UNL A   1      31.911  21.273  22.581  1.00  0.00    -0.192 NA
ENDBRANCH  15  20
ENDBRANCH  11  14
ENDBRANCH   6  11
ENDBRANCH   3   5
ENDBRANCH   2   3
ENDBRANCH   1   2
BRANCH   1  22
ATOM     22  C   UNL A   1      31.643  30.549  25.724  1.00  0.00     0.275 C 
BRANCH  22  23
ATOM     23  O   UNL A   1      32.422  30.493  26.933  1.00  0.00    -0.458 OA
BRANCH  23  24
ATOM     24  C   UNL A   1      33.073  31.638  27.250  1.00  0.00     0.338 C 
ATOM     25  O   UNL A   1      32.645  32.776  27.155  1.00  0.00    -0.246 OA
BRANCH  24  26
ATOM     26  C   UNL A   1      34.393  31.326  27.817  1.00  0.00     0.060 A 
ATOM     27  C   UNL A   1      34.651  30.015  28.212  1.00  0.00     0.016 A 
ATOM     28  C   UNL A   1      35.320  32.334  28.077  1.00  0.00     0.016 A 
ATOM     29  C   UNL A   1      35.821  29.705  28.900  1.00  0.00     0.010 A 
ATOM     30  C   UNL A   1      36.513  32.014  28.738  1.00  0.00     0.010 A 
ATOM     31  C   UNL A   1      36.766  30.700  29.172  1.00  0.00    -0.014 A 
BRANCH  31  32
ATOM     32  C   UNL A   1      37.993  30.370  29.946  1.00  0.00     0.031 A 
ATOM     33  C   UNL A   1      39.014  29.427  29.373  1.00  0.00     0.074 A 
ATOM     34  C   UNL A   1      38.196  30.926  31.157  1.00  0.00     0.049 A 
ATOM     35  N   UNL A   1      40.081  28.917  29.933  1.00  0.00    -0.248 NA
ATOM     36  C   UNL A   1      38.797  28.995  27.984  1.00  0.00     0.031 C 
ATOM     37  C   UNL A   1      37.310  31.900  31.797  1.00  0.00     0.029 A 
ATOM     38  N   UNL A   1      39.208  30.749  32.067  1.00  0.00    -0.354 N 
ATOM     39  C   UNL A   1      40.651  28.081  28.977  1.00  0.00     0.074 A 
ATOM     40  C   UNL A   1      39.791  28.136  27.812  1.00  0.00     0.031 C 
ATOM     41  C   UNL A   1      37.819  32.236  32.992  1.00  0.00     0.029 A 
ATOM     42  C   UNL A   1      39.026  31.453  33.235  1.00  0.00     0.049 A 
ATOM     43  H   UNL A   1      39.989  30.173  31.901  1.00  0.00     0.167 HD
ATOM     44  C   UNL A   1      41.786  27.342  29.066  1.00  0.00     0.034 A 
ATOM     45  C   UNL A   1      39.727  31.439  34.387  1.00  0.00     0.034 A 
ATOM     46  C   UNL A   1      42.633  27.308  30.235  1.00  0.00     0.049 A 
ATOM     47  C   UNL A   1      40.936  30.544  34.494  1.00  0.00     0.074 A 
ATOM     48  C   UNL A   1      43.814  26.609  30.425  1.00  0.00     0.029 A 
ATOM     49  N   UNL A   1      42.389  27.996  31.418  1.00  0.00    -0.354 N 
ATOM     50  N   UNL A   1      41.453  29.742  33.591  1.00  0.00    -0.248 NA
ATOM     51  C   UNL A   1      41.653  30.551  35.775  1.00  0.00     0.031 C 
ATOM     52  C   UNL A   1      44.240  26.814  31.742  1.00  0.00     0.029 A 
ATOM     53  C   UNL A   1      43.376  27.709  32.351  1.00  0.00     0.049 A 
ATOM     54  H   UNL A   1      41.626  28.599  31.571  1.00  0.00     0.167 HD
ATOM     55  C   UNL A   1      42.572  29.170  34.191  1.00  0.00     0.074 A 
ATOM     56  C   UNL A   1      42.662  29.732  35.523  1.00  0.00     0.031 C 
ATOM     57  C   UNL A   1      43.447  28.263  33.684  1.00  0.00     0.034 A 
BRANCH  44  58
ATOM     58  C   UNL A   1      42.139  26.466  27.885  1.00  0.00     0.023 A 
ATOM     59  C   UNL A   1      41.687  25.140  27.779  1.00  0.00     0.031 A 
ATOM     60  C   UNL A   1      42.968  26.961  26.861  1.00  0.00     0.131 A 
ATOM     61  C   UNL A   1      42.127  24.333  26.717  1.00  0.00     0.055 A 
ATOM     62  C   UNL A   1      43.334  26.179  25.765  1.00  0.00     0.041 A 
ATOM     63  F   UNL A   1      43.449  28.214  26.915  1.00  0.00    -0.206 F 
ATOM     64  C   UNL A   1      42.926  24.850  25.696  1.00  0.00     0.022 A 
BRANCH  61  65
ATOM     65  S   UNL A   1      41.758  22.557  26.769  1.00  0.00     0.124 S 
ATOM     66  O   UNL A   1      40.349  22.559  27.155  1.00  0.00    -0.237 OA
ATOM     67  O   UNL A   1      42.046  22.134  25.404  1.00  0.00    -0.237 OA
ATOM     68  O   UNL A   1      42.674  22.047  27.788  1.00  0.00    -0.744 OA
ENDBRANCH  61  65
ENDBRANCH  44  58
BRANCH  45  69
ATOM     69  C   UNL A   1      39.277  32.254  35.552  1.00  0.00     0.023 A 
ATOM     70  C   UNL A   1      39.696  33.583  35.715  1.00  0.00     0.031 A 
ATOM     71  C   UNL A   1      38.450  31.697  36.545  1.00  0.00     0.131 A 
ATOM     72  C   UNL A   1      39.322  34.299  36.863  1.00  0.00     0.055 A 
ATOM     73  C   UNL A   1      38.033  32.432  37.657  1.00  0.00     0.041 A 
ATOM     74  F   UNL A   1      38.023  30.428  36.443  1.00  0.00    -0.206 F 
ATOM     75  C   UNL A   1      38.480  33.738  37.826  1.00  0.00     0.022 A 
BRANCH  72  76
ATOM     76  S   UNL A   1      40.019  35.953  37.120  1.00  0.00     0.124 S 
ATOM     77  O   UNL A   1      39.280  36.407  38.293  1.00  0.00    -0.237 OA
ATOM     78  O   UNL A   1      41.432  35.657  37.328  1.00  0.00    -0.237 OA
ATOM     79  O   UNL A   1      39.706  36.651  35.876  1.00  0.00    -0.744 OA
ENDBRANCH  72  76
ENDBRANCH  45  69
BRANCH  57  80
ATOM     80  C   UNL A   1      44.606  27.864  34.566  1.00  0.00     0.023 A 
ATOM     81  C   UNL A   1      44.524  26.774  35.451  1.00  0.00     0.031 A 
ATOM     82  C   UNL A   1      45.805  28.598  34.534  1.00  0.00     0.131 A 
ATOM     83  C   UNL A   1      45.597  26.485  36.307  1.00  0.00     0.055 A 
ATOM     84  C   UNL A   1      46.893  28.267  35.341  1.00  0.00     0.041 A 
ATOM     85  F   UNL A   1      45.939  29.652  33.712  1.00  0.00    -0.206 F 
ATOM     86  C   UNL A   1      46.789  27.213  36.245  1.00  0.00     0.022 A 
BRANCH  83  87
ATOM     87  S   UNL A   1      45.383  25.204  37.573  1.00  0.00     0.124 S 
ATOM     88  O   UNL A   1      44.343  24.368  36.985  1.00  0.00    -0.237 OA
ATOM     89  O   UNL A   1      46.714  24.610  37.646  1.00  0.00    -0.237 OA
ATOM     90  O   UNL A   1      44.978  25.958  38.758  1.00  0.00    -0.744 OA
ENDBRANCH  83  87
ENDBRANCH  57  80
ENDBRANCH  31  32
ENDBRANCH  24  26
ENDBRANCH  23  24
ENDBRANCH  22  23
ENDBRANCH   1  22
TORSDOF 17
ENDMDL
