MODEL 1
REMARK VINA RESULT:     -11.7      0.000      0.000
REMARK SMILES COc1ccc(/C=N/Nc2cccc(C(=O)OCCOC(=O)c3ccc(-c4c5nc(c(-c6cc(S(=O)(=O)[O-])ccc6F)c6ccc([nH]6)c(-c6cc(S(=O)(=O)[O-])ccc6F)c6nc(c(-c7cc(S(=O)(=O)[O-])ccc7F)c7ccc4[nH]7)C=C6)C=C5)cc3)c2)cc1O
REMARK SMILES IDX 18 1 17 2 15 3 16 4 14 5 10 6 11 7 86 8 12 9 13 10 9 11 8 13
REMARK SMILES IDX 7 14 6 15 3 16 4 17 88 18 5 19 87 20 2 21 1 22 89 23 19 25
REMARK SMILES IDX 20 26 21 27 22 28 23 29 24 30 85 31 25 32 84 33 26 34 27 35
REMARK SMILES IDX 28 36 78 37 29 38 83 39 77 40 79 41 30 42 82 43 76 44 75 45
REMARK SMILES IDX 31 47 63 48 43 49 62 50 44 51 47 52 61 53 80 54 45 55 46 56
REMARK SMILES IDX 60 58 81 59 48 60 32 61 33 62 41 63 34 64 40 65 42 66 39 67
REMARK SMILES IDX 35 68 36 69 37 70 38 71 64 72 65 73 73 74 66 75 72 76 74 77
REMARK SMILES IDX 71 78 67 79 68 80 69 81 70 82 49 83 50 84 58 85 51 86 57 87
REMARK SMILES IDX 59 88 56 89 52 90 53 91 54 92 55 93
REMARK H PARENT 9 12 89 24 79 46 47 57
REMARK Flexibility Score: inf
ROOT
ATOM      1  C   UNL A   1      31.965  29.848  25.254  1.00  0.00     0.275 C 
ENDROOT
BRANCH   1   2
ATOM      2  O   UNL A   1      31.044  28.766  25.490  1.00  0.00    -0.458 OA
BRANCH   2   3
ATOM      3  C   UNL A   1      31.440  27.832  26.389  1.00  0.00     0.338 C 
ATOM      4  O   UNL A   1      31.114  27.779  27.569  1.00  0.00    -0.246 OA
BRANCH   3   5
ATOM      5  C   UNL A   1      32.287  26.801  25.745  1.00  0.00     0.062 A 
ATOM      6  C   UNL A   1      32.586  24.924  24.226  1.00  0.00     0.057 A 
ATOM      7  C   UNL A   1      33.946  24.887  24.563  1.00  0.00     0.028 A 
ATOM      8  C   UNL A   1      31.753  25.854  24.868  1.00  0.00     0.043 A 
ATOM      9  C   UNL A   1      34.486  25.826  25.440  1.00  0.00     0.003 A 
ATOM     10  C   UNL A   1      33.667  26.810  25.990  1.00  0.00     0.016 A 
BRANCH   6  11
ATOM     11  N   UNL A   1      32.143  24.163  23.126  1.00  0.00    -0.278 N 
ATOM     12  H   UNL A   1      31.527  24.586  22.485  1.00  0.00     0.190 HD
BRANCH  11  13
ATOM     13  N   UNL A   1      32.519  22.872  22.900  1.00  0.00    -0.183 NA
ATOM     14  C   UNL A   1      32.256  22.036  23.858  1.00  0.00     0.141 C 
BRANCH  14  15
ATOM     15  C   UNL A   1      32.669  20.630  23.810  1.00  0.00    -0.002 A 
ATOM     16  C   UNL A   1      33.377  17.942  23.690  1.00  0.00     0.160 A 
ATOM     17  C   UNL A   1      33.901  18.758  24.697  1.00  0.00     0.051 A 
ATOM     18  C   UNL A   1      32.462  18.475  22.777  1.00  0.00     0.158 A 
ATOM     19  C   UNL A   1      33.539  20.105  24.767  1.00  0.00     0.014 A 
ATOM     20  C   UNL A   1      32.137  19.825  22.801  1.00  0.00     0.060 A 
BRANCH  16  21
ATOM     21  O   UNL A   1      33.746  16.624  23.714  1.00  0.00    -0.493 OA
ATOM     22  C   UNL A   1      34.368  16.218  24.936  1.00  0.00     0.278 C 
ENDBRANCH  16  21
BRANCH  18  23
ATOM     23  O   UNL A   1      31.800  17.690  21.876  1.00  0.00    -0.504 OA
ATOM     24  H   UNL A   1      31.290  18.085  21.196  1.00  0.00     0.293 HD
ENDBRANCH  18  23
ENDBRANCH  14  15
ENDBRANCH  11  13
ENDBRANCH   6  11
ENDBRANCH   3   5
ENDBRANCH   2   3
ENDBRANCH   1   2
BRANCH   1  25
ATOM     25  C   UNL A   1      31.618  31.055  26.124  1.00  0.00     0.275 C 
BRANCH  25  26
ATOM     26  O   UNL A   1      32.397  31.018  27.334  1.00  0.00    -0.458 OA
BRANCH  26  27
ATOM     27  C   UNL A   1      33.217  32.069  27.541  1.00  0.00     0.338 C 
ATOM     28  O   UNL A   1      32.936  33.262  27.461  1.00  0.00    -0.246 OA
BRANCH  27  29
ATOM     29  C   UNL A   1      34.537  31.582  27.957  1.00  0.00     0.060 A 
ATOM     30  C   UNL A   1      34.702  30.212  28.149  1.00  0.00     0.016 A 
ATOM     31  C   UNL A   1      35.564  32.464  28.282  1.00  0.00     0.016 A 
ATOM     32  C   UNL A   1      35.873  29.711  28.709  1.00  0.00     0.010 A 
ATOM     33  C   UNL A   1      36.761  31.958  28.808  1.00  0.00     0.010 A 
ATOM     34  C   UNL A   1      36.914  30.579  29.061  1.00  0.00    -0.014 A 
BRANCH  34  35
ATOM     35  C   UNL A   1      38.090  30.053  29.809  1.00  0.00     0.031 A 
ATOM     36  C   UNL A   1      38.278  30.431  31.257  1.00  0.00     0.074 A 
ATOM     37  C   UNL A   1      38.957  29.201  29.225  1.00  0.00     0.049 A 
ATOM     38  N   UNL A   1      39.276  30.170  32.062  1.00  0.00    -0.248 NA
ATOM     39  C   UNL A   1      37.202  31.222  31.876  1.00  0.00     0.031 C 
ATOM     40  C   UNL A   1      38.868  28.716  27.846  1.00  0.00     0.029 A 
ATOM     41  N   UNL A   1      40.081  28.583  29.720  1.00  0.00    -0.354 N 
ATOM     42  C   UNL A   1      38.977  30.811  33.261  1.00  0.00     0.074 A 
ATOM     43  C   UNL A   1      37.705  31.476  33.075  1.00  0.00     0.031 C 
ATOM     44  C   UNL A   1      39.881  27.865  27.613  1.00  0.00     0.029 A 
ATOM     45  C   UNL A   1      40.729  27.790  28.800  1.00  0.00     0.049 A 
ATOM     46  H   UNL A   1      40.395  28.699  30.646  1.00  0.00     0.167 HD
ATOM     47  C   UNL A   1      39.697  30.843  34.409  1.00  0.00     0.034 A 
ATOM     48  C   UNL A   1      41.888  27.106  28.890  1.00  0.00     0.034 A 
ATOM     49  C   UNL A   1      40.931  30.124  34.607  1.00  0.00     0.049 A 
ATOM     50  C   UNL A   1      42.666  27.153  30.183  1.00  0.00     0.074 A 
ATOM     51  C   UNL A   1      41.715  30.056  35.748  1.00  0.00     0.029 A 
ATOM     52  N   UNL A   1      41.560  29.341  33.649  1.00  0.00    -0.354 N 
ATOM     53  N   UNL A   1      42.381  27.786  31.298  1.00  0.00    -0.248 NA
ATOM     54  C   UNL A   1      43.923  26.395  30.229  1.00  0.00     0.031 C 
ATOM     55  C   UNL A   1      42.841  29.276  35.463  1.00  0.00     0.029 A 
ATOM     56  C   UNL A   1      42.731  28.805  34.164  1.00  0.00     0.049 A 
ATOM     57  H   UNL A   1      41.223  29.188  32.737  1.00  0.00     0.167 HD
ATOM     58  C   UNL A   1      43.420  27.491  32.177  1.00  0.00     0.074 A 
ATOM     59  C   UNL A   1      44.318  26.598  31.476  1.00  0.00     0.031 C 
ATOM     60  C   UNL A   1      43.622  27.927  33.447  1.00  0.00     0.034 A 
BRANCH  47  61
ATOM     61  C   UNL A   1      39.201  31.734  35.519  1.00  0.00     0.023 A 
ATOM     62  C   UNL A   1      38.529  31.230  36.646  1.00  0.00     0.031 A 
ATOM     63  C   UNL A   1      39.401  33.124  35.435  1.00  0.00     0.131 A 
ATOM     64  C   UNL A   1      38.035  32.116  37.616  1.00  0.00     0.055 A 
ATOM     65  C   UNL A   1      38.966  33.993  36.436  1.00  0.00     0.041 A 
ATOM     66  F   UNL A   1      40.020  33.662  34.371  1.00  0.00    -0.206 F 
ATOM     67  C   UNL A   1      38.269  33.492  37.531  1.00  0.00     0.022 A 
BRANCH  64  68
ATOM     68  S   UNL A   1      36.990  31.459  38.945  1.00  0.00     0.124 S 
ATOM     69  O   UNL A   1      35.879  32.407  38.943  1.00  0.00    -0.237 OA
ATOM     70  O   UNL A   1      36.682  30.115  38.470  1.00  0.00    -0.237 OA
ATOM     71  O   UNL A   1      37.853  31.521  40.124  1.00  0.00    -0.744 OA
ENDBRANCH  64  68
ENDBRANCH  47  61
BRANCH  48  72
ATOM     72  C   UNL A   1      42.433  26.371  27.711  1.00  0.00     0.023 A 
ATOM     73  C   UNL A   1      42.091  25.032  27.461  1.00  0.00     0.031 A 
ATOM     74  C   UNL A   1      43.374  26.979  26.859  1.00  0.00     0.131 A 
ATOM     75  C   UNL A   1      42.723  24.331  26.420  1.00  0.00     0.055 A 
ATOM     76  C   UNL A   1      43.955  26.295  25.791  1.00  0.00     0.041 A 
ATOM     77  F   UNL A   1      43.743  28.255  27.055  1.00  0.00    -0.206 F 
ATOM     78  C   UNL A   1      43.642  24.957  25.577  1.00  0.00     0.022 A 
BRANCH  75  79
ATOM     79  S   UNL A   1      42.408  22.551  26.254  1.00  0.00     0.124 S 
ATOM     80  O   UNL A   1      40.956  22.515  26.126  1.00  0.00    -0.237 OA
ATOM     81  O   UNL A   1      43.166  22.221  25.053  1.00  0.00    -0.237 OA
ATOM     82  O   UNL A   1      42.938  21.994  27.497  1.00  0.00    -0.744 OA
ENDBRANCH  75  79
ENDBRANCH  48  72
BRANCH  60  83
ATOM     83  C   UNL A   1      44.848  27.409  34.156  1.00  0.00     0.023 A 
ATOM     84  C   UNL A   1      44.814  26.225  34.914  1.00  0.00     0.031 A 
ATOM     85  C   UNL A   1      46.057  28.123  34.096  1.00  0.00     0.131 A 
ATOM     86  C   UNL A   1      45.950  25.823  35.633  1.00  0.00     0.055 A 
ATOM     87  C   UNL A   1      47.201  27.688  34.768  1.00  0.00     0.041 A 
ATOM     88  F   UNL A   1      46.145  29.260  33.386  1.00  0.00    -0.206 F 
ATOM     89  C   UNL A   1      47.146  26.539  35.554  1.00  0.00     0.022 A 
BRANCH  86  90
ATOM     90  S   UNL A   1      45.813  24.402  36.752  1.00  0.00     0.124 S 
ATOM     91  O   UNL A   1      46.820  24.712  37.762  1.00  0.00    -0.237 OA
ATOM     92  O   UNL A   1      44.424  24.484  37.191  1.00  0.00    -0.237 OA
ATOM     93  O   UNL A   1      46.125  23.260  35.895  1.00  0.00    -0.744 OA
ENDBRANCH  86  90
ENDBRANCH  60  83
ENDBRANCH  34  35
ENDBRANCH  27  29
ENDBRANCH  26  27
ENDBRANCH  25  26
ENDBRANCH   1  25
TORSDOF 19
ENDMDL
MODEL 2
REMARK VINA RESULT:     -11.6      5.031     10.972
REMARK SMILES COc1ccc(/C=N/Nc2cccc(C(=O)OCCOC(=O)c3ccc(-c4c5nc(c(-c6cc(S(=O)(=O)[O-])ccc6F)c6ccc([nH]6)c(-c6cc(S(=O)(=O)[O-])ccc6F)c6nc(c(-c7cc(S(=O)(=O)[O-])ccc7F)c7ccc4[nH]7)C=C6)C=C5)cc3)c2)cc1O
REMARK SMILES IDX 18 1 17 2 15 3 16 4 14 5 10 6 11 7 86 8 12 9 13 10 9 11 8 13
REMARK SMILES IDX 7 14 6 15 3 16 4 17 88 18 5 19 87 20 2 21 1 22 89 23 19 25
REMARK SMILES IDX 20 26 21 27 22 28 23 29 24 30 85 31 25 32 84 33 26 34 27 35
REMARK SMILES IDX 28 36 78 37 29 38 83 39 77 40 79 41 30 42 82 43 76 44 75 45
REMARK SMILES IDX 31 47 63 48 43 49 62 50 44 51 47 52 61 53 80 54 45 55 46 56
REMARK SMILES IDX 60 58 81 59 48 60 32 61 33 62 41 63 34 64 40 65 42 66 39 67
REMARK SMILES IDX 35 68 36 69 37 70 38 71 64 72 65 73 73 74 66 75 72 76 74 77
REMARK SMILES IDX 71 78 67 79 68 80 69 81 70 82 49 83 50 84 58 85 51 86 57 87
REMARK SMILES IDX 59 88 56 89 52 90 53 91 54 92 55 93
REMARK H PARENT 9 12 89 24 79 46 47 57
REMARK Flexibility Score: inf
ROOT
ATOM      1  C   UNL A   1      36.827  19.625  24.629  1.00  0.00     0.275 C 
ENDROOT
BRANCH   1   2
ATOM      2  O   UNL A   1      36.087  20.700  25.242  1.00  0.00    -0.458 OA
BRANCH   2   3
ATOM      3  C   UNL A   1      34.746  20.686  25.050  1.00  0.00     0.338 C 
ATOM      4  O   UNL A   1      33.980  19.781  25.361  1.00  0.00    -0.246 OA
BRANCH   3   5
ATOM      5  C   UNL A   1      34.280  21.965  24.465  1.00  0.00     0.062 A 
ATOM      6  C   UNL A   1      32.529  23.386  23.555  1.00  0.00     0.057 A 
ATOM      7  C   UNL A   1      33.471  24.407  23.372  1.00  0.00     0.028 A 
ATOM      8  C   UNL A   1      32.958  22.146  24.053  1.00  0.00     0.043 A 
ATOM      9  C   UNL A   1      34.793  24.233  23.779  1.00  0.00     0.003 A 
ATOM     10  C   UNL A   1      35.183  23.033  24.368  1.00  0.00     0.016 A 
BRANCH   6  11
ATOM     11  N   UNL A   1      31.161  23.697  23.414  1.00  0.00    -0.278 N 
ATOM     12  H   UNL A   1      30.499  23.020  23.684  1.00  0.00     0.190 HD
BRANCH  11  13
ATOM     13  N   UNL A   1      30.703  24.884  22.923  1.00  0.00    -0.183 NA
ATOM     14  C   UNL A   1      30.250  25.718  23.809  1.00  0.00     0.141 C 
BRANCH  14  15
ATOM     15  C   UNL A   1      29.645  27.003  23.442  1.00  0.00    -0.002 A 
ATOM     16  C   UNL A   1      28.428  29.400  22.724  1.00  0.00     0.160 A 
ATOM     17  C   UNL A   1      29.805  29.235  22.547  1.00  0.00     0.051 A 
ATOM     18  C   UNL A   1      27.665  28.338  23.219  1.00  0.00     0.158 A 
ATOM     19  C   UNL A   1      30.417  28.029  22.895  1.00  0.00     0.014 A 
ATOM     20  C   UNL A   1      28.269  27.154  23.622  1.00  0.00     0.060 A 
BRANCH  16  21
ATOM     21  O   UNL A   1      27.896  30.594  22.318  1.00  0.00    -0.493 OA
ATOM     22  C   UNL A   1      27.673  31.521  23.383  1.00  0.00     0.278 C 
ENDBRANCH  16  21
BRANCH  18  23
ATOM     23  O   UNL A   1      26.300  28.388  23.262  1.00  0.00    -0.504 OA
ATOM     24  H   UNL A   1      25.796  28.014  22.567  1.00  0.00     0.293 HD
ENDBRANCH  18  23
ENDBRANCH  14  15
ENDBRANCH  11  13
ENDBRANCH   6  11
ENDBRANCH   3   5
ENDBRANCH   2   3
ENDBRANCH   1   2
BRANCH   1  25
ATOM     25  C   UNL A   1      38.155  19.402  25.350  1.00  0.00     0.275 C 
BRANCH  25  26
ATOM     26  O   UNL A   1      38.744  20.672  25.683  1.00  0.00    -0.458 OA
BRANCH  26  27
ATOM     27  C   UNL A   1      39.914  20.625  26.352  1.00  0.00     0.338 C 
ATOM     28  O   UNL A   1      40.661  19.657  26.481  1.00  0.00    -0.246 OA
BRANCH  27  29
ATOM     29  C   UNL A   1      40.230  21.957  26.877  1.00  0.00     0.060 A 
ATOM     30  C   UNL A   1      39.576  23.055  26.322  1.00  0.00     0.016 A 
ATOM     31  C   UNL A   1      41.247  22.145  27.809  1.00  0.00     0.016 A 
ATOM     32  C   UNL A   1      39.959  24.350  26.656  1.00  0.00     0.010 A 
ATOM     33  C   UNL A   1      41.607  23.450  28.178  1.00  0.00     0.010 A 
ATOM     34  C   UNL A   1      40.991  24.566  27.577  1.00  0.00    -0.014 A 
BRANCH  34  35
ATOM     35  C   UNL A   1      41.502  25.948  27.800  1.00  0.00     0.031 A 
ATOM     36  C   UNL A   1      42.806  26.367  27.168  1.00  0.00     0.074 A 
ATOM     37  C   UNL A   1      40.788  26.843  28.511  1.00  0.00     0.049 A 
ATOM     38  N   UNL A   1      43.480  27.479  27.312  1.00  0.00    -0.248 NA
ATOM     39  C   UNL A   1      43.442  25.395  26.264  1.00  0.00     0.031 C 
ATOM     40  C   UNL A   1      39.490  26.585  29.137  1.00  0.00     0.029 A 
ATOM     41  N   UNL A   1      41.049  28.157  28.822  1.00  0.00    -0.354 N 
ATOM     42  C   UNL A   1      44.644  27.319  26.566  1.00  0.00     0.074 A 
ATOM     43  C   UNL A   1      44.585  26.000  25.974  1.00  0.00     0.031 C 
ATOM     44  C   UNL A   1      39.061  27.707  29.740  1.00  0.00     0.029 A 
ATOM     45  C   UNL A   1      40.078  28.746  29.600  1.00  0.00     0.049 A 
ATOM     46  H   UNL A   1      41.856  28.632  28.518  1.00  0.00     0.167 HD
ATOM     47  C   UNL A   1      45.668  28.191  26.392  1.00  0.00     0.034 A 
ATOM     48  C   UNL A   1      40.026  29.971  30.163  1.00  0.00     0.034 A 
ATOM     49  C   UNL A   1      45.689  29.528  26.932  1.00  0.00     0.049 A 
ATOM     50  C   UNL A   1      41.176  30.924  29.948  1.00  0.00     0.074 A 
ATOM     51  C   UNL A   1      46.660  30.504  26.776  1.00  0.00     0.029 A 
ATOM     52  N   UNL A   1      44.693  30.083  27.723  1.00  0.00    -0.354 N 
ATOM     53  N   UNL A   1      42.281  30.746  29.261  1.00  0.00    -0.248 NA
ATOM     54  C   UNL A   1      41.073  32.244  30.585  1.00  0.00     0.031 C 
ATOM     55  C   UNL A   1      46.275  31.628  27.515  1.00  0.00     0.029 A 
ATOM     56  C   UNL A   1      45.035  31.378  28.082  1.00  0.00     0.049 A 
ATOM     57  H   UNL A   1      43.864  29.625  27.991  1.00  0.00     0.167 HD
ATOM     58  C   UNL A   1      42.997  31.935  29.378  1.00  0.00     0.074 A 
ATOM     59  C   UNL A   1      42.183  32.834  30.171  1.00  0.00     0.031 C 
ATOM     60  C   UNL A   1      44.220  32.256  28.884  1.00  0.00     0.034 A 
BRANCH  47  61
ATOM     61  C   UNL A   1      46.879  27.704  25.638  1.00  0.00     0.023 A 
ATOM     62  C   UNL A   1      47.089  27.997  24.280  1.00  0.00     0.031 A 
ATOM     63  C   UNL A   1      47.839  26.917  26.300  1.00  0.00     0.131 A 
ATOM     64  C   UNL A   1      48.203  27.462  23.616  1.00  0.00     0.055 A 
ATOM     65  C   UNL A   1      48.980  26.445  25.651  1.00  0.00     0.041 A 
ATOM     66  F   UNL A   1      47.679  26.590  27.593  1.00  0.00    -0.206 F 
ATOM     67  C   UNL A   1      49.163  26.707  24.297  1.00  0.00     0.022 A 
BRANCH  64  68
ATOM     68  S   UNL A   1      48.335  27.679  21.819  1.00  0.00     0.124 S 
ATOM     69  O   UNL A   1      48.550  26.306  21.372  1.00  0.00    -0.237 OA
ATOM     70  O   UNL A   1      47.045  28.267  21.476  1.00  0.00    -0.237 OA
ATOM     71  O   UNL A   1      49.486  28.567  21.664  1.00  0.00    -0.744 OA
ENDBRANCH  64  68
ENDBRANCH  47  61
BRANCH  48  72
ATOM     72  C   UNL A   1      38.886  30.357  31.046  1.00  0.00     0.023 A 
ATOM     73  C   UNL A   1      37.884  31.237  30.604  1.00  0.00     0.031 A 
ATOM     74  C   UNL A   1      38.826  29.909  32.378  1.00  0.00     0.131 A 
ATOM     75  C   UNL A   1      36.899  31.683  31.501  1.00  0.00     0.055 A 
ATOM     76  C   UNL A   1      37.810  30.309  33.248  1.00  0.00     0.041 A 
ATOM     77  F   UNL A   1      39.759  29.070  32.855  1.00  0.00    -0.206 F 
ATOM     78  C   UNL A   1      36.848  31.215  32.815  1.00  0.00     0.022 A 
BRANCH  75  79
ATOM     79  S   UNL A   1      35.746  32.974  30.955  1.00  0.00     0.124 S 
ATOM     80  O   UNL A   1      34.668  32.184  30.370  1.00  0.00    -0.237 OA
ATOM     81  O   UNL A   1      35.437  33.652  32.209  1.00  0.00    -0.237 OA
ATOM     82  O   UNL A   1      36.534  33.755  30.004  1.00  0.00    -0.744 OA
ENDBRANCH  75  79
ENDBRANCH  48  72
BRANCH  60  83
ATOM     83  C   UNL A   1      44.724  33.648  29.170  1.00  0.00     0.023 A 
ATOM     84  C   UNL A   1      44.252  34.762  28.454  1.00  0.00     0.031 A 
ATOM     85  C   UNL A   1      45.709  33.859  30.150  1.00  0.00     0.131 A 
ATOM     86  C   UNL A   1      44.810  36.029  28.684  1.00  0.00     0.055 A 
ATOM     87  C   UNL A   1      46.220  35.131  30.415  1.00  0.00     0.041 A 
ATOM     88  F   UNL A   1      46.195  32.831  30.863  1.00  0.00    -0.206 F 
ATOM     89  C   UNL A   1      45.781  36.222  29.669  1.00  0.00     0.022 A 
BRANCH  86  90
ATOM     90  S   UNL A   1      44.317  37.406  27.610  1.00  0.00     0.124 S 
ATOM     91  O   UNL A   1      43.376  36.761  26.700  1.00  0.00    -0.237 OA
ATOM     92  O   UNL A   1      43.740  38.350  28.561  1.00  0.00    -0.237 OA
ATOM     93  O   UNL A   1      45.576  37.832  27.002  1.00  0.00    -0.744 OA
ENDBRANCH  86  90
ENDBRANCH  60  83
ENDBRANCH  34  35
ENDBRANCH  27  29
ENDBRANCH  26  27
ENDBRANCH  25  26
ENDBRANCH   1  25
TORSDOF 19
ENDMDL
MODEL 3
REMARK VINA RESULT:     -11.5      5.388     12.329
REMARK SMILES COc1ccc(/C=N/Nc2cccc(C(=O)OCCOC(=O)c3ccc(-c4c5nc(c(-c6cc(S(=O)(=O)[O-])ccc6F)c6ccc([nH]6)c(-c6cc(S(=O)(=O)[O-])ccc6F)c6nc(c(-c7cc(S(=O)(=O)[O-])ccc7F)c7ccc4[nH]7)C=C6)C=C5)cc3)c2)cc1O
REMARK SMILES IDX 18 1 17 2 15 3 16 4 14 5 10 6 11 7 86 8 12 9 13 10 9 11 8 13
REMARK SMILES IDX 7 14 6 15 3 16 4 17 88 18 5 19 87 20 2 21 1 22 89 23 19 25
REMARK SMILES IDX 20 26 21 27 22 28 23 29 24 30 85 31 25 32 84 33 26 34 27 35
REMARK SMILES IDX 28 36 78 37 29 38 83 39 77 40 79 41 30 42 82 43 76 44 75 45
REMARK SMILES IDX 31 47 63 48 43 49 62 50 44 51 47 52 61 53 80 54 45 55 46 56
REMARK SMILES IDX 60 58 81 59 48 60 32 61 33 62 41 63 34 64 40 65 42 66 39 67
REMARK SMILES IDX 35 68 36 69 37 70 38 71 64 72 65 73 73 74 66 75 72 76 74 77
REMARK SMILES IDX 71 78 67 79 68 80 69 81 70 82 49 83 50 84 58 85 51 86 57 87
REMARK SMILES IDX 59 88 56 89 52 90 53 91 54 92 55 93
REMARK H PARENT 9 12 89 24 79 46 47 57
REMARK Flexibility Score: inf
ROOT
ATOM      1  C   UNL A   1      42.413  19.597  25.926  1.00  0.00     0.275 C 
ENDROOT
BRANCH   1   2
ATOM      2  O   UNL A   1      42.891  20.955  26.000  1.00  0.00    -0.458 OA
BRANCH   2   3
ATOM      3  C   UNL A   1      44.025  21.225  25.309  1.00  0.00     0.338 C 
ATOM      4  O   UNL A   1      44.343  20.752  24.224  1.00  0.00    -0.246 OA
BRANCH   3   5
ATOM      5  C   UNL A   1      44.839  22.250  26.005  1.00  0.00     0.062 A 
ATOM      6  C   UNL A   1      45.308  23.661  27.930  1.00  0.00     0.057 A 
ATOM      7  C   UNL A   1      46.423  24.182  27.258  1.00  0.00     0.028 A 
ATOM      8  C   UNL A   1      44.489  22.733  27.268  1.00  0.00     0.043 A 
ATOM      9  C   UNL A   1      46.776  23.708  25.996  1.00  0.00     0.003 A 
ATOM     10  C   UNL A   1      46.013  22.710  25.394  1.00  0.00     0.016 A 
BRANCH   6  11
ATOM     11  N   UNL A   1      45.157  23.940  29.303  1.00  0.00    -0.278 N 
ATOM     12  H   UNL A   1      44.977  23.189  29.913  1.00  0.00     0.190 HD
BRANCH  11  13
ATOM     13  N   UNL A   1      45.245  25.193  29.833  1.00  0.00    -0.183 NA
ATOM     14  C   UNL A   1      44.154  25.653  30.365  1.00  0.00     0.141 C 
BRANCH  14  15
ATOM     15  C   UNL A   1      44.055  27.014  30.904  1.00  0.00    -0.002 A 
ATOM     16  C   UNL A   1      43.948  29.591  31.948  1.00  0.00     0.160 A 
ATOM     17  C   UNL A   1      42.831  28.757  32.033  1.00  0.00     0.051 A 
ATOM     18  C   UNL A   1      45.130  29.106  31.378  1.00  0.00     0.158 A 
ATOM     19  C   UNL A   1      42.884  27.458  31.521  1.00  0.00     0.014 A 
ATOM     20  C   UNL A   1      45.179  27.837  30.815  1.00  0.00     0.060 A 
BRANCH  16  21
ATOM     21  O   UNL A   1      43.832  30.833  32.512  1.00  0.00    -0.493 OA
ATOM     22  C   UNL A   1      43.767  30.817  33.940  1.00  0.00     0.278 C 
ENDBRANCH  16  21
BRANCH  18  23
ATOM     23  O   UNL A   1      46.295  29.818  31.413  1.00  0.00    -0.504 OA
ATOM     24  H   UNL A   1      46.897  29.767  30.697  1.00  0.00     0.293 HD
ENDBRANCH  18  23
ENDBRANCH  14  15
ENDBRANCH  11  13
ENDBRANCH   6  11
ENDBRANCH   3   5
ENDBRANCH   2   3
ENDBRANCH   1   2
BRANCH   1  25
ATOM     25  C   UNL A   1      40.897  19.547  26.115  1.00  0.00     0.275 C 
BRANCH  25  26
ATOM     26  O   UNL A   1      40.484  20.607  26.995  1.00  0.00    -0.458 OA
BRANCH  26  27
ATOM     27  C   UNL A   1      39.646  21.523  26.466  1.00  0.00     0.338 C 
ATOM     28  O   UNL A   1      38.731  21.325  25.671  1.00  0.00    -0.246 OA
BRANCH  27  29
ATOM     29  C   UNL A   1      39.941  22.841  27.038  1.00  0.00     0.060 A 
ATOM     30  C   UNL A   1      39.313  23.954  26.485  1.00  0.00     0.016 A 
ATOM     31  C   UNL A   1      40.919  23.002  28.017  1.00  0.00     0.016 A 
ATOM     32  C   UNL A   1      39.684  25.240  26.867  1.00  0.00     0.010 A 
ATOM     33  C   UNL A   1      41.265  24.296  28.433  1.00  0.00     0.010 A 
ATOM     34  C   UNL A   1      40.677  25.429  27.836  1.00  0.00    -0.014 A 
BRANCH  34  35
ATOM     35  C   UNL A   1      41.180  26.803  28.116  1.00  0.00     0.031 A 
ATOM     36  C   UNL A   1      42.557  27.199  27.643  1.00  0.00     0.074 A 
ATOM     37  C   UNL A   1      40.401  27.713  28.735  1.00  0.00     0.049 A 
ATOM     38  N   UNL A   1      43.227  28.300  27.864  1.00  0.00    -0.248 NA
ATOM     39  C   UNL A   1      43.280  26.213  26.824  1.00  0.00     0.031 C 
ATOM     40  C   UNL A   1      39.033  27.478  29.202  1.00  0.00     0.029 A 
ATOM     41  N   UNL A   1      40.644  29.023  29.072  1.00  0.00    -0.354 N 
ATOM     42  C   UNL A   1      44.469  28.119  27.263  1.00  0.00     0.074 A 
ATOM     43  C   UNL A   1      44.459  26.798  26.671  1.00  0.00     0.031 C 
ATOM     44  C   UNL A   1      38.554  28.609  29.747  1.00  0.00     0.029 A 
ATOM     45  C   UNL A   1      39.597  29.631  29.727  1.00  0.00     0.049 A 
ATOM     46  H   UNL A   1      41.490  29.484  28.865  1.00  0.00     0.167 HD
ATOM     47  C   UNL A   1      45.520  28.974  27.211  1.00  0.00     0.034 A 
ATOM     48  C   UNL A   1      39.498  30.858  30.278  1.00  0.00     0.034 A 
ATOM     49  C   UNL A   1      45.498  30.312  27.747  1.00  0.00     0.049 A 
ATOM     50  C   UNL A   1      40.681  31.793  30.200  1.00  0.00     0.074 A 
ATOM     51  C   UNL A   1      46.497  31.272  27.707  1.00  0.00     0.029 A 
ATOM     52  N   UNL A   1      44.424  30.887  28.412  1.00  0.00    -0.354 N 
ATOM     53  N   UNL A   1      41.858  31.594  29.650  1.00  0.00    -0.248 NA
ATOM     54  C   UNL A   1      40.525  33.116  30.818  1.00  0.00     0.031 C 
ATOM     55  C   UNL A   1      46.045  32.405  28.392  1.00  0.00     0.029 A 
ATOM     56  C   UNL A   1      44.743  32.178  28.807  1.00  0.00     0.049 A 
ATOM     57  H   UNL A   1      43.562  30.442  28.580  1.00  0.00     0.167 HD
ATOM     58  C   UNL A   1      42.573  32.772  29.849  1.00  0.00     0.074 A 
ATOM     59  C   UNL A   1      41.686  33.686  30.537  1.00  0.00     0.031 C 
ATOM     60  C   UNL A   1      43.852  33.071  29.504  1.00  0.00     0.034 A 
BRANCH  47  61
ATOM     61  C   UNL A   1      46.804  28.464  26.608  1.00  0.00     0.023 A 
ATOM     62  C   UNL A   1      46.999  28.371  25.220  1.00  0.00     0.031 A 
ATOM     63  C   UNL A   1      47.853  28.054  27.452  1.00  0.00     0.131 A 
ATOM     64  C   UNL A   1      48.193  27.829  24.719  1.00  0.00     0.055 A 
ATOM     65  C   UNL A   1      49.063  27.580  26.946  1.00  0.00     0.041 A 
ATOM     66  F   UNL A   1      47.714  28.104  28.787  1.00  0.00    -0.206 F 
ATOM     67  C   UNL A   1      49.236  27.454  25.571  1.00  0.00     0.022 A 
BRANCH  64  68
ATOM     68  S   UNL A   1      48.331  27.522  22.936  1.00  0.00     0.124 S 
ATOM     69  O   UNL A   1      47.153  28.217  22.425  1.00  0.00    -0.237 OA
ATOM     70  O   UNL A   1      49.619  28.124  22.610  1.00  0.00    -0.237 OA
ATOM     71  O   UNL A   1      48.281  26.064  22.834  1.00  0.00    -0.744 OA
ENDBRANCH  64  68
ENDBRANCH  47  61
BRANCH  48  72
ATOM     72  C   UNL A   1      38.267  31.266  31.017  1.00  0.00     0.023 A 
ATOM     73  C   UNL A   1      37.179  31.859  30.355  1.00  0.00     0.031 A 
ATOM     74  C   UNL A   1      38.196  31.140  32.417  1.00  0.00     0.131 A 
ATOM     75  C   UNL A   1      36.092  32.350  31.097  1.00  0.00     0.055 A 
ATOM     76  C   UNL A   1      37.087  31.577  33.143  1.00  0.00     0.041 A 
ATOM     77  F   UNL A   1      39.209  30.587  33.101  1.00  0.00    -0.206 F 
ATOM     78  C   UNL A   1      36.033  32.202  32.484  1.00  0.00     0.022 A 
BRANCH  75  79
ATOM     79  S   UNL A   1      34.802  33.289  30.232  1.00  0.00     0.124 S 
ATOM     80  O   UNL A   1      34.155  32.249  29.440  1.00  0.00    -0.237 OA
ATOM     81  O   UNL A   1      34.024  33.827  31.343  1.00  0.00    -0.237 OA
ATOM     82  O   UNL A   1      35.557  34.278  29.466  1.00  0.00    -0.744 OA
ENDBRANCH  75  79
ENDBRANCH  48  72
BRANCH  60  83
ATOM     83  C   UNL A   1      44.341  34.456  29.845  1.00  0.00     0.023 A 
ATOM     84  C   UNL A   1      44.822  34.771  31.129  1.00  0.00     0.031 A 
ATOM     85  C   UNL A   1      44.299  35.481  28.884  1.00  0.00     0.131 A 
ATOM     86  C   UNL A   1      45.183  36.092  31.435  1.00  0.00     0.055 A 
ATOM     87  C   UNL A   1      44.713  36.781  29.178  1.00  0.00     0.041 A 
ATOM     88  F   UNL A   1      43.849  35.235  27.643  1.00  0.00    -0.206 F 
ATOM     89  C   UNL A   1      45.145  37.095  30.465  1.00  0.00     0.022 A 
BRANCH  86  90
ATOM     90  S   UNL A   1      45.612  36.501  33.149  1.00  0.00     0.124 S 
ATOM     91  O   UNL A   1      45.587  37.960  33.130  1.00  0.00    -0.237 OA
ATOM     92  O   UNL A   1      44.541  35.855  33.901  1.00  0.00    -0.237 OA
ATOM     93  O   UNL A   1      46.936  35.906  33.322  1.00  0.00    -0.744 OA
ENDBRANCH  86  90
ENDBRANCH  60  83
ENDBRANCH  34  35
ENDBRANCH  27  29
ENDBRANCH  26  27
ENDBRANCH  25  26
ENDBRANCH   1  25
TORSDOF 19
ENDMDL
