MODEL 1
REMARK VINA RESULT:     -11.3      0.000      0.000
REMARK SMILES C[C@H](O)[C@@H](NC(=O)c1ccc(Cl)c(S(C)(=O)=O)c1)C(=O)OCCOC(=O)c1ccc(-c2c3nc(c(-c4cc(S(=O)(=O)[O-])ccc4F)c4ccc([nH]4)c(-c4cc(S(=O)(=O)[O-])ccc4F)c4nc(c(-c5cc(S(=O)(=O)[O-])ccc5F)c5ccc2[nH]5)C=C4)C=C3)cc1
REMARK SMILES IDX 22 1 21 2 19 3 20 4 4 5 2 6 1 7 3 8 5 10 6 11 7 13 8 14 9 15
REMARK SMILES IDX 18 16 10 17 13 18 11 19 12 20 14 21 15 22 16 23 17 24 23 25
REMARK SMILES IDX 24 26 25 27 26 28 27 29 28 30 89 31 29 32 88 33 30 34 31 35
REMARK SMILES IDX 32 36 82 37 33 38 87 39 81 40 83 41 34 42 86 43 80 44 79 45
REMARK SMILES IDX 35 47 67 48 47 49 66 50 48 51 51 52 65 53 84 54 49 55 50 56
REMARK SMILES IDX 64 58 85 59 52 60 36 61 37 62 45 63 38 64 44 65 46 66 43 67
REMARK SMILES IDX 39 68 40 69 41 70 42 71 68 72 69 73 77 74 70 75 76 76 78 77
REMARK SMILES IDX 75 78 71 79 72 80 73 81 74 82 53 83 54 84 62 85 55 86 61 87
REMARK SMILES IDX 63 88 60 89 56 90 57 91 58 92 59 93
REMARK H PARENT 3 9 5 12 83 46 51 57
REMARK Flexibility Score: inf
ROOT
ATOM      1  C   UNL A   1      31.804  29.662  25.230  1.00  0.00     0.274 C 
ENDROOT
BRANCH   1   2
ATOM      2  O   UNL A   1      32.476  28.471  25.700  1.00  0.00    -0.460 OA
BRANCH   2   3
ATOM      3  C   UNL A   1      31.660  27.409  25.908  1.00  0.00     0.331 C 
ATOM      4  O   UNL A   1      31.030  27.231  26.948  1.00  0.00    -0.250 OA
BRANCH   3   5
ATOM      5  C   UNL A   1      31.684  26.339  24.816  1.00  0.00     0.221 C 
BRANCH   5   6
ATOM      6  C   UNL A   1      30.363  26.201  24.022  1.00  0.00     0.145 C 
ATOM      7  C   UNL A   1      29.939  27.426  23.225  1.00  0.00     0.041 C 
BRANCH   6   8
ATOM      8  O   UNL A   1      29.312  25.888  24.961  1.00  0.00    -0.391 OA
ATOM      9  H   UNL A   1      28.497  25.683  24.477  1.00  0.00     0.211 HD
ENDBRANCH   6   8
ENDBRANCH   5   6
BRANCH   5  10
ATOM     10  N   UNL A   1      32.809  26.413  23.847  1.00  0.00    -0.336 N 
ATOM     11  C   UNL A   1      33.268  25.509  22.928  1.00  0.00     0.252 C 
ATOM     12  H   UNL A   1      33.310  27.260  23.871  1.00  0.00     0.164 HD
ATOM     13  O   UNL A   1      33.844  25.867  21.907  1.00  0.00    -0.269 OA
BRANCH  11  14
ATOM     14  C   UNL A   1      33.283  24.081  23.263  1.00  0.00     0.041 A 
ATOM     15  C   UNL A   1      32.433  23.171  22.642  1.00  0.00     0.015 A 
ATOM     16  C   UNL A   1      34.218  23.649  24.208  1.00  0.00     0.035 A 
ATOM     17  C   UNL A   1      32.460  21.831  23.045  1.00  0.00     0.023 A 
ATOM     18  C   UNL A   1      34.277  22.294  24.571  1.00  0.00     0.086 A 
ATOM     19  C   UNL A   1      33.378  21.382  24.009  1.00  0.00     0.059 A 
ATOM     20  Cl  UNL A   1      33.315  19.703  24.389  1.00  0.00    -0.083 Cl
BRANCH  18  21
ATOM     21  S   UNL A   1      35.529  21.856  25.751  1.00  0.00     0.177 S 
ATOM     22  C   UNL A   1      36.402  23.386  25.973  1.00  0.00     0.164 C 
ATOM     23  O   UNL A   1      34.853  21.552  26.998  1.00  0.00    -0.224 OA
ATOM     24  O   UNL A   1      36.437  20.881  25.184  1.00  0.00    -0.224 OA
ENDBRANCH  18  21
ENDBRANCH  11  14
ENDBRANCH   5  10
ENDBRANCH   3   5
ENDBRANCH   2   3
ENDBRANCH   1   2
BRANCH   1  25
ATOM     25  C   UNL A   1      31.709  30.820  26.236  1.00  0.00     0.275 C 
BRANCH  25  26
ATOM     26  O   UNL A   1      32.596  30.671  27.363  1.00  0.00    -0.458 OA
BRANCH  26  27
ATOM     27  C   UNL A   1      33.434  31.718  27.542  1.00  0.00     0.338 C 
ATOM     28  O   UNL A   1      33.110  32.888  27.669  1.00  0.00    -0.246 OA
BRANCH  27  29
ATOM     29  C   UNL A   1      34.833  31.291  27.717  1.00  0.00     0.060 A 
ATOM     30  C   UNL A   1      35.081  29.916  27.800  1.00  0.00     0.016 A 
ATOM     31  C   UNL A   1      35.837  32.209  28.017  1.00  0.00     0.016 A 
ATOM     32  C   UNL A   1      36.306  29.445  28.254  1.00  0.00     0.010 A 
ATOM     33  C   UNL A   1      37.074  31.736  28.471  1.00  0.00     0.010 A 
ATOM     34  C   UNL A   1      37.294  30.355  28.641  1.00  0.00    -0.014 A 
BRANCH  34  35
ATOM     35  C   UNL A   1      38.467  29.855  29.399  1.00  0.00     0.031 A 
ATOM     36  C   UNL A   1      38.705  30.380  30.789  1.00  0.00     0.074 A 
ATOM     37  C   UNL A   1      39.259  28.897  28.887  1.00  0.00     0.049 A 
ATOM     38  N   UNL A   1      39.701  30.156  31.606  1.00  0.00    -0.248 NA
ATOM     39  C   UNL A   1      37.675  31.283  31.329  1.00  0.00     0.031 C 
ATOM     40  C   UNL A   1      39.069  28.252  27.587  1.00  0.00     0.029 A 
ATOM     41  N   UNL A   1      40.380  28.298  29.399  1.00  0.00    -0.354 N 
ATOM     42  C   UNL A   1      39.434  30.909  32.746  1.00  0.00     0.074 A 
ATOM     43  C   UNL A   1      38.195  31.616  32.501  1.00  0.00     0.031 C 
ATOM     44  C   UNL A   1      40.048  27.351  27.402  1.00  0.00     0.029 A 
ATOM     45  C   UNL A   1      40.961  27.394  28.541  1.00  0.00     0.049 A 
ATOM     46  H   UNL A   1      40.736  28.497  30.296  1.00  0.00     0.167 HD
ATOM     47  C   UNL A   1      40.156  30.998  33.891  1.00  0.00     0.034 A 
ATOM     48  C   UNL A   1      42.115  26.708  28.652  1.00  0.00     0.034 A 
ATOM     49  C   UNL A   1      41.389  30.279  34.113  1.00  0.00     0.049 A 
ATOM     50  C   UNL A   1      42.947  26.888  29.899  1.00  0.00     0.074 A 
ATOM     51  C   UNL A   1      42.216  30.301  35.222  1.00  0.00     0.029 A 
ATOM     52  N   UNL A   1      41.974  29.409  33.200  1.00  0.00    -0.354 N 
ATOM     53  N   UNL A   1      42.709  27.635  30.954  1.00  0.00    -0.248 NA
ATOM     54  C   UNL A   1      44.198  26.125  29.971  1.00  0.00     0.031 C 
ATOM     55  C   UNL A   1      43.330  29.498  34.955  1.00  0.00     0.029 A 
ATOM     56  C   UNL A   1      43.162  28.909  33.712  1.00  0.00     0.049 A 
ATOM     57  H   UNL A   1      41.600  29.180  32.320  1.00  0.00     0.167 HD
ATOM     58  C   UNL A   1      43.772  27.409  31.826  1.00  0.00     0.074 A 
ATOM     59  C   UNL A   1      44.633  26.438  31.182  1.00  0.00     0.031 C 
ATOM     60  C   UNL A   1      44.017  27.952  33.046  1.00  0.00     0.034 A 
BRANCH  47  61
ATOM     61  C   UNL A   1      39.659  31.955  34.950  1.00  0.00     0.023 A 
ATOM     62  C   UNL A   1      40.147  33.269  35.055  1.00  0.00     0.031 A 
ATOM     63  C   UNL A   1      38.717  31.527  35.903  1.00  0.00     0.131 A 
ATOM     64  C   UNL A   1      39.752  34.080  36.132  1.00  0.00     0.055 A 
ATOM     65  C   UNL A   1      38.265  32.366  36.923  1.00  0.00     0.041 A 
ATOM     66  F   UNL A   1      38.233  30.275  35.871  1.00  0.00    -0.206 F 
ATOM     67  C   UNL A   1      38.795  33.646  37.052  1.00  0.00     0.022 A 
BRANCH  64  68
ATOM     68  S   UNL A   1      40.621  35.649  36.401  1.00  0.00     0.124 S 
ATOM     69  O   UNL A   1      40.789  35.650  37.851  1.00  0.00    -0.237 OA
ATOM     70  O   UNL A   1      41.838  35.473  35.617  1.00  0.00    -0.237 OA
ATOM     71  O   UNL A   1      39.688  36.651  35.887  1.00  0.00    -0.744 OA
ENDBRANCH  64  68
ENDBRANCH  47  61
BRANCH  48  72
ATOM     72  C   UNL A   1      42.588  25.834  27.539  1.00  0.00     0.023 A 
ATOM     73  C   UNL A   1      42.125  24.516  27.403  1.00  0.00     0.031 A 
ATOM     74  C   UNL A   1      43.559  26.289  26.629  1.00  0.00     0.131 A 
ATOM     75  C   UNL A   1      42.667  23.684  26.410  1.00  0.00     0.055 A 
ATOM     76  C   UNL A   1      44.054  25.475  25.608  1.00  0.00     0.041 A 
ATOM     77  F   UNL A   1      44.039  27.540  26.714  1.00  0.00    -0.206 F 
ATOM     78  C   UNL A   1      43.617  24.158  25.503  1.00  0.00     0.022 A 
BRANCH  75  79
ATOM     79  S   UNL A   1      42.175  21.938  26.379  1.00  0.00     0.124 S 
ATOM     80  O   UNL A   1      42.989  21.420  25.286  1.00  0.00    -0.237 OA
ATOM     81  O   UNL A   1      42.545  21.497  27.719  1.00  0.00    -0.237 OA
ATOM     82  O   UNL A   1      40.739  21.994  26.118  1.00  0.00    -0.744 OA
ENDBRANCH  75  79
ENDBRANCH  48  72
BRANCH  60  83
ATOM     83  C   UNL A   1      45.249  27.463  33.771  1.00  0.00     0.023 A 
ATOM     84  C   UNL A   1      45.210  26.345  34.623  1.00  0.00     0.031 A 
ATOM     85  C   UNL A   1      46.469  28.152  33.641  1.00  0.00     0.131 A 
ATOM     86  C   UNL A   1      46.345  25.997  35.372  1.00  0.00     0.055 A 
ATOM     87  C   UNL A   1      47.614  27.756  34.333  1.00  0.00     0.041 A 
ATOM     88  F   UNL A   1      46.566  29.227  32.843  1.00  0.00    -0.206 F 
ATOM     89  C   UNL A   1      47.551  26.685  35.219  1.00  0.00     0.022 A 
BRANCH  86  90
ATOM     90  S   UNL A   1      46.185  24.713  36.643  1.00  0.00     0.124 S 
ATOM     91  O   UNL A   1      44.865  24.162  36.353  1.00  0.00    -0.237 OA
ATOM     92  O   UNL A   1      47.318  23.841  36.350  1.00  0.00    -0.237 OA
ATOM     93  O   UNL A   1      46.284  25.458  37.897  1.00  0.00    -0.744 OA
ENDBRANCH  86  90
ENDBRANCH  60  83
ENDBRANCH  34  35
ENDBRANCH  27  29
ENDBRANCH  26  27
ENDBRANCH  25  26
ENDBRANCH   1  25
TORSDOF 19
ENDMDL
MODEL 2
REMARK VINA RESULT:     -11.3      4.510      7.358
REMARK SMILES C[C@H](O)[C@@H](NC(=O)c1ccc(Cl)c(S(C)(=O)=O)c1)C(=O)OCCOC(=O)c1ccc(-c2c3nc(c(-c4cc(S(=O)(=O)[O-])ccc4F)c4ccc([nH]4)c(-c4cc(S(=O)(=O)[O-])ccc4F)c4nc(c(-c5cc(S(=O)(=O)[O-])ccc5F)c5ccc2[nH]5)C=C4)C=C3)cc1
REMARK SMILES IDX 22 1 21 2 19 3 20 4 4 5 2 6 1 7 3 8 5 10 6 11 7 13 8 14 9 15
REMARK SMILES IDX 18 16 10 17 13 18 11 19 12 20 14 21 15 22 16 23 17 24 23 25
REMARK SMILES IDX 24 26 25 27 26 28 27 29 28 30 89 31 29 32 88 33 30 34 31 35
REMARK SMILES IDX 32 36 82 37 33 38 87 39 81 40 83 41 34 42 86 43 80 44 79 45
REMARK SMILES IDX 35 47 67 48 47 49 66 50 48 51 51 52 65 53 84 54 49 55 50 56
REMARK SMILES IDX 64 58 85 59 52 60 36 61 37 62 45 63 38 64 44 65 46 66 43 67
REMARK SMILES IDX 39 68 40 69 41 70 42 71 68 72 69 73 77 74 70 75 76 76 78 77
REMARK SMILES IDX 75 78 71 79 72 80 73 81 74 82 53 83 54 84 62 85 55 86 61 87
REMARK SMILES IDX 63 88 60 89 56 90 57 91 58 92 59 93
REMARK H PARENT 3 9 5 12 83 46 51 57
REMARK Flexibility Score: inf
ROOT
ATOM      1  C   UNL A   1      35.970  21.307  24.628  1.00  0.00     0.274 C 
ENDROOT
BRANCH   1   2
ATOM      2  O   UNL A   1      35.311  22.572  24.863  1.00  0.00    -0.460 OA
BRANCH   2   3
ATOM      3  C   UNL A   1      34.577  23.028  23.819  1.00  0.00     0.331 C 
ATOM      4  O   UNL A   1      35.058  23.315  22.726  1.00  0.00    -0.250 OA
BRANCH   3   5
ATOM      5  C   UNL A   1      33.108  23.320  24.127  1.00  0.00     0.221 C 
BRANCH   5   6
ATOM      6  C   UNL A   1      32.116  22.261  23.589  1.00  0.00     0.145 C 
ATOM      7  C   UNL A   1      32.298  20.850  24.128  1.00  0.00     0.041 C 
BRANCH   6   8
ATOM      8  O   UNL A   1      32.251  22.216  22.153  1.00  0.00    -0.391 OA
ATOM      9  H   UNL A   1      32.877  22.898  21.865  1.00  0.00     0.211 HD
ENDBRANCH   6   8
ENDBRANCH   5   6
BRANCH   5  10
ATOM     10  N   UNL A   1      32.776  23.595  25.549  1.00  0.00    -0.336 N 
ATOM     11  C   UNL A   1      31.743  24.289  26.116  1.00  0.00     0.252 C 
ATOM     12  H   UNL A   1      33.411  23.210  26.196  1.00  0.00     0.164 HD
ATOM     13  O   UNL A   1      31.331  24.026  27.241  1.00  0.00    -0.269 OA
BRANCH  11  14
ATOM     14  C   UNL A   1      31.259  25.518  25.475  1.00  0.00     0.041 A 
ATOM     15  C   UNL A   1      30.079  25.547  24.738  1.00  0.00     0.015 A 
ATOM     16  C   UNL A   1      32.007  26.683  25.664  1.00  0.00     0.035 A 
ATOM     17  C   UNL A   1      29.701  26.737  24.108  1.00  0.00     0.023 A 
ATOM     18  C   UNL A   1      31.595  27.887  25.073  1.00  0.00     0.086 A 
ATOM     19  C   UNL A   1      30.451  27.913  24.269  1.00  0.00     0.059 A 
ATOM     20  Cl  UNL A   1      29.854  29.309  23.455  1.00  0.00    -0.083 Cl
BRANCH  18  21
ATOM     21  S   UNL A   1      32.602  29.309  25.414  1.00  0.00     0.177 S 
ATOM     22  C   UNL A   1      33.701  28.709  26.673  1.00  0.00     0.164 C 
ATOM     23  O   UNL A   1      33.394  29.566  24.226  1.00  0.00    -0.224 OA
ATOM     24  O   UNL A   1      31.796  30.376  25.971  1.00  0.00    -0.224 OA
ENDBRANCH  18  21
ENDBRANCH  11  14
ENDBRANCH   5  10
ENDBRANCH   3   5
ENDBRANCH   2   3
ENDBRANCH   1   2
BRANCH   1  25
ATOM     25  C   UNL A   1      37.156  20.986  25.550  1.00  0.00     0.275 C 
BRANCH  25  26
ATOM     26  O   UNL A   1      38.339  21.752  25.247  1.00  0.00    -0.458 OA
BRANCH  26  27
ATOM     27  C   UNL A   1      39.365  21.538  26.103  1.00  0.00     0.338 C 
ATOM     28  O   UNL A   1      40.051  20.531  26.168  1.00  0.00    -0.246 OA
BRANCH  27  29
ATOM     29  C   UNL A   1      39.689  22.735  26.896  1.00  0.00     0.060 A 
ATOM     30  C   UNL A   1      39.078  23.939  26.526  1.00  0.00     0.016 A 
ATOM     31  C   UNL A   1      40.727  22.726  27.827  1.00  0.00     0.016 A 
ATOM     32  C   UNL A   1      39.545  25.149  27.022  1.00  0.00     0.010 A 
ATOM     33  C   UNL A   1      41.196  23.946  28.331  1.00  0.00     0.010 A 
ATOM     34  C   UNL A   1      40.641  25.163  27.889  1.00  0.00    -0.014 A 
BRANCH  34  35
ATOM     35  C   UNL A   1      41.315  26.455  28.168  1.00  0.00     0.031 A 
ATOM     36  C   UNL A   1      40.543  27.532  28.881  1.00  0.00     0.074 A 
ATOM     37  C   UNL A   1      42.611  26.635  27.858  1.00  0.00     0.049 A 
ATOM     38  N   UNL A   1      40.890  28.762  29.158  1.00  0.00    -0.248 NA
ATOM     39  C   UNL A   1      39.194  27.169  29.344  1.00  0.00     0.031 C 
ATOM     40  C   UNL A   1      43.479  25.629  27.247  1.00  0.00     0.029 A 
ATOM     41  N   UNL A   1      43.422  27.728  28.018  1.00  0.00    -0.354 N 
ATOM     42  C   UNL A   1      39.795  29.329  29.804  1.00  0.00     0.074 A 
ATOM     43  C   UNL A   1      38.764  28.313  29.852  1.00  0.00     0.031 C 
ATOM     44  C   UNL A   1      44.703  26.156  27.077  1.00  0.00     0.029 A 
ATOM     45  C   UNL A   1      44.690  27.549  27.515  1.00  0.00     0.049 A 
ATOM     46  H   UNL A   1      43.126  28.561  28.451  1.00  0.00     0.167 HD
ATOM     47  C   UNL A   1      39.665  30.580  30.312  1.00  0.00     0.034 A 
ATOM     48  C   UNL A   1      45.708  28.423  27.393  1.00  0.00     0.034 A 
ATOM     49  C   UNL A   1      40.710  31.575  30.254  1.00  0.00     0.049 A 
ATOM     50  C   UNL A   1      45.512  29.836  27.887  1.00  0.00     0.074 A 
ATOM     51  C   UNL A   1      40.690  32.879  30.718  1.00  0.00     0.029 A 
ATOM     52  N   UNL A   1      41.966  31.375  29.692  1.00  0.00    -0.354 N 
ATOM     53  N   UNL A   1      44.458  30.377  28.457  1.00  0.00    -0.248 NA
ATOM     54  C   UNL A   1      46.647  30.753  27.727  1.00  0.00     0.031 C 
ATOM     55  C   UNL A   1      41.905  33.485  30.379  1.00  0.00     0.029 A 
ATOM     56  C   UNL A   1      42.717  32.537  29.775  1.00  0.00     0.049 A 
ATOM     57  H   UNL A   1      42.276  30.531  29.293  1.00  0.00     0.167 HD
ATOM     58  C   UNL A   1      44.816  31.691  28.747  1.00  0.00     0.074 A 
ATOM     59  C   UNL A   1      46.190  31.849  28.311  1.00  0.00     0.031 C 
ATOM     60  C   UNL A   1      44.081  32.680  29.320  1.00  0.00     0.034 A 
BRANCH  47  61
ATOM     61  C   UNL A   1      38.326  30.951  30.907  1.00  0.00     0.023 A 
ATOM     62  C   UNL A   1      37.306  31.539  30.138  1.00  0.00     0.031 A 
ATOM     63  C   UNL A   1      38.085  30.758  32.278  1.00  0.00     0.131 A 
ATOM     64  C   UNL A   1      36.128  31.983  30.759  1.00  0.00     0.055 A 
ATOM     65  C   UNL A   1      36.877  31.126  32.875  1.00  0.00     0.041 A 
ATOM     66  F   UNL A   1      39.029  30.224  33.070  1.00  0.00    -0.206 F 
ATOM     67  C   UNL A   1      35.896  31.758  32.117  1.00  0.00     0.022 A 
BRANCH  64  68
ATOM     68  S   UNL A   1      34.970  32.997  29.798  1.00  0.00     0.124 S 
ATOM     69  O   UNL A   1      34.068  33.482  30.839  1.00  0.00    -0.237 OA
ATOM     70  O   UNL A   1      35.848  33.995  29.199  1.00  0.00    -0.237 OA
ATOM     71  O   UNL A   1      34.376  32.045  28.861  1.00  0.00    -0.744 OA
ENDBRANCH  64  68
ENDBRANCH  47  61
BRANCH  48  72
ATOM     72  C   UNL A   1      46.981  28.017  26.730  1.00  0.00     0.023 A 
ATOM     73  C   UNL A   1      47.117  28.052  25.334  1.00  0.00     0.031 A 
ATOM     74  C   UNL A   1      48.063  27.529  27.486  1.00  0.00     0.131 A 
ATOM     75  C   UNL A   1      48.289  27.563  24.733  1.00  0.00     0.055 A 
ATOM     76  C   UNL A   1      49.248  27.097  26.887  1.00  0.00     0.041 A 
ATOM     77  F   UNL A   1      47.986  27.472  28.825  1.00  0.00    -0.206 F 
ATOM     78  C   UNL A   1      49.360  27.100  25.500  1.00  0.00     0.022 A 
BRANCH  75  79
ATOM     79  S   UNL A   1      48.357  27.457  22.924  1.00  0.00     0.124 S 
ATOM     80  O   UNL A   1      49.640  28.086  22.637  1.00  0.00    -0.237 OA
ATOM     81  O   UNL A   1      48.284  26.017  22.703  1.00  0.00    -0.237 OA
ATOM     82  O   UNL A   1      47.181  28.211  22.495  1.00  0.00    -0.744 OA
ENDBRANCH  75  79
ENDBRANCH  48  72
BRANCH  60  83
ATOM     83  C   UNL A   1      44.779  34.002  29.541  1.00  0.00     0.023 A 
ATOM     84  C   UNL A   1      45.399  34.314  30.764  1.00  0.00     0.031 A 
ATOM     85  C   UNL A   1      44.784  34.979  28.529  1.00  0.00     0.131 A 
ATOM     86  C   UNL A   1      45.929  35.596  30.971  1.00  0.00     0.055 A 
ATOM     87  C   UNL A   1      45.376  36.229  28.717  1.00  0.00     0.041 A 
ATOM     88  F   UNL A   1      44.206  34.738  27.342  1.00  0.00    -0.206 F 
ATOM     89  C   UNL A   1      45.937  36.550  29.950  1.00  0.00     0.022 A 
BRANCH  86  90
ATOM     90  S   UNL A   1      46.492  36.044  32.637  1.00  0.00     0.124 S 
ATOM     91  O   UNL A   1      46.046  34.899  33.425  1.00  0.00    -0.237 OA
ATOM     92  O   UNL A   1      47.934  36.171  32.455  1.00  0.00    -0.237 OA
ATOM     93  O   UNL A   1      45.789  37.296  32.912  1.00  0.00    -0.744 OA
ENDBRANCH  86  90
ENDBRANCH  60  83
ENDBRANCH  34  35
ENDBRANCH  27  29
ENDBRANCH  26  27
ENDBRANCH  25  26
ENDBRANCH   1  25
TORSDOF 19
ENDMDL
MODEL 3
REMARK VINA RESULT:     -11.3      4.473      7.408
REMARK SMILES C[C@H](O)[C@@H](NC(=O)c1ccc(Cl)c(S(C)(=O)=O)c1)C(=O)OCCOC(=O)c1ccc(-c2c3nc(c(-c4cc(S(=O)(=O)[O-])ccc4F)c4ccc([nH]4)c(-c4cc(S(=O)(=O)[O-])ccc4F)c4nc(c(-c5cc(S(=O)(=O)[O-])ccc5F)c5ccc2[nH]5)C=C4)C=C3)cc1
REMARK SMILES IDX 22 1 21 2 19 3 20 4 4 5 2 6 1 7 3 8 5 10 6 11 7 13 8 14 9 15
REMARK SMILES IDX 18 16 10 17 13 18 11 19 12 20 14 21 15 22 16 23 17 24 23 25
REMARK SMILES IDX 24 26 25 27 26 28 27 29 28 30 89 31 29 32 88 33 30 34 31 35
REMARK SMILES IDX 32 36 82 37 33 38 87 39 81 40 83 41 34 42 86 43 80 44 79 45
REMARK SMILES IDX 35 47 67 48 47 49 66 50 48 51 51 52 65 53 84 54 49 55 50 56
REMARK SMILES IDX 64 58 85 59 52 60 36 61 37 62 45 63 38 64 44 65 46 66 43 67
REMARK SMILES IDX 39 68 40 69 41 70 42 71 68 72 69 73 77 74 70 75 76 76 78 77
REMARK SMILES IDX 75 78 71 79 72 80 73 81 74 82 53 83 54 84 62 85 55 86 61 87
REMARK SMILES IDX 63 88 60 89 56 90 57 91 58 92 59 93
REMARK H PARENT 3 9 5 12 83 46 51 57
REMARK Flexibility Score: inf
ROOT
ATOM      1  C   UNL A   1      36.083  20.079  24.970  1.00  0.00     0.274 C 
ENDROOT
BRANCH   1   2
ATOM      2  O   UNL A   1      35.546  21.298  25.533  1.00  0.00    -0.460 OA
BRANCH   2   3
ATOM      3  C   UNL A   1      34.801  22.035  24.673  1.00  0.00     0.331 C 
ATOM      4  O   UNL A   1      35.284  22.757  23.805  1.00  0.00    -0.250 OA
BRANCH   3   5
ATOM      5  C   UNL A   1      33.297  22.040  24.946  1.00  0.00     0.221 C 
BRANCH   5   6
ATOM      6  C   UNL A   1      32.618  20.655  24.833  1.00  0.00     0.145 C 
ATOM      7  C   UNL A   1      32.295  20.190  23.421  1.00  0.00     0.041 C 
BRANCH   6   8
ATOM      8  O   UNL A   1      31.386  20.702  25.585  1.00  0.00    -0.391 OA
ATOM      9  H   UNL A   1      30.755  20.067  25.212  1.00  0.00     0.211 HD
ENDBRANCH   6   8
ENDBRANCH   5   6
BRANCH   5  10
ATOM     10  N   UNL A   1      32.861  22.674  26.218  1.00  0.00    -0.336 N 
ATOM     11  C   UNL A   1      32.214  23.855  26.462  1.00  0.00     0.252 C 
ATOM     12  H   UNL A   1      33.075  22.153  27.026  1.00  0.00     0.164 HD
ATOM     13  O   UNL A   1      31.507  24.009  27.451  1.00  0.00    -0.269 OA
BRANCH  11  14
ATOM     14  C   UNL A   1      32.543  25.039  25.659  1.00  0.00     0.041 A 
ATOM     15  C   UNL A   1      33.840  25.537  25.581  1.00  0.00     0.015 A 
ATOM     16  C   UNL A   1      31.508  25.635  24.933  1.00  0.00     0.035 A 
ATOM     17  C   UNL A   1      34.077  26.701  24.842  1.00  0.00     0.023 A 
ATOM     18  C   UNL A   1      31.762  26.772  24.150  1.00  0.00     0.086 A 
ATOM     19  C   UNL A   1      33.045  27.326  24.123  1.00  0.00     0.059 A 
ATOM     20  Cl  UNL A   1      33.488  28.736  23.237  1.00  0.00    -0.083 Cl
BRANCH  18  21
ATOM     21  S   UNL A   1      30.380  27.419  23.242  1.00  0.00     0.177 S 
ATOM     22  C   UNL A   1      30.300  29.099  23.808  1.00  0.00     0.164 C 
ATOM     23  O   UNL A   1      30.763  27.444  21.843  1.00  0.00    -0.224 OA
ATOM     24  O   UNL A   1      29.161  26.739  23.629  1.00  0.00    -0.224 OA
ENDBRANCH  18  21
ENDBRANCH  11  14
ENDBRANCH   5  10
ENDBRANCH   3   5
ENDBRANCH   2   3
ENDBRANCH   1   2
BRANCH   1  25
ATOM     25  C   UNL A   1      37.613  20.022  24.832  1.00  0.00     0.275 C 
BRANCH  25  26
ATOM     26  O   UNL A   1      38.270  21.234  25.250  1.00  0.00    -0.458 OA
BRANCH  26  27
ATOM     27  C   UNL A   1      39.352  21.029  26.036  1.00  0.00     0.338 C 
ATOM     28  O   UNL A   1      40.049  20.027  26.054  1.00  0.00    -0.246 OA
BRANCH  27  29
ATOM     29  C   UNL A   1      39.719  22.228  26.807  1.00  0.00     0.060 A 
ATOM     30  C   UNL A   1      39.162  23.448  26.405  1.00  0.00     0.016 A 
ATOM     31  C   UNL A   1      40.746  22.196  27.749  1.00  0.00     0.016 A 
ATOM     32  C   UNL A   1      39.674  24.648  26.880  1.00  0.00     0.010 A 
ATOM     33  C   UNL A   1      41.261  23.406  28.231  1.00  0.00     0.010 A 
ATOM     34  C   UNL A   1      40.762  24.636  27.758  1.00  0.00    -0.014 A 
BRANCH  34  35
ATOM     35  C   UNL A   1      41.486  25.904  28.016  1.00  0.00     0.031 A 
ATOM     36  C   UNL A   1      40.779  26.998  28.771  1.00  0.00     0.074 A 
ATOM     37  C   UNL A   1      42.772  26.047  27.652  1.00  0.00     0.049 A 
ATOM     38  N   UNL A   1      41.175  28.214  29.042  1.00  0.00    -0.248 NA
ATOM     39  C   UNL A   1      39.441  26.671  29.290  1.00  0.00     0.031 C 
ATOM     40  C   UNL A   1      43.582  25.021  26.996  1.00  0.00     0.029 A 
ATOM     41  N   UNL A   1      43.623  27.114  27.784  1.00  0.00    -0.354 N 
ATOM     42  C   UNL A   1      40.127  28.808  29.739  1.00  0.00     0.074 A 
ATOM     43  C   UNL A   1      39.069  27.823  29.825  1.00  0.00     0.031 C 
ATOM     44  C   UNL A   1      44.813  25.512  26.776  1.00  0.00     0.029 A 
ATOM     45  C   UNL A   1      44.861  26.901  27.225  1.00  0.00     0.049 A 
ATOM     46  H   UNL A   1      43.372  27.952  28.236  1.00  0.00     0.167 HD
ATOM     47  C   UNL A   1      40.058  30.058  30.261  1.00  0.00     0.034 A 
ATOM     48  C   UNL A   1      45.899  27.745  27.065  1.00  0.00     0.034 A 
ATOM     49  C   UNL A   1      41.129  31.022  30.165  1.00  0.00     0.049 A 
ATOM     50  C   UNL A   1      45.768  29.159  27.578  1.00  0.00     0.074 A 
ATOM     51  C   UNL A   1      41.169  32.321  30.639  1.00  0.00     0.029 A 
ATOM     52  N   UNL A   1      42.352  30.788  29.547  1.00  0.00    -0.354 N 
ATOM     53  N   UNL A   1      44.757  29.726  28.197  1.00  0.00    -0.248 NA
ATOM     54  C   UNL A   1      46.922  30.042  27.375  1.00  0.00     0.031 C 
ATOM     55  C   UNL A   1      42.386  32.893  30.252  1.00  0.00     0.029 A 
ATOM     56  C   UNL A   1      43.142  31.927  29.606  1.00  0.00     0.049 A 
ATOM     57  H   UNL A   1      42.619  29.939  29.129  1.00  0.00     0.167 HD
ATOM     58  C   UNL A   1      45.167  31.026  28.481  1.00  0.00     0.074 A 
ATOM     59  C   UNL A   1      46.525  31.147  27.987  1.00  0.00     0.031 C 
ATOM     60  C   UNL A   1      44.489  32.032  29.092  1.00  0.00     0.034 A 
BRANCH  47  61
ATOM     61  C   UNL A   1      38.758  30.463  30.917  1.00  0.00     0.023 A 
ATOM     62  C   UNL A   1      37.699  31.031  30.185  1.00  0.00     0.031 A 
ATOM     63  C   UNL A   1      38.594  30.325  32.306  1.00  0.00     0.131 A 
ATOM     64  C   UNL A   1      36.562  31.510  30.855  1.00  0.00     0.055 A 
ATOM     65  C   UNL A   1      37.426  30.727  32.956  1.00  0.00     0.041 A 
ATOM     66  F   UNL A   1      39.578  29.814  33.063  1.00  0.00    -0.206 F 
ATOM     67  C   UNL A   1      36.407  31.339  32.232  1.00  0.00     0.022 A 
BRANCH  64  68
ATOM     68  S   UNL A   1      35.358  32.497  29.923  1.00  0.00     0.124 S 
ATOM     69  O   UNL A   1      34.342  32.759  30.939  1.00  0.00    -0.237 OA
ATOM     70  O   UNL A   1      36.152  33.646  29.503  1.00  0.00    -0.237 OA
ATOM     71  O   UNL A   1      34.939  31.601  28.847  1.00  0.00    -0.744 OA
ENDBRANCH  64  68
ENDBRANCH  47  61
BRANCH  48  72
ATOM     72  C   UNL A   1      47.129  27.306  26.344  1.00  0.00     0.023 A 
ATOM     73  C   UNL A   1      48.109  26.531  26.983  1.00  0.00     0.031 A 
ATOM     74  C   UNL A   1      47.370  27.709  25.017  1.00  0.00     0.131 A 
ATOM     75  C   UNL A   1      49.304  26.223  26.313  1.00  0.00     0.055 A 
ATOM     76  C   UNL A   1      48.535  27.352  24.336  1.00  0.00     0.041 A 
ATOM     77  F   UNL A   1      46.467  28.453  24.359  1.00  0.00    -0.206 F 
ATOM     78  C   UNL A   1      49.517  26.616  24.990  1.00  0.00     0.022 A 
BRANCH  75  79
ATOM     79  S   UNL A   1      50.619  25.375  27.231  1.00  0.00     0.124 S 
ATOM     80  O   UNL A   1      51.079  26.426  28.130  1.00  0.00    -0.237 OA
ATOM     81  O   UNL A   1      49.891  24.273  27.851  1.00  0.00    -0.237 OA
ATOM     82  O   UNL A   1      51.564  24.985  26.187  1.00  0.00    -0.744 OA
ENDBRANCH  75  79
ENDBRANCH  48  72
BRANCH  60  83
ATOM     83  C   UNL A   1      45.235  33.330  29.293  1.00  0.00     0.023 A 
ATOM     84  C   UNL A   1      45.989  33.577  30.453  1.00  0.00     0.031 A 
ATOM     85  C   UNL A   1      45.154  34.351  28.328  1.00  0.00     0.131 A 
ATOM     86  C   UNL A   1      46.566  34.840  30.656  1.00  0.00     0.055 A 
ATOM     87  C   UNL A   1      45.791  35.581  28.504  1.00  0.00     0.041 A 
ATOM     88  F   UNL A   1      44.447  34.173  27.201  1.00  0.00    -0.206 F 
ATOM     89  C   UNL A   1      46.486  35.837  29.682  1.00  0.00     0.022 A 
BRANCH  86  90
ATOM     90  S   UNL A   1      47.314  35.203  32.269  1.00  0.00     0.124 S 
ATOM     91  O   UNL A   1      47.971  36.482  32.016  1.00  0.00    -0.237 OA
ATOM     92  O   UNL A   1      46.150  35.248  33.149  1.00  0.00    -0.237 OA
ATOM     93  O   UNL A   1      48.217  34.075  32.491  1.00  0.00    -0.744 OA
ENDBRANCH  86  90
ENDBRANCH  60  83
ENDBRANCH  34  35
ENDBRANCH  27  29
ENDBRANCH  26  27
ENDBRANCH  25  26
ENDBRANCH   1  25
TORSDOF 19
ENDMDL
