MODEL 1
REMARK VINA RESULT:     -10.8      0.000      0.000
REMARK SMILES O=C(OCCOC(=O)[C@H](F)Sc1cc2ccccc2[nH]1)c1ccc(-c2c3nc(c(-c4cc(S(=O)(=O)[O-])ccc4F)c4ccc([nH]4)c(-c4cc(S(=O)(=O)[O-])ccc4F)c4nc(c(-c5cc(S(=O)(=O)[O-])ccc5F)c5ccc2[nH]5)C=C4)C=C3)cc1
REMARK SMILES IDX 4 1 3 2 2 3 1 4 21 5 22 6 83 7 23 8 82 9 24 10 25 11 26 12
REMARK SMILES IDX 76 13 27 14 81 15 75 16 77 17 28 18 80 19 74 20 73 21 29 23
REMARK SMILES IDX 61 24 41 25 60 26 42 27 45 28 59 29 78 30 43 31 44 32 58 34
REMARK SMILES IDX 79 35 46 36 30 37 31 38 39 39 32 40 38 41 40 42 37 43 33 44
REMARK SMILES IDX 34 45 35 46 36 47 62 48 63 49 71 50 64 51 70 52 72 53 69 54
REMARK SMILES IDX 65 55 66 56 67 57 68 58 47 59 48 60 56 61 49 62 55 63 57 64
REMARK SMILES IDX 54 65 50 66 51 67 52 68 53 69 5 70 6 71 7 72 8 73 9 74 10 75
REMARK SMILES IDX 11 76 12 77 13 78 20 79 14 80 19 81 15 83 18 84 16 85 17 86
REMARK H PARENT 77 22 45 33 20 82
REMARK Flexibility Score: inf
ROOT
ATOM      1  C   UNL A   1      34.677  34.273  28.552  1.00  0.00     0.275 C 
ENDROOT
BRANCH   1   2
ATOM      2  O   UNL A   1      34.577  33.243  27.550  1.00  0.00    -0.458 OA
BRANCH   2   3
ATOM      3  C   UNL A   1      34.524  31.898  27.726  1.00  0.00     0.338 C 
ATOM      4  O   UNL A   1      33.431  31.337  27.657  1.00  0.00    -0.246 OA
BRANCH   3   5
ATOM      5  C   UNL A   1      35.700  31.104  28.218  1.00  0.00     0.060 A 
ATOM      6  C   UNL A   1      35.659  29.806  28.737  1.00  0.00     0.016 A 
ATOM      7  C   UNL A   1      36.960  31.725  28.114  1.00  0.00     0.016 A 
ATOM      8  C   UNL A   1      36.827  29.115  29.063  1.00  0.00     0.010 A 
ATOM      9  C   UNL A   1      38.135  31.051  28.470  1.00  0.00     0.010 A 
ATOM     10  C   UNL A   1      38.068  29.738  28.945  1.00  0.00    -0.014 A 
BRANCH  10  11
ATOM     11  C   UNL A   1      39.243  29.089  29.557  1.00  0.00     0.031 A 
ATOM     12  C   UNL A   1      39.689  29.608  30.890  1.00  0.00     0.074 A 
ATOM     13  C   UNL A   1      39.841  28.034  28.978  1.00  0.00     0.049 A 
ATOM     14  N   UNL A   1      40.688  29.232  31.639  1.00  0.00    -0.248 NA
ATOM     15  C   UNL A   1      38.884  30.704  31.452  1.00  0.00     0.031 C 
ATOM     16  C   UNL A   1      39.423  27.411  27.724  1.00  0.00     0.029 A 
ATOM     17  N   UNL A   1      40.930  27.300  29.369  1.00  0.00    -0.354 N 
ATOM     18  C   UNL A   1      40.632  30.046  32.765  1.00  0.00     0.074 A 
ATOM     19  C   UNL A   1      39.524  30.956  32.579  1.00  0.00     0.031 C 
ATOM     20  C   UNL A   1      40.259  26.399  27.437  1.00  0.00     0.029 A 
ATOM     21  C   UNL A   1      41.296  26.330  28.464  1.00  0.00     0.049 A 
ATOM     22  H   UNL A   1      41.407  27.453  30.216  1.00  0.00     0.167 HD
ATOM     23  C   UNL A   1      41.440  30.033  33.853  1.00  0.00     0.034 A 
ATOM     24  C   UNL A   1      42.367  25.510  28.457  1.00  0.00     0.034 A 
ATOM     25  C   UNL A   1      42.577  29.157  33.968  1.00  0.00     0.049 A 
ATOM     26  C   UNL A   1      43.334  25.595  29.616  1.00  0.00     0.074 A 
ATOM     27  C   UNL A   1      43.510  29.078  34.982  1.00  0.00     0.029 A 
ATOM     28  N   UNL A   1      42.950  28.223  33.005  1.00  0.00    -0.354 N 
ATOM     29  N   UNL A   1      43.288  26.377  30.672  1.00  0.00    -0.248 NA
ATOM     30  C   UNL A   1      44.490  24.692  29.588  1.00  0.00     0.031 C 
ATOM     31  C   UNL A   1      44.491  28.158  34.596  1.00  0.00     0.029 A 
ATOM     32  C   UNL A   1      44.118  27.587  33.387  1.00  0.00     0.049 A 
ATOM     33  H   UNL A   1      42.455  28.041  32.174  1.00  0.00     0.167 HD
ATOM     34  C   UNL A   1      44.388  26.033  31.453  1.00  0.00     0.074 A 
ATOM     35  C   UNL A   1      45.081  24.977  30.741  1.00  0.00     0.031 C 
ATOM     36  C   UNL A   1      44.783  26.532  32.653  1.00  0.00     0.034 A 
BRANCH  23  37
ATOM     37  C   UNL A   1      41.154  31.067  34.915  1.00  0.00     0.023 A 
ATOM     38  C   UNL A   1      40.084  30.921  35.817  1.00  0.00     0.031 A 
ATOM     39  C   UNL A   1      41.869  32.277  34.935  1.00  0.00     0.131 A 
ATOM     40  C   UNL A   1      39.682  32.007  36.607  1.00  0.00     0.055 A 
ATOM     41  C   UNL A   1      41.528  33.318  35.801  1.00  0.00     0.041 A 
ATOM     42  F   UNL A   1      42.881  32.489  34.079  1.00  0.00    -0.206 F 
ATOM     43  C   UNL A   1      40.413  33.197  36.625  1.00  0.00     0.022 A 
BRANCH  40  44
ATOM     44  S   UNL A   1      38.068  31.921  37.434  1.00  0.00     0.124 S 
ATOM     45  O   UNL A   1      37.708  30.520  37.233  1.00  0.00    -0.237 OA
ATOM     46  O   UNL A   1      38.394  32.306  38.803  1.00  0.00    -0.237 OA
ATOM     47  O   UNL A   1      37.250  32.880  36.693  1.00  0.00    -0.744 OA
ENDBRANCH  40  44
ENDBRANCH  23  37
BRANCH  24  48
ATOM     48  C   UNL A   1      42.608  24.595  27.304  1.00  0.00     0.023 A 
ATOM     49  C   UNL A   1      42.152  23.267  27.303  1.00  0.00     0.031 A 
ATOM     50  C   UNL A   1      43.323  25.042  26.176  1.00  0.00     0.131 A 
ATOM     51  C   UNL A   1      42.435  22.429  26.210  1.00  0.00     0.055 A 
ATOM     52  C   UNL A   1      43.560  24.220  25.073  1.00  0.00     0.041 A 
ATOM     53  F   UNL A   1      43.787  26.301  26.122  1.00  0.00    -0.206 F 
ATOM     54  C   UNL A   1      43.122  22.900  25.089  1.00  0.00     0.022 A 
BRANCH  51  55
ATOM     55  S   UNL A   1      41.938  20.684  26.294  1.00  0.00     0.124 S 
ATOM     56  O   UNL A   1      42.796  20.082  25.279  1.00  0.00    -0.237 OA
ATOM     57  O   UNL A   1      42.247  20.347  27.679  1.00  0.00    -0.237 OA
ATOM     58  O   UNL A   1      40.514  20.720  25.966  1.00  0.00    -0.744 OA
ENDBRANCH  51  55
ENDBRANCH  24  48
BRANCH  36  59
ATOM     59  C   UNL A   1      45.976  25.891  33.315  1.00  0.00     0.023 A 
ATOM     60  C   UNL A   1      45.853  24.803  34.194  1.00  0.00     0.031 A 
ATOM     61  C   UNL A   1      47.269  26.349  33.000  1.00  0.00     0.131 A 
ATOM     62  C   UNL A   1      47.004  24.227  34.751  1.00  0.00     0.055 A 
ATOM     63  C   UNL A   1      48.411  25.734  33.510  1.00  0.00     0.041 A 
ATOM     64  F   UNL A   1      47.441  27.388  32.166  1.00  0.00    -0.206 F 
ATOM     65  C   UNL A   1      48.282  24.670  34.396  1.00  0.00     0.022 A 
BRANCH  62  66
ATOM     66  S   UNL A   1      46.815  22.919  35.993  1.00  0.00     0.124 S 
ATOM     67  O   UNL A   1      45.365  22.861  36.152  1.00  0.00    -0.237 OA
ATOM     68  O   UNL A   1      47.431  21.771  35.338  1.00  0.00    -0.237 OA
ATOM     69  O   UNL A   1      47.544  23.436  37.149  1.00  0.00    -0.744 OA
ENDBRANCH  62  66
ENDBRANCH  36  59
ENDBRANCH  10  11
ENDBRANCH   3   5
ENDBRANCH   2   3
ENDBRANCH   1   2
BRANCH   1  70
ATOM     70  C   UNL A   1      33.307  34.736  29.058  1.00  0.00     0.274 C 
BRANCH  70  71
ATOM     71  O   UNL A   1      33.233  34.736  30.494  1.00  0.00    -0.459 OA
BRANCH  71  72
ATOM     72  C   UNL A   1      33.124  35.971  31.077  1.00  0.00     0.351 C 
ATOM     73  O   UNL A   1      32.584  36.919  30.525  1.00  0.00    -0.248 OA
BRANCH  72  74
ATOM     74  C   UNL A   1      33.707  35.967  32.494  1.00  0.00     0.339 C 
ATOM     75  F   UNL A   1      34.831  36.737  32.578  1.00  0.00    -0.222 F 
BRANCH  74  76
ATOM     76  S   UNL A   1      34.090  34.283  33.066  1.00  0.00    -0.059 SA
BRANCH  76  77
ATOM     77  C   UNL A   1      35.796  34.243  32.810  1.00  0.00     0.077 A 
ATOM     78  C   UNL A   1      36.877  34.367  33.647  1.00  0.00     0.043 A 
ATOM     79  N   UNL A   1      36.250  34.115  31.533  1.00  0.00    -0.350 N 
ATOM     80  C   UNL A   1      38.043  34.369  32.823  1.00  0.00     0.001 A 
ATOM     81  C   UNL A   1      37.615  34.233  31.501  1.00  0.00     0.046 A 
ATOM     82  H   UNL A   1      35.679  33.961  30.745  1.00  0.00     0.167 HD
ATOM     83  C   UNL A   1      39.422  34.502  33.066  1.00  0.00     0.010 A 
ATOM     84  C   UNL A   1      38.483  34.253  30.406  1.00  0.00     0.027 A 
ATOM     85  C   UNL A   1      40.311  34.505  31.981  1.00  0.00     0.001 A 
ATOM     86  C   UNL A   1      39.845  34.389  30.673  1.00  0.00     0.002 A 
ENDBRANCH  76  77
ENDBRANCH  74  76
ENDBRANCH  72  74
ENDBRANCH  71  72
ENDBRANCH  70  71
ENDBRANCH   1  70
TORSDOF 16
ENDMDL
MODEL 2
REMARK VINA RESULT:     -10.8      4.595     12.641
REMARK SMILES O=C(OCCOC(=O)[C@H](F)Sc1cc2ccccc2[nH]1)c1ccc(-c2c3nc(c(-c4cc(S(=O)(=O)[O-])ccc4F)c4ccc([nH]4)c(-c4cc(S(=O)(=O)[O-])ccc4F)c4nc(c(-c5cc(S(=O)(=O)[O-])ccc5F)c5ccc2[nH]5)C=C4)C=C3)cc1
REMARK SMILES IDX 4 1 3 2 2 3 1 4 21 5 22 6 83 7 23 8 82 9 24 10 25 11 26 12
REMARK SMILES IDX 76 13 27 14 81 15 75 16 77 17 28 18 80 19 74 20 73 21 29 23
REMARK SMILES IDX 61 24 41 25 60 26 42 27 45 28 59 29 78 30 43 31 44 32 58 34
REMARK SMILES IDX 79 35 46 36 30 37 31 38 39 39 32 40 38 41 40 42 37 43 33 44
REMARK SMILES IDX 34 45 35 46 36 47 62 48 63 49 71 50 64 51 70 52 72 53 69 54
REMARK SMILES IDX 65 55 66 56 67 57 68 58 47 59 48 60 56 61 49 62 55 63 57 64
REMARK SMILES IDX 54 65 50 66 51 67 52 68 53 69 5 70 6 71 7 72 8 73 9 74 10 75
REMARK SMILES IDX 11 76 12 77 13 78 20 79 14 80 19 81 15 83 18 84 16 85 17 86
REMARK H PARENT 77 22 45 33 20 82
REMARK Flexibility Score: inf
ROOT
ATOM      1  C   UNL A   1      41.006  19.752  26.488  1.00  0.00     0.275 C 
ENDROOT
BRANCH   1   2
ATOM      2  O   UNL A   1      40.911  21.094  27.003  1.00  0.00    -0.458 OA
BRANCH   2   3
ATOM      3  C   UNL A   1      39.937  22.014  26.785  1.00  0.00     0.338 C 
ATOM      4  O   UNL A   1      38.939  21.676  26.152  1.00  0.00    -0.246 OA
BRANCH   3   5
ATOM      5  C   UNL A   1      40.125  23.472  27.090  1.00  0.00     0.060 A 
ATOM      6  C   UNL A   1      39.580  24.541  26.371  1.00  0.00     0.016 A 
ATOM      7  C   UNL A   1      40.901  23.779  28.225  1.00  0.00     0.016 A 
ATOM      8  C   UNL A   1      39.726  25.860  26.804  1.00  0.00     0.010 A 
ATOM      9  C   UNL A   1      41.080  25.101  28.649  1.00  0.00     0.010 A 
ATOM     10  C   UNL A   1      40.488  26.147  27.935  1.00  0.00    -0.014 A 
BRANCH  10  11
ATOM     11  C   UNL A   1      40.851  27.552  28.200  1.00  0.00     0.031 A 
ATOM     12  C   UNL A   1      42.272  27.948  27.936  1.00  0.00     0.074 A 
ATOM     13  C   UNL A   1      39.934  28.451  28.595  1.00  0.00     0.049 A 
ATOM     14  N   UNL A   1      42.859  29.103  28.090  1.00  0.00    -0.248 NA
ATOM     15  C   UNL A   1      43.146  26.885  27.415  1.00  0.00     0.031 C 
ATOM     16  C   UNL A   1      38.513  28.173  28.798  1.00  0.00     0.029 A 
ATOM     17  N   UNL A   1      40.060  29.782  28.896  1.00  0.00    -0.354 N 
ATOM     18  C   UNL A   1      44.175  28.905  27.685  1.00  0.00     0.074 A 
ATOM     19  C   UNL A   1      44.302  27.514  27.314  1.00  0.00     0.031 C 
ATOM     20  C   UNL A   1      37.901  29.296  29.210  1.00  0.00     0.029 A 
ATOM     21  C   UNL A   1      38.893  30.361  29.341  1.00  0.00     0.049 A 
ATOM     22  H   UNL A   1      40.905  30.278  28.804  1.00  0.00     0.167 HD
ATOM     23  C   UNL A   1      45.182  29.809  27.634  1.00  0.00     0.034 A 
ATOM     24  C   UNL A   1      38.671  31.597  29.831  1.00  0.00     0.034 A 
ATOM     25  C   UNL A   1      45.031  31.170  28.080  1.00  0.00     0.049 A 
ATOM     26  C   UNL A   1      39.836  32.559  29.890  1.00  0.00     0.074 A 
ATOM     27  C   UNL A   1      45.980  32.172  28.141  1.00  0.00     0.029 A 
ATOM     28  N   UNL A   1      43.847  31.707  28.578  1.00  0.00    -0.354 N 
ATOM     29  N   UNL A   1      41.083  32.365  29.522  1.00  0.00    -0.248 NA
ATOM     30  C   UNL A   1      39.569  33.899  30.423  1.00  0.00     0.031 C 
ATOM     31  C   UNL A   1      45.393  33.286  28.749  1.00  0.00     0.029 A 
ATOM     32  C   UNL A   1      44.050  33.016  28.978  1.00  0.00     0.049 A 
ATOM     33  H   UNL A   1      42.991  31.226  28.638  1.00  0.00     0.167 HD
ATOM     34  C   UNL A   1      41.741  33.571  29.744  1.00  0.00     0.074 A 
ATOM     35  C   UNL A   1      40.752  34.484  30.284  1.00  0.00     0.031 C 
ATOM     36  C   UNL A   1      43.038  33.902  29.510  1.00  0.00     0.034 A 
BRANCH  23  37
ATOM     37  C   UNL A   1      46.526  29.293  27.179  1.00  0.00     0.023 A 
ATOM     38  C   UNL A   1      46.747  28.887  25.849  1.00  0.00     0.031 A 
ATOM     39  C   UNL A   1      47.553  29.070  28.113  1.00  0.00     0.131 A 
ATOM     40  C   UNL A   1      47.907  28.170  25.521  1.00  0.00     0.055 A 
ATOM     41  C   UNL A   1      48.750  28.449  27.754  1.00  0.00     0.041 A 
ATOM     42  F   UNL A   1      47.391  29.407  29.402  1.00  0.00    -0.206 F 
ATOM     43  C   UNL A   1      48.922  27.971  26.458  1.00  0.00     0.022 A 
BRANCH  40  44
ATOM     44  S   UNL A   1      47.965  27.310  23.923  1.00  0.00     0.124 S 
ATOM     45  O   UNL A   1      47.345  26.029  24.255  1.00  0.00    -0.237 OA
ATOM     46  O   UNL A   1      47.184  28.191  23.062  1.00  0.00    -0.237 OA
ATOM     47  O   UNL A   1      49.393  27.244  23.620  1.00  0.00    -0.744 OA
ENDBRANCH  40  44
ENDBRANCH  23  37
BRANCH  24  48
ATOM     48  C   UNL A   1      37.323  31.972  30.350  1.00  0.00     0.023 A 
ATOM     49  C   UNL A   1      36.387  32.656  29.559  1.00  0.00     0.031 A 
ATOM     50  C   UNL A   1      36.954  31.655  31.672  1.00  0.00     0.131 A 
ATOM     51  C   UNL A   1      35.142  33.021  30.102  1.00  0.00     0.055 A 
ATOM     52  C   UNL A   1      35.700  31.978  32.192  1.00  0.00     0.041 A 
ATOM     53  F   UNL A   1      37.810  31.004  32.478  1.00  0.00    -0.206 F 
ATOM     54  C   UNL A   1      34.787  32.673  31.407  1.00  0.00     0.022 A 
BRANCH  51  55
ATOM     55  S   UNL A   1      34.004  34.012  29.092  1.00  0.00     0.124 S 
ATOM     56  O   UNL A   1      33.438  33.002  28.205  1.00  0.00    -0.237 OA
ATOM     57  O   UNL A   1      33.102  34.559  30.101  1.00  0.00    -0.237 OA
ATOM     58  O   UNL A   1      34.880  34.988  28.449  1.00  0.00    -0.744 OA
ENDBRANCH  51  55
ENDBRANCH  24  48
BRANCH  36  59
ATOM     59  C   UNL A   1      43.448  35.331  29.763  1.00  0.00     0.023 A 
ATOM     60  C   UNL A   1      43.266  36.344  28.808  1.00  0.00     0.031 A 
ATOM     61  C   UNL A   1      43.977  35.686  31.018  1.00  0.00     0.131 A 
ATOM     62  C   UNL A   1      43.636  37.662  29.116  1.00  0.00     0.055 A 
ATOM     63  C   UNL A   1      44.286  37.006  31.338  1.00  0.00     0.041 A 
ATOM     64  F   UNL A   1      44.173  34.753  31.965  1.00  0.00    -0.206 F 
ATOM     65  C   UNL A   1      44.122  38.002  30.382  1.00  0.00     0.022 A 
BRANCH  62  66
ATOM     66  S   UNL A   1      43.526  38.926  27.821  1.00  0.00     0.124 S 
ATOM     67  O   UNL A   1      42.491  38.378  26.950  1.00  0.00    -0.237 OA
ATOM     68  O   UNL A   1      43.158  40.119  28.576  1.00  0.00    -0.237 OA
ATOM     69  O   UNL A   1      44.871  38.948  27.248  1.00  0.00    -0.744 OA
ENDBRANCH  62  66
ENDBRANCH  36  59
ENDBRANCH  10  11
ENDBRANCH   3   5
ENDBRANCH   2   3
ENDBRANCH   1   2
BRANCH   1  70
ATOM     70  C   UNL A   1      42.457  19.287  26.324  1.00  0.00     0.274 C 
BRANCH  70  71
ATOM     71  O   UNL A   1      43.114  19.945  25.227  1.00  0.00    -0.459 OA
BRANCH  71  72
ATOM     72  C   UNL A   1      44.292  19.374  24.820  1.00  0.00     0.351 C 
ATOM     73  O   UNL A   1      44.416  18.172  24.635  1.00  0.00    -0.248 OA
BRANCH  72  74
ATOM     74  C   UNL A   1      45.369  20.437  24.584  1.00  0.00     0.339 C 
ATOM     75  F   UNL A   1      46.260  20.488  25.617  1.00  0.00    -0.222 F 
BRANCH  74  76
ATOM     76  S   UNL A   1      44.649  22.089  24.332  1.00  0.00    -0.059 SA
BRANCH  76  77
ATOM     77  C   UNL A   1      44.962  22.809  25.869  1.00  0.00     0.077 A 
ATOM     78  C   UNL A   1      44.259  22.856  27.047  1.00  0.00     0.043 A 
ATOM     79  N   UNL A   1      46.099  23.544  26.013  1.00  0.00    -0.350 N 
ATOM     80  C   UNL A   1      44.986  23.711  27.930  1.00  0.00     0.001 A 
ATOM     81  C   UNL A   1      46.121  24.145  27.245  1.00  0.00     0.046 A 
ATOM     82  H   UNL A   1      46.803  23.632  25.330  1.00  0.00     0.167 HD
ATOM     83  C   UNL A   1      44.776  24.184  29.238  1.00  0.00     0.010 A 
ATOM     84  C   UNL A   1      47.044  25.048  27.779  1.00  0.00     0.027 A 
ATOM     85  C   UNL A   1      45.701  25.076  29.800  1.00  0.00     0.001 A 
ATOM     86  C   UNL A   1      46.813  25.505  29.076  1.00  0.00     0.002 A 
ENDBRANCH  76  77
ENDBRANCH  74  76
ENDBRANCH  72  74
ENDBRANCH  71  72
ENDBRANCH  70  71
ENDBRANCH   1  70
TORSDOF 16
ENDMDL
MODEL 3
REMARK VINA RESULT:     -10.5      1.595      1.964
REMARK SMILES O=C(OCCOC(=O)[C@H](F)Sc1cc2ccccc2[nH]1)c1ccc(-c2c3nc(c(-c4cc(S(=O)(=O)[O-])ccc4F)c4ccc([nH]4)c(-c4cc(S(=O)(=O)[O-])ccc4F)c4nc(c(-c5cc(S(=O)(=O)[O-])ccc5F)c5ccc2[nH]5)C=C4)C=C3)cc1
REMARK SMILES IDX 4 1 3 2 2 3 1 4 21 5 22 6 83 7 23 8 82 9 24 10 25 11 26 12
REMARK SMILES IDX 76 13 27 14 81 15 75 16 77 17 28 18 80 19 74 20 73 21 29 23
REMARK SMILES IDX 61 24 41 25 60 26 42 27 45 28 59 29 78 30 43 31 44 32 58 34
REMARK SMILES IDX 79 35 46 36 30 37 31 38 39 39 32 40 38 41 40 42 37 43 33 44
REMARK SMILES IDX 34 45 35 46 36 47 62 48 63 49 71 50 64 51 70 52 72 53 69 54
REMARK SMILES IDX 65 55 66 56 67 57 68 58 47 59 48 60 56 61 49 62 55 63 57 64
REMARK SMILES IDX 54 65 50 66 51 67 52 68 53 69 5 70 6 71 7 72 8 73 9 74 10 75
REMARK SMILES IDX 11 76 12 77 13 78 20 79 14 80 19 81 15 83 18 84 16 85 17 86
REMARK H PARENT 77 22 45 33 20 82
REMARK Flexibility Score: inf
ROOT
ATOM      1  C   UNL A   1      33.354  33.824  28.007  1.00  0.00     0.275 C 
ENDROOT
BRANCH   1   2
ATOM      2  O   UNL A   1      34.024  32.686  28.584  1.00  0.00    -0.458 OA
BRANCH   2   3
ATOM      3  C   UNL A   1      34.470  31.565  27.960  1.00  0.00     0.338 C 
ATOM      4  O   UNL A   1      33.773  31.064  27.080  1.00  0.00    -0.246 OA
BRANCH   3   5
ATOM      5  C   UNL A   1      35.662  30.794  28.448  1.00  0.00     0.060 A 
ATOM      6  C   UNL A   1      35.676  29.882  29.509  1.00  0.00     0.016 A 
ATOM      7  C   UNL A   1      36.866  30.994  27.745  1.00  0.00     0.016 A 
ATOM      8  C   UNL A   1      36.814  29.134  29.811  1.00  0.00     0.010 A 
ATOM      9  C   UNL A   1      38.023  30.271  28.062  1.00  0.00     0.010 A 
ATOM     10  C   UNL A   1      37.996  29.335  29.100  1.00  0.00    -0.014 A 
BRANCH  10  11
ATOM     11  C   UNL A   1      39.241  28.740  29.622  1.00  0.00     0.031 A 
ATOM     12  C   UNL A   1      39.804  29.334  30.877  1.00  0.00     0.074 A 
ATOM     13  C   UNL A   1      39.806  27.671  29.036  1.00  0.00     0.049 A 
ATOM     14  N   UNL A   1      40.880  29.015  31.541  1.00  0.00    -0.248 NA
ATOM     15  C   UNL A   1      39.030  30.439  31.465  1.00  0.00     0.031 C 
ATOM     16  C   UNL A   1      39.282  26.978  27.860  1.00  0.00     0.029 A 
ATOM     17  N   UNL A   1      40.947  26.979  29.351  1.00  0.00    -0.354 N 
ATOM     18  C   UNL A   1      40.915  29.882  32.627  1.00  0.00     0.074 A 
ATOM     19  C   UNL A   1      39.771  30.759  32.510  1.00  0.00     0.031 C 
ATOM     20  C   UNL A   1      40.112  25.970  27.539  1.00  0.00     0.029 A 
ATOM     21  C   UNL A   1      41.246  25.973  28.461  1.00  0.00     0.049 A 
ATOM     22  H   UNL A   1      41.500  27.183  30.139  1.00  0.00     0.167 HD
ATOM     23  C   UNL A   1      41.825  29.939  33.629  1.00  0.00     0.034 A 
ATOM     24  C   UNL A   1      42.331  25.176  28.386  1.00  0.00     0.034 A 
ATOM     25  C   UNL A   1      42.990  29.093  33.671  1.00  0.00     0.049 A 
ATOM     26  C   UNL A   1      43.405  25.338  29.437  1.00  0.00     0.074 A 
ATOM     27  C   UNL A   1      44.020  29.083  34.590  1.00  0.00     0.029 A 
ATOM     28  N   UNL A   1      43.290  28.121  32.721  1.00  0.00    -0.354 N 
ATOM     29  N   UNL A   1      43.444  26.169  30.455  1.00  0.00    -0.248 NA
ATOM     30  C   UNL A   1      44.575  24.457  29.337  1.00  0.00     0.031 C 
ATOM     31  C   UNL A   1      44.981  28.166  34.152  1.00  0.00     0.029 A 
ATOM     32  C   UNL A   1      44.506  27.528  33.014  1.00  0.00     0.049 A 
ATOM     33  H   UNL A   1      42.721  27.888  31.953  1.00  0.00     0.167 HD
ATOM     34  C   UNL A   1      44.623  25.887  31.138  1.00  0.00     0.074 A 
ATOM     35  C   UNL A   1      45.269  24.811  30.412  1.00  0.00     0.031 C 
ATOM     36  C   UNL A   1      45.121  26.452  32.269  1.00  0.00     0.034 A 
BRANCH  23  37
ATOM     37  C   UNL A   1      41.620  31.018  34.664  1.00  0.00     0.023 A 
ATOM     38  C   UNL A   1      40.566  30.955  35.595  1.00  0.00     0.031 A 
ATOM     39  C   UNL A   1      42.396  32.190  34.630  1.00  0.00     0.131 A 
ATOM     40  C   UNL A   1      40.240  32.084  36.360  1.00  0.00     0.055 A 
ATOM     41  C   UNL A   1      42.130  33.272  35.470  1.00  0.00     0.041 A 
ATOM     42  F   UNL A   1      43.395  32.323  33.744  1.00  0.00    -0.206 F 
ATOM     43  C   UNL A   1      41.031  33.234  36.323  1.00  0.00     0.022 A 
BRANCH  40  44
ATOM     44  S   UNL A   1      38.645  32.107  37.226  1.00  0.00     0.124 S 
ATOM     45  O   UNL A   1      37.975  33.234  36.581  1.00  0.00    -0.237 OA
ATOM     46  O   UNL A   1      38.103  30.787  36.925  1.00  0.00    -0.237 OA
ATOM     47  O   UNL A   1      39.015  32.328  38.623  1.00  0.00    -0.744 OA
ENDBRANCH  40  44
ENDBRANCH  23  37
BRANCH  24  48
ATOM     48  C   UNL A   1      42.481  24.210  27.259  1.00  0.00     0.023 A 
ATOM     49  C   UNL A   1      41.939  22.916  27.314  1.00  0.00     0.031 A 
ATOM     50  C   UNL A   1      43.193  24.572  26.099  1.00  0.00     0.131 A 
ATOM     51  C   UNL A   1      42.137  22.026  26.244  1.00  0.00     0.055 A 
ATOM     52  C   UNL A   1      43.346  23.701  25.018  1.00  0.00     0.041 A 
ATOM     53  F   UNL A   1      43.737  25.796  25.991  1.00  0.00    -0.206 F 
ATOM     54  C   UNL A   1      42.823  22.415  25.091  1.00  0.00     0.022 A 
BRANCH  51  55
ATOM     55  S   UNL A   1      41.529  20.322  26.398  1.00  0.00     0.124 S 
ATOM     56  O   UNL A   1      41.890  20.002  27.775  1.00  0.00    -0.237 OA
ATOM     57  O   UNL A   1      40.104  20.483  26.129  1.00  0.00    -0.237 OA
ATOM     58  O   UNL A   1      42.278  19.599  25.372  1.00  0.00    -0.744 OA
ENDBRANCH  51  55
ENDBRANCH  24  48
BRANCH  36  59
ATOM     59  C   UNL A   1      46.389  25.868  32.838  1.00  0.00     0.023 A 
ATOM     60  C   UNL A   1      47.662  26.303  32.435  1.00  0.00     0.031 A 
ATOM     61  C   UNL A   1      46.308  24.896  33.853  1.00  0.00     0.131 A 
ATOM     62  C   UNL A   1      48.805  25.746  33.027  1.00  0.00     0.055 A 
ATOM     63  C   UNL A   1      47.446  24.391  34.479  1.00  0.00     0.041 A 
ATOM     64  F   UNL A   1      45.114  24.446  34.272  1.00  0.00    -0.206 F 
ATOM     65  C   UNL A   1      48.704  24.811  34.061  1.00  0.00     0.022 A 
BRANCH  62  66
ATOM     66  S   UNL A   1      50.437  26.216  32.391  1.00  0.00     0.124 S 
ATOM     67  O   UNL A   1      50.986  26.983  33.506  1.00  0.00    -0.237 OA
ATOM     68  O   UNL A   1      51.061  24.922  32.138  1.00  0.00    -0.237 OA
ATOM     69  O   UNL A   1      50.127  26.997  31.195  1.00  0.00    -0.744 OA
ENDBRANCH  62  66
ENDBRANCH  36  59
ENDBRANCH  10  11
ENDBRANCH   3   5
ENDBRANCH   2   3
ENDBRANCH   1   2
BRANCH   1  70
ATOM     70  C   UNL A   1      33.417  35.061  28.909  1.00  0.00     0.274 C 
BRANCH  70  71
ATOM     71  O   UNL A   1      33.075  34.754  30.272  1.00  0.00    -0.459 OA
BRANCH  71  72
ATOM     72  C   UNL A   1      33.073  35.821  31.132  1.00  0.00     0.351 C 
ATOM     73  O   UNL A   1      32.528  36.884  30.868  1.00  0.00    -0.248 OA
BRANCH  72  74
ATOM     74  C   UNL A   1      33.780  35.474  32.446  1.00  0.00     0.339 C 
ATOM     75  F   UNL A   1      34.846  36.295  32.676  1.00  0.00    -0.222 F 
BRANCH  74  76
ATOM     76  S   UNL A   1      34.340  33.743  32.479  1.00  0.00    -0.059 SA
BRANCH  76  77
ATOM     77  C   UNL A   1      35.975  33.929  31.958  1.00  0.00     0.077 A 
ATOM     78  C   UNL A   1      36.592  33.821  30.737  1.00  0.00     0.043 A 
ATOM     79  N   UNL A   1      36.922  34.187  32.901  1.00  0.00    -0.350 N 
ATOM     80  C   UNL A   1      37.994  33.969  30.965  1.00  0.00     0.001 A 
ATOM     81  C   UNL A   1      38.171  34.173  32.334  1.00  0.00     0.046 A 
ATOM     82  H   UNL A   1      36.738  34.358  33.853  1.00  0.00     0.167 HD
ATOM     83  C   UNL A   1      39.137  33.920  30.146  1.00  0.00     0.010 A 
ATOM     84  C   UNL A   1      39.424  34.302  32.937  1.00  0.00     0.027 A 
ATOM     85  C   UNL A   1      40.403  34.066  30.730  1.00  0.00     0.001 A 
ATOM     86  C   UNL A   1      40.542  34.247  32.105  1.00  0.00     0.002 A 
ENDBRANCH  76  77
ENDBRANCH  74  76
ENDBRANCH  72  74
ENDBRANCH  71  72
ENDBRANCH  70  71
ENDBRANCH   1  70
TORSDOF 16
ENDMDL
