MODEL 1
REMARK VINA RESULT:     -12.3      0.000      0.000
REMARK SMILES COc1cc(/C=C2/CCc3cc(OC(C)(C)C(=O)OCCOC(=O)c4ccc(-c5c6nc(c(-c7cc(S(=O)(=O)[O-])ccc7F)c7ccc([nH]7)c(-c7cc(S(=O)(=O)[O-])ccc7F)c7nc(c(-c8cc(S(=O)(=O)[O-])ccc8F)c8ccc5[nH]8)C=C7)C=C6)cc4)ccc3C2=O)cc(OC)c1O
REMARK SMILES IDX 20 1 19 2 17 3 18 4 14 5 15 6 16 7 13 8 12 9 6 10 7 11 8 12
REMARK SMILES IDX 91 13 9 14 90 15 92 16 10 17 89 18 11 19 88 20 5 21 3 22
REMARK SMILES IDX 4 23 97 24 94 25 93 26 2 27 1 28 98 29 95 31 96 32 21 33
REMARK SMILES IDX 22 34 23 35 24 36 25 37 26 38 87 39 27 40 86 41 28 42 29 43
REMARK SMILES IDX 30 44 80 45 31 46 85 47 79 48 81 49 32 50 84 51 78 52 77 53
REMARK SMILES IDX 33 55 65 56 45 57 64 58 46 59 49 60 63 61 82 62 47 63 48 64
REMARK SMILES IDX 62 66 83 67 50 68 34 69 35 70 43 71 36 72 42 73 44 74 41 75
REMARK SMILES IDX 37 76 38 77 39 78 40 79 66 80 67 81 75 82 68 83 74 84 76 85
REMARK SMILES IDX 73 86 69 87 70 88 71 89 72 90 51 91 52 92 60 93 53 94 59 95
REMARK SMILES IDX 61 96 58 97 54 98 55 99 56 100 57 101
REMARK H PARENT 98 30 81 54 49 65
REMARK Flexibility Score: inf
ROOT
ATOM      1  C   UNL A   1      31.741  28.676  25.593  1.00  0.00     0.274 C 
ENDROOT
BRANCH   1   2
ATOM      2  O   UNL A   1      31.615  28.313  24.205  1.00  0.00    -0.459 OA
BRANCH   2   3
ATOM      3  C   UNL A   1      32.692  27.702  23.578  1.00  0.00     0.350 C 
ATOM      4  O   UNL A   1      33.839  28.060  23.682  1.00  0.00    -0.247 OA
BRANCH   3   5
ATOM      5  C   UNL A   1      32.163  26.446  22.796  1.00  0.00     0.200 C 
ATOM      6  C   UNL A   1      33.140  26.286  21.615  1.00  0.00     0.069 C 
ATOM      7  C   UNL A   1      30.761  26.923  22.332  1.00  0.00     0.069 C 
BRANCH   5   8
ATOM      8  O   UNL A   1      32.193  25.226  23.617  1.00  0.00    -0.476 OA
BRANCH   8   9
ATOM      9  C   UNL A   1      33.194  25.193  24.577  1.00  0.00     0.121 A 
ATOM     10  C   UNL A   1      35.534  20.213  25.226  1.00  0.00     0.016 C 
ATOM     11  C   UNL A   1      35.623  21.483  25.685  1.00  0.00     0.001 C 
ATOM     12  C   UNL A   1      36.900  22.304  25.695  1.00  0.00     0.044 C 
ATOM     13  C   UNL A   1      34.441  22.297  26.104  1.00  0.00     0.189 C 
ATOM     14  C   UNL A   1      36.683  23.621  24.873  1.00  0.00     0.041 C 
ATOM     15  C   UNL A   1      34.660  23.766  26.288  1.00  0.00     0.026 A 
ATOM     16  O   UNL A   1      33.307  21.852  26.180  1.00  0.00    -0.289 OA
ATOM     17  C   UNL A   1      35.330  24.242  25.162  1.00  0.00    -0.033 A 
ATOM     18  C   UNL A   1      33.557  24.443  26.806  1.00  0.00     0.016 A 
ATOM     19  C   UNL A   1      34.543  24.958  24.252  1.00  0.00     0.051 A 
ATOM     20  C   UNL A   1      32.797  25.182  25.913  1.00  0.00     0.047 A 
BRANCH  10  21
ATOM     21  C   UNL A   1      34.355  19.603  24.548  1.00  0.00    -0.018 A 
ATOM     22  C   UNL A   1      33.422  17.478  23.811  1.00  0.00     0.165 A 
ATOM     23  C   UNL A   1      34.324  18.202  24.588  1.00  0.00     0.058 A 
ATOM     24  C   UNL A   1      32.553  18.142  22.938  1.00  0.00     0.200 A 
ATOM     25  C   UNL A   1      32.472  19.534  22.961  1.00  0.00     0.165 A 
ATOM     26  C   UNL A   1      33.362  20.252  23.794  1.00  0.00     0.058 A 
BRANCH  22  27
ATOM     27  O   UNL A   1      33.532  16.112  23.863  1.00  0.00    -0.493 OA
ATOM     28  C   UNL A   1      32.863  15.538  24.988  1.00  0.00     0.278 C 
ENDBRANCH  22  27
BRANCH  24  29
ATOM     29  O   UNL A   1      31.882  17.395  22.005  1.00  0.00    -0.502 OA
ATOM     30  H   UNL A   1      31.563  16.543  22.229  1.00  0.00     0.293 HD
ENDBRANCH  24  29
BRANCH  25  31
ATOM     31  O   UNL A   1      31.681  20.326  22.166  1.00  0.00    -0.493 OA
ATOM     32  C   UNL A   1      31.925  21.728  22.164  1.00  0.00     0.278 C 
ENDBRANCH  25  31
ENDBRANCH  10  21
ENDBRANCH   8   9
ENDBRANCH   5   8
ENDBRANCH   3   5
ENDBRANCH   2   3
ENDBRANCH   1   2
BRANCH   1  33
ATOM     33  C   UNL A   1      31.966  30.184  25.755  1.00  0.00     0.275 C 
BRANCH  33  34
ATOM     34  O   UNL A   1      32.396  30.461  27.092  1.00  0.00    -0.458 OA
BRANCH  34  35
ATOM     35  C   UNL A   1      33.094  31.610  27.269  1.00  0.00     0.338 C 
ATOM     36  O   UNL A   1      32.720  32.740  26.985  1.00  0.00    -0.246 OA
BRANCH  35  37
ATOM     37  C   UNL A   1      34.408  31.277  27.862  1.00  0.00     0.060 A 
ATOM     38  C   UNL A   1      35.346  32.285  28.098  1.00  0.00     0.016 A 
ATOM     39  C   UNL A   1      34.730  29.954  28.171  1.00  0.00     0.016 A 
ATOM     40  C   UNL A   1      36.608  31.978  28.574  1.00  0.00     0.010 A 
ATOM     41  C   UNL A   1      35.953  29.668  28.788  1.00  0.00     0.010 A 
ATOM     42  C   UNL A   1      36.903  30.684  29.000  1.00  0.00    -0.014 A 
BRANCH  42  43
ATOM     43  C   UNL A   1      38.181  30.433  29.715  1.00  0.00     0.031 A 
ATOM     44  C   UNL A   1      39.239  29.580  29.079  1.00  0.00     0.074 A 
ATOM     45  C   UNL A   1      38.378  30.985  30.931  1.00  0.00     0.049 A 
ATOM     46  N   UNL A   1      40.309  29.058  29.616  1.00  0.00    -0.248 NA
ATOM     47  C   UNL A   1      39.053  29.255  27.658  1.00  0.00     0.031 C 
ATOM     48  C   UNL A   1      37.443  31.885  31.617  1.00  0.00     0.029 A 
ATOM     49  N   UNL A   1      39.428  30.887  31.808  1.00  0.00    -0.354 N 
ATOM     50  C   UNL A   1      40.895  28.288  28.616  1.00  0.00     0.074 A 
ATOM     51  C   UNL A   1      40.055  28.414  27.443  1.00  0.00     0.031 C 
ATOM     52  C   UNL A   1      37.982  32.295  32.772  1.00  0.00     0.029 A 
ATOM     53  C   UNL A   1      39.234  31.587  32.977  1.00  0.00     0.049 A 
ATOM     54  H   UNL A   1      40.242  30.366  31.619  1.00  0.00     0.167 HD
ATOM     55  C   UNL A   1      42.023  27.539  28.691  1.00  0.00     0.034 A 
ATOM     56  C   UNL A   1      39.948  31.605  34.119  1.00  0.00     0.034 A 
ATOM     57  C   UNL A   1      42.842  27.464  29.879  1.00  0.00     0.049 A 
ATOM     58  C   UNL A   1      41.167  30.729  34.192  1.00  0.00     0.074 A 
ATOM     59  C   UNL A   1      43.994  26.727  30.093  1.00  0.00     0.029 A 
ATOM     60  N   UNL A   1      42.595  28.163  31.057  1.00  0.00    -0.354 N 
ATOM     61  N   UNL A   1      41.664  29.931  33.275  1.00  0.00    -0.248 NA
ATOM     62  C   UNL A   1      41.910  30.740  35.457  1.00  0.00     0.031 C 
ATOM     63  C   UNL A   1      44.409  26.937  31.413  1.00  0.00     0.029 A 
ATOM     64  C   UNL A   1      43.562  27.862  32.004  1.00  0.00     0.049 A 
ATOM     65  H   UNL A   1      41.843  28.782  31.197  1.00  0.00     0.167 HD
ATOM     66  C   UNL A   1      42.788  29.351  33.848  1.00  0.00     0.074 A 
ATOM     67  C   UNL A   1      42.908  29.914  35.180  1.00  0.00     0.031 C 
ATOM     68  C   UNL A   1      43.643  28.432  33.330  1.00  0.00     0.034 A 
BRANCH  55  69
ATOM     69  C   UNL A   1      42.372  26.691  27.490  1.00  0.00     0.023 A 
ATOM     70  C   UNL A   1      41.955  25.354  27.369  1.00  0.00     0.031 A 
ATOM     71  C   UNL A   1      43.190  27.216  26.472  1.00  0.00     0.131 A 
ATOM     72  C   UNL A   1      42.421  24.567  26.302  1.00  0.00     0.055 A 
ATOM     73  C   UNL A   1      43.584  26.452  25.371  1.00  0.00     0.041 A 
ATOM     74  F   UNL A   1      43.643  28.478  26.542  1.00  0.00    -0.206 F 
ATOM     75  C   UNL A   1      43.213  25.114  25.290  1.00  0.00     0.022 A 
BRANCH  72  76
ATOM     76  S   UNL A   1      42.102  22.781  26.334  1.00  0.00     0.124 S 
ATOM     77  O   UNL A   1      40.676  22.741  26.649  1.00  0.00    -0.237 OA
ATOM     78  O   UNL A   1      42.471  22.369  24.986  1.00  0.00    -0.237 OA
ATOM     79  O   UNL A   1      42.980  22.294  27.397  1.00  0.00    -0.744 OA
ENDBRANCH  72  76
ENDBRANCH  55  69
BRANCH  56  80
ATOM     80  C   UNL A   1      39.484  32.402  35.292  1.00  0.00     0.023 A 
ATOM     81  C   UNL A   1      38.751  31.807  36.330  1.00  0.00     0.031 A 
ATOM     82  C   UNL A   1      39.753  33.782  35.385  1.00  0.00     0.131 A 
ATOM     83  C   UNL A   1      38.289  32.591  37.400  1.00  0.00     0.055 A 
ATOM     84  C   UNL A   1      39.344  34.544  36.480  1.00  0.00     0.041 A 
ATOM     85  F   UNL A   1      40.444  34.407  34.420  1.00  0.00    -0.206 F 
ATOM     86  C   UNL A   1      38.596  33.951  37.491  1.00  0.00     0.022 A 
BRANCH  83  87
ATOM     87  S   UNL A   1      37.205  31.825  38.636  1.00  0.00     0.124 S 
ATOM     88  O   UNL A   1      37.987  31.982  39.857  1.00  0.00    -0.237 OA
ATOM     89  O   UNL A   1      36.002  32.644  38.534  1.00  0.00    -0.237 OA
ATOM     90  O   UNL A   1      37.063  30.450  38.159  1.00  0.00    -0.744 OA
ENDBRANCH  83  87
ENDBRANCH  56  80
BRANCH  68  91
ATOM     91  C   UNL A   1      44.798  28.028  34.208  1.00  0.00     0.023 A 
ATOM     92  C   UNL A   1      44.705  26.943  35.094  1.00  0.00     0.031 A 
ATOM     93  C   UNL A   1      45.992  28.769  34.183  1.00  0.00     0.131 A 
ATOM     94  C   UNL A   1      45.765  26.667  35.969  1.00  0.00     0.055 A 
ATOM     95  C   UNL A   1      47.068  28.450  35.011  1.00  0.00     0.041 A 
ATOM     96  F   UNL A   1      46.129  29.818  33.356  1.00  0.00    -0.206 F 
ATOM     97  C   UNL A   1      46.952  27.404  35.922  1.00  0.00     0.022 A 
BRANCH  94  98
ATOM     98  S   UNL A   1      45.532  25.399  37.244  1.00  0.00     0.124 S 
ATOM     99  O   UNL A   1      45.633  24.167  36.469  1.00  0.00    -0.237 OA
ATOM    100  O   UNL A   1      46.637  25.670  38.158  1.00  0.00    -0.237 OA
ATOM    101  O   UNL A   1      44.202  25.689  37.777  1.00  0.00    -0.744 OA
ENDBRANCH  94  98
ENDBRANCH  68  91
ENDBRANCH  42  43
ENDBRANCH  35  37
ENDBRANCH  34  35
ENDBRANCH  33  34
ENDBRANCH   1  33
TORSDOF 20
ENDMDL
MODEL 2
REMARK VINA RESULT:     -12.0      1.411      2.363
REMARK SMILES COc1cc(/C=C2/CCc3cc(OC(C)(C)C(=O)OCCOC(=O)c4ccc(-c5c6nc(c(-c7cc(S(=O)(=O)[O-])ccc7F)c7ccc([nH]7)c(-c7cc(S(=O)(=O)[O-])ccc7F)c7nc(c(-c8cc(S(=O)(=O)[O-])ccc8F)c8ccc5[nH]8)C=C7)C=C6)cc4)ccc3C2=O)cc(OC)c1O
REMARK SMILES IDX 20 1 19 2 17 3 18 4 14 5 15 6 16 7 13 8 12 9 6 10 7 11 8 12
REMARK SMILES IDX 91 13 9 14 90 15 92 16 10 17 89 18 11 19 88 20 5 21 3 22
REMARK SMILES IDX 4 23 97 24 94 25 93 26 2 27 1 28 98 29 95 31 96 32 21 33
REMARK SMILES IDX 22 34 23 35 24 36 25 37 26 38 87 39 27 40 86 41 28 42 29 43
REMARK SMILES IDX 30 44 80 45 31 46 85 47 79 48 81 49 32 50 84 51 78 52 77 53
REMARK SMILES IDX 33 55 65 56 45 57 64 58 46 59 49 60 63 61 82 62 47 63 48 64
REMARK SMILES IDX 62 66 83 67 50 68 34 69 35 70 43 71 36 72 42 73 44 74 41 75
REMARK SMILES IDX 37 76 38 77 39 78 40 79 66 80 67 81 75 82 68 83 74 84 76 85
REMARK SMILES IDX 73 86 69 87 70 88 71 89 72 90 51 91 52 92 60 93 53 94 59 95
REMARK SMILES IDX 61 96 58 97 54 98 55 99 56 100 57 101
REMARK H PARENT 98 30 81 54 49 65
REMARK Flexibility Score: inf
ROOT
ATOM      1  C   UNL A   1      31.774  29.953  26.198  1.00  0.00     0.274 C 
ENDROOT
BRANCH   1   2
ATOM      2  O   UNL A   1      32.208  29.637  24.862  1.00  0.00    -0.459 OA
BRANCH   2   3
ATOM      3  C   UNL A   1      33.366  28.888  24.700  1.00  0.00     0.350 C 
ATOM      4  O   UNL A   1      34.228  28.770  25.535  1.00  0.00    -0.247 OA
BRANCH   3   5
ATOM      5  C   UNL A   1      33.306  28.179  23.300  1.00  0.00     0.200 C 
ATOM      6  C   UNL A   1      34.603  28.612  22.590  1.00  0.00     0.069 C 
ATOM      7  C   UNL A   1      32.049  28.829  22.663  1.00  0.00     0.069 C 
BRANCH   5   8
ATOM      8  O   UNL A   1      33.286  26.712  23.418  1.00  0.00    -0.476 OA
BRANCH   8   9
ATOM      9  C   UNL A   1      32.046  26.169  23.721  1.00  0.00     0.121 A 
ATOM     10  C   UNL A   1      32.296  21.147  26.051  1.00  0.00     0.016 C 
ATOM     11  C   UNL A   1      31.399  22.089  25.679  1.00  0.00     0.001 C 
ATOM     12  C   UNL A   1      30.347  22.682  26.601  1.00  0.00     0.044 C 
ATOM     13  C   UNL A   1      31.422  22.779  24.354  1.00  0.00     0.189 C 
ATOM     14  C   UNL A   1      30.528  24.237  26.671  1.00  0.00     0.041 C 
ATOM     15  C   UNL A   1      30.570  24.002  24.210  1.00  0.00     0.026 A 
ATOM     16  O   UNL A   1      32.179  22.474  23.446  1.00  0.00    -0.289 OA
ATOM     17  C   UNL A   1      30.820  24.827  25.305  1.00  0.00    -0.033 A 
ATOM     18  C   UNL A   1      30.533  24.518  22.916  1.00  0.00     0.016 A 
ATOM     19  C   UNL A   1      31.626  25.942  25.046  1.00  0.00     0.051 A 
ATOM     20  C   UNL A   1      31.303  25.644  22.666  1.00  0.00     0.047 A 
BRANCH  10  21
ATOM     21  C   UNL A   1      33.692  21.014  25.543  1.00  0.00    -0.018 A 
ATOM     22  C   UNL A   1      35.308  19.397  24.707  1.00  0.00     0.165 A 
ATOM     23  C   UNL A   1      33.996  19.755  25.008  1.00  0.00     0.058 A 
ATOM     24  C   UNL A   1      36.358  20.281  24.976  1.00  0.00     0.200 A 
ATOM     25  C   UNL A   1      36.083  21.583  25.393  1.00  0.00     0.165 A 
ATOM     26  C   UNL A   1      34.740  21.945  25.646  1.00  0.00     0.058 A 
BRANCH  22  27
ATOM     27  O   UNL A   1      35.504  18.113  24.267  1.00  0.00    -0.493 OA
ATOM     28  C   UNL A   1      34.424  17.236  24.598  1.00  0.00     0.278 C 
ENDBRANCH  22  27
BRANCH  24  29
ATOM     29  O   UNL A   1      37.640  19.796  24.921  1.00  0.00    -0.502 OA
ATOM     30  H   UNL A   1      37.902  19.247  24.208  1.00  0.00     0.293 HD
ENDBRANCH  24  29
BRANCH  25  31
ATOM     31  O   UNL A   1      36.998  22.559  25.703  1.00  0.00    -0.493 OA
ATOM     32  C   UNL A   1      36.563  23.914  25.684  1.00  0.00     0.278 C 
ENDBRANCH  25  31
ENDBRANCH  10  21
ENDBRANCH   8   9
ENDBRANCH   5   8
ENDBRANCH   3   5
ENDBRANCH   2   3
ENDBRANCH   1   2
BRANCH   1  33
ATOM     33  C   UNL A   1      32.034  31.427  26.533  1.00  0.00     0.275 C 
BRANCH  33  34
ATOM     34  O   UNL A   1      32.873  31.511  27.689  1.00  0.00    -0.458 OA
BRANCH  34  35
ATOM     35  C   UNL A   1      33.807  32.495  27.679  1.00  0.00     0.338 C 
ATOM     36  O   UNL A   1      33.654  33.640  27.274  1.00  0.00    -0.246 OA
BRANCH  35  37
ATOM     37  C   UNL A   1      35.067  31.956  28.237  1.00  0.00     0.060 A 
ATOM     38  C   UNL A   1      36.187  32.780  28.362  1.00  0.00     0.016 A 
ATOM     39  C   UNL A   1      35.153  30.617  28.623  1.00  0.00     0.016 A 
ATOM     40  C   UNL A   1      37.395  32.269  28.804  1.00  0.00     0.010 A 
ATOM     41  C   UNL A   1      36.334  30.142  29.205  1.00  0.00     0.010 A 
ATOM     42  C   UNL A   1      37.466  30.970  29.306  1.00  0.00    -0.014 A 
BRANCH  42  43
ATOM     43  C   UNL A   1      38.713  30.526  29.980  1.00  0.00     0.031 A 
ATOM     44  C   UNL A   1      39.629  29.555  29.296  1.00  0.00     0.074 A 
ATOM     45  C   UNL A   1      39.010  31.009  31.205  1.00  0.00     0.049 A 
ATOM     46  N   UNL A   1      40.629  28.876  29.791  1.00  0.00    -0.248 NA
ATOM     47  C   UNL A   1      39.370  29.301  27.871  1.00  0.00     0.031 C 
ATOM     48  C   UNL A   1      38.223  32.008  31.939  1.00  0.00     0.029 A 
ATOM     49  N   UNL A   1      40.056  30.741  32.052  1.00  0.00    -0.354 N 
ATOM     50  C   UNL A   1      41.081  28.063  28.756  1.00  0.00     0.074 A 
ATOM     51  C   UNL A   1      40.241  28.337  27.609  1.00  0.00     0.031 C 
ATOM     52  C   UNL A   1      38.838  32.305  33.090  1.00  0.00     0.029 A 
ATOM     53  C   UNL A   1      39.985  31.426  33.244  1.00  0.00     0.049 A 
ATOM     54  H   UNL A   1      40.786  30.120  31.829  1.00  0.00     0.167 HD
ATOM     55  C   UNL A   1      42.097  27.164  28.782  1.00  0.00     0.034 A 
ATOM     56  C   UNL A   1      40.720  31.312  34.367  1.00  0.00     0.034 A 
ATOM     57  C   UNL A   1      42.923  26.942  29.946  1.00  0.00     0.049 A 
ATOM     58  C   UNL A   1      41.807  30.275  34.387  1.00  0.00     0.074 A 
ATOM     59  C   UNL A   1      43.967  26.048  30.111  1.00  0.00     0.029 A 
ATOM     60  N   UNL A   1      42.800  27.633  31.148  1.00  0.00    -0.354 N 
ATOM     61  N   UNL A   1      42.170  29.445  33.436  1.00  0.00    -0.248 NA
ATOM     62  C   UNL A   1      42.571  30.147  35.631  1.00  0.00     0.031 C 
ATOM     63  C   UNL A   1      44.436  26.160  31.426  1.00  0.00     0.029 A 
ATOM     64  C   UNL A   1      43.737  27.174  32.062  1.00  0.00     0.049 A 
ATOM     65  H   UNL A   1      42.144  28.345  31.324  1.00  0.00     0.167 HD
ATOM     66  C   UNL A   1      43.216  28.699  33.965  1.00  0.00     0.074 A 
ATOM     67  C   UNL A   1      43.440  29.201  35.308  1.00  0.00     0.031 C 
ATOM     68  C   UNL A   1      43.924  27.687  33.400  1.00  0.00     0.034 A 
BRANCH  55  69
ATOM     69  C   UNL A   1      42.299  26.313  27.550  1.00  0.00     0.023 A 
ATOM     70  C   UNL A   1      41.818  24.995  27.462  1.00  0.00     0.031 A 
ATOM     71  C   UNL A   1      43.043  26.812  26.464  1.00  0.00     0.131 A 
ATOM     72  C   UNL A   1      42.152  24.198  26.353  1.00  0.00     0.055 A 
ATOM     73  C   UNL A   1      43.303  26.042  25.329  1.00  0.00     0.041 A 
ATOM     74  F   UNL A   1      43.553  28.054  26.499  1.00  0.00    -0.206 F 
ATOM     75  C   UNL A   1      42.871  24.721  25.276  1.00  0.00     0.022 A 
BRANCH  72  76
ATOM     76  S   UNL A   1      41.763  22.427  26.406  1.00  0.00     0.124 S 
ATOM     77  O   UNL A   1      42.352  22.033  27.684  1.00  0.00    -0.237 OA
ATOM     78  O   UNL A   1      40.306  22.421  26.346  1.00  0.00    -0.237 OA
ATOM     79  O   UNL A   1      42.438  21.891  25.226  1.00  0.00    -0.744 OA
ENDBRANCH  72  76
ENDBRANCH  55  69
BRANCH  56  80
ATOM     80  C   UNL A   1      40.395  32.130  35.573  1.00  0.00     0.023 A 
ATOM     81  C   UNL A   1      39.285  31.829  36.377  1.00  0.00     0.031 A 
ATOM     82  C   UNL A   1      41.184  33.240  35.932  1.00  0.00     0.131 A 
ATOM     83  C   UNL A   1      38.979  32.643  37.481  1.00  0.00     0.055 A 
ATOM     84  C   UNL A   1      40.910  34.009  37.063  1.00  0.00     0.041 A 
ATOM     85  F   UNL A   1      42.255  33.579  35.197  1.00  0.00    -0.206 F 
ATOM     86  C   UNL A   1      39.793  33.720  37.839  1.00  0.00     0.022 A 
BRANCH  83  87
ATOM     87  S   UNL A   1      37.445  32.326  38.396  1.00  0.00     0.124 S 
ATOM     88  O   UNL A   1      37.769  32.862  39.714  1.00  0.00    -0.237 OA
ATOM     89  O   UNL A   1      36.466  33.079  37.620  1.00  0.00    -0.237 OA
ATOM     90  O   UNL A   1      37.304  30.872  38.332  1.00  0.00    -0.744 OA
ENDBRANCH  83  87
ENDBRANCH  56  80
BRANCH  68  91
ATOM     91  C   UNL A   1      45.032  27.103  34.237  1.00  0.00     0.023 A 
ATOM     92  C   UNL A   1      44.787  26.085  35.173  1.00  0.00     0.031 A 
ATOM     93  C   UNL A   1      46.339  27.605  34.122  1.00  0.00     0.131 A 
ATOM     94  C   UNL A   1      45.825  25.643  36.006  1.00  0.00     0.055 A 
ATOM     95  C   UNL A   1      47.381  27.117  34.910  1.00  0.00     0.041 A 
ATOM     96  F   UNL A   1      46.622  28.582  33.246  1.00  0.00    -0.206 F 
ATOM     97  C   UNL A   1      47.124  26.142  35.869  1.00  0.00     0.022 A 
BRANCH  94  98
ATOM     98  S   UNL A   1      45.432  24.485  37.344  1.00  0.00     0.124 S 
ATOM     99  O   UNL A   1      45.647  23.194  36.701  1.00  0.00    -0.237 OA
ATOM    100  O   UNL A   1      46.402  24.854  38.371  1.00  0.00    -0.237 OA
ATOM    101  O   UNL A   1      44.040  24.794  37.668  1.00  0.00    -0.744 OA
ENDBRANCH  94  98
ENDBRANCH  68  91
ENDBRANCH  42  43
ENDBRANCH  35  37
ENDBRANCH  34  35
ENDBRANCH  33  34
ENDBRANCH   1  33
TORSDOF 20
ENDMDL
MODEL 3
REMARK VINA RESULT:     -11.2      3.361      4.616
REMARK SMILES COc1cc(/C=C2/CCc3cc(OC(C)(C)C(=O)OCCOC(=O)c4ccc(-c5c6nc(c(-c7cc(S(=O)(=O)[O-])ccc7F)c7ccc([nH]7)c(-c7cc(S(=O)(=O)[O-])ccc7F)c7nc(c(-c8cc(S(=O)(=O)[O-])ccc8F)c8ccc5[nH]8)C=C7)C=C6)cc4)ccc3C2=O)cc(OC)c1O
REMARK SMILES IDX 20 1 19 2 17 3 18 4 14 5 15 6 16 7 13 8 12 9 6 10 7 11 8 12
REMARK SMILES IDX 91 13 9 14 90 15 92 16 10 17 89 18 11 19 88 20 5 21 3 22
REMARK SMILES IDX 4 23 97 24 94 25 93 26 2 27 1 28 98 29 95 31 96 32 21 33
REMARK SMILES IDX 22 34 23 35 24 36 25 37 26 38 87 39 27 40 86 41 28 42 29 43
REMARK SMILES IDX 30 44 80 45 31 46 85 47 79 48 81 49 32 50 84 51 78 52 77 53
REMARK SMILES IDX 33 55 65 56 45 57 64 58 46 59 49 60 63 61 82 62 47 63 48 64
REMARK SMILES IDX 62 66 83 67 50 68 34 69 35 70 43 71 36 72 42 73 44 74 41 75
REMARK SMILES IDX 37 76 38 77 39 78 40 79 66 80 67 81 75 82 68 83 74 84 76 85
REMARK SMILES IDX 73 86 69 87 70 88 71 89 72 90 51 91 52 92 60 93 53 94 59 95
REMARK SMILES IDX 61 96 58 97 54 98 55 99 56 100 57 101
REMARK H PARENT 98 30 81 54 49 65
REMARK Flexibility Score: inf
ROOT
ATOM      1  C   UNL A   1      33.482  30.324  27.525  1.00  0.00     0.274 C 
ENDROOT
BRANCH   1   2
ATOM      2  O   UNL A   1      32.104  29.948  27.346  1.00  0.00    -0.459 OA
BRANCH   2   3
ATOM      3  C   UNL A   1      31.779  28.599  27.336  1.00  0.00     0.350 C 
ATOM      4  O   UNL A   1      31.383  27.982  28.294  1.00  0.00    -0.247 OA
BRANCH   3   5
ATOM      5  C   UNL A   1      31.939  28.061  25.869  1.00  0.00     0.200 C 
ATOM      6  C   UNL A   1      30.850  26.980  25.731  1.00  0.00     0.069 C 
ATOM      7  C   UNL A   1      33.365  27.450  25.904  1.00  0.00     0.069 C 
BRANCH   5   8
ATOM      8  O   UNL A   1      31.710  29.110  24.862  1.00  0.00    -0.476 OA
BRANCH   8   9
ATOM      9  C   UNL A   1      32.162  28.804  23.587  1.00  0.00     0.121 A 
ATOM     10  C   UNL A   1      33.180  23.416  22.789  1.00  0.00     0.016 C 
ATOM     11  C   UNL A   1      33.195  24.596  22.129  1.00  0.00     0.001 C 
ATOM     12  C   UNL A   1      32.469  24.856  20.820  1.00  0.00     0.044 C 
ATOM     13  C   UNL A   1      33.805  25.846  22.677  1.00  0.00     0.189 C 
ATOM     14  C   UNL A   1      31.471  26.051  21.002  1.00  0.00     0.041 C 
ATOM     15  C   UNL A   1      33.472  27.127  21.979  1.00  0.00     0.026 A 
ATOM     16  O   UNL A   1      34.445  25.886  23.716  1.00  0.00    -0.289 OA
ATOM     17  C   UNL A   1      32.089  27.175  21.811  1.00  0.00    -0.033 A 
ATOM     18  C   UNL A   1      34.175  28.232  22.455  1.00  0.00     0.016 A 
ATOM     19  C   UNL A   1      31.407  28.030  22.685  1.00  0.00     0.051 A 
ATOM     20  C   UNL A   1      33.491  29.100  23.292  1.00  0.00     0.047 A 
BRANCH  10  21
ATOM     21  C   UNL A   1      33.223  23.236  24.269  1.00  0.00    -0.018 A 
ATOM     22  C   UNL A   1      34.367  22.025  26.045  1.00  0.00     0.165 A 
ATOM     23  C   UNL A   1      34.309  22.476  24.728  1.00  0.00     0.058 A 
ATOM     24  C   UNL A   1      33.315  22.289  26.927  1.00  0.00     0.200 A 
ATOM     25  C   UNL A   1      32.280  23.142  26.542  1.00  0.00     0.165 A 
ATOM     26  C   UNL A   1      32.263  23.631  25.215  1.00  0.00     0.058 A 
BRANCH  22  27
ATOM     27  O   UNL A   1      35.431  21.221  26.367  1.00  0.00    -0.493 OA
ATOM     28  C   UNL A   1      36.078  20.662  25.221  1.00  0.00     0.278 C 
ENDBRANCH  22  27
BRANCH  24  29
ATOM     29  O   UNL A   1      33.283  21.607  28.116  1.00  0.00    -0.502 OA
ATOM     30  H   UNL A   1      33.963  21.737  28.749  1.00  0.00     0.293 HD
ENDBRANCH  24  29
BRANCH  25  31
ATOM     31  O   UNL A   1      31.180  23.490  27.286  1.00  0.00    -0.493 OA
ATOM     32  C   UNL A   1      29.898  23.098  26.808  1.00  0.00     0.278 C 
ENDBRANCH  25  31
ENDBRANCH  10  21
ENDBRANCH   8   9
ENDBRANCH   5   8
ENDBRANCH   3   5
ENDBRANCH   2   3
ENDBRANCH   1   2
BRANCH   1  33
ATOM     33  C   UNL A   1      33.632  31.843  27.661  1.00  0.00     0.275 C 
BRANCH  33  34
ATOM     34  O   UNL A   1      34.942  32.152  28.146  1.00  0.00    -0.458 OA
BRANCH  34  35
ATOM     35  C   UNL A   1      35.118  32.066  29.488  1.00  0.00     0.338 C 
ATOM     36  O   UNL A   1      34.362  32.492  30.351  1.00  0.00    -0.246 OA
BRANCH  35  37
ATOM     37  C   UNL A   1      36.397  31.370  29.753  1.00  0.00     0.060 A 
ATOM     38  C   UNL A   1      37.602  31.936  29.332  1.00  0.00     0.016 A 
ATOM     39  C   UNL A   1      36.409  30.136  30.405  1.00  0.00     0.016 A 
ATOM     40  C   UNL A   1      38.797  31.259  29.498  1.00  0.00     0.010 A 
ATOM     41  C   UNL A   1      37.633  29.524  30.700  1.00  0.00     0.010 A 
ATOM     42  C   UNL A   1      38.841  30.087  30.252  1.00  0.00    -0.014 A 
BRANCH  42  43
ATOM     43  C   UNL A   1      40.162  29.506  30.606  1.00  0.00     0.031 A 
ATOM     44  C   UNL A   1      40.750  28.415  29.761  1.00  0.00     0.074 A 
ATOM     45  C   UNL A   1      40.823  29.975  31.685  1.00  0.00     0.049 A 
ATOM     46  N   UNL A   1      41.760  27.627  30.017  1.00  0.00    -0.248 NA
ATOM     47  C   UNL A   1      40.100  28.164  28.467  1.00  0.00     0.031 C 
ATOM     48  C   UNL A   1      40.375  31.079  32.543  1.00  0.00     0.029 A 
ATOM     49  N   UNL A   1      42.016  29.598  32.247  1.00  0.00    -0.354 N 
ATOM     50  C   UNL A   1      41.831  26.743  28.945  1.00  0.00     0.074 A 
ATOM     51  C   UNL A   1      40.756  27.095  28.040  1.00  0.00     0.031 C 
ATOM     52  C   UNL A   1      41.300  31.323  33.479  1.00  0.00     0.029 A 
ATOM     53  C   UNL A   1      42.339  30.311  33.379  1.00  0.00     0.049 A 
ATOM     54  H   UNL A   1      42.587  28.886  31.877  1.00  0.00     0.167 HD
ATOM     55  C   UNL A   1      42.708  25.727  28.756  1.00  0.00     0.034 A 
ATOM     56  C   UNL A   1      43.324  30.131  34.280  1.00  0.00     0.034 A 
ATOM     57  C   UNL A   1      43.779  25.428  29.679  1.00  0.00     0.049 A 
ATOM     58  C   UNL A   1      44.253  28.969  34.074  1.00  0.00     0.074 A 
ATOM     59  C   UNL A   1      44.721  24.416  29.617  1.00  0.00     0.029 A 
ATOM     60  N   UNL A   1      44.056  26.155  30.833  1.00  0.00    -0.354 N 
ATOM     61  N   UNL A   1      44.257  28.079  33.107  1.00  0.00    -0.248 NA
ATOM     62  C   UNL A   1      45.297  28.773  35.084  1.00  0.00     0.031 C 
ATOM     63  C   UNL A   1      45.528  24.497  30.758  1.00  0.00     0.029 A 
ATOM     64  C   UNL A   1      45.140  25.603  31.498  1.00  0.00     0.049 A 
ATOM     65  H   UNL A   1      43.554  26.946  31.135  1.00  0.00     0.167 HD
ATOM     66  C   UNL A   1      45.313  27.222  33.387  1.00  0.00     0.074 A 
ATOM     67  C   UNL A   1      45.937  27.720  34.598  1.00  0.00     0.031 C 
ATOM     68  C   UNL A   1      45.729  26.118  32.714  1.00  0.00     0.034 A 
BRANCH  55  69
ATOM     69  C   UNL A   1      42.482  24.830  27.561  1.00  0.00     0.023 A 
ATOM     70  C   UNL A   1      41.628  23.715  27.610  1.00  0.00     0.031 A 
ATOM     71  C   UNL A   1      43.186  25.063  26.364  1.00  0.00     0.131 A 
ATOM     72  C   UNL A   1      41.559  22.834  26.517  1.00  0.00     0.055 A 
ATOM     73  C   UNL A   1      43.051  24.229  25.252  1.00  0.00     0.041 A 
ATOM     74  F   UNL A   1      44.037  26.096  26.262  1.00  0.00    -0.206 F 
ATOM     75  C   UNL A   1      42.247  23.097  25.330  1.00  0.00     0.022 A 
BRANCH  72  76
ATOM     76  S   UNL A   1      40.678  21.262  26.721  1.00  0.00     0.124 S 
ATOM     77  O   UNL A   1      39.380  21.571  26.125  1.00  0.00    -0.237 OA
ATOM     78  O   UNL A   1      41.517  20.330  25.978  1.00  0.00    -0.237 OA
ATOM     79  O   UNL A   1      40.658  21.063  28.170  1.00  0.00    -0.744 OA
ENDBRANCH  72  76
ENDBRANCH  55  69
BRANCH  56  80
ATOM     80  C   UNL A   1      43.422  31.009  35.483  1.00  0.00     0.023 A 
ATOM     81  C   UNL A   1      44.250  32.142  35.491  1.00  0.00     0.031 A 
ATOM     82  C   UNL A   1      42.697  30.718  36.656  1.00  0.00     0.131 A 
ATOM     83  C   UNL A   1      44.355  32.924  36.653  1.00  0.00     0.055 A 
ATOM     84  C   UNL A   1      42.759  31.533  37.787  1.00  0.00     0.041 A 
ATOM     85  F   UNL A   1      41.893  29.644  36.710  1.00  0.00    -0.206 F 
ATOM     86  C   UNL A   1      43.603  32.637  37.794  1.00  0.00     0.022 A 
BRANCH  83  87
ATOM     87  S   UNL A   1      45.560  34.280  36.682  1.00  0.00     0.124 S 
ATOM     88  O   UNL A   1      46.648  33.729  35.881  1.00  0.00    -0.237 OA
ATOM     89  O   UNL A   1      44.806  35.371  36.075  1.00  0.00    -0.237 OA
ATOM     90  O   UNL A   1      45.854  34.444  38.104  1.00  0.00    -0.744 OA
ENDBRANCH  83  87
ENDBRANCH  56  80
BRANCH  68  91
ATOM     91  C   UNL A   1      46.943  25.420  33.267  1.00  0.00     0.023 A 
ATOM     92  C   UNL A   1      48.226  25.650  32.744  1.00  0.00     0.031 A 
ATOM     93  C   UNL A   1      46.803  24.482  34.304  1.00  0.00     0.131 A 
ATOM     94  C   UNL A   1      49.314  24.901  33.216  1.00  0.00     0.055 A 
ATOM     95  C   UNL A   1      47.899  23.786  34.813  1.00  0.00     0.041 A 
ATOM     96  F   UNL A   1      45.597  24.223  34.835  1.00  0.00    -0.206 F 
ATOM     97  C   UNL A   1      49.161  23.982  34.258  1.00  0.00     0.022 A 
BRANCH  94  98
ATOM     98  S   UNL A   1      50.912  25.066  32.376  1.00  0.00     0.124 S 
ATOM     99  O   UNL A   1      51.412  26.324  32.921  1.00  0.00    -0.237 OA
ATOM    100  O   UNL A   1      51.615  23.861  32.805  1.00  0.00    -0.237 OA
ATOM    101  O   UNL A   1      50.553  25.104  30.960  1.00  0.00    -0.744 OA
ENDBRANCH  94  98
ENDBRANCH  68  91
ENDBRANCH  42  43
ENDBRANCH  35  37
ENDBRANCH  34  35
ENDBRANCH  33  34
ENDBRANCH   1  33
TORSDOF 20
ENDMDL
