MODEL 1
REMARK VINA RESULT:     -11.9      0.000      0.000
REMARK SMILES CC(C)[C@H]1CC[C@@H](C)C/C1=C(\F)C(=O)OCCOC(=O)c1ccc(-c2c3nc(c(-c4cc(S(=O)(=O)[O-])ccc4F)c4ccc([nH]4)c(-c4cc(S(=O)(=O)[O-])ccc4F)c4nc(c(-c5cc(S(=O)(=O)[O-])ccc5F)c5ccc2[nH]5)C=C4)C=C3)cc1
REMARK SMILES IDX 17 1 16 2 15 3 13 4 14 5 11 6 4 7 5 8 10 9 6 10 9 11 7 12
REMARK SMILES IDX 12 13 8 14 2 15 1 16 3 17 18 18 19 19 20 20 21 21 22 22
REMARK SMILES IDX 83 23 23 24 82 25 24 26 25 27 26 28 76 29 27 30 81 31 75 32
REMARK SMILES IDX 77 33 28 34 80 35 74 36 73 37 29 39 61 40 41 41 60 42 42 43
REMARK SMILES IDX 45 44 59 45 78 46 43 47 44 48 58 50 79 51 46 52 30 53 31 54
REMARK SMILES IDX 39 55 32 56 38 57 40 58 37 59 33 60 34 61 35 62 36 63 62 64
REMARK SMILES IDX 63 65 71 66 64 67 70 68 72 69 69 70 65 71 66 72 67 73 68 74
REMARK SMILES IDX 47 75 48 76 56 77 49 78 55 79 57 80 54 81 50 82 51 83 52 84
REMARK SMILES IDX 53 85
REMARK H PARENT 77 38 45 49
REMARK Flexibility Score: inf
ROOT
ATOM      1  C   UNL A   1      32.735  29.285  24.522  1.00  0.00     0.275 C 
ENDROOT
BRANCH   1   2
ATOM      2  C   UNL A   1      33.112  27.858  24.105  1.00  0.00     0.275 C 
BRANCH   2   3
ATOM      3  O   UNL A   1      32.733  27.616  22.733  1.00  0.00    -0.457 OA
BRANCH   3   4
ATOM      4  C   UNL A   1      32.927  26.331  22.325  1.00  0.00     0.367 C 
ATOM      5  O   UNL A   1      33.684  25.977  21.430  1.00  0.00    -0.243 OA
BRANCH   4   6
ATOM      6  C   UNL A   1      32.035  25.396  23.047  1.00  0.00     0.207 C 
ATOM      7  C   UNL A   1      33.427  23.933  24.839  1.00  0.00     0.021 C 
ATOM      8  C   UNL A   1      33.077  24.102  26.346  1.00  0.00     0.009 C 
ATOM      9  C   UNL A   1      32.218  24.467  24.016  1.00  0.00    -0.023 C 
ATOM     10  C   UNL A   1      31.710  23.578  26.811  1.00  0.00     0.004 C 
ATOM     11  C   UNL A   1      30.941  23.727  24.454  1.00  0.00     0.038 C 
ATOM     12  C   UNL A   1      30.561  24.027  25.909  1.00  0.00    -0.010 C 
ATOM     13  F   UNL A   1      30.780  25.526  22.541  1.00  0.00    -0.199 F 
ATOM     14  C   UNL A   1      30.168  25.494  26.126  1.00  0.00     0.008 C 
BRANCH   7  15
ATOM     15  C   UNL A   1      34.958  24.125  24.419  1.00  0.00    -0.010 C 
ATOM     16  C   UNL A   1      36.012  24.021  25.498  1.00  0.00     0.008 C 
ATOM     17  C   UNL A   1      35.516  23.293  23.260  1.00  0.00     0.008 C 
ENDBRANCH   7  15
ENDBRANCH   4   6
ENDBRANCH   3   4
ENDBRANCH   2   3
ENDBRANCH   1   2
BRANCH   1  18
ATOM     18  O   UNL A   1      32.482  29.355  25.944  1.00  0.00    -0.458 OA
BRANCH  18  19
ATOM     19  C   UNL A   1      32.649  30.570  26.541  1.00  0.00     0.338 C 
ATOM     20  O   UNL A   1      31.854  31.488  26.561  1.00  0.00    -0.246 OA
BRANCH  19  21
ATOM     21  C   UNL A   1      33.956  30.586  27.250  1.00  0.00     0.060 A 
ATOM     22  C   UNL A   1      34.475  29.363  27.627  1.00  0.00     0.016 A 
ATOM     23  C   UNL A   1      34.634  31.741  27.641  1.00  0.00     0.016 A 
ATOM     24  C   UNL A   1      35.675  29.281  28.348  1.00  0.00     0.010 A 
ATOM     25  C   UNL A   1      35.872  31.648  28.337  1.00  0.00     0.010 A 
ATOM     26  C   UNL A   1      36.426  30.402  28.676  1.00  0.00    -0.014 A 
BRANCH  26  27
ATOM     27  C   UNL A   1      37.640  30.176  29.536  1.00  0.00     0.031 A 
ATOM     28  C   UNL A   1      38.811  29.465  28.924  1.00  0.00     0.074 A 
ATOM     29  C   UNL A   1      37.854  30.799  30.721  1.00  0.00     0.049 A 
ATOM     30  N   UNL A   1      39.900  29.015  29.488  1.00  0.00    -0.248 NA
ATOM     31  C   UNL A   1      38.753  29.268  27.469  1.00  0.00     0.031 C 
ATOM     32  C   UNL A   1      36.946  31.758  31.340  1.00  0.00     0.029 A 
ATOM     33  N   UNL A   1      38.925  30.771  31.595  1.00  0.00    -0.354 N 
ATOM     34  C   UNL A   1      40.626  28.411  28.471  1.00  0.00     0.074 A 
ATOM     35  C   UNL A   1      39.873  28.599  27.248  1.00  0.00     0.031 C 
ATOM     36  C   UNL A   1      37.518  32.275  32.443  1.00  0.00     0.029 A 
ATOM     37  C   UNL A   1      38.767  31.568  32.714  1.00  0.00     0.049 A 
ATOM     38  H   UNL A   1      39.733  30.230  31.435  1.00  0.00     0.167 HD
ATOM     39  C   UNL A   1      41.793  27.729  28.564  1.00  0.00     0.034 A 
ATOM     40  C   UNL A   1      39.487  31.658  33.860  1.00  0.00     0.034 A 
ATOM     41  C   UNL A   1      42.539  27.583  29.789  1.00  0.00     0.049 A 
ATOM     42  C   UNL A   1      40.680  30.736  34.022  1.00  0.00     0.074 A 
ATOM     43  C   UNL A   1      43.656  26.805  30.035  1.00  0.00     0.029 A 
ATOM     44  N   UNL A   1      42.251  28.246  30.976  1.00  0.00    -0.354 N 
ATOM     45  N   UNL A   1      41.242  29.952  33.129  1.00  0.00    -0.248 NA
ATOM     46  C   UNL A   1      41.307  30.668  35.351  1.00  0.00     0.031 C 
ATOM     47  C   UNL A   1      43.999  26.941  31.385  1.00  0.00     0.029 A 
ATOM     48  C   UNL A   1      43.150  27.872  31.962  1.00  0.00     0.049 A 
ATOM     49  H   UNL A   1      41.516  28.889  31.098  1.00  0.00     0.167 HD
ATOM     50  C   UNL A   1      42.292  29.315  33.786  1.00  0.00     0.074 A 
ATOM     51  C   UNL A   1      42.305  29.821  35.141  1.00  0.00     0.031 C 
ATOM     52  C   UNL A   1      43.161  28.385  33.312  1.00  0.00     0.034 A 
BRANCH  39  53
ATOM     53  C   UNL A   1      42.217  26.958  27.343  1.00  0.00     0.023 A 
ATOM     54  C   UNL A   1      41.923  25.597  27.167  1.00  0.00     0.031 A 
ATOM     55  C   UNL A   1      43.033  27.589  26.386  1.00  0.00     0.131 A 
ATOM     56  C   UNL A   1      42.518  24.892  26.108  1.00  0.00     0.055 A 
ATOM     57  C   UNL A   1      43.546  26.905  25.286  1.00  0.00     0.041 A 
ATOM     58  F   UNL A   1      43.375  28.881  26.526  1.00  0.00    -0.206 F 
ATOM     59  C   UNL A   1      43.305  25.542  25.153  1.00  0.00     0.022 A 
BRANCH  56  60
ATOM     60  S   UNL A   1      42.403  23.082  26.101  1.00  0.00     0.124 S 
ATOM     61  O   UNL A   1      42.904  22.761  24.767  1.00  0.00    -0.237 OA
ATOM     62  O   UNL A   1      43.267  22.706  27.215  1.00  0.00    -0.237 OA
ATOM     63  O   UNL A   1      40.978  22.828  26.303  1.00  0.00    -0.744 OA
ENDBRANCH  56  60
ENDBRANCH  39  53
BRANCH  40  64
ATOM     64  C   UNL A   1      39.038  32.500  35.028  1.00  0.00     0.023 A 
ATOM     65  C   UNL A   1      39.537  33.798  35.257  1.00  0.00     0.031 A 
ATOM     66  C   UNL A   1      38.197  31.955  36.020  1.00  0.00     0.131 A 
ATOM     67  C   UNL A   1      39.228  34.477  36.455  1.00  0.00     0.055 A 
ATOM     68  C   UNL A   1      37.834  32.661  37.169  1.00  0.00     0.041 A 
ATOM     69  F   UNL A   1      37.720  30.706  35.900  1.00  0.00    -0.206 F 
ATOM     70  C   UNL A   1      38.364  33.923  37.400  1.00  0.00     0.022 A 
BRANCH  67  71
ATOM     71  S   UNL A   1      40.071  36.044  36.834  1.00  0.00     0.124 S 
ATOM     72  O   UNL A   1      41.430  35.591  37.103  1.00  0.00    -0.237 OA
ATOM     73  O   UNL A   1      39.875  36.799  35.600  1.00  0.00    -0.237 OA
ATOM     74  O   UNL A   1      39.341  36.553  37.994  1.00  0.00    -0.744 OA
ENDBRANCH  67  71
ENDBRANCH  40  64
BRANCH  52  75
ATOM     75  C   UNL A   1      44.237  27.894  34.248  1.00  0.00     0.023 A 
ATOM     76  C   UNL A   1      44.124  26.676  34.940  1.00  0.00     0.031 A 
ATOM     77  C   UNL A   1      45.406  28.654  34.436  1.00  0.00     0.131 A 
ATOM     78  C   UNL A   1      45.143  26.273  35.817  1.00  0.00     0.055 A 
ATOM     79  C   UNL A   1      46.443  28.220  35.262  1.00  0.00     0.041 A 
ATOM     80  F   UNL A   1      45.565  29.829  33.804  1.00  0.00    -0.206 F 
ATOM     81  C   UNL A   1      46.311  27.027  35.967  1.00  0.00     0.022 A 
BRANCH  78  82
ATOM     82  S   UNL A   1      44.894  24.783  36.822  1.00  0.00     0.124 S 
ATOM     83  O   UNL A   1      46.230  24.557  37.365  1.00  0.00    -0.237 OA
ATOM     84  O   UNL A   1      43.883  25.217  37.780  1.00  0.00    -0.237 OA
ATOM     85  O   UNL A   1      44.441  23.787  35.854  1.00  0.00    -0.744 OA
ENDBRANCH  78  82
ENDBRANCH  52  75
ENDBRANCH  26  27
ENDBRANCH  19  21
ENDBRANCH  18  19
ENDBRANCH   1  18
TORSDOF 15
ENDMDL
MODEL 2
REMARK VINA RESULT:     -11.6      4.657      9.699
REMARK SMILES CC(C)[C@H]1CC[C@@H](C)C/C1=C(\F)C(=O)OCCOC(=O)c1ccc(-c2c3nc(c(-c4cc(S(=O)(=O)[O-])ccc4F)c4ccc([nH]4)c(-c4cc(S(=O)(=O)[O-])ccc4F)c4nc(c(-c5cc(S(=O)(=O)[O-])ccc5F)c5ccc2[nH]5)C=C4)C=C3)cc1
REMARK SMILES IDX 17 1 16 2 15 3 13 4 14 5 11 6 4 7 5 8 10 9 6 10 9 11 7 12
REMARK SMILES IDX 12 13 8 14 2 15 1 16 3 17 18 18 19 19 20 20 21 21 22 22
REMARK SMILES IDX 83 23 23 24 82 25 24 26 25 27 26 28 76 29 27 30 81 31 75 32
REMARK SMILES IDX 77 33 28 34 80 35 74 36 73 37 29 39 61 40 41 41 60 42 42 43
REMARK SMILES IDX 45 44 59 45 78 46 43 47 44 48 58 50 79 51 46 52 30 53 31 54
REMARK SMILES IDX 39 55 32 56 38 57 40 58 37 59 33 60 34 61 35 62 36 63 62 64
REMARK SMILES IDX 63 65 71 66 64 67 70 68 72 69 69 70 65 71 66 72 67 73 68 74
REMARK SMILES IDX 47 75 48 76 56 77 49 78 55 79 57 80 54 81 50 82 51 83 52 84
REMARK SMILES IDX 53 85
REMARK H PARENT 77 38 45 49
REMARK Flexibility Score: inf
ROOT
ATOM      1  C   UNL A   1      35.087  21.115  25.256  1.00  0.00     0.275 C 
ENDROOT
BRANCH   1   2
ATOM      2  C   UNL A   1      33.761  21.805  25.599  1.00  0.00     0.275 C 
BRANCH   2   3
ATOM      3  O   UNL A   1      33.718  23.128  25.022  1.00  0.00    -0.457 OA
BRANCH   3   4
ATOM      4  C   UNL A   1      33.290  24.092  25.884  1.00  0.00     0.367 C 
ATOM      5  O   UNL A   1      32.579  23.904  26.863  1.00  0.00    -0.243 OA
BRANCH   4   6
ATOM      6  C   UNL A   1      33.721  25.438  25.445  1.00  0.00     0.207 C 
ATOM      7  C   UNL A   1      31.585  26.994  24.888  1.00  0.00     0.021 C 
ATOM      8  C   UNL A   1      31.368  28.269  25.755  1.00  0.00     0.009 C 
ATOM      9  C   UNL A   1      33.072  26.563  25.057  1.00  0.00    -0.023 C 
ATOM     10  C   UNL A   1      32.384  29.409  25.590  1.00  0.00     0.004 C 
ATOM     11  C   UNL A   1      33.987  27.743  24.684  1.00  0.00     0.038 C 
ATOM     12  C   UNL A   1      33.833  28.929  25.644  1.00  0.00    -0.010 C 
ATOM     13  F   UNL A   1      35.080  25.461  25.405  1.00  0.00    -0.199 F 
ATOM     14  C   UNL A   1      34.303  28.602  27.068  1.00  0.00     0.008 C 
BRANCH   7  15
ATOM     15  C   UNL A   1      30.359  25.975  24.769  1.00  0.00    -0.010 C 
ATOM     16  C   UNL A   1      29.754  25.435  26.045  1.00  0.00     0.008 C 
ATOM     17  C   UNL A   1      29.152  26.369  23.912  1.00  0.00     0.008 C 
ENDBRANCH   7  15
ENDBRANCH   4   6
ENDBRANCH   3   4
ENDBRANCH   2   3
ENDBRANCH   1   2
BRANCH   1  18
ATOM     18  O   UNL A   1      36.181  21.706  25.996  1.00  0.00    -0.458 OA
BRANCH  18  19
ATOM     19  C   UNL A   1      37.443  21.411  25.573  1.00  0.00     0.338 C 
ATOM     20  O   UNL A   1      37.768  20.520  24.814  1.00  0.00    -0.246 OA
BRANCH  19  21
ATOM     21  C   UNL A   1      38.389  22.414  26.131  1.00  0.00     0.060 A 
ATOM     22  C   UNL A   1      38.033  23.743  26.006  1.00  0.00     0.016 A 
ATOM     23  C   UNL A   1      39.638  22.112  26.675  1.00  0.00     0.016 A 
ATOM     24  C   UNL A   1      38.885  24.762  26.454  1.00  0.00     0.010 A 
ATOM     25  C   UNL A   1      40.480  23.151  27.164  1.00  0.00     0.010 A 
ATOM     26  C   UNL A   1      40.095  24.500  27.084  1.00  0.00    -0.014 A 
BRANCH  26  27
ATOM     27  C   UNL A   1      40.953  25.688  27.423  1.00  0.00     0.031 A 
ATOM     28  C   UNL A   1      40.409  26.692  28.396  1.00  0.00     0.074 A 
ATOM     29  C   UNL A   1      42.273  25.776  27.128  1.00  0.00     0.049 A 
ATOM     30  N   UNL A   1      40.876  27.865  28.731  1.00  0.00    -0.248 NA
ATOM     31  C   UNL A   1      39.186  26.298  29.109  1.00  0.00     0.031 C 
ATOM     32  C   UNL A   1      43.047  24.753  26.434  1.00  0.00     0.029 A 
ATOM     33  N   UNL A   1      43.219  26.741  27.422  1.00  0.00    -0.354 N 
ATOM     34  C   UNL A   1      39.965  28.385  29.639  1.00  0.00     0.074 A 
ATOM     35  C   UNL A   1      38.945  27.376  29.836  1.00  0.00     0.031 C 
ATOM     36  C   UNL A   1      44.346  25.104  26.416  1.00  0.00     0.029 A 
ATOM     37  C   UNL A   1      44.487  26.457  26.946  1.00  0.00     0.049 A 
ATOM     38  H   UNL A   1      43.010  27.560  27.927  1.00  0.00     0.167 HD
ATOM     39  C   UNL A   1      39.964  29.610  30.220  1.00  0.00     0.034 A 
ATOM     40  C   UNL A   1      45.606  27.220  26.866  1.00  0.00     0.034 A 
ATOM     41  C   UNL A   1      41.007  30.586  30.030  1.00  0.00     0.049 A 
ATOM     42  C   UNL A   1      45.520  28.657  27.343  1.00  0.00     0.074 A 
ATOM     43  C   UNL A   1      41.048  31.902  30.453  1.00  0.00     0.029 A 
ATOM     44  N   UNL A   1      42.208  30.344  29.374  1.00  0.00    -0.354 N 
ATOM     45  N   UNL A   1      44.546  29.251  27.995  1.00  0.00    -0.248 NA
ATOM     46  C   UNL A   1      46.655  29.541  27.033  1.00  0.00     0.031 C 
ATOM     47  C   UNL A   1      42.238  32.476  29.991  1.00  0.00     0.029 A 
ATOM     48  C   UNL A   1      42.981  31.494  29.355  1.00  0.00     0.049 A 
ATOM     49  H   UNL A   1      42.471  29.481  28.980  1.00  0.00     0.167 HD
ATOM     50  C   UNL A   1      44.960  30.568  28.183  1.00  0.00     0.074 A 
ATOM     51  C   UNL A   1      46.280  30.679  27.602  1.00  0.00     0.031 C 
ATOM     52  C   UNL A   1      44.300  31.596  28.777  1.00  0.00     0.034 A 
BRANCH  39  53
ATOM     53  C   UNL A   1      38.711  29.998  30.959  1.00  0.00     0.023 A 
ATOM     54  C   UNL A   1      37.642  30.665  30.341  1.00  0.00     0.031 A 
ATOM     55  C   UNL A   1      38.646  29.788  32.349  1.00  0.00     0.131 A 
ATOM     56  C   UNL A   1      36.597  31.176  31.128  1.00  0.00     0.055 A 
ATOM     57  C   UNL A   1      37.562  30.218  33.111  1.00  0.00     0.041 A 
ATOM     58  F   UNL A   1      39.660  29.188  32.997  1.00  0.00    -0.206 F 
ATOM     59  C   UNL A   1      36.537  30.934  32.503  1.00  0.00     0.022 A 
BRANCH  56  60
ATOM     60  S   UNL A   1      35.417  32.320  30.361  1.00  0.00     0.124 S 
ATOM     61  O   UNL A   1      36.246  33.505  30.157  1.00  0.00    -0.237 OA
ATOM     62  O   UNL A   1      35.020  31.603  29.154  1.00  0.00    -0.237 OA
ATOM     63  O   UNL A   1      34.372  32.464  31.373  1.00  0.00    -0.744 OA
ENDBRANCH  56  60
ENDBRANCH  39  53
BRANCH  40  64
ATOM     64  C   UNL A   1      46.853  26.746  26.162  1.00  0.00     0.023 A 
ATOM     65  C   UNL A   1      47.921  26.137  26.850  1.00  0.00     0.031 A 
ATOM     66  C   UNL A   1      47.052  27.026  24.795  1.00  0.00     0.131 A 
ATOM     67  C   UNL A   1      49.138  25.875  26.185  1.00  0.00     0.055 A 
ATOM     68  C   UNL A   1      48.231  26.696  24.123  1.00  0.00     0.041 A 
ATOM     69  F   UNL A   1      46.101  27.649  24.080  1.00  0.00    -0.206 F 
ATOM     70  C   UNL A   1      49.290  26.133  24.822  1.00  0.00     0.022 A 
BRANCH  67  71
ATOM     71  S   UNL A   1      50.576  25.312  27.147  1.00  0.00     0.124 S 
ATOM     72  O   UNL A   1      50.935  26.521  27.878  1.00  0.00    -0.237 OA
ATOM     73  O   UNL A   1      50.005  24.226  27.937  1.00  0.00    -0.237 OA
ATOM     74  O   UNL A   1      51.531  24.896  26.121  1.00  0.00    -0.744 OA
ENDBRANCH  67  71
ENDBRANCH  40  64
BRANCH  52  75
ATOM     75  C   UNL A   1      45.018  32.920  28.877  1.00  0.00     0.023 A 
ATOM     76  C   UNL A   1      45.876  33.223  29.949  1.00  0.00     0.031 A 
ATOM     77  C   UNL A   1      44.853  33.887  27.870  1.00  0.00     0.131 A 
ATOM     78  C   UNL A   1      46.504  34.477  30.009  1.00  0.00     0.055 A 
ATOM     79  C   UNL A   1      45.527  35.108  27.902  1.00  0.00     0.041 A 
ATOM     80  F   UNL A   1      44.041  33.654  26.825  1.00  0.00    -0.206 F 
ATOM     81  C   UNL A   1      46.350  35.413  28.982  1.00  0.00     0.022 A 
BRANCH  78  82
ATOM     82  S   UNL A   1      47.468  34.903  31.486  1.00  0.00     0.124 S 
ATOM     83  O   UNL A   1      47.597  36.351  31.356  1.00  0.00    -0.237 OA
ATOM     84  O   UNL A   1      46.608  34.434  32.567  1.00  0.00    -0.237 OA
ATOM     85  O   UNL A   1      48.710  34.151  31.314  1.00  0.00    -0.744 OA
ENDBRANCH  78  82
ENDBRANCH  52  75
ENDBRANCH  26  27
ENDBRANCH  19  21
ENDBRANCH  18  19
ENDBRANCH   1  18
TORSDOF 15
ENDMDL
MODEL 3
REMARK VINA RESULT:     -11.5      4.730      9.824
REMARK SMILES CC(C)[C@H]1CC[C@@H](C)C/C1=C(\F)C(=O)OCCOC(=O)c1ccc(-c2c3nc(c(-c4cc(S(=O)(=O)[O-])ccc4F)c4ccc([nH]4)c(-c4cc(S(=O)(=O)[O-])ccc4F)c4nc(c(-c5cc(S(=O)(=O)[O-])ccc5F)c5ccc2[nH]5)C=C4)C=C3)cc1
REMARK SMILES IDX 17 1 16 2 15 3 13 4 14 5 11 6 4 7 5 8 10 9 6 10 9 11 7 12
REMARK SMILES IDX 12 13 8 14 2 15 1 16 3 17 18 18 19 19 20 20 21 21 22 22
REMARK SMILES IDX 83 23 23 24 82 25 24 26 25 27 26 28 76 29 27 30 81 31 75 32
REMARK SMILES IDX 77 33 28 34 80 35 74 36 73 37 29 39 61 40 41 41 60 42 42 43
REMARK SMILES IDX 45 44 59 45 78 46 43 47 44 48 58 50 79 51 46 52 30 53 31 54
REMARK SMILES IDX 39 55 32 56 38 57 40 58 37 59 33 60 34 61 35 62 36 63 62 64
REMARK SMILES IDX 63 65 71 66 64 67 70 68 72 69 69 70 65 71 66 72 67 73 68 74
REMARK SMILES IDX 47 75 48 76 56 77 49 78 55 79 57 80 54 81 50 82 51 83 52 84
REMARK SMILES IDX 53 85
REMARK H PARENT 77 38 45 49
REMARK Flexibility Score: inf
ROOT
ATOM      1  C   UNL A   1      34.998  21.492  26.262  1.00  0.00     0.275 C 
ENDROOT
BRANCH   1   2
ATOM      2  C   UNL A   1      34.173  22.384  27.197  1.00  0.00     0.275 C 
BRANCH   2   3
ATOM      3  O   UNL A   1      33.691  23.547  26.488  1.00  0.00    -0.457 OA
BRANCH   3   4
ATOM      4  C   UNL A   1      32.358  23.776  26.649  1.00  0.00     0.367 C 
ATOM      5  O   UNL A   1      31.714  23.543  27.664  1.00  0.00    -0.243 OA
BRANCH   4   6
ATOM      6  C   UNL A   1      31.742  24.271  25.397  1.00  0.00     0.207 C 
ATOM      7  C   UNL A   1      32.283  26.892  25.033  1.00  0.00     0.021 C 
ATOM      8  C   UNL A   1      33.124  27.296  23.788  1.00  0.00     0.009 C 
ATOM      9  C   UNL A   1      31.706  25.471  24.767  1.00  0.00    -0.023 C 
ATOM     10  C   UNL A   1      32.464  27.125  22.411  1.00  0.00     0.004 C 
ATOM     11  C   UNL A   1      30.913  25.485  23.448  1.00  0.00     0.038 C 
ATOM     12  C   UNL A   1      31.805  25.759  22.231  1.00  0.00    -0.010 C 
ATOM     13  F   UNL A   1      31.039  23.253  24.833  1.00  0.00    -0.199 F 
ATOM     14  C   UNL A   1      32.819  24.634  21.978  1.00  0.00     0.008 C 
BRANCH   7  15
ATOM     15  C   UNL A   1      32.798  27.402  26.459  1.00  0.00    -0.010 C 
ATOM     16  C   UNL A   1      33.938  28.394  26.491  1.00  0.00     0.008 C 
ATOM     17  C   UNL A   1      31.778  27.961  27.456  1.00  0.00     0.008 C 
ENDBRANCH   7  15
ENDBRANCH   4   6
ENDBRANCH   3   4
ENDBRANCH   2   3
ENDBRANCH   1   2
BRANCH   1  18
ATOM     18  O   UNL A   1      36.033  22.258  25.603  1.00  0.00    -0.458 OA
BRANCH  18  19
ATOM     19  C   UNL A   1      37.286  21.717  25.589  1.00  0.00     0.338 C 
ATOM     20  O   UNL A   1      37.610  20.640  25.129  1.00  0.00    -0.246 OA
BRANCH  19  21
ATOM     21  C   UNL A   1      38.243  22.697  26.168  1.00  0.00     0.060 A 
ATOM     22  C   UNL A   1      37.924  24.034  26.033  1.00  0.00     0.016 A 
ATOM     23  C   UNL A   1      39.470  22.365  26.743  1.00  0.00     0.016 A 
ATOM     24  C   UNL A   1      38.791  25.032  26.499  1.00  0.00     0.010 A 
ATOM     25  C   UNL A   1      40.326  23.382  27.250  1.00  0.00     0.010 A 
ATOM     26  C   UNL A   1      39.978  24.741  27.159  1.00  0.00    -0.014 A 
BRANCH  26  27
ATOM     27  C   UNL A   1      40.858  25.907  27.516  1.00  0.00     0.031 A 
ATOM     28  C   UNL A   1      40.332  26.905  28.506  1.00  0.00     0.074 A 
ATOM     29  C   UNL A   1      42.179  25.976  27.223  1.00  0.00     0.049 A 
ATOM     30  N   UNL A   1      40.821  28.064  28.860  1.00  0.00    -0.248 NA
ATOM     31  C   UNL A   1      39.103  26.522  29.213  1.00  0.00     0.031 C 
ATOM     32  C   UNL A   1      42.935  24.950  26.511  1.00  0.00     0.029 A 
ATOM     33  N   UNL A   1      43.143  26.918  27.531  1.00  0.00    -0.354 N 
ATOM     34  C   UNL A   1      39.919  28.586  29.777  1.00  0.00     0.074 A 
ATOM     35  C   UNL A   1      38.881  27.592  29.958  1.00  0.00     0.031 C 
ATOM     36  C   UNL A   1      44.240  25.278  26.498  1.00  0.00     0.029 A 
ATOM     37  C   UNL A   1      44.406  26.619  27.051  1.00  0.00     0.049 A 
ATOM     38  H   UNL A   1      42.948  27.733  28.049  1.00  0.00     0.167 HD
ATOM     39  C   UNL A   1      39.941  29.801  30.377  1.00  0.00     0.034 A 
ATOM     40  C   UNL A   1      45.538  27.362  26.982  1.00  0.00     0.034 A 
ATOM     41  C   UNL A   1      41.002  30.761  30.203  1.00  0.00     0.049 A 
ATOM     42  C   UNL A   1      45.478  28.793  27.482  1.00  0.00     0.074 A 
ATOM     43  C   UNL A   1      41.067  32.069  30.647  1.00  0.00     0.029 A 
ATOM     44  N   UNL A   1      42.198  30.507  29.543  1.00  0.00    -0.354 N 
ATOM     45  N   UNL A   1      44.516  29.394  28.145  1.00  0.00    -0.248 NA
ATOM     46  C   UNL A   1      46.629  29.661  27.187  1.00  0.00     0.031 C 
ATOM     47  C   UNL A   1      42.268  32.628  30.194  1.00  0.00     0.029 A 
ATOM     48  C   UNL A   1      42.992  31.643  29.541  1.00  0.00     0.049 A 
ATOM     49  H   UNL A   1      42.446  29.646  29.134  1.00  0.00     0.167 HD
ATOM     50  C   UNL A   1      44.954  30.700  28.354  1.00  0.00     0.074 A 
ATOM     51  C   UNL A   1      46.275  30.796  27.774  1.00  0.00     0.031 C 
ATOM     52  C   UNL A   1      44.313  31.731  28.964  1.00  0.00     0.034 A 
BRANCH  39  53
ATOM     53  C   UNL A   1      38.695  30.200  31.123  1.00  0.00     0.023 A 
ATOM     54  C   UNL A   1      37.636  30.890  30.514  1.00  0.00     0.031 A 
ATOM     55  C   UNL A   1      38.630  29.975  32.510  1.00  0.00     0.131 A 
ATOM     56  C   UNL A   1      36.601  31.408  31.309  1.00  0.00     0.055 A 
ATOM     57  C   UNL A   1      37.554  30.413  33.279  1.00  0.00     0.041 A 
ATOM     58  F   UNL A   1      39.635  29.352  33.149  1.00  0.00    -0.206 F 
ATOM     59  C   UNL A   1      36.539  31.152  32.681  1.00  0.00     0.022 A 
BRANCH  56  60
ATOM     60  S   UNL A   1      35.436  32.579  30.557  1.00  0.00     0.124 S 
ATOM     61  O   UNL A   1      36.270  33.770  30.413  1.00  0.00    -0.237 OA
ATOM     62  O   UNL A   1      35.066  31.904  29.318  1.00  0.00    -0.237 OA
ATOM     63  O   UNL A   1      34.371  32.688  31.551  1.00  0.00    -0.744 OA
ENDBRANCH  56  60
ENDBRANCH  39  53
BRANCH  40  64
ATOM     64  C   UNL A   1      46.776  26.878  26.270  1.00  0.00     0.023 A 
ATOM     65  C   UNL A   1      47.856  26.286  26.956  1.00  0.00     0.031 A 
ATOM     66  C   UNL A   1      46.954  27.129  24.894  1.00  0.00     0.131 A 
ATOM     67  C   UNL A   1      49.064  26.014  26.278  1.00  0.00     0.055 A 
ATOM     68  C   UNL A   1      48.124  26.788  24.213  1.00  0.00     0.041 A 
ATOM     69  F   UNL A   1      45.990  27.734  24.181  1.00  0.00    -0.206 F 
ATOM     70  C   UNL A   1      49.195  26.243  24.908  1.00  0.00     0.022 A 
BRANCH  67  71
ATOM     71  S   UNL A   1      50.518  25.475  27.230  1.00  0.00     0.124 S 
ATOM     72  O   UNL A   1      50.640  26.544  28.214  1.00  0.00    -0.237 OA
ATOM     73  O   UNL A   1      50.083  24.178  27.738  1.00  0.00    -0.237 OA
ATOM     74  O   UNL A   1      51.582  25.424  26.229  1.00  0.00    -0.744 OA
ENDBRANCH  67  71
ENDBRANCH  40  64
BRANCH  52  75
ATOM     75  C   UNL A   1      45.055  33.039  29.086  1.00  0.00     0.023 A 
ATOM     76  C   UNL A   1      45.030  34.007  28.067  1.00  0.00     0.031 A 
ATOM     77  C   UNL A   1      45.784  33.327  30.254  1.00  0.00     0.131 A 
ATOM     78  C   UNL A   1      45.755  35.200  28.218  1.00  0.00     0.055 A 
ATOM     79  C   UNL A   1      46.453  34.539  30.425  1.00  0.00     0.041 A 
ATOM     80  F   UNL A   1      45.847  32.436  31.257  1.00  0.00    -0.206 F 
ATOM     81  C   UNL A   1      46.449  35.480  29.399  1.00  0.00     0.022 A 
BRANCH  78  82
ATOM     82  S   UNL A   1      45.843  36.354  26.821  1.00  0.00     0.124 S 
ATOM     83  O   UNL A   1      46.006  35.447  25.690  1.00  0.00    -0.237 OA
ATOM     84  O   UNL A   1      44.560  37.044  26.904  1.00  0.00    -0.237 OA
ATOM     85  O   UNL A   1      47.009  37.179  27.130  1.00  0.00    -0.744 OA
ENDBRANCH  78  82
ENDBRANCH  52  75
ENDBRANCH  26  27
ENDBRANCH  19  21
ENDBRANCH  18  19
ENDBRANCH   1  18
TORSDOF 15
ENDMDL
