MODEL 1
REMARK VINA RESULT:     -13.1      0.000      0.000
REMARK SMILES C[NH+]1CCC(C(=O)N2C[C@@H](C(=O)OCCOC(=O)c3ccc(-c4c5nc(c(-c6cc(S(=O)(=O)[O-])ccc6F)c6ccc([nH]6)c(-c6cc(S(=O)(=O)[O-])ccc6F)c6nc(c(-c7cc(S(=O)(=O)[O-])ccc7F)c7ccc4[nH]7)C=C6)C=C5)cc3)[C@H](c3ccc4c(c3)OCO4)C2)CC1
REMARK SMILES IDX 15 1 14 2 13 3 11 4 12 5 10 6 8 7 9 8 92 9 82 10 6 11 7 12
REMARK SMILES IDX 5 13 1 14 2 15 3 16 94 17 4 19 93 20 83 21 84 22 88 23 85 24
REMARK SMILES IDX 87 25 86 26 89 27 91 28 90 29 16 30 17 31 18 32 19 33 20 34
REMARK SMILES IDX 81 35 21 36 80 37 22 38 23 39 24 40 74 41 25 42 79 43 73 44
REMARK SMILES IDX 75 45 26 46 78 47 72 48 71 49 27 51 59 52 39 53 58 54 40 55
REMARK SMILES IDX 43 56 57 57 76 58 41 59 42 60 56 62 77 63 44 64 28 65 29 66
REMARK SMILES IDX 37 67 30 68 36 69 38 70 35 71 31 72 32 73 33 74 34 75 60 76
REMARK SMILES IDX 61 77 69 78 62 79 68 80 70 81 67 82 63 83 64 84 65 85 66 86
REMARK SMILES IDX 45 87 46 88 54 89 47 90 53 91 55 92 52 93 48 94 49 95 50 96
REMARK SMILES IDX 51 97
REMARK H PARENT 2 18 75 50 43 61
REMARK Flexibility Score: inf
ROOT
ATOM      1  C   UNL A   1      37.595  20.020  24.856  1.00  0.00     0.275 C 
ENDROOT
BRANCH   1   2
ATOM      2  C   UNL A   1      36.081  20.153  24.966  1.00  0.00     0.274 C 
BRANCH   2   3
ATOM      3  O   UNL A   1      35.718  21.081  26.009  1.00  0.00    -0.462 OA
BRANCH   3   4
ATOM      4  C   UNL A   1      34.405  21.430  26.084  1.00  0.00     0.311 C 
ATOM      5  O   UNL A   1      33.752  21.485  27.116  1.00  0.00    -0.252 OA
BRANCH   4   6
ATOM      6  C   UNL A   1      33.836  21.666  24.708  1.00  0.00     0.128 C 
ATOM      7  N   UNL A   1      32.783  23.302  23.405  1.00  0.00    -0.341 N 
ATOM      8  C   UNL A   1      33.913  23.107  24.278  1.00  0.00     0.135 C 
ATOM      9  C   UNL A   1      31.713  22.367  23.733  1.00  0.00     0.128 C 
ATOM     10  C   UNL A   1      32.334  21.296  24.652  1.00  0.00     0.055 C 
BRANCH   7  11
ATOM     11  C   UNL A   1      32.547  24.392  22.594  1.00  0.00     0.226 C 
ATOM     12  O   UNL A   1      33.208  24.549  21.561  1.00  0.00    -0.275 OA
BRANCH  11  13
ATOM     13  C   UNL A   1      31.649  25.536  23.084  1.00  0.00     0.090 C 
ATOM     14  C   UNL A   1      30.293  29.553  23.799  1.00  0.00     0.332 C 
ATOM     15  N   UNL A   1      31.101  28.359  23.537  1.00  0.00    -0.337 N 
ATOM     16  C   UNL A   1      30.658  27.720  22.296  1.00  0.00     0.262 C 
ATOM     17  C   UNL A   1      30.999  27.415  24.666  1.00  0.00     0.262 C 
ATOM     18  H   UNL A   1      32.078  28.635  23.436  1.00  0.00     0.347 HD
ATOM     19  C   UNL A   1      31.593  26.573  21.956  1.00  0.00     0.075 C 
ATOM     20  C   UNL A   1      31.898  26.184  24.452  1.00  0.00     0.075 C 
ENDBRANCH  11  13
ENDBRANCH   7  11
BRANCH  10  21
ATOM     21  C   UNL A   1      32.302  19.821  24.265  1.00  0.00    -0.038 A 
ATOM     22  C   UNL A   1      32.325  19.385  22.922  1.00  0.00     0.008 A 
ATOM     23  C   UNL A   1      32.569  18.894  25.296  1.00  0.00     0.054 A 
ATOM     24  C   UNL A   1      32.709  18.076  22.602  1.00  0.00     0.051 A 
ATOM     25  C   UNL A   1      33.018  17.643  24.945  1.00  0.00     0.166 A 
ATOM     26  C   UNL A   1      33.100  17.250  23.632  1.00  0.00     0.165 A 
ATOM     27  O   UNL A   1      33.527  16.717  25.801  1.00  0.00    -0.454 OA
ATOM     28  O   UNL A   1      33.666  16.017  23.503  1.00  0.00    -0.454 OA
ATOM     29  C   UNL A   1      34.111  15.797  24.858  1.00  0.00     0.468 C 
ENDBRANCH  10  21
ENDBRANCH   4   6
ENDBRANCH   3   4
ENDBRANCH   2   3
ENDBRANCH   1   2
BRANCH   1  30
ATOM     30  O   UNL A   1      38.226  21.232  25.303  1.00  0.00    -0.458 OA
BRANCH  30  31
ATOM     31  C   UNL A   1      39.307  21.062  26.094  1.00  0.00     0.338 C 
ATOM     32  O   UNL A   1      39.948  20.036  26.267  1.00  0.00    -0.246 OA
BRANCH  31  33
ATOM     33  C   UNL A   1      39.700  22.352  26.675  1.00  0.00     0.060 A 
ATOM     34  C   UNL A   1      38.994  23.486  26.288  1.00  0.00     0.016 A 
ATOM     35  C   UNL A   1      40.844  22.476  27.455  1.00  0.00     0.016 A 
ATOM     36  C   UNL A   1      39.489  24.755  26.563  1.00  0.00     0.010 A 
ATOM     37  C   UNL A   1      41.276  23.753  27.837  1.00  0.00     0.010 A 
ATOM     38  C   UNL A   1      40.631  24.911  27.356  1.00  0.00    -0.014 A 
BRANCH  38  39
ATOM     39  C   UNL A   1      41.181  26.271  27.629  1.00  0.00     0.031 A 
ATOM     40  C   UNL A   1      42.540  26.648  27.092  1.00  0.00     0.074 A 
ATOM     41  C   UNL A   1      40.473  27.177  28.336  1.00  0.00     0.049 A 
ATOM     42  N   UNL A   1      43.297  27.671  27.393  1.00  0.00    -0.248 NA
ATOM     43  C   UNL A   1      43.132  25.737  26.098  1.00  0.00     0.031 C 
ATOM     44  C   UNL A   1      39.119  26.978  28.861  1.00  0.00     0.029 A 
ATOM     45  N   UNL A   1      40.791  28.454  28.733  1.00  0.00    -0.354 N 
ATOM     46  C   UNL A   1      44.485  27.485  26.693  1.00  0.00     0.074 A 
ATOM     47  C   UNL A   1      44.342  26.255  25.943  1.00  0.00     0.031 C 
ATOM     48  C   UNL A   1      38.711  28.101  29.470  1.00  0.00     0.029 A 
ATOM     49  C   UNL A   1      39.807  29.063  29.479  1.00  0.00     0.049 A 
ATOM     50  H   UNL A   1      41.643  28.892  28.505  1.00  0.00     0.167 HD
ATOM     51  C   UNL A   1      45.595  28.264  26.690  1.00  0.00     0.034 A 
ATOM     52  C   UNL A   1      39.802  30.236  30.144  1.00  0.00     0.034 A 
ATOM     53  C   UNL A   1      45.691  29.527  27.382  1.00  0.00     0.049 A 
ATOM     54  C   UNL A   1      41.050  31.081  30.132  1.00  0.00     0.074 A 
ATOM     55  C   UNL A   1      46.757  30.410  27.423  1.00  0.00     0.029 A 
ATOM     56  N   UNL A   1      44.677  30.098  28.139  1.00  0.00    -0.354 N 
ATOM     57  N   UNL A   1      42.195  30.852  29.531  1.00  0.00    -0.248 NA
ATOM     58  C   UNL A   1      41.011  32.332  30.900  1.00  0.00     0.031 C 
ATOM     59  C   UNL A   1      46.405  31.488  28.242  1.00  0.00     0.029 A 
ATOM     60  C   UNL A   1      45.098  31.310  28.663  1.00  0.00     0.049 A 
ATOM     61  H   UNL A   1      43.788  29.699  28.283  1.00  0.00     0.167 HD
ATOM     62  C   UNL A   1      43.004  31.942  29.836  1.00  0.00     0.074 A 
ATOM     63  C   UNL A   1      42.211  32.835  30.654  1.00  0.00     0.031 C 
ATOM     64  C   UNL A   1      44.291  32.185  29.477  1.00  0.00     0.034 A 
BRANCH  51  65
ATOM     65  C   UNL A   1      46.816  27.741  25.976  1.00  0.00     0.023 A 
ATOM     66  C   UNL A   1      47.075  28.012  24.623  1.00  0.00     0.031 A 
ATOM     67  C   UNL A   1      47.737  26.937  26.676  1.00  0.00     0.131 A 
ATOM     68  C   UNL A   1      48.193  27.438  23.997  1.00  0.00     0.055 A 
ATOM     69  C   UNL A   1      48.883  26.427  26.066  1.00  0.00     0.041 A 
ATOM     70  F   UNL A   1      47.528  26.627  27.965  1.00  0.00    -0.206 F 
ATOM     71  C   UNL A   1      49.111  26.668  24.716  1.00  0.00     0.022 A 
BRANCH  68  72
ATOM     72  S   UNL A   1      48.372  27.616  22.201  1.00  0.00     0.124 S 
ATOM     73  O   UNL A   1      47.070  28.164  21.827  1.00  0.00    -0.237 OA
ATOM     74  O   UNL A   1      49.504  28.528  22.084  1.00  0.00    -0.237 OA
ATOM     75  O   UNL A   1      48.620  26.251  21.743  1.00  0.00    -0.744 OA
ENDBRANCH  68  72
ENDBRANCH  51  65
BRANCH  52  76
ATOM     76  C   UNL A   1      38.614  30.652  30.948  1.00  0.00     0.023 A 
ATOM     77  C   UNL A   1      37.534  31.325  30.352  1.00  0.00     0.031 A 
ATOM     78  C   UNL A   1      38.569  30.440  32.338  1.00  0.00     0.131 A 
ATOM     79  C   UNL A   1      36.481  31.802  31.149  1.00  0.00     0.055 A 
ATOM     80  C   UNL A   1      37.491  30.861  33.117  1.00  0.00     0.041 A 
ATOM     81  F   UNL A   1      39.577  29.810  32.962  1.00  0.00    -0.206 F 
ATOM     82  C   UNL A   1      36.445  31.561  32.524  1.00  0.00     0.022 A 
BRANCH  79  83
ATOM     83  S   UNL A   1      35.212  32.844  30.380  1.00  0.00     0.124 S 
ATOM     84  O   UNL A   1      36.007  33.950  29.858  1.00  0.00    -0.237 OA
ATOM     85  O   UNL A   1      34.640  31.941  29.387  1.00  0.00    -0.237 OA
ATOM     86  O   UNL A   1      34.329  33.183  31.494  1.00  0.00    -0.744 OA
ENDBRANCH  79  83
ENDBRANCH  52  76
BRANCH  64  87
ATOM     87  C   UNL A   1      44.883  33.494  29.925  1.00  0.00     0.023 A 
ATOM     88  C   UNL A   1      44.807  34.650  29.128  1.00  0.00     0.031 A 
ATOM     89  C   UNL A   1      45.557  33.577  31.155  1.00  0.00     0.131 A 
ATOM     90  C   UNL A   1      45.444  35.827  29.548  1.00  0.00     0.055 A 
ATOM     91  C   UNL A   1      46.145  34.765  31.591  1.00  0.00     0.041 A 
ATOM     92  F   UNL A   1      45.658  32.501  31.953  1.00  0.00    -0.206 F 
ATOM     93  C   UNL A   1      46.101  35.896  30.779  1.00  0.00     0.022 A 
BRANCH  90  94
ATOM     94  S   UNL A   1      45.473  37.250  28.423  1.00  0.00     0.124 S 
ATOM     95  O   UNL A   1      46.762  37.860  28.737  1.00  0.00    -0.237 OA
ATOM     96  O   UNL A   1      45.370  36.615  27.113  1.00  0.00    -0.237 OA
ATOM     97  O   UNL A   1      44.304  38.030  28.825  1.00  0.00    -0.744 OA
ENDBRANCH  90  94
ENDBRANCH  64  87
ENDBRANCH  38  39
ENDBRANCH  31  33
ENDBRANCH  30  31
ENDBRANCH   1  30
TORSDOF 17
ENDMDL
MODEL 2
REMARK VINA RESULT:     -12.8      1.164      7.438
REMARK SMILES C[NH+]1CCC(C(=O)N2C[C@@H](C(=O)OCCOC(=O)c3ccc(-c4c5nc(c(-c6cc(S(=O)(=O)[O-])ccc6F)c6ccc([nH]6)c(-c6cc(S(=O)(=O)[O-])ccc6F)c6nc(c(-c7cc(S(=O)(=O)[O-])ccc7F)c7ccc4[nH]7)C=C6)C=C5)cc3)[C@H](c3ccc4c(c3)OCO4)C2)CC1
REMARK SMILES IDX 15 1 14 2 13 3 11 4 12 5 10 6 8 7 9 8 92 9 82 10 6 11 7 12
REMARK SMILES IDX 5 13 1 14 2 15 3 16 94 17 4 19 93 20 83 21 84 22 88 23 85 24
REMARK SMILES IDX 87 25 86 26 89 27 91 28 90 29 16 30 17 31 18 32 19 33 20 34
REMARK SMILES IDX 81 35 21 36 80 37 22 38 23 39 24 40 74 41 25 42 79 43 73 44
REMARK SMILES IDX 75 45 26 46 78 47 72 48 71 49 27 51 59 52 39 53 58 54 40 55
REMARK SMILES IDX 43 56 57 57 76 58 41 59 42 60 56 62 77 63 44 64 28 65 29 66
REMARK SMILES IDX 37 67 30 68 36 69 38 70 35 71 31 72 32 73 33 74 34 75 60 76
REMARK SMILES IDX 61 77 69 78 62 79 68 80 70 81 67 82 63 83 64 84 65 85 66 86
REMARK SMILES IDX 45 87 46 88 54 89 47 90 53 91 55 92 52 93 48 94 49 95 50 96
REMARK SMILES IDX 51 97
REMARK H PARENT 2 18 75 50 43 61
REMARK Flexibility Score: inf
ROOT
ATOM      1  C   UNL A   1      37.024  21.102  24.888  1.00  0.00     0.275 C 
ENDROOT
BRANCH   1   2
ATOM      2  C   UNL A   1      36.498  22.168  23.934  1.00  0.00     0.274 C 
BRANCH   2   3
ATOM      3  O   UNL A   1      35.205  22.646  24.355  1.00  0.00    -0.462 OA
BRANCH   3   4
ATOM      4  C   UNL A   1      34.338  23.007  23.370  1.00  0.00     0.311 C 
ATOM      5  O   UNL A   1      34.663  23.384  22.253  1.00  0.00    -0.252 OA
BRANCH   4   6
ATOM      6  C   UNL A   1      32.915  22.957  23.865  1.00  0.00     0.128 C 
ATOM      7  N   UNL A   1      31.453  23.986  25.378  1.00  0.00    -0.341 N 
ATOM      8  C   UNL A   1      32.412  24.293  24.347  1.00  0.00     0.135 C 
ATOM      9  C   UNL A   1      31.758  22.702  25.997  1.00  0.00     0.128 C 
ATOM     10  C   UNL A   1      32.775  22.001  25.075  1.00  0.00     0.055 C 
BRANCH   7  11
ATOM     11  C   UNL A   1      30.569  24.865  25.968  1.00  0.00     0.226 C 
ATOM     12  O   UNL A   1      29.800  24.467  26.851  1.00  0.00    -0.275 OA
BRANCH  11  13
ATOM     13  C   UNL A   1      30.357  26.263  25.371  1.00  0.00     0.090 C 
ATOM     14  C   UNL A   1      30.196  29.389  22.424  1.00  0.00     0.332 C 
ATOM     15  N   UNL A   1      30.499  28.167  23.174  1.00  0.00    -0.337 N 
ATOM     16  C   UNL A   1      29.270  27.403  23.398  1.00  0.00     0.262 C 
ATOM     17  C   UNL A   1      31.139  28.501  24.461  1.00  0.00     0.262 C 
ATOM     18  H   UNL A   1      31.148  27.596  22.632  1.00  0.00     0.347 HD
ATOM     19  C   UNL A   1      29.613  26.072  24.045  1.00  0.00     0.075 C 
ATOM     20  C   UNL A   1      31.537  27.234  25.237  1.00  0.00     0.075 C 
ENDBRANCH  11  13
ENDBRANCH   7  11
BRANCH  10  21
ATOM     21  C   UNL A   1      32.469  20.635  24.468  1.00  0.00    -0.038 A 
ATOM     22  C   UNL A   1      32.093  20.469  23.117  1.00  0.00     0.008 A 
ATOM     23  C   UNL A   1      32.879  19.509  25.214  1.00  0.00     0.054 A 
ATOM     24  C   UNL A   1      32.222  19.224  22.488  1.00  0.00     0.051 A 
ATOM     25  C   UNL A   1      33.069  18.322  24.547  1.00  0.00     0.166 A 
ATOM     26  C   UNL A   1      32.763  18.187  23.215  1.00  0.00     0.165 A 
ATOM     27  O   UNL A   1      33.667  17.214  25.060  1.00  0.00    -0.454 OA
ATOM     28  O   UNL A   1      33.125  16.968  22.729  1.00  0.00    -0.454 OA
ATOM     29  C   UNL A   1      33.874  16.457  23.852  1.00  0.00     0.468 C 
ENDBRANCH  10  21
ENDBRANCH   4   6
ENDBRANCH   3   4
ENDBRANCH   2   3
ENDBRANCH   1   2
BRANCH   1  30
ATOM     30  O   UNL A   1      37.616  21.727  26.039  1.00  0.00    -0.458 OA
BRANCH  30  31
ATOM     31  C   UNL A   1      38.953  21.577  26.153  1.00  0.00     0.338 C 
ATOM     32  O   UNL A   1      39.635  20.650  25.742  1.00  0.00    -0.246 OA
BRANCH  31  33
ATOM     33  C   UNL A   1      39.532  22.774  26.775  1.00  0.00     0.060 A 
ATOM     34  C   UNL A   1      39.136  24.017  26.294  1.00  0.00     0.016 A 
ATOM     35  C   UNL A   1      40.568  22.681  27.699  1.00  0.00     0.016 A 
ATOM     36  C   UNL A   1      39.849  25.163  26.628  1.00  0.00     0.010 A 
ATOM     37  C   UNL A   1      41.207  23.851  28.128  1.00  0.00     0.010 A 
ATOM     38  C   UNL A   1      40.887  25.103  27.562  1.00  0.00    -0.014 A 
BRANCH  38  39
ATOM     39  C   UNL A   1      41.672  26.325  27.901  1.00  0.00     0.031 A 
ATOM     40  C   UNL A   1      41.046  27.402  28.752  1.00  0.00     0.074 A 
ATOM     41  C   UNL A   1      42.943  26.475  27.471  1.00  0.00     0.049 A 
ATOM     42  N   UNL A   1      41.452  28.625  28.974  1.00  0.00    -0.248 NA
ATOM     43  C   UNL A   1      39.781  27.060  29.424  1.00  0.00     0.031 C 
ATOM     44  C   UNL A   1      43.702  25.489  26.698  1.00  0.00     0.029 A 
ATOM     45  N   UNL A   1      43.828  27.516  27.628  1.00  0.00    -0.354 N 
ATOM     46  C   UNL A   1      40.456  29.225  29.740  1.00  0.00     0.074 A 
ATOM     47  C   UNL A   1      39.431  28.224  29.952  1.00  0.00     0.031 C 
ATOM     48  C   UNL A   1      44.943  25.952  26.486  1.00  0.00     0.029 A 
ATOM     49  C   UNL A   1      45.040  27.309  27.009  1.00  0.00     0.049 A 
ATOM     50  H   UNL A   1      43.614  28.331  28.137  1.00  0.00     0.167 HD
ATOM     51  C   UNL A   1      40.401  30.496  30.210  1.00  0.00     0.034 A 
ATOM     52  C   UNL A   1      46.092  28.134  26.830  1.00  0.00     0.034 A 
ATOM     53  C   UNL A   1      41.467  31.456  30.055  1.00  0.00     0.049 A 
ATOM     54  C   UNL A   1      46.002  29.545  27.355  1.00  0.00     0.074 A 
ATOM     55  C   UNL A   1      41.527  32.760  30.515  1.00  0.00     0.029 A 
ATOM     56  N   UNL A   1      42.670  31.210  29.407  1.00  0.00    -0.354 N 
ATOM     57  N   UNL A   1      45.020  30.122  28.006  1.00  0.00    -0.248 NA
ATOM     58  C   UNL A   1      47.156  30.418  27.104  1.00  0.00     0.031 C 
ATOM     59  C   UNL A   1      42.743  33.317  30.104  1.00  0.00     0.029 A 
ATOM     60  C   UNL A   1      43.469  32.342  29.441  1.00  0.00     0.049 A 
ATOM     61  H   UNL A   1      42.919  30.356  28.985  1.00  0.00     0.167 HD
ATOM     62  C   UNL A   1      45.448  31.422  28.260  1.00  0.00     0.074 A 
ATOM     63  C   UNL A   1      46.783  31.536  27.709  1.00  0.00     0.031 C 
ATOM     64  C   UNL A   1      44.797  32.435  28.886  1.00  0.00     0.034 A 
BRANCH  51  65
ATOM     65  C   UNL A   1      39.121  30.943  30.869  1.00  0.00     0.023 A 
ATOM     66  C   UNL A   1      38.046  31.484  30.146  1.00  0.00     0.031 A 
ATOM     67  C   UNL A   1      38.986  30.834  32.267  1.00  0.00     0.131 A 
ATOM     68  C   UNL A   1      36.908  31.948  30.826  1.00  0.00     0.055 A 
ATOM     69  C   UNL A   1      37.825  31.232  32.930  1.00  0.00     0.041 A 
ATOM     70  F   UNL A   1      39.991  30.345  33.013  1.00  0.00    -0.206 F 
ATOM     71  C   UNL A   1      36.781  31.802  32.210  1.00  0.00     0.022 A 
BRANCH  68  72
ATOM     72  S   UNL A   1      35.642  32.849  29.891  1.00  0.00     0.124 S 
ATOM     73  O   UNL A   1      34.779  33.343  30.963  1.00  0.00    -0.237 OA
ATOM     74  O   UNL A   1      36.426  33.859  29.189  1.00  0.00    -0.237 OA
ATOM     75  O   UNL A   1      35.044  31.821  29.044  1.00  0.00    -0.744 OA
ENDBRANCH  68  72
ENDBRANCH  51  65
BRANCH  52  76
ATOM     76  C   UNL A   1      47.288  27.689  26.055  1.00  0.00     0.023 A 
ATOM     77  C   UNL A   1      47.395  27.942  24.678  1.00  0.00     0.031 A 
ATOM     78  C   UNL A   1      48.314  26.947  26.668  1.00  0.00     0.131 A 
ATOM     79  C   UNL A   1      48.476  27.417  23.952  1.00  0.00     0.055 A 
ATOM     80  C   UNL A   1      49.419  26.481  25.955  1.00  0.00     0.041 A 
ATOM     81  F   UNL A   1      48.260  26.669  27.981  1.00  0.00    -0.206 F 
ATOM     82  C   UNL A   1      49.496  26.703  24.584  1.00  0.00     0.022 A 
BRANCH  79  83
ATOM     83  S   UNL A   1      48.475  27.585  22.146  1.00  0.00     0.124 S 
ATOM     84  O   UNL A   1      48.663  26.204  21.717  1.00  0.00    -0.237 OA
ATOM     85  O   UNL A   1      47.157  28.160  21.897  1.00  0.00    -0.237 OA
ATOM     86  O   UNL A   1      49.602  28.478  21.886  1.00  0.00    -0.744 OA
ENDBRANCH  79  83
ENDBRANCH  52  76
BRANCH  64  87
ATOM     87  C   UNL A   1      45.554  33.725  29.053  1.00  0.00     0.023 A 
ATOM     88  C   UNL A   1      45.415  34.786  28.140  1.00  0.00     0.031 A 
ATOM     89  C   UNL A   1      46.448  33.884  30.126  1.00  0.00     0.131 A 
ATOM     90  C   UNL A   1      46.200  35.938  28.288  1.00  0.00     0.055 A 
ATOM     91  C   UNL A   1      47.189  35.053  30.296  1.00  0.00     0.041 A 
ATOM     92  F   UNL A   1      46.617  32.900  31.025  1.00  0.00    -0.206 F 
ATOM     93  C   UNL A   1      47.077  36.084  29.366  1.00  0.00     0.022 A 
BRANCH  90  94
ATOM     94  S   UNL A   1      46.123  37.215  27.002  1.00  0.00     0.124 S 
ATOM     95  O   UNL A   1      44.687  37.453  26.894  1.00  0.00    -0.237 OA
ATOM     96  O   UNL A   1      46.906  38.298  27.590  1.00  0.00    -0.237 OA
ATOM     97  O   UNL A   1      46.734  36.571  25.840  1.00  0.00    -0.744 OA
ENDBRANCH  90  94
ENDBRANCH  64  87
ENDBRANCH  38  39
ENDBRANCH  31  33
ENDBRANCH  30  31
ENDBRANCH   1  30
TORSDOF 17
ENDMDL
MODEL 3
REMARK VINA RESULT:     -12.4      4.824     10.452
REMARK SMILES C[NH+]1CCC(C(=O)N2C[C@@H](C(=O)OCCOC(=O)c3ccc(-c4c5nc(c(-c6cc(S(=O)(=O)[O-])ccc6F)c6ccc([nH]6)c(-c6cc(S(=O)(=O)[O-])ccc6F)c6nc(c(-c7cc(S(=O)(=O)[O-])ccc7F)c7ccc4[nH]7)C=C6)C=C5)cc3)[C@H](c3ccc4c(c3)OCO4)C2)CC1
REMARK SMILES IDX 15 1 14 2 13 3 11 4 12 5 10 6 8 7 9 8 92 9 82 10 6 11 7 12
REMARK SMILES IDX 5 13 1 14 2 15 3 16 94 17 4 19 93 20 83 21 84 22 88 23 85 24
REMARK SMILES IDX 87 25 86 26 89 27 91 28 90 29 16 30 17 31 18 32 19 33 20 34
REMARK SMILES IDX 81 35 21 36 80 37 22 38 23 39 24 40 74 41 25 42 79 43 73 44
REMARK SMILES IDX 75 45 26 46 78 47 72 48 71 49 27 51 59 52 39 53 58 54 40 55
REMARK SMILES IDX 43 56 57 57 76 58 41 59 42 60 56 62 77 63 44 64 28 65 29 66
REMARK SMILES IDX 37 67 30 68 36 69 38 70 35 71 31 72 32 73 33 74 34 75 60 76
REMARK SMILES IDX 61 77 69 78 62 79 68 80 70 81 67 82 63 83 64 84 65 85 66 86
REMARK SMILES IDX 45 87 46 88 54 89 47 90 53 91 55 92 52 93 48 94 49 95 50 96
REMARK SMILES IDX 51 97
REMARK H PARENT 2 18 75 50 43 61
REMARK Flexibility Score: inf
ROOT
ATOM      1  C   UNL A   1      32.680  30.810  26.232  1.00  0.00     0.275 C 
ENDROOT
BRANCH   1   2
ATOM      2  C   UNL A   1      31.662  29.675  26.210  1.00  0.00     0.274 C 
BRANCH   2   3
ATOM      3  O   UNL A   1      32.299  28.416  25.917  1.00  0.00    -0.462 OA
BRANCH   3   4
ATOM      4  C   UNL A   1      31.608  27.291  26.252  1.00  0.00     0.311 C 
ATOM      5  O   UNL A   1      31.158  27.049  27.363  1.00  0.00    -0.252 OA
BRANCH   4   6
ATOM      6  C   UNL A   1      31.539  26.339  25.085  1.00  0.00     0.128 C 
ATOM      7  N   UNL A   1      32.862  24.887  23.811  1.00  0.00    -0.341 N 
ATOM      8  C   UNL A   1      32.545  25.223  25.176  1.00  0.00     0.135 C 
ATOM      9  C   UNL A   1      32.657  26.037  22.938  1.00  0.00     0.128 C 
ATOM     10  C   UNL A   1      31.843  27.064  23.751  1.00  0.00     0.055 C 
BRANCH   7  11
ATOM     11  C   UNL A   1      33.569  23.786  23.376  1.00  0.00     0.226 C 
ATOM     12  O   UNL A   1      34.279  23.866  22.367  1.00  0.00    -0.275 OA
BRANCH  11  13
ATOM     13  C   UNL A   1      33.292  22.403  23.982  1.00  0.00     0.090 C 
ATOM     14  C   UNL A   1      33.748  18.203  24.782  1.00  0.00     0.332 C 
ATOM     15  N   UNL A   1      33.779  19.540  24.182  1.00  0.00    -0.337 N 
ATOM     16  C   UNL A   1      34.495  20.465  25.064  1.00  0.00     0.262 C 
ATOM     17  C   UNL A   1      32.407  20.023  23.937  1.00  0.00     0.262 C 
ATOM     18  H   UNL A   1      34.268  19.492  23.288  1.00  0.00     0.347 HD
ATOM     19  C   UNL A   1      34.650  21.807  24.370  1.00  0.00     0.075 C 
ATOM     20  C   UNL A   1      32.409  21.394  23.237  1.00  0.00     0.075 C 
ENDBRANCH  11  13
ENDBRANCH   7  11
BRANCH  10  21
ATOM     21  C   UNL A   1      30.490  27.561  23.252  1.00  0.00    -0.038 A 
ATOM     22  C   UNL A   1      29.272  26.943  23.611  1.00  0.00     0.008 A 
ATOM     23  C   UNL A   1      30.467  28.849  22.675  1.00  0.00     0.054 A 
ATOM     24  C   UNL A   1      28.059  27.635  23.495  1.00  0.00     0.051 A 
ATOM     25  C   UNL A   1      29.272  29.528  22.649  1.00  0.00     0.166 A 
ATOM     26  C   UNL A   1      28.101  28.941  23.062  1.00  0.00     0.165 A 
ATOM     27  O   UNL A   1      29.116  30.843  22.338  1.00  0.00    -0.454 OA
ATOM     28  O   UNL A   1      27.060  29.819  23.054  1.00  0.00    -0.454 OA
ATOM     29  C   UNL A   1      27.766  31.051  22.794  1.00  0.00     0.468 C 
ENDBRANCH  10  21
ENDBRANCH   4   6
ENDBRANCH   3   4
ENDBRANCH   2   3
ENDBRANCH   1   2
BRANCH   1  30
ATOM     30  O   UNL A   1      32.953  31.195  27.590  1.00  0.00    -0.458 OA
BRANCH  30  31
ATOM     31  C   UNL A   1      33.894  32.152  27.739  1.00  0.00     0.338 C 
ATOM     32  O   UNL A   1      33.736  33.363  27.701  1.00  0.00    -0.246 OA
BRANCH  31  33
ATOM     33  C   UNL A   1      35.182  31.529  28.071  1.00  0.00     0.060 A 
ATOM     34  C   UNL A   1      35.195  30.169  28.363  1.00  0.00     0.016 A 
ATOM     35  C   UNL A   1      36.329  32.293  28.256  1.00  0.00     0.016 A 
ATOM     36  C   UNL A   1      36.305  29.585  28.960  1.00  0.00     0.010 A 
ATOM     37  C   UNL A   1      37.488  31.677  28.745  1.00  0.00     0.010 A 
ATOM     38  C   UNL A   1      37.477  30.325  29.148  1.00  0.00    -0.014 A 
BRANCH  38  39
ATOM     39  C   UNL A   1      38.661  29.710  29.816  1.00  0.00     0.031 A 
ATOM     40  C   UNL A   1      39.024  30.124  31.221  1.00  0.00     0.074 A 
ATOM     41  C   UNL A   1      39.403  28.773  29.188  1.00  0.00     0.049 A 
ATOM     42  N   UNL A   1      40.120  29.895  31.896  1.00  0.00    -0.248 NA
ATOM     43  C   UNL A   1      38.026  30.921  31.952  1.00  0.00     0.031 C 
ATOM     44  C   UNL A   1      39.133  28.225  27.856  1.00  0.00     0.029 A 
ATOM     45  N   UNL A   1      40.537  28.108  29.589  1.00  0.00    -0.354 N 
ATOM     46  C   UNL A   1      39.981  30.586  33.096  1.00  0.00     0.074 A 
ATOM     47  C   UNL A   1      38.686  31.234  33.058  1.00  0.00     0.031 C 
ATOM     48  C   UNL A   1      40.046  27.285  27.571  1.00  0.00     0.029 A 
ATOM     49  C   UNL A   1      41.030  27.236  28.645  1.00  0.00     0.049 A 
ATOM     50  H   UNL A   1      40.958  28.243  30.469  1.00  0.00     0.167 HD
ATOM     51  C   UNL A   1      40.858  30.680  34.125  1.00  0.00     0.034 A 
ATOM     52  C   UNL A   1      42.171  26.518  28.617  1.00  0.00     0.034 A 
ATOM     53  C   UNL A   1      42.110  29.964  34.180  1.00  0.00     0.049 A 
ATOM     54  C   UNL A   1      43.135  26.645  29.770  1.00  0.00     0.074 A 
ATOM     55  C   UNL A   1      43.061  29.963  35.186  1.00  0.00     0.029 A 
ATOM     56  N   UNL A   1      42.578  29.104  33.195  1.00  0.00    -0.354 N 
ATOM     57  N   UNL A   1      43.026  27.367  30.860  1.00  0.00    -0.248 NA
ATOM     58  C   UNL A   1      44.381  25.873  29.678  1.00  0.00     0.031 C 
ATOM     59  C   UNL A   1      44.123  29.143  34.789  1.00  0.00     0.029 A 
ATOM     60  C   UNL A   1      43.808  28.582  33.562  1.00  0.00     0.049 A 
ATOM     61  H   UNL A   1      42.104  28.894  32.357  1.00  0.00     0.167 HD
ATOM     62  C   UNL A   1      44.183  27.119  31.593  1.00  0.00     0.074 A 
ATOM     63  C   UNL A   1      44.964  26.168  30.830  1.00  0.00     0.031 C 
ATOM     64  C   UNL A   1      44.570  27.635  32.788  1.00  0.00     0.034 A 
BRANCH  51  65
ATOM     65  C   UNL A   1      40.532  31.641  35.240  1.00  0.00     0.023 A 
ATOM     66  C   UNL A   1      39.532  31.383  36.192  1.00  0.00     0.031 A 
ATOM     67  C   UNL A   1      41.238  32.856  35.337  1.00  0.00     0.131 A 
ATOM     68  C   UNL A   1      39.227  32.350  37.164  1.00  0.00     0.055 A 
ATOM     69  C   UNL A   1      40.978  33.781  36.348  1.00  0.00     0.041 A 
ATOM     70  F   UNL A   1      42.189  33.165  34.441  1.00  0.00    -0.206 F 
ATOM     71  C   UNL A   1      39.960  33.536  37.263  1.00  0.00     0.022 A 
BRANCH  68  72
ATOM     72  S   UNL A   1      37.782  32.088  38.229  1.00  0.00     0.124 S 
ATOM     73  O   UNL A   1      36.849  33.087  37.712  1.00  0.00    -0.237 OA
ATOM     74  O   UNL A   1      37.438  30.697  37.960  1.00  0.00    -0.237 OA
ATOM     75  O   UNL A   1      38.291  32.357  39.571  1.00  0.00    -0.744 OA
ENDBRANCH  68  72
ENDBRANCH  51  65
BRANCH  52  76
ATOM     76  C   UNL A   1      42.516  25.679  27.431  1.00  0.00     0.023 A 
ATOM     77  C   UNL A   1      42.109  24.338  27.347  1.00  0.00     0.031 A 
ATOM     78  C   UNL A   1      43.315  26.189  26.391  1.00  0.00     0.131 A 
ATOM     79  C   UNL A   1      42.540  23.541  26.274  1.00  0.00     0.055 A 
ATOM     80  C   UNL A   1      43.688  25.411  25.294  1.00  0.00     0.041 A 
ATOM     81  F   UNL A   1      43.740  27.463  26.422  1.00  0.00    -0.206 F 
ATOM     82  C   UNL A   1      43.312  24.073  25.239  1.00  0.00     0.022 A 
BRANCH  79  83
ATOM     83  S   UNL A   1      42.169  21.766  26.305  1.00  0.00     0.124 S 
ATOM     84  O   UNL A   1      42.566  21.401  27.660  1.00  0.00    -0.237 OA
ATOM     85  O   UNL A   1      40.736  21.751  26.031  1.00  0.00    -0.237 OA
ATOM     86  O   UNL A   1      43.011  21.224  25.241  1.00  0.00    -0.744 OA
ENDBRANCH  79  83
ENDBRANCH  52  76
BRANCH  64  87
ATOM     87  C   UNL A   1      45.869  27.127  33.354  1.00  0.00     0.023 A 
ATOM     88  C   UNL A   1      45.918  25.996  34.189  1.00  0.00     0.031 A 
ATOM     89  C   UNL A   1      47.070  27.801  33.076  1.00  0.00     0.131 A 
ATOM     90  C   UNL A   1      47.138  25.606  34.761  1.00  0.00     0.055 A 
ATOM     91  C   UNL A   1      48.289  27.378  33.608  1.00  0.00     0.041 A 
ATOM     92  F   UNL A   1      47.077  28.886  32.285  1.00  0.00    -0.206 F 
ATOM     93  C   UNL A   1      48.325  26.281  34.466  1.00  0.00     0.022 A 
BRANCH  90  94
ATOM     94  S   UNL A   1      47.141  24.250  35.965  1.00  0.00     0.124 S 
ATOM     95  O   UNL A   1      48.569  24.012  36.153  1.00  0.00    -0.237 OA
ATOM     96  O   UNL A   1      46.438  24.839  37.101  1.00  0.00    -0.237 OA
ATOM     97  O   UNL A   1      46.419  23.179  35.279  1.00  0.00    -0.744 OA
ENDBRANCH  90  94
ENDBRANCH  64  87
ENDBRANCH  38  39
ENDBRANCH  31  33
ENDBRANCH  30  31
ENDBRANCH   1  30
TORSDOF 17
ENDMDL
