MODEL 1
REMARK VINA RESULT:     -12.7      0.000      0.000
REMARK SMILES CC(C)Oc1ccc([C@@H]2CC(=O)Nc3c(C(=O)OCCOC(=O)c4ccc(-c5c6nc(c(-c7cc(S(=O)(=O)[O-])ccc7F)c7ccc([nH]7)c(-c7cc(S(=O)(=O)[O-])ccc7F)c7nc(c(-c8cc(S(=O)(=O)[O-])ccc8F)c8ccc5[nH]8)C=C7)C=C6)cc4)nsc32)cc1
REMARK SMILES IDX 19 1 18 2 16 3 17 4 15 5 9 6 10 7 89 8 11 9 14 10 88 11
REMARK SMILES IDX 12 12 13 13 87 14 8 16 5 17 6 18 91 19 7 20 90 21 4 22 2 23
REMARK SMILES IDX 1 24 3 25 20 26 21 27 22 28 23 29 24 30 25 31 86 32 26 33
REMARK SMILES IDX 85 34 27 35 28 36 29 37 79 38 30 39 84 40 78 41 80 42 31 43
REMARK SMILES IDX 83 44 77 45 76 46 32 48 64 49 44 50 63 51 45 52 48 53 62 54
REMARK SMILES IDX 81 55 46 56 47 57 61 59 82 60 49 61 33 62 34 63 42 64 35 65
REMARK SMILES IDX 41 66 43 67 40 68 36 69 37 70 38 71 39 72 65 73 66 74 74 75
REMARK SMILES IDX 67 76 73 77 75 78 72 79 68 80 69 81 70 82 71 83 50 84 51 85
REMARK SMILES IDX 59 86 52 87 58 88 60 89 57 90 53 91 54 92 55 93 56 94
REMARK H PARENT 13 15 80 47 48 58
REMARK Flexibility Score: inf
ROOT
ATOM      1  C   UNL A   1      32.517  30.178  26.299  1.00  0.00     0.275 C 
ENDROOT
BRANCH   1   2
ATOM      2  O   UNL A   1      32.845  28.782  26.323  1.00  0.00    -0.457 OA
BRANCH   2   3
ATOM      3  C   UNL A   1      31.915  27.954  26.901  1.00  0.00     0.360 C 
ATOM      4  O   UNL A   1      31.375  28.193  27.981  1.00  0.00    -0.244 OA
BRANCH   3   5
ATOM      5  C   UNL A   1      31.644  26.769  26.079  1.00  0.00     0.185 A 
ATOM      6  C   UNL A   1      32.378  24.613  23.099  1.00  0.00     0.073 C 
ATOM      7  C   UNL A   1      33.550  25.448  22.538  1.00  0.00     0.114 C 
ATOM      8  C   UNL A   1      31.842  25.265  24.332  1.00  0.00     0.058 A 
ATOM      9  C   UNL A   1      33.445  26.950  22.756  1.00  0.00     0.225 C 
ATOM     10  C   UNL A   1      32.147  26.533  24.751  1.00  0.00     0.091 A 
ATOM     11  S   UNL A   1      30.758  24.570  25.441  1.00  0.00    -0.038 S 
ATOM     12  O   UNL A   1      33.993  27.750  21.998  1.00  0.00    -0.275 OA
ATOM     13  N   UNL A   1      32.875  27.371  23.928  1.00  0.00    -0.323 N 
ATOM     14  N   UNL A   1      30.895  25.769  26.574  1.00  0.00    -0.183 NA
ATOM     15  H   UNL A   1      32.987  28.312  24.195  1.00  0.00     0.170 HD
BRANCH   6  16
ATOM     16  C   UNL A   1      32.860  23.197  23.407  1.00  0.00    -0.039 A 
ATOM     17  C   UNL A   1      33.665  20.630  24.224  1.00  0.00     0.119 A 
ATOM     18  C   UNL A   1      32.545  20.794  23.406  1.00  0.00     0.047 A 
ATOM     19  C   UNL A   1      34.426  21.737  24.570  1.00  0.00     0.047 A 
ATOM     20  C   UNL A   1      32.135  22.072  23.003  1.00  0.00     0.008 A 
ATOM     21  C   UNL A   1      34.019  23.009  24.183  1.00  0.00     0.008 A 
BRANCH  17  22
ATOM     22  O   UNL A   1      34.023  19.356  24.559  1.00  0.00    -0.491 OA
BRANCH  22  23
ATOM     23  C   UNL A   1      33.062  18.302  24.354  1.00  0.00     0.167 C 
ATOM     24  C   UNL A   1      33.435  17.311  23.252  1.00  0.00     0.052 C 
ATOM     25  C   UNL A   1      32.631  17.601  25.642  1.00  0.00     0.052 C 
ENDBRANCH  22  23
ENDBRANCH  17  22
ENDBRANCH   6  16
ENDBRANCH   3   5
ENDBRANCH   2   3
ENDBRANCH   1   2
BRANCH   1  26
ATOM     26  C   UNL A   1      33.283  30.913  27.386  1.00  0.00     0.275 C 
BRANCH  26  27
ATOM     27  O   UNL A   1      34.689  30.757  27.206  1.00  0.00    -0.458 OA
BRANCH  27  28
ATOM     28  C   UNL A   1      35.466  31.679  27.823  1.00  0.00     0.338 C 
ATOM     29  O   UNL A   1      35.421  32.886  27.666  1.00  0.00    -0.246 OA
BRANCH  28  30
ATOM     30  C   UNL A   1      36.536  30.972  28.538  1.00  0.00     0.060 A 
ATOM     31  C   UNL A   1      37.634  31.711  28.986  1.00  0.00     0.016 A 
ATOM     32  C   UNL A   1      36.555  29.569  28.516  1.00  0.00     0.016 A 
ATOM     33  C   UNL A   1      38.810  31.038  29.261  1.00  0.00     0.010 A 
ATOM     34  C   UNL A   1      37.731  28.905  28.766  1.00  0.00     0.010 A 
ATOM     35  C   UNL A   1      38.865  29.650  29.070  1.00  0.00    -0.014 A 
BRANCH  35  36
ATOM     36  C   UNL A   1      40.092  28.942  29.376  1.00  0.00     0.031 A 
ATOM     37  C   UNL A   1      40.356  28.891  30.833  1.00  0.00     0.074 A 
ATOM     38  C   UNL A   1      40.825  28.278  28.459  1.00  0.00     0.049 A 
ATOM     39  N   UNL A   1      41.296  29.497  31.474  1.00  0.00    -0.248 NA
ATOM     40  C   UNL A   1      39.344  28.268  31.705  1.00  0.00     0.031 C 
ATOM     41  C   UNL A   1      40.530  28.049  27.044  1.00  0.00     0.029 A 
ATOM     42  N   UNL A   1      41.977  27.578  28.639  1.00  0.00    -0.354 N 
ATOM     43  C   UNL A   1      41.144  29.123  32.802  1.00  0.00     0.074 A 
ATOM     44  C   UNL A   1      39.824  28.565  32.913  1.00  0.00     0.031 C 
ATOM     45  C   UNL A   1      41.353  27.085  26.564  1.00  0.00     0.029 A 
ATOM     46  C   UNL A   1      42.313  26.717  27.596  1.00  0.00     0.049 A 
ATOM     47  H   UNL A   1      42.533  27.672  29.447  1.00  0.00     0.167 HD
ATOM     48  C   UNL A   1      42.219  29.063  33.632  1.00  0.00     0.034 A 
ATOM     49  C   UNL A   1      43.274  25.749  27.610  1.00  0.00     0.034 A 
ATOM     50  C   UNL A   1      43.323  29.837  33.106  1.00  0.00     0.049 A 
ATOM     51  C   UNL A   1      44.234  26.130  28.681  1.00  0.00     0.074 A 
ATOM     52  C   UNL A   1      43.466  31.162  32.732  1.00  0.00     0.029 A 
ATOM     53  N   UNL A   1      44.353  29.169  32.482  1.00  0.00    -0.354 N 
ATOM     54  N   UNL A   1      44.979  27.199  28.617  1.00  0.00    -0.248 NA
ATOM     55  C   UNL A   1      43.980  25.632  30.027  1.00  0.00     0.031 C 
ATOM     56  C   UNL A   1      44.211  31.118  31.515  1.00  0.00     0.029 A 
ATOM     57  C   UNL A   1      44.574  29.791  31.274  1.00  0.00     0.049 A 
ATOM     58  H   UNL A   1      44.842  28.390  32.835  1.00  0.00     0.167 HD
ATOM     59  C   UNL A   1      44.911  27.760  29.883  1.00  0.00     0.074 A 
ATOM     60  C   UNL A   1      44.347  26.707  30.732  1.00  0.00     0.031 C 
ATOM     61  C   UNL A   1      45.034  29.107  30.078  1.00  0.00     0.034 A 
BRANCH  48  62
ATOM     62  C   UNL A   1      42.391  28.017  34.706  1.00  0.00     0.023 A 
ATOM     63  C   UNL A   1      43.142  26.874  34.384  1.00  0.00     0.031 A 
ATOM     64  C   UNL A   1      41.642  27.943  35.906  1.00  0.00     0.131 A 
ATOM     65  C   UNL A   1      43.062  25.713  35.174  1.00  0.00     0.055 A 
ATOM     66  C   UNL A   1      41.621  26.812  36.724  1.00  0.00     0.041 A 
ATOM     67  F   UNL A   1      40.811  28.912  36.306  1.00  0.00    -0.206 F 
ATOM     68  C   UNL A   1      42.309  25.676  36.344  1.00  0.00     0.022 A 
BRANCH  65  69
ATOM     69  S   UNL A   1      43.818  24.193  34.546  1.00  0.00     0.124 S 
ATOM     70  O   UNL A   1      42.644  23.400  34.200  1.00  0.00    -0.237 OA
ATOM     71  O   UNL A   1      44.610  24.693  33.427  1.00  0.00    -0.237 OA
ATOM     72  O   UNL A   1      44.590  23.704  35.685  1.00  0.00    -0.744 OA
ENDBRANCH  65  69
ENDBRANCH  48  62
BRANCH  49  73
ATOM     73  C   UNL A   1      43.207  24.372  27.024  1.00  0.00     0.023 A 
ATOM     74  C   UNL A   1      44.074  23.918  26.000  1.00  0.00     0.031 A 
ATOM     75  C   UNL A   1      42.429  23.380  27.665  1.00  0.00     0.131 A 
ATOM     76  C   UNL A   1      44.137  22.540  25.667  1.00  0.00     0.055 A 
ATOM     77  C   UNL A   1      42.500  22.023  27.336  1.00  0.00     0.041 A 
ATOM     78  F   UNL A   1      41.632  23.682  28.700  1.00  0.00    -0.206 F 
ATOM     79  C   UNL A   1      43.363  21.595  26.343  1.00  0.00     0.022 A 
BRANCH  76  80
ATOM     80  S   UNL A   1      45.301  21.922  24.399  1.00  0.00     0.124 S 
ATOM     81  O   UNL A   1      45.517  23.106  23.574  1.00  0.00    -0.237 OA
ATOM     82  O   UNL A   1      46.433  21.472  25.198  1.00  0.00    -0.237 OA
ATOM     83  O   UNL A   1      44.553  20.848  23.743  1.00  0.00    -0.744 OA
ENDBRANCH  76  80
ENDBRANCH  49  73
BRANCH  61  84
ATOM     84  C   UNL A   1      45.496  29.975  28.918  1.00  0.00     0.023 A 
ATOM     85  C   UNL A   1      46.843  30.288  28.611  1.00  0.00     0.031 A 
ATOM     86  C   UNL A   1      44.511  30.406  28.010  1.00  0.00     0.131 A 
ATOM     87  C   UNL A   1      47.153  31.014  27.440  1.00  0.00     0.055 A 
ATOM     88  C   UNL A   1      44.823  31.099  26.842  1.00  0.00     0.041 A 
ATOM     89  F   UNL A   1      43.215  30.126  28.228  1.00  0.00    -0.206 F 
ATOM     90  C   UNL A   1      46.146  31.411  26.555  1.00  0.00     0.022 A 
BRANCH  87  91
ATOM     91  S   UNL A   1      48.873  31.481  27.051  1.00  0.00     0.124 S 
ATOM     92  O   UNL A   1      49.438  30.263  26.482  1.00  0.00    -0.237 OA
ATOM     93  O   UNL A   1      48.698  32.599  26.128  1.00  0.00    -0.237 OA
ATOM     94  O   UNL A   1      49.426  31.856  28.355  1.00  0.00    -0.744 OA
ENDBRANCH  87  91
ENDBRANCH  61  84
ENDBRANCH  35  36
ENDBRANCH  28  30
ENDBRANCH  27  28
ENDBRANCH  26  27
ENDBRANCH   1  26
TORSDOF 17
ENDMDL
MODEL 2
REMARK VINA RESULT:     -12.4      3.702      9.375
REMARK SMILES CC(C)Oc1ccc([C@@H]2CC(=O)Nc3c(C(=O)OCCOC(=O)c4ccc(-c5c6nc(c(-c7cc(S(=O)(=O)[O-])ccc7F)c7ccc([nH]7)c(-c7cc(S(=O)(=O)[O-])ccc7F)c7nc(c(-c8cc(S(=O)(=O)[O-])ccc8F)c8ccc5[nH]8)C=C7)C=C6)cc4)nsc32)cc1
REMARK SMILES IDX 19 1 18 2 16 3 17 4 15 5 9 6 10 7 89 8 11 9 14 10 88 11
REMARK SMILES IDX 12 12 13 13 87 14 8 16 5 17 6 18 91 19 7 20 90 21 4 22 2 23
REMARK SMILES IDX 1 24 3 25 20 26 21 27 22 28 23 29 24 30 25 31 86 32 26 33
REMARK SMILES IDX 85 34 27 35 28 36 29 37 79 38 30 39 84 40 78 41 80 42 31 43
REMARK SMILES IDX 83 44 77 45 76 46 32 48 64 49 44 50 63 51 45 52 48 53 62 54
REMARK SMILES IDX 81 55 46 56 47 57 61 59 82 60 49 61 33 62 34 63 42 64 35 65
REMARK SMILES IDX 41 66 43 67 40 68 36 69 37 70 38 71 39 72 65 73 66 74 74 75
REMARK SMILES IDX 67 76 73 77 75 78 72 79 68 80 69 81 70 82 71 83 50 84 51 85
REMARK SMILES IDX 59 86 52 87 58 88 60 89 57 90 53 91 54 92 55 93 56 94
REMARK H PARENT 13 15 80 47 48 58
REMARK Flexibility Score: inf
ROOT
ATOM      1  C   UNL A   1      36.720  21.845  25.752  1.00  0.00     0.275 C 
ENDROOT
BRANCH   1   2
ATOM      2  O   UNL A   1      36.181  23.045  25.178  1.00  0.00    -0.457 OA
BRANCH   2   3
ATOM      3  C   UNL A   1      35.881  22.990  23.840  1.00  0.00     0.360 C 
ATOM      4  O   UNL A   1      36.659  22.559  22.988  1.00  0.00    -0.244 OA
BRANCH   3   5
ATOM      5  C   UNL A   1      34.534  23.497  23.555  1.00  0.00     0.185 A 
ATOM      6  C   UNL A   1      31.191  24.743  24.715  1.00  0.00     0.073 C 
ATOM      7  C   UNL A   1      31.468  24.660  26.232  1.00  0.00     0.114 C 
ATOM      8  C   UNL A   1      32.391  24.269  23.960  1.00  0.00     0.058 A 
ATOM      9  C   UNL A   1      32.382  23.525  26.668  1.00  0.00     0.225 C 
ATOM     10  C   UNL A   1      33.459  23.611  24.507  1.00  0.00     0.091 A 
ATOM     11  S   UNL A   1      32.658  24.450  22.291  1.00  0.00    -0.038 S 
ATOM     12  O   UNL A   1      32.313  23.041  27.798  1.00  0.00    -0.275 OA
ATOM     13  N   UNL A   1      33.405  23.188  25.821  1.00  0.00    -0.323 N 
ATOM     14  N   UNL A   1      34.232  23.938  22.323  1.00  0.00    -0.183 NA
ATOM     15  H   UNL A   1      34.131  22.619  26.164  1.00  0.00     0.170 HD
BRANCH   6  16
ATOM     16  C   UNL A   1      30.852  26.182  24.335  1.00  0.00    -0.039 A 
ATOM     17  C   UNL A   1      30.041  28.825  23.822  1.00  0.00     0.119 A 
ATOM     18  C   UNL A   1      31.257  28.569  24.459  1.00  0.00     0.047 A 
ATOM     19  C   UNL A   1      29.267  27.764  23.374  1.00  0.00     0.047 A 
ATOM     20  C   UNL A   1      31.662  27.254  24.723  1.00  0.00     0.008 A 
ATOM     21  C   UNL A   1      29.658  26.457  23.643  1.00  0.00     0.008 A 
BRANCH  17  22
ATOM     22  O   UNL A   1      29.719  30.128  23.574  1.00  0.00    -0.491 OA
BRANCH  22  23
ATOM     23  C   UNL A   1      28.444  30.413  22.967  1.00  0.00     0.167 C 
ATOM     24  C   UNL A   1      27.645  31.516  23.660  1.00  0.00     0.052 C 
ATOM     25  C   UNL A   1      28.511  30.610  21.453  1.00  0.00     0.052 C 
ENDBRANCH  22  23
ENDBRANCH  17  22
ENDBRANCH   6  16
ENDBRANCH   3   5
ENDBRANCH   2   3
ENDBRANCH   1   2
BRANCH   1  26
ATOM     26  C   UNL A   1      38.233  21.944  25.843  1.00  0.00     0.275 C 
BRANCH  26  27
ATOM     27  O   UNL A   1      38.624  23.178  26.439  1.00  0.00    -0.458 OA
BRANCH  27  28
ATOM     28  C   UNL A   1      39.777  23.149  27.149  1.00  0.00     0.338 C 
ATOM     29  O   UNL A   1      40.288  22.167  27.661  1.00  0.00    -0.246 OA
BRANCH  28  30
ATOM     30  C   UNL A   1      40.193  24.533  27.408  1.00  0.00     0.060 A 
ATOM     31  C   UNL A   1      41.374  24.749  28.121  1.00  0.00     0.016 A 
ATOM     32  C   UNL A   1      39.278  25.571  27.172  1.00  0.00     0.016 A 
ATOM     33  C   UNL A   1      41.556  25.974  28.735  1.00  0.00     0.010 A 
ATOM     34  C   UNL A   1      39.449  26.779  27.802  1.00  0.00     0.010 A 
ATOM     35  C   UNL A   1      40.551  26.947  28.632  1.00  0.00    -0.014 A 
BRANCH  35  36
ATOM     36  C   UNL A   1      40.751  28.238  29.260  1.00  0.00     0.031 A 
ATOM     37  C   UNL A   1      41.820  29.020  28.596  1.00  0.00     0.074 A 
ATOM     38  C   UNL A   1      39.957  28.731  30.232  1.00  0.00     0.049 A 
ATOM     39  N   UNL A   1      42.977  29.319  29.079  1.00  0.00    -0.248 NA
ATOM     40  C   UNL A   1      41.674  29.326  27.161  1.00  0.00     0.031 C 
ATOM     41  C   UNL A   1      38.729  28.160  30.789  1.00  0.00     0.029 A 
ATOM     42  N   UNL A   1      40.048  29.925  30.877  1.00  0.00    -0.354 N 
ATOM     43  C   UNL A   1      43.607  30.074  28.099  1.00  0.00     0.074 A 
ATOM     44  C   UNL A   1      42.866  29.856  26.886  1.00  0.00     0.031 C 
ATOM     45  C   UNL A   1      38.081  29.107  31.510  1.00  0.00     0.029 A 
ATOM     46  C   UNL A   1      38.902  30.307  31.573  1.00  0.00     0.049 A 
ATOM     47  H   UNL A   1      40.862  30.479  30.854  1.00  0.00     0.167 HD
ATOM     48  C   UNL A   1      44.523  31.021  28.435  1.00  0.00     0.034 A 
ATOM     49  C   UNL A   1      38.642  31.534  32.111  1.00  0.00     0.034 A 
ATOM     50  C   UNL A   1      45.036  30.793  29.769  1.00  0.00     0.049 A 
ATOM     51  C   UNL A   1      39.961  32.192  32.308  1.00  0.00     0.074 A 
ATOM     52  C   UNL A   1      45.662  29.720  30.380  1.00  0.00     0.029 A 
ATOM     53  N   UNL A   1      44.548  31.566  30.799  1.00  0.00    -0.354 N 
ATOM     54  N   UNL A   1      40.854  31.750  33.152  1.00  0.00    -0.248 NA
ATOM     55  C   UNL A   1      40.490  32.994  31.212  1.00  0.00     0.031 C 
ATOM     56  C   UNL A   1      45.055  29.631  31.669  1.00  0.00     0.029 A 
ATOM     57  C   UNL A   1      44.181  30.710  31.815  1.00  0.00     0.049 A 
ATOM     58  H   UNL A   1      44.474  32.548  30.809  1.00  0.00     0.167 HD
ATOM     59  C   UNL A   1      42.059  31.824  32.470  1.00  0.00     0.074 A 
ATOM     60  C   UNL A   1      41.784  32.673  31.309  1.00  0.00     0.031 C 
ATOM     61  C   UNL A   1      43.085  30.961  32.735  1.00  0.00     0.034 A 
BRANCH  48  62
ATOM     62  C   UNL A   1      44.668  32.340  27.716  1.00  0.00     0.023 A 
ATOM     63  C   UNL A   1      43.958  33.439  28.228  1.00  0.00     0.031 A 
ATOM     64  C   UNL A   1      45.222  32.512  26.424  1.00  0.00     0.131 A 
ATOM     65  C   UNL A   1      43.749  34.589  27.445  1.00  0.00     0.055 A 
ATOM     66  C   UNL A   1      45.070  33.683  25.679  1.00  0.00     0.041 A 
ATOM     67  F   UNL A   1      45.850  31.533  25.764  1.00  0.00    -0.206 F 
ATOM     68  C   UNL A   1      44.305  34.720  26.176  1.00  0.00     0.022 A 
BRANCH  65  69
ATOM     69  S   UNL A   1      42.587  35.839  28.049  1.00  0.00     0.124 S 
ATOM     70  O   UNL A   1      43.436  36.625  28.938  1.00  0.00    -0.237 OA
ATOM     71  O   UNL A   1      42.176  36.489  26.809  1.00  0.00    -0.237 OA
ATOM     72  O   UNL A   1      41.553  35.047  28.710  1.00  0.00    -0.744 OA
ENDBRANCH  65  69
ENDBRANCH  48  62
BRANCH  49  73
ATOM     73  C   UNL A   1      37.345  32.285  32.114  1.00  0.00     0.023 A 
ATOM     74  C   UNL A   1      36.695  32.722  30.934  1.00  0.00     0.031 A 
ATOM     75  C   UNL A   1      36.587  32.358  33.306  1.00  0.00     0.131 A 
ATOM     76  C   UNL A   1      35.357  33.195  30.981  1.00  0.00     0.055 A 
ATOM     77  C   UNL A   1      35.268  32.819  33.344  1.00  0.00     0.041 A 
ATOM     78  F   UNL A   1      37.072  31.899  34.469  1.00  0.00    -0.206 F 
ATOM     79  C   UNL A   1      34.643  33.229  32.180  1.00  0.00     0.022 A 
BRANCH  76  80
ATOM     80  S   UNL A   1      34.474  33.696  29.461  1.00  0.00     0.124 S 
ATOM     81  O   UNL A   1      34.251  32.417  28.796  1.00  0.00    -0.237 OA
ATOM     82  O   UNL A   1      33.294  34.371  29.986  1.00  0.00    -0.237 OA
ATOM     83  O   UNL A   1      35.429  34.577  28.786  1.00  0.00    -0.744 OA
ENDBRANCH  76  80
ENDBRANCH  49  73
BRANCH  61  84
ATOM     84  C   UNL A   1      42.993  30.067  33.961  1.00  0.00     0.023 A 
ATOM     85  C   UNL A   1      42.316  28.825  34.024  1.00  0.00     0.031 A 
ATOM     86  C   UNL A   1      43.740  30.452  35.090  1.00  0.00     0.131 A 
ATOM     87  C   UNL A   1      42.396  28.031  35.189  1.00  0.00     0.055 A 
ATOM     88  C   UNL A   1      43.838  29.654  36.229  1.00  0.00     0.041 A 
ATOM     89  F   UNL A   1      44.423  31.609  35.092  1.00  0.00    -0.206 F 
ATOM     90  C   UNL A   1      43.161  28.443  36.285  1.00  0.00     0.022 A 
BRANCH  87  91
ATOM     91  S   UNL A   1      41.487  26.455  35.319  1.00  0.00     0.124 S 
ATOM     92  O   UNL A   1      42.499  25.450  35.015  1.00  0.00    -0.237 OA
ATOM     93  O   UNL A   1      41.001  26.480  36.696  1.00  0.00    -0.237 OA
ATOM     94  O   UNL A   1      40.437  26.585  34.305  1.00  0.00    -0.744 OA
ENDBRANCH  87  91
ENDBRANCH  61  84
ENDBRANCH  35  36
ENDBRANCH  28  30
ENDBRANCH  27  28
ENDBRANCH  26  27
ENDBRANCH   1  26
TORSDOF 17
ENDMDL
MODEL 3
REMARK VINA RESULT:     -12.1      1.933      2.633
REMARK SMILES CC(C)Oc1ccc([C@@H]2CC(=O)Nc3c(C(=O)OCCOC(=O)c4ccc(-c5c6nc(c(-c7cc(S(=O)(=O)[O-])ccc7F)c7ccc([nH]7)c(-c7cc(S(=O)(=O)[O-])ccc7F)c7nc(c(-c8cc(S(=O)(=O)[O-])ccc8F)c8ccc5[nH]8)C=C7)C=C6)cc4)nsc32)cc1
REMARK SMILES IDX 19 1 18 2 16 3 17 4 15 5 9 6 10 7 89 8 11 9 14 10 88 11
REMARK SMILES IDX 12 12 13 13 87 14 8 16 5 17 6 18 91 19 7 20 90 21 4 22 2 23
REMARK SMILES IDX 1 24 3 25 20 26 21 27 22 28 23 29 24 30 25 31 86 32 26 33
REMARK SMILES IDX 85 34 27 35 28 36 29 37 79 38 30 39 84 40 78 41 80 42 31 43
REMARK SMILES IDX 83 44 77 45 76 46 32 48 64 49 44 50 63 51 45 52 48 53 62 54
REMARK SMILES IDX 81 55 46 56 47 57 61 59 82 60 49 61 33 62 34 63 42 64 35 65
REMARK SMILES IDX 41 66 43 67 40 68 36 69 37 70 38 71 39 72 65 73 66 74 74 75
REMARK SMILES IDX 67 76 73 77 75 78 72 79 68 80 69 81 70 82 71 83 50 84 51 85
REMARK SMILES IDX 59 86 52 87 58 88 60 89 57 90 53 91 54 92 55 93 56 94
REMARK H PARENT 13 15 80 47 48 58
REMARK Flexibility Score: inf
ROOT
ATOM      1  C   UNL A   1      33.874  32.282  27.973  1.00  0.00     0.275 C 
ENDROOT
BRANCH   1   2
ATOM      2  O   UNL A   1      33.565  31.089  27.237  1.00  0.00    -0.457 OA
BRANCH   2   3
ATOM      3  C   UNL A   1      32.289  31.001  26.740  1.00  0.00     0.360 C 
ATOM      4  O   UNL A   1      31.554  31.977  26.584  1.00  0.00    -0.244 OA
BRANCH   3   5
ATOM      5  C   UNL A   1      31.917  29.620  26.414  1.00  0.00     0.185 A 
ATOM      6  C   UNL A   1      30.782  27.026  23.954  1.00  0.00     0.073 C 
ATOM      7  C   UNL A   1      30.714  27.948  22.717  1.00  0.00     0.114 C 
ATOM      8  C   UNL A   1      31.206  27.819  25.148  1.00  0.00     0.058 A 
ATOM      9  C   UNL A   1      30.311  29.388  22.996  1.00  0.00     0.225 C 
ATOM     10  C   UNL A   1      31.261  29.186  25.209  1.00  0.00     0.091 A 
ATOM     11  S   UNL A   1      31.693  27.186  26.648  1.00  0.00    -0.038 S 
ATOM     12  O   UNL A   1      29.761  30.079  22.140  1.00  0.00    -0.275 OA
ATOM     13  N   UNL A   1      30.747  29.941  24.171  1.00  0.00    -0.323 N 
ATOM     14  N   UNL A   1      32.223  28.627  27.266  1.00  0.00    -0.183 NA
ATOM     15  H   UNL A   1      30.692  30.917  24.281  1.00  0.00     0.170 HD
BRANCH   6  16
ATOM     16  C   UNL A   1      31.764  25.887  23.691  1.00  0.00    -0.039 A 
ATOM     17  C   UNL A   1      33.736  23.907  23.378  1.00  0.00     0.119 A 
ATOM     18  C   UNL A   1      32.555  23.627  24.070  1.00  0.00     0.047 A 
ATOM     19  C   UNL A   1      33.899  25.148  22.780  1.00  0.00     0.047 A 
ATOM     20  C   UNL A   1      31.573  24.613  24.234  1.00  0.00     0.008 A 
ATOM     21  C   UNL A   1      32.934  26.134  22.949  1.00  0.00     0.008 A 
BRANCH  17  22
ATOM     22  O   UNL A   1      34.639  22.894  23.235  1.00  0.00    -0.491 OA
BRANCH  22  23
ATOM     23  C   UNL A   1      35.343  22.436  24.405  1.00  0.00     0.167 C 
ATOM     24  C   UNL A   1      35.068  20.981  24.781  1.00  0.00     0.052 C 
ATOM     25  C   UNL A   1      36.837  22.759  24.392  1.00  0.00     0.052 C 
ENDBRANCH  22  23
ENDBRANCH  17  22
ENDBRANCH   6  16
ENDBRANCH   3   5
ENDBRANCH   2   3
ENDBRANCH   1   2
BRANCH   1  26
ATOM     26  C   UNL A   1      35.368  32.552  27.927  1.00  0.00     0.275 C 
BRANCH  26  27
ATOM     27  O   UNL A   1      35.845  32.971  29.204  1.00  0.00    -0.458 OA
BRANCH  27  28
ATOM     28  C   UNL A   1      35.985  31.992  30.129  1.00  0.00     0.338 C 
ATOM     29  O   UNL A   1      35.375  31.895  31.179  1.00  0.00    -0.246 OA
BRANCH  28  30
ATOM     30  C   UNL A   1      37.164  31.191  29.775  1.00  0.00     0.060 A 
ATOM     31  C   UNL A   1      37.004  29.813  29.611  1.00  0.00     0.016 A 
ATOM     32  C   UNL A   1      38.436  31.777  29.874  1.00  0.00     0.016 A 
ATOM     33  C   UNL A   1      38.124  29.007  29.707  1.00  0.00     0.010 A 
ATOM     34  C   UNL A   1      39.543  30.973  29.992  1.00  0.00     0.010 A 
ATOM     35  C   UNL A   1      39.369  29.594  29.976  1.00  0.00    -0.014 A 
BRANCH  35  36
ATOM     36  C   UNL A   1      40.544  28.749  30.058  1.00  0.00     0.031 A 
ATOM     37  C   UNL A   1      40.970  28.524  31.459  1.00  0.00     0.074 A 
ATOM     38  C   UNL A   1      41.092  28.119  28.999  1.00  0.00     0.049 A 
ATOM     39  N   UNL A   1      42.036  28.972  32.028  1.00  0.00    -0.248 NA
ATOM     40  C   UNL A   1      40.008  27.910  32.392  1.00  0.00     0.031 C 
ATOM     41  C   UNL A   1      40.611  28.065  27.617  1.00  0.00     0.029 A 
ATOM     42  N   UNL A   1      42.178  27.302  28.966  1.00  0.00    -0.354 N 
ATOM     43  C   UNL A   1      42.003  28.479  33.325  1.00  0.00     0.074 A 
ATOM     44  C   UNL A   1      40.655  28.035  33.551  1.00  0.00     0.031 C 
ATOM     45  C   UNL A   1      41.268  27.085  26.951  1.00  0.00     0.029 A 
ATOM     46  C   UNL A   1      42.299  26.527  27.814  1.00  0.00     0.049 A 
ATOM     47  H   UNL A   1      42.832  27.261  29.702  1.00  0.00     0.167 HD
ATOM     48  C   UNL A   1      43.156  28.236  34.003  1.00  0.00     0.034 A 
ATOM     49  C   UNL A   1      43.150  25.478  27.618  1.00  0.00     0.034 A 
ATOM     50  C   UNL A   1      44.264  28.955  33.414  1.00  0.00     0.049 A 
ATOM     51  C   UNL A   1      44.263  25.657  28.589  1.00  0.00     0.074 A 
ATOM     52  C   UNL A   1      44.499  30.293  33.147  1.00  0.00     0.029 A 
ATOM     53  N   UNL A   1      45.140  28.264  32.606  1.00  0.00    -0.354 N 
ATOM     54  N   UNL A   1      45.102  26.655  28.529  1.00  0.00    -0.248 NA
ATOM     55  C   UNL A   1      44.119  25.048  29.906  1.00  0.00     0.031 C 
ATOM     56  C   UNL A   1      45.087  30.307  31.847  1.00  0.00     0.029 A 
ATOM     57  C   UNL A   1      45.280  28.985  31.441  1.00  0.00     0.049 A 
ATOM     58  H   UNL A   1      45.584  27.411  32.822  1.00  0.00     0.167 HD
ATOM     59  C   UNL A   1      45.241  27.086  29.840  1.00  0.00     0.074 A 
ATOM     60  C   UNL A   1      44.675  26.007  30.653  1.00  0.00     0.031 C 
ATOM     61  C   UNL A   1      45.524  28.389  30.139  1.00  0.00     0.034 A 
BRANCH  48  62
ATOM     62  C   UNL A   1      43.344  27.072  34.947  1.00  0.00     0.023 A 
ATOM     63  C   UNL A   1      44.029  25.946  34.460  1.00  0.00     0.031 A 
ATOM     64  C   UNL A   1      42.660  26.894  36.173  1.00  0.00     0.131 A 
ATOM     65  C   UNL A   1      43.944  24.709  35.123  1.00  0.00     0.055 A 
ATOM     66  C   UNL A   1      42.637  25.681  36.865  1.00  0.00     0.041 A 
ATOM     67  F   UNL A   1      41.892  27.841  36.724  1.00  0.00    -0.206 F 
ATOM     68  C   UNL A   1      43.256  24.570  36.326  1.00  0.00     0.022 A 
BRANCH  65  69
ATOM     69  S   UNL A   1      44.602  23.242  34.292  1.00  0.00     0.124 S 
ATOM     70  O   UNL A   1      44.208  22.181  35.212  1.00  0.00    -0.237 OA
ATOM     71  O   UNL A   1      43.898  23.281  33.014  1.00  0.00    -0.237 OA
ATOM     72  O   UNL A   1      46.036  23.507  34.222  1.00  0.00    -0.744 OA
ENDBRANCH  65  69
ENDBRANCH  48  62
BRANCH  49  73
ATOM     73  C   UNL A   1      42.873  24.181  26.922  1.00  0.00     0.023 A 
ATOM     74  C   UNL A   1      43.792  23.556  26.044  1.00  0.00     0.031 A 
ATOM     75  C   UNL A   1      41.768  23.397  27.327  1.00  0.00     0.131 A 
ATOM     76  C   UNL A   1      43.588  22.217  25.619  1.00  0.00     0.055 A 
ATOM     77  C   UNL A   1      41.575  22.077  26.909  1.00  0.00     0.041 A 
ATOM     78  F   UNL A   1      40.877  23.856  28.217  1.00  0.00    -0.206 F 
ATOM     79  C   UNL A   1      42.490  21.476  26.063  1.00  0.00     0.022 A 
BRANCH  76  80
ATOM     80  S   UNL A   1      44.798  21.368  24.544  1.00  0.00     0.124 S 
ATOM     81  O   UNL A   1      44.265  20.011  24.489  1.00  0.00    -0.237 OA
ATOM     82  O   UNL A   1      44.728  22.143  23.312  1.00  0.00    -0.237 OA
ATOM     83  O   UNL A   1      46.058  21.501  25.276  1.00  0.00    -0.744 OA
ENDBRANCH  76  80
ENDBRANCH  49  73
BRANCH  61  84
ATOM     84  C   UNL A   1      45.934  29.326  29.014  1.00  0.00     0.023 A 
ATOM     85  C   UNL A   1      45.061  30.177  28.294  1.00  0.00     0.031 A 
ATOM     86  C   UNL A   1      47.312  29.443  28.749  1.00  0.00     0.131 A 
ATOM     87  C   UNL A   1      45.578  31.087  27.346  1.00  0.00     0.055 A 
ATOM     88  C   UNL A   1      47.821  30.360  27.832  1.00  0.00     0.041 A 
ATOM     89  F   UNL A   1      48.198  28.681  29.412  1.00  0.00    -0.206 F 
ATOM     90  C   UNL A   1      46.955  31.182  27.122  1.00  0.00     0.022 A 
BRANCH  87  91
ATOM     91  S   UNL A   1      44.471  32.152  26.362  1.00  0.00     0.124 S 
ATOM     92  O   UNL A   1      45.339  32.668  25.310  1.00  0.00    -0.237 OA
ATOM     93  O   UNL A   1      43.430  31.221  25.935  1.00  0.00    -0.237 OA
ATOM     94  O   UNL A   1      44.022  33.158  27.328  1.00  0.00    -0.744 OA
ENDBRANCH  87  91
ENDBRANCH  61  84
ENDBRANCH  35  36
ENDBRANCH  28  30
ENDBRANCH  27  28
ENDBRANCH  26  27
ENDBRANCH   1  26
TORSDOF 17
ENDMDL
