MODEL 1
REMARK VINA RESULT:     -11.6      0.000      0.000
REMARK SMILES COc1ccc(C(=O)N2CC[C@@H](C(=O)OCCOC(=O)c3ccc(-c4c5nc(c(-c6cc(S(=O)(=O)[O-])ccc6F)c6ccc([nH]6)c(-c6cc(S(=O)(=O)[O-])ccc6F)c6nc(c(-c7cc(S(=O)(=O)[O-])ccc7F)c7ccc4[nH]7)C=C6)C=C5)cc3)[C@H]2C)cc1O
REMARK SMILES IDX 16 1 15 2 13 3 14 4 12 5 9 6 10 7 84 8 11 9 85 10 7 11 8 12
REMARK SMILES IDX 6 13 3 14 4 15 87 16 5 17 86 18 2 19 1 20 88 21 17 23 18 24
REMARK SMILES IDX 19 25 20 26 21 27 22 28 83 29 23 30 82 31 24 32 25 33 26 34
REMARK SMILES IDX 76 35 27 36 81 37 75 38 77 39 28 40 80 41 74 42 73 43 29 45
REMARK SMILES IDX 61 46 41 47 60 48 42 49 45 50 59 51 78 52 43 53 44 54 58 56
REMARK SMILES IDX 79 57 46 58 30 59 31 60 39 61 32 62 38 63 40 64 37 65 33 66
REMARK SMILES IDX 34 67 35 68 36 69 62 70 63 71 71 72 64 73 70 74 72 75 69 76
REMARK SMILES IDX 65 77 66 78 67 79 68 80 47 81 48 82 56 83 49 84 55 85 57 86
REMARK SMILES IDX 54 87 50 88 51 89 52 90 53 91
REMARK H PARENT 88 22 77 44 45 55
REMARK Flexibility Score: inf
ROOT
ATOM      1  C   UNL A   1      31.275  29.845  25.416  1.00  0.00     0.274 C 
ENDROOT
BRANCH   1   2
ATOM      2  O   UNL A   1      32.147  28.697  25.445  1.00  0.00    -0.462 OA
BRANCH   2   3
ATOM      3  C   UNL A   1      31.564  27.502  25.683  1.00  0.00     0.311 C 
ATOM      4  O   UNL A   1      31.050  27.197  26.755  1.00  0.00    -0.252 OA
BRANCH   3   5
ATOM      5  C   UNL A   1      31.624  26.522  24.531  1.00  0.00     0.123 C 
ATOM      6  N   UNL A   1      32.304  24.433  23.620  1.00  0.00    -0.335 N 
ATOM      7  C   UNL A   1      30.863  24.536  23.526  1.00  0.00     0.121 C 
ATOM      8  C   UNL A   1      32.884  25.705  24.143  1.00  0.00     0.096 C 
ATOM      9  C   UNL A   1      30.510  25.484  24.648  1.00  0.00     0.039 C 
ATOM     10  C   UNL A   1      33.962  25.527  25.200  1.00  0.00     0.032 C 
BRANCH   6  11
ATOM     11  C   UNL A   1      32.936  23.498  22.810  1.00  0.00     0.254 C 
ATOM     12  O   UNL A   1      33.194  23.699  21.626  1.00  0.00    -0.269 OA
BRANCH  11  13
ATOM     13  C   UNL A   1      33.123  22.131  23.344  1.00  0.00     0.043 A 
ATOM     14  C   UNL A   1      33.490  19.554  24.410  1.00  0.00     0.160 A 
ATOM     15  C   UNL A   1      32.473  19.810  23.479  1.00  0.00     0.051 A 
ATOM     16  C   UNL A   1      34.300  20.618  24.815  1.00  0.00     0.158 A 
ATOM     17  C   UNL A   1      32.291  21.088  22.938  1.00  0.00     0.018 A 
ATOM     18  C   UNL A   1      34.079  21.905  24.338  1.00  0.00     0.064 A 
BRANCH  14  19
ATOM     19  O   UNL A   1      33.562  18.248  24.806  1.00  0.00    -0.493 OA
ATOM     20  C   UNL A   1      32.673  17.806  25.824  1.00  0.00     0.278 C 
ENDBRANCH  14  19
BRANCH  16  21
ATOM     21  O   UNL A   1      35.390  20.473  25.623  1.00  0.00    -0.504 OA
ATOM     22  H   UNL A   1      35.628  21.156  26.218  1.00  0.00     0.293 HD
ENDBRANCH  16  21
ENDBRANCH  11  13
ENDBRANCH   6  11
ENDBRANCH   3   5
ENDBRANCH   2   3
ENDBRANCH   1   2
BRANCH   1  23
ATOM     23  C   UNL A   1      31.774  30.947  26.359  1.00  0.00     0.275 C 
BRANCH  23  24
ATOM     24  O   UNL A   1      33.142  30.740  26.759  1.00  0.00    -0.458 OA
BRANCH  24  25
ATOM     25  C   UNL A   1      33.721  31.779  27.407  1.00  0.00     0.338 C 
ATOM     26  O   UNL A   1      33.215  32.859  27.664  1.00  0.00    -0.246 OA
BRANCH  25  27
ATOM     27  C   UNL A   1      35.045  31.394  27.907  1.00  0.00     0.060 A 
ATOM     28  C   UNL A   1      35.230  30.072  28.319  1.00  0.00     0.016 A 
ATOM     29  C   UNL A   1      36.055  32.341  28.073  1.00  0.00     0.016 A 
ATOM     30  C   UNL A   1      36.423  29.686  28.915  1.00  0.00     0.010 A 
ATOM     31  C   UNL A   1      37.258  31.949  28.664  1.00  0.00     0.010 A 
ATOM     32  C   UNL A   1      37.443  30.624  29.099  1.00  0.00    -0.014 A 
BRANCH  32  33
ATOM     33  C   UNL A   1      38.681  30.235  29.809  1.00  0.00     0.031 A 
ATOM     34  C   UNL A   1      39.605  29.234  29.179  1.00  0.00     0.074 A 
ATOM     35  C   UNL A   1      38.967  30.783  31.003  1.00  0.00     0.049 A 
ATOM     36  N   UNL A   1      40.646  28.632  29.689  1.00  0.00    -0.248 NA
ATOM     37  C   UNL A   1      39.306  28.860  27.789  1.00  0.00     0.031 C 
ATOM     38  C   UNL A   1      38.175  31.820  31.667  1.00  0.00     0.029 A 
ATOM     39  N   UNL A   1      39.996  30.538  31.875  1.00  0.00    -0.354 N 
ATOM     40  C   UNL A   1      41.117  27.785  28.692  1.00  0.00     0.074 A 
ATOM     41  C   UNL A   1      40.233  27.941  27.555  1.00  0.00     0.031 C 
ATOM     42  C   UNL A   1      38.742  32.113  32.848  1.00  0.00     0.029 A 
ATOM     43  C   UNL A   1      39.897  31.243  33.050  1.00  0.00     0.049 A 
ATOM     44  H   UNL A   1      40.735  29.917  31.678  1.00  0.00     0.167 HD
ATOM     45  C   UNL A   1      42.188  26.954  28.731  1.00  0.00     0.034 A 
ATOM     46  C   UNL A   1      40.627  31.160  34.179  1.00  0.00     0.034 A 
ATOM     47  C   UNL A   1      43.049  26.819  29.881  1.00  0.00     0.049 A 
ATOM     48  C   UNL A   1      41.763  30.170  34.230  1.00  0.00     0.074 A 
ATOM     49  C   UNL A   1      44.150  25.998  30.048  1.00  0.00     0.029 A 
ATOM     50  N   UNL A   1      42.903  27.531  31.067  1.00  0.00    -0.354 N 
ATOM     51  N   UNL A   1      42.170  29.332  33.304  1.00  0.00    -0.248 NA
ATOM     52  C   UNL A   1      42.536  30.113  35.476  1.00  0.00     0.031 C 
ATOM     53  C   UNL A   1      44.633  26.170  31.350  1.00  0.00     0.029 A 
ATOM     54  C   UNL A   1      43.879  27.152  31.975  1.00  0.00     0.049 A 
ATOM     55  H   UNL A   1      42.208  28.206  31.237  1.00  0.00     0.167 HD
ATOM     56  C   UNL A   1      43.267  28.669  33.847  1.00  0.00     0.074 A 
ATOM     57  C   UNL A   1      43.460  29.211  35.178  1.00  0.00     0.031 C 
ATOM     58  C   UNL A   1      44.048  27.705  33.297  1.00  0.00     0.034 A 
BRANCH  45  59
ATOM     59  C   UNL A   1      42.431  26.085  27.521  1.00  0.00     0.023 A 
ATOM     60  C   UNL A   1      41.924  24.777  27.430  1.00  0.00     0.031 A 
ATOM     61  C   UNL A   1      43.224  26.558  26.460  1.00  0.00     0.131 A 
ATOM     62  C   UNL A   1      42.274  23.966  26.339  1.00  0.00     0.055 A 
ATOM     63  C   UNL A   1      43.504  25.773  25.340  1.00  0.00     0.041 A 
ATOM     64  F   UNL A   1      43.757  27.789  26.502  1.00  0.00    -0.206 F 
ATOM     65  C   UNL A   1      43.040  24.462  25.283  1.00  0.00     0.022 A 
BRANCH  62  66
ATOM     66  S   UNL A   1      41.832  22.206  26.387  1.00  0.00     0.124 S 
ATOM     67  O   UNL A   1      42.251  21.835  27.736  1.00  0.00    -0.237 OA
ATOM     68  O   UNL A   1      40.393  22.235  26.149  1.00  0.00    -0.237 OA
ATOM     69  O   UNL A   1      42.632  21.621  25.312  1.00  0.00    -0.744 OA
ENDBRANCH  62  66
ENDBRANCH  45  59
BRANCH  46  70
ATOM     70  C   UNL A   1      40.277  31.988  35.368  1.00  0.00     0.023 A 
ATOM     71  C   UNL A   1      39.288  31.575  36.273  1.00  0.00     0.031 A 
ATOM     72  C   UNL A   1      40.904  33.226  35.594  1.00  0.00     0.131 A 
ATOM     73  C   UNL A   1      38.927  32.411  37.341  1.00  0.00     0.055 A 
ATOM     74  C   UNL A   1      40.578  34.030  36.686  1.00  0.00     0.041 A 
ATOM     75  F   UNL A   1      41.858  33.668  34.758  1.00  0.00    -0.206 F 
ATOM     76  C   UNL A   1      39.574  33.629  37.561  1.00  0.00     0.022 A 
BRANCH  73  77
ATOM     77  S   UNL A   1      37.537  31.918  38.397  1.00  0.00     0.124 S 
ATOM     78  O   UNL A   1      38.114  32.052  39.730  1.00  0.00    -0.237 OA
ATOM     79  O   UNL A   1      36.520  32.900  38.036  1.00  0.00    -0.237 OA
ATOM     80  O   UNL A   1      37.256  30.548  37.973  1.00  0.00    -0.744 OA
ENDBRANCH  73  77
ENDBRANCH  46  70
BRANCH  58  81
ATOM     81  C   UNL A   1      45.218  27.228  34.120  1.00  0.00     0.023 A 
ATOM     82  C   UNL A   1      45.119  26.116  34.973  1.00  0.00     0.031 A 
ATOM     83  C   UNL A   1      46.447  27.908  34.050  1.00  0.00     0.131 A 
ATOM     84  C   UNL A   1      46.219  25.745  35.761  1.00  0.00     0.055 A 
ATOM     85  C   UNL A   1      47.552  27.502  34.798  1.00  0.00     0.041 A 
ATOM     86  F   UNL A   1      46.592  28.977  33.251  1.00  0.00    -0.206 F 
ATOM     87  C   UNL A   1      47.438  26.422  35.668  1.00  0.00     0.022 A 
BRANCH  84  88
ATOM     88  S   UNL A   1      46.015  24.407  36.969  1.00  0.00     0.124 S 
ATOM     89  O   UNL A   1      45.873  25.146  38.220  1.00  0.00    -0.237 OA
ATOM     90  O   UNL A   1      44.813  23.733  36.489  1.00  0.00    -0.237 OA
ATOM     91  O   UNL A   1      47.250  23.636  36.840  1.00  0.00    -0.744 OA
ENDBRANCH  84  88
ENDBRANCH  58  81
ENDBRANCH  32  33
ENDBRANCH  25  27
ENDBRANCH  24  25
ENDBRANCH  23  24
ENDBRANCH   1  23
TORSDOF 18
ENDMDL
MODEL 2
REMARK VINA RESULT:     -11.6      1.641      1.950
REMARK SMILES COc1ccc(C(=O)N2CC[C@@H](C(=O)OCCOC(=O)c3ccc(-c4c5nc(c(-c6cc(S(=O)(=O)[O-])ccc6F)c6ccc([nH]6)c(-c6cc(S(=O)(=O)[O-])ccc6F)c6nc(c(-c7cc(S(=O)(=O)[O-])ccc7F)c7ccc4[nH]7)C=C6)C=C5)cc3)[C@H]2C)cc1O
REMARK SMILES IDX 16 1 15 2 13 3 14 4 12 5 9 6 10 7 84 8 11 9 85 10 7 11 8 12
REMARK SMILES IDX 6 13 3 14 4 15 87 16 5 17 86 18 2 19 1 20 88 21 17 23 18 24
REMARK SMILES IDX 19 25 20 26 21 27 22 28 83 29 23 30 82 31 24 32 25 33 26 34
REMARK SMILES IDX 76 35 27 36 81 37 75 38 77 39 28 40 80 41 74 42 73 43 29 45
REMARK SMILES IDX 61 46 41 47 60 48 42 49 45 50 59 51 78 52 43 53 44 54 58 56
REMARK SMILES IDX 79 57 46 58 30 59 31 60 39 61 32 62 38 63 40 64 37 65 33 66
REMARK SMILES IDX 34 67 35 68 36 69 62 70 63 71 71 72 64 73 70 74 72 75 69 76
REMARK SMILES IDX 65 77 66 78 67 79 68 80 47 81 48 82 56 83 49 84 55 85 57 86
REMARK SMILES IDX 54 87 50 88 51 89 52 90 53 91
REMARK H PARENT 88 22 77 44 45 55
REMARK Flexibility Score: inf
ROOT
ATOM      1  C   UNL A   1      31.637  29.295  24.292  1.00  0.00     0.274 C 
ENDROOT
BRANCH   1   2
ATOM      2  O   UNL A   1      30.620  28.273  24.344  1.00  0.00    -0.462 OA
BRANCH   2   3
ATOM      3  C   UNL A   1      30.696  27.298  23.413  1.00  0.00     0.311 C 
ATOM      4  O   UNL A   1      30.432  27.469  22.226  1.00  0.00    -0.252 OA
BRANCH   3   5
ATOM      5  C   UNL A   1      31.093  25.938  23.943  1.00  0.00     0.123 C 
ATOM      6  N   UNL A   1      32.594  24.539  25.145  1.00  0.00    -0.335 N 
ATOM      7  C   UNL A   1      31.285  24.453  25.758  1.00  0.00     0.121 C 
ATOM      8  C   UNL A   1      32.537  25.373  23.909  1.00  0.00     0.096 C 
ATOM      9  C   UNL A   1      30.646  25.773  25.394  1.00  0.00     0.039 C 
ATOM     10  C   UNL A   1      33.678  26.366  23.757  1.00  0.00     0.032 C 
BRANCH   6  11
ATOM     11  C   UNL A   1      33.503  23.527  25.429  1.00  0.00     0.254 C 
ATOM     12  O   UNL A   1      34.628  23.739  25.876  1.00  0.00    -0.269 OA
BRANCH  11  13
ATOM     13  C   UNL A   1      33.174  22.154  24.985  1.00  0.00     0.043 A 
ATOM     14  C   UNL A   1      32.519  19.538  24.187  1.00  0.00     0.160 A 
ATOM     15  C   UNL A   1      32.542  20.589  23.259  1.00  0.00     0.051 A 
ATOM     16  C   UNL A   1      32.805  19.828  25.523  1.00  0.00     0.158 A 
ATOM     17  C   UNL A   1      32.876  21.892  23.647  1.00  0.00     0.018 A 
ATOM     18  C   UNL A   1      33.065  21.132  25.930  1.00  0.00     0.064 A 
BRANCH  14  19
ATOM     19  O   UNL A   1      32.218  18.323  23.638  1.00  0.00    -0.493 OA
ATOM     20  C   UNL A   1      33.293  17.494  23.217  1.00  0.00     0.278 C 
ENDBRANCH  14  19
BRANCH  16  21
ATOM     21  O   UNL A   1      32.927  18.876  26.494  1.00  0.00    -0.504 OA
ATOM     22  H   UNL A   1      32.586  19.035  27.352  1.00  0.00     0.293 HD
ENDBRANCH  16  21
ENDBRANCH  11  13
ENDBRANCH   6  11
ENDBRANCH   3   5
ENDBRANCH   2   3
ENDBRANCH   1   2
BRANCH   1  23
ATOM     23  C   UNL A   1      31.804  29.984  25.652  1.00  0.00     0.275 C 
BRANCH  23  24
ATOM     24  O   UNL A   1      33.187  30.087  26.042  1.00  0.00    -0.458 OA
BRANCH  24  25
ATOM     25  C   UNL A   1      33.462  31.049  26.954  1.00  0.00     0.338 C 
ATOM     26  O   UNL A   1      32.720  31.941  27.328  1.00  0.00    -0.246 OA
BRANCH  25  27
ATOM     27  C   UNL A   1      34.772  30.809  27.568  1.00  0.00     0.060 A 
ATOM     28  C   UNL A   1      35.070  29.511  27.989  1.00  0.00     0.016 A 
ATOM     29  C   UNL A   1      35.649  31.861  27.829  1.00  0.00     0.016 A 
ATOM     30  C   UNL A   1      36.241  29.252  28.687  1.00  0.00     0.010 A 
ATOM     31  C   UNL A   1      36.831  31.599  28.524  1.00  0.00     0.010 A 
ATOM     32  C   UNL A   1      37.127  30.297  28.967  1.00  0.00    -0.014 A 
BRANCH  32  33
ATOM     33  C   UNL A   1      38.333  30.040  29.783  1.00  0.00     0.031 A 
ATOM     34  C   UNL A   1      39.393  29.117  29.257  1.00  0.00     0.074 A 
ATOM     35  C   UNL A   1      38.471  30.637  30.980  1.00  0.00     0.049 A 
ATOM     36  N   UNL A   1      40.440  28.625  29.864  1.00  0.00    -0.248 NA
ATOM     37  C   UNL A   1      39.243  28.687  27.858  1.00  0.00     0.031 C 
ATOM     38  C   UNL A   1      37.536  31.609  31.550  1.00  0.00     0.029 A 
ATOM     39  N   UNL A   1      39.443  30.507  31.937  1.00  0.00    -0.354 N 
ATOM     40  C   UNL A   1      41.065  27.804  28.932  1.00  0.00     0.074 A 
ATOM     41  C   UNL A   1      40.266  27.854  27.724  1.00  0.00     0.031 C 
ATOM     42  C   UNL A   1      37.976  31.979  32.763  1.00  0.00     0.029 A 
ATOM     43  C   UNL A   1      39.185  31.224  33.081  1.00  0.00     0.049 A 
ATOM     44  H   UNL A   1      40.249  29.953  31.817  1.00  0.00     0.167 HD
ATOM     45  C   UNL A   1      42.200  27.078  29.079  1.00  0.00     0.034 A 
ATOM     46  C   UNL A   1      39.826  31.233  34.266  1.00  0.00     0.034 A 
ATOM     47  C   UNL A   1      42.974  27.048  30.297  1.00  0.00     0.049 A 
ATOM     48  C   UNL A   1      41.039  30.354  34.434  1.00  0.00     0.074 A 
ATOM     49  C   UNL A   1      44.128  26.336  30.573  1.00  0.00     0.029 A 
ATOM     50  N   UNL A   1      42.668  27.767  31.447  1.00  0.00    -0.354 N 
ATOM     51  N   UNL A   1      41.595  29.539  33.567  1.00  0.00    -0.248 NA
ATOM     52  C   UNL A   1      41.711  30.395  35.739  1.00  0.00     0.031 C 
ATOM     53  C   UNL A   1      44.486  26.580  31.904  1.00  0.00     0.029 A 
ATOM     54  C   UNL A   1      43.598  27.500  32.439  1.00  0.00     0.049 A 
ATOM     55  H   UNL A   1      41.902  28.378  31.542  1.00  0.00     0.167 HD
ATOM     56  C   UNL A   1      42.700  28.992  34.214  1.00  0.00     0.074 A 
ATOM     57  C   UNL A   1      42.734  29.577  35.540  1.00  0.00     0.031 C 
ATOM     58  C   UNL A   1      43.608  28.094  33.755  1.00  0.00     0.034 A 
BRANCH  45  59
ATOM     59  C   UNL A   1      42.620  26.210  27.917  1.00  0.00     0.023 A 
ATOM     60  C   UNL A   1      42.080  24.928  27.713  1.00  0.00     0.031 A 
ATOM     61  C   UNL A   1      43.610  26.656  27.024  1.00  0.00     0.131 A 
ATOM     62  C   UNL A   1      42.585  24.112  26.688  1.00  0.00     0.055 A 
ATOM     63  C   UNL A   1      44.053  25.869  25.959  1.00  0.00     0.041 A 
ATOM     64  F   UNL A   1      44.181  27.861  27.184  1.00  0.00    -0.206 F 
ATOM     65  C   UNL A   1      43.550  24.582  25.796  1.00  0.00     0.022 A 
BRANCH  62  66
ATOM     66  S   UNL A   1      42.065  22.375  26.625  1.00  0.00     0.124 S 
ATOM     67  O   UNL A   1      42.675  21.840  27.839  1.00  0.00    -0.237 OA
ATOM     68  O   UNL A   1      40.610  22.480  26.633  1.00  0.00    -0.237 OA
ATOM     69  O   UNL A   1      42.648  21.886  25.377  1.00  0.00    -0.744 OA
ENDBRANCH  62  66
ENDBRANCH  45  59
BRANCH  46  70
ATOM     70  C   UNL A   1      39.306  32.049  35.399  1.00  0.00     0.023 A 
ATOM     71  C   UNL A   1      39.733  33.371  35.598  1.00  0.00     0.031 A 
ATOM     72  C   UNL A   1      38.399  31.502  36.324  1.00  0.00     0.131 A 
ATOM     73  C   UNL A   1      39.284  34.089  36.717  1.00  0.00     0.055 A 
ATOM     74  C   UNL A   1      37.915  32.236  37.407  1.00  0.00     0.041 A 
ATOM     75  F   UNL A   1      37.958  30.241  36.181  1.00  0.00    -0.206 F 
ATOM     76  C   UNL A   1      38.368  33.535  37.615  1.00  0.00     0.022 A 
BRANCH  73  77
ATOM     77  S   UNL A   1      39.977  35.735  37.028  1.00  0.00     0.124 S 
ATOM     78  O   UNL A   1      39.252  36.142  38.226  1.00  0.00    -0.237 OA
ATOM     79  O   UNL A   1      41.395  35.437  37.206  1.00  0.00    -0.237 OA
ATOM     80  O   UNL A   1      39.646  36.479  35.814  1.00  0.00    -0.744 OA
ENDBRANCH  73  77
ENDBRANCH  46  70
BRANCH  58  81
ATOM     81  C   UNL A   1      44.745  27.745  34.681  1.00  0.00     0.023 A 
ATOM     82  C   UNL A   1      44.617  26.759  35.673  1.00  0.00     0.031 A 
ATOM     83  C   UNL A   1      45.973  28.421  34.567  1.00  0.00     0.131 A 
ATOM     84  C   UNL A   1      45.685  26.510  36.547  1.00  0.00     0.055 A 
ATOM     85  C   UNL A   1      47.049  28.132  35.406  1.00  0.00     0.041 A 
ATOM     86  F   UNL A   1      46.146  29.372  33.634  1.00  0.00    -0.206 F 
ATOM     87  C   UNL A   1      46.905  27.180  36.411  1.00  0.00     0.022 A 
BRANCH  84  88
ATOM     88  S   UNL A   1      45.438  25.348  37.919  1.00  0.00     0.124 S 
ATOM     89  O   UNL A   1      44.080  24.873  37.673  1.00  0.00    -0.237 OA
ATOM     90  O   UNL A   1      46.502  24.375  37.699  1.00  0.00    -0.237 OA
ATOM     91  O   UNL A   1      45.598  26.182  39.108  1.00  0.00    -0.744 OA
ENDBRANCH  84  88
ENDBRANCH  58  81
ENDBRANCH  32  33
ENDBRANCH  25  27
ENDBRANCH  24  25
ENDBRANCH  23  24
ENDBRANCH   1  23
TORSDOF 18
ENDMDL
MODEL 3
REMARK VINA RESULT:     -11.5      4.988     10.219
REMARK SMILES COc1ccc(C(=O)N2CC[C@@H](C(=O)OCCOC(=O)c3ccc(-c4c5nc(c(-c6cc(S(=O)(=O)[O-])ccc6F)c6ccc([nH]6)c(-c6cc(S(=O)(=O)[O-])ccc6F)c6nc(c(-c7cc(S(=O)(=O)[O-])ccc7F)c7ccc4[nH]7)C=C6)C=C5)cc3)[C@H]2C)cc1O
REMARK SMILES IDX 16 1 15 2 13 3 14 4 12 5 9 6 10 7 84 8 11 9 85 10 7 11 8 12
REMARK SMILES IDX 6 13 3 14 4 15 87 16 5 17 86 18 2 19 1 20 88 21 17 23 18 24
REMARK SMILES IDX 19 25 20 26 21 27 22 28 83 29 23 30 82 31 24 32 25 33 26 34
REMARK SMILES IDX 76 35 27 36 81 37 75 38 77 39 28 40 80 41 74 42 73 43 29 45
REMARK SMILES IDX 61 46 41 47 60 48 42 49 45 50 59 51 78 52 43 53 44 54 58 56
REMARK SMILES IDX 79 57 46 58 30 59 31 60 39 61 32 62 38 63 40 64 37 65 33 66
REMARK SMILES IDX 34 67 35 68 36 69 62 70 63 71 71 72 64 73 70 74 72 75 69 76
REMARK SMILES IDX 65 77 66 78 67 79 68 80 47 81 48 82 56 83 49 84 55 85 57 86
REMARK SMILES IDX 54 87 50 88 51 89 52 90 53 91
REMARK H PARENT 88 22 77 44 45 55
REMARK Flexibility Score: inf
ROOT
ATOM      1  C   UNL A   1      35.847  21.022  24.612  1.00  0.00     0.274 C 
ENDROOT
BRANCH   1   2
ATOM      2  O   UNL A   1      34.646  21.792  24.402  1.00  0.00    -0.462 OA
BRANCH   2   3
ATOM      3  C   UNL A   1      34.785  22.960  23.740  1.00  0.00     0.311 C 
ATOM      4  O   UNL A   1      35.544  23.115  22.787  1.00  0.00    -0.252 OA
BRANCH   3   5
ATOM      5  C   UNL A   1      33.962  24.106  24.285  1.00  0.00     0.123 C 
ATOM      6  N   UNL A   1      32.059  24.917  25.458  1.00  0.00    -0.335 N 
ATOM      7  C   UNL A   1      33.253  25.389  26.126  1.00  0.00     0.121 C 
ATOM      8  C   UNL A   1      32.415  24.187  24.206  1.00  0.00     0.096 C 
ATOM      9  C   UNL A   1      34.288  24.351  25.757  1.00  0.00     0.039 C 
ATOM     10  C   UNL A   1      31.652  22.891  23.984  1.00  0.00     0.032 C 
BRANCH   6  11
ATOM     11  C   UNL A   1      30.867  25.580  25.728  1.00  0.00     0.254 C 
ATOM     12  O   UNL A   1      30.018  25.148  26.504  1.00  0.00    -0.269 OA
BRANCH  11  13
ATOM     13  C   UNL A   1      30.522  26.752  24.894  1.00  0.00     0.043 A 
ATOM     14  C   UNL A   1      29.919  28.993  23.305  1.00  0.00     0.160 A 
ATOM     15  C   UNL A   1      29.241  27.779  23.124  1.00  0.00     0.051 A 
ATOM     16  C   UNL A   1      30.919  29.054  24.278  1.00  0.00     0.158 A 
ATOM     17  C   UNL A   1      29.530  26.662  23.918  1.00  0.00     0.018 A 
ATOM     18  C   UNL A   1      31.263  27.929  25.020  1.00  0.00     0.064 A 
BRANCH  14  19
ATOM     19  O   UNL A   1      29.488  29.996  22.482  1.00  0.00    -0.493 OA
ATOM     20  C   UNL A   1      28.152  30.457  22.631  1.00  0.00     0.278 C 
ENDBRANCH  14  19
BRANCH  16  21
ATOM     21  O   UNL A   1      31.567  30.205  24.626  1.00  0.00    -0.504 OA
ATOM     22  H   UNL A   1      31.726  30.399  25.529  1.00  0.00     0.293 HD
ENDBRANCH  16  21
ENDBRANCH  11  13
ENDBRANCH   6  11
ENDBRANCH   3   5
ENDBRANCH   2   3
ENDBRANCH   1   2
BRANCH   1  23
ATOM     23  C   UNL A   1      36.690  21.605  25.754  1.00  0.00     0.275 C 
BRANCH  23  24
ATOM     24  O   UNL A   1      37.983  22.048  25.301  1.00  0.00    -0.458 OA
BRANCH  24  25
ATOM     25  C   UNL A   1      39.019  21.744  26.119  1.00  0.00     0.338 C 
ATOM     26  O   UNL A   1      39.536  20.651  26.274  1.00  0.00    -0.246 OA
BRANCH  25  27
ATOM     27  C   UNL A   1      39.562  22.963  26.728  1.00  0.00     0.060 A 
ATOM     28  C   UNL A   1      39.148  24.193  26.213  1.00  0.00     0.016 A 
ATOM     29  C   UNL A   1      40.545  22.897  27.715  1.00  0.00     0.016 A 
ATOM     30  C   UNL A   1      39.723  25.372  26.669  1.00  0.00     0.010 A 
ATOM     31  C   UNL A   1      41.117  24.084  28.179  1.00  0.00     0.010 A 
ATOM     32  C   UNL A   1      40.718  25.325  27.650  1.00  0.00    -0.014 A 
BRANCH  32  33
ATOM     33  C   UNL A   1      41.390  26.571  28.075  1.00  0.00     0.031 A 
ATOM     34  C   UNL A   1      40.603  27.618  28.808  1.00  0.00     0.074 A 
ATOM     35  C   UNL A   1      42.696  26.752  27.807  1.00  0.00     0.049 A 
ATOM     36  N   UNL A   1      40.941  28.839  29.125  1.00  0.00    -0.248 NA
ATOM     37  C   UNL A   1      39.248  27.232  29.232  1.00  0.00     0.031 C 
ATOM     38  C   UNL A   1      43.570  25.766  27.168  1.00  0.00     0.029 A 
ATOM     39  N   UNL A   1      43.513  27.829  28.029  1.00  0.00    -0.354 N 
ATOM     40  C   UNL A   1      39.833  29.383  29.765  1.00  0.00     0.074 A 
ATOM     41  C   UNL A   1      38.807  28.359  29.773  1.00  0.00     0.031 C 
ATOM     42  C   UNL A   1      44.799  26.291  27.040  1.00  0.00     0.029 A 
ATOM     43  C   UNL A   1      44.782  27.667  27.528  1.00  0.00     0.049 A 
ATOM     44  H   UNL A   1      43.219  28.642  28.502  1.00  0.00     0.167 HD
ATOM     45  C   UNL A   1      39.691  30.623  30.293  1.00  0.00     0.034 A 
ATOM     46  C   UNL A   1      45.799  28.545  27.432  1.00  0.00     0.034 A 
ATOM     47  C   UNL A   1      40.733  31.622  30.268  1.00  0.00     0.049 A 
ATOM     48  C   UNL A   1      45.592  29.946  27.951  1.00  0.00     0.074 A 
ATOM     49  C   UNL A   1      40.702  32.918  30.751  1.00  0.00     0.029 A 
ATOM     50  N   UNL A   1      41.999  31.432  29.727  1.00  0.00    -0.354 N 
ATOM     51  N   UNL A   1      44.524  30.471  28.505  1.00  0.00    -0.248 NA
ATOM     52  C   UNL A   1      46.725  30.871  27.830  1.00  0.00     0.031 C 
ATOM     53  C   UNL A   1      41.926  33.528  30.452  1.00  0.00     0.029 A 
ATOM     54  C   UNL A   1      42.749  32.592  29.846  1.00  0.00     0.049 A 
ATOM     55  H   UNL A   1      42.318  30.594  29.320  1.00  0.00     0.167 HD
ATOM     56  C   UNL A   1      44.868  31.781  28.827  1.00  0.00     0.074 A 
ATOM     57  C   UNL A   1      46.245  31.961  28.410  1.00  0.00     0.031 C 
ATOM     58  C   UNL A   1      44.119  32.746  29.418  1.00  0.00     0.034 A 
BRANCH  45  59
ATOM     59  C   UNL A   1      38.343  30.978  30.871  1.00  0.00     0.023 A 
ATOM     60  C   UNL A   1      37.319  31.535  30.085  1.00  0.00     0.031 A 
ATOM     61  C   UNL A   1      38.093  30.797  32.243  1.00  0.00     0.131 A 
ATOM     62  C   UNL A   1      36.124  31.957  30.689  1.00  0.00     0.055 A 
ATOM     63  C   UNL A   1      36.872  31.147  32.824  1.00  0.00     0.041 A 
ATOM     64  F   UNL A   1      39.041  30.293  33.049  1.00  0.00    -0.206 F 
ATOM     65  C   UNL A   1      35.884  31.745  32.048  1.00  0.00     0.022 A 
BRANCH  62  66
ATOM     66  S   UNL A   1      34.943  32.917  29.701  1.00  0.00     0.124 S 
ATOM     67  O   UNL A   1      34.386  31.888  28.826  1.00  0.00    -0.237 OA
ATOM     68  O   UNL A   1      34.042  33.450  30.716  1.00  0.00    -0.237 OA
ATOM     69  O   UNL A   1      35.783  33.907  29.028  1.00  0.00    -0.744 OA
ENDBRANCH  62  66
ENDBRANCH  45  59
BRANCH  46  70
ATOM     70  C   UNL A   1      47.075  28.153  26.770  1.00  0.00     0.023 A 
ATOM     71  C   UNL A   1      47.182  28.099  25.372  1.00  0.00     0.031 A 
ATOM     72  C   UNL A   1      48.200  27.790  27.533  1.00  0.00     0.131 A 
ATOM     73  C   UNL A   1      48.373  27.653  24.780  1.00  0.00     0.055 A 
ATOM     74  C   UNL A   1      49.399  27.396  26.939  1.00  0.00     0.041 A 
ATOM     75  F   UNL A   1      48.152  27.824  28.875  1.00  0.00    -0.206 F 
ATOM     76  C   UNL A   1      49.486  27.314  25.553  1.00  0.00     0.022 A 
BRANCH  73  77
ATOM     77  S   UNL A   1      48.422  27.444  22.979  1.00  0.00     0.124 S 
ATOM     78  O   UNL A   1      47.270  28.233  22.556  1.00  0.00    -0.237 OA
ATOM     79  O   UNL A   1      49.732  27.992  22.647  1.00  0.00    -0.237 OA
ATOM     80  O   UNL A   1      48.288  25.999  22.801  1.00  0.00    -0.744 OA
ENDBRANCH  73  77
ENDBRANCH  46  70
BRANCH  58  81
ATOM     81  C   UNL A   1      44.805  34.059  29.701  1.00  0.00     0.023 A 
ATOM     82  C   UNL A   1      44.814  35.106  28.763  1.00  0.00     0.031 A 
ATOM     83  C   UNL A   1      45.464  34.255  30.927  1.00  0.00     0.131 A 
ATOM     84  C   UNL A   1      45.514  36.288  29.049  1.00  0.00     0.055 A 
ATOM     85  C   UNL A   1      46.114  35.453  31.225  1.00  0.00     0.041 A 
ATOM     86  F   UNL A   1      45.483  33.285  31.855  1.00  0.00    -0.206 F 
ATOM     87  C   UNL A   1      46.151  36.473  30.280  1.00  0.00     0.022 A 
BRANCH  84  88
ATOM     88  S   UNL A   1      45.646  37.558  27.760  1.00  0.00     0.124 S 
ATOM     89  O   UNL A   1      44.448  37.307  26.964  1.00  0.00    -0.237 OA
ATOM     90  O   UNL A   1      45.647  38.792  28.537  1.00  0.00    -0.237 OA
ATOM     91  O   UNL A   1      46.909  37.243  27.096  1.00  0.00    -0.744 OA
ENDBRANCH  84  88
ENDBRANCH  58  81
ENDBRANCH  32  33
ENDBRANCH  25  27
ENDBRANCH  24  25
ENDBRANCH  23  24
ENDBRANCH   1  23
TORSDOF 18
ENDMDL
