MODEL 1
REMARK VINA RESULT:     -10.8      0.000      0.000
REMARK SMILES C=CCN(CC(=O)OCCOC(=O)c1ccc(-c2c3nc(c(-c4cc(S(=O)(=O)[O-])ccc4F)c4ccc([nH]4)c(-c4cc(S(=O)(=O)[O-])ccc4F)c4nc(c(-c5cc(S(=O)(=O)[O-])ccc5F)c5ccc2[nH]5)C=C4)C=C3)cc1)c1nc2ccccc2s1
REMARK SMILES IDX 9 1 8 2 6 3 7 4 5 5 4 6 3 7 2 8 1 9 77 10 78 11 85 12 79 13
REMARK SMILES IDX 84 14 80 15 83 16 81 17 82 18 10 19 11 20 12 21 13 22 14 23
REMARK SMILES IDX 15 24 76 25 16 26 75 27 17 28 18 29 19 30 69 31 20 32 74 33
REMARK SMILES IDX 68 34 70 35 21 36 73 37 67 38 66 39 22 41 54 42 34 43 53 44
REMARK SMILES IDX 35 45 38 46 52 47 71 48 36 49 37 50 51 52 72 53 39 54 23 55
REMARK SMILES IDX 24 56 32 57 25 58 31 59 33 60 30 61 26 62 27 63 28 64 29 65
REMARK SMILES IDX 55 66 56 67 64 68 57 69 63 70 65 71 62 72 58 73 59 74 60 75
REMARK SMILES IDX 61 76 40 77 41 78 49 79 42 80 48 81 50 82 47 83 43 84 44 85
REMARK SMILES IDX 45 86 46 87
REMARK H PARENT 70 40 38 51
REMARK Flexibility Score: inf
ROOT
ATOM      1  C   UNL A   1      36.658  22.264  23.813  1.00  0.00     0.274 C 
ENDROOT
BRANCH   1   2
ATOM      2  O   UNL A   1      35.761  23.086  24.584  1.00  0.00    -0.461 OA
BRANCH   2   3
ATOM      3  C   UNL A   1      34.657  23.509  23.909  1.00  0.00     0.325 C 
ATOM      4  O   UNL A   1      34.595  23.598  22.683  1.00  0.00    -0.250 OA
BRANCH   3   5
ATOM      5  C   UNL A   1      33.479  23.898  24.786  1.00  0.00     0.241 C 
BRANCH   5   6
ATOM      6  N   UNL A   1      32.389  22.926  24.899  1.00  0.00    -0.333 N 
BRANCH   6   7
ATOM      7  C   UNL A   1      31.056  23.420  25.185  1.00  0.00     0.146 C 
BRANCH   7   8
ATOM      8  C   UNL A   1      30.390  22.543  26.208  1.00  0.00    -0.014 C 
ATOM      9  C   UNL A   1      29.600  22.998  27.191  1.00  0.00     0.006 C 
ENDBRANCH   7   8
ENDBRANCH   6   7
BRANCH   6  10
ATOM     10  C   UNL A   1      32.645  21.613  24.624  1.00  0.00     0.187 A 
ATOM     11  N   UNL A   1      32.257  21.009  23.520  1.00  0.00    -0.220 NA
ATOM     12  S   UNL A   1      33.460  20.571  25.742  1.00  0.00    -0.097 S 
ATOM     13  C   UNL A   1      32.626  19.665  23.535  1.00  0.00     0.084 A 
ATOM     14  C   UNL A   1      33.228  19.227  24.711  1.00  0.00     0.056 A 
ATOM     15  C   UNL A   1      32.439  18.726  22.496  1.00  0.00     0.030 A 
ATOM     16  C   UNL A   1      33.572  17.882  24.921  1.00  0.00     0.021 A 
ATOM     17  C   UNL A   1      32.791  17.384  22.687  1.00  0.00     0.002 A 
ATOM     18  C   UNL A   1      33.332  16.966  23.895  1.00  0.00     0.002 A 
ENDBRANCH   6  10
ENDBRANCH   5   6
ENDBRANCH   3   5
ENDBRANCH   2   3
ENDBRANCH   1   2
BRANCH   1  19
ATOM     19  C   UNL A   1      37.011  20.987  24.574  1.00  0.00     0.275 C 
BRANCH  19  20
ATOM     20  O   UNL A   1      37.476  21.313  25.893  1.00  0.00    -0.458 OA
BRANCH  20  21
ATOM     21  C   UNL A   1      38.815  21.193  26.064  1.00  0.00     0.338 C 
ATOM     22  O   UNL A   1      39.474  20.190  25.839  1.00  0.00    -0.246 OA
BRANCH  21  23
ATOM     23  C   UNL A   1      39.410  22.463  26.560  1.00  0.00     0.060 A 
ATOM     24  C   UNL A   1      38.939  23.719  26.161  1.00  0.00     0.016 A 
ATOM     25  C   UNL A   1      40.544  22.385  27.375  1.00  0.00     0.016 A 
ATOM     26  C   UNL A   1      39.625  24.883  26.528  1.00  0.00     0.010 A 
ATOM     27  C   UNL A   1      41.202  23.550  27.781  1.00  0.00     0.010 A 
ATOM     28  C   UNL A   1      40.759  24.809  27.346  1.00  0.00    -0.014 A 
BRANCH  28  29
ATOM     29  C   UNL A   1      41.499  26.028  27.765  1.00  0.00     0.031 A 
ATOM     30  C   UNL A   1      40.812  27.094  28.574  1.00  0.00     0.074 A 
ATOM     31  C   UNL A   1      42.771  26.208  27.365  1.00  0.00     0.049 A 
ATOM     32  N   UNL A   1      41.215  28.304  28.872  1.00  0.00    -0.248 NA
ATOM     33  C   UNL A   1      39.486  26.752  29.103  1.00  0.00     0.031 C 
ATOM     34  C   UNL A   1      43.565  25.239  26.607  1.00  0.00     0.029 A 
ATOM     35  N   UNL A   1      43.614  27.279  27.524  1.00  0.00    -0.354 N 
ATOM     36  C   UNL A   1      40.183  28.879  29.607  1.00  0.00     0.074 A 
ATOM     37  C   UNL A   1      39.124  27.891  29.677  1.00  0.00     0.031 C 
ATOM     38  C   UNL A   1      44.778  25.759  26.369  1.00  0.00     0.029 A 
ATOM     39  C   UNL A   1      44.828  27.119  26.898  1.00  0.00     0.049 A 
ATOM     40  H   UNL A   1      43.373  28.085  28.036  1.00  0.00     0.167 HD
ATOM     41  C   UNL A   1      40.129  30.112  30.175  1.00  0.00     0.034 A 
ATOM     42  C   UNL A   1      45.850  27.979  26.735  1.00  0.00     0.034 A 
ATOM     43  C   UNL A   1      41.196  31.087  30.092  1.00  0.00     0.049 A 
ATOM     44  C   UNL A   1      45.739  29.371  27.298  1.00  0.00     0.074 A 
ATOM     45  C   UNL A   1      41.249  32.362  30.632  1.00  0.00     0.029 A 
ATOM     46  N   UNL A   1      42.400  30.898  29.421  1.00  0.00    -0.354 N 
ATOM     47  N   UNL A   1      44.746  29.919  27.958  1.00  0.00    -0.248 NA
ATOM     48  C   UNL A   1      46.890  30.257  27.090  1.00  0.00     0.031 C 
ATOM     49  C   UNL A   1      42.452  32.962  30.239  1.00  0.00     0.029 A 
ATOM     50  C   UNL A   1      43.187  32.038  29.515  1.00  0.00     0.049 A 
ATOM     51  H   UNL A   1      42.656  30.074  28.947  1.00  0.00     0.167 HD
ATOM     52  C   UNL A   1      45.168  31.207  28.274  1.00  0.00     0.074 A 
ATOM     53  C   UNL A   1      46.506  31.349  27.736  1.00  0.00     0.031 C 
ATOM     54  C   UNL A   1      44.513  32.179  28.959  1.00  0.00     0.034 A 
BRANCH  41  55
ATOM     55  C   UNL A   1      38.850  30.489  30.888  1.00  0.00     0.023 A 
ATOM     56  C   UNL A   1      37.758  31.057  30.207  1.00  0.00     0.031 A 
ATOM     57  C   UNL A   1      38.736  30.316  32.279  1.00  0.00     0.131 A 
ATOM     58  C   UNL A   1      36.636  31.502  30.926  1.00  0.00     0.055 A 
ATOM     59  C   UNL A   1      37.583  30.682  32.978  1.00  0.00     0.041 A 
ATOM     60  F   UNL A   1      39.752  29.802  32.990  1.00  0.00    -0.206 F 
ATOM     61  C   UNL A   1      36.530  31.293  32.303  1.00  0.00     0.022 A 
BRANCH  58  62
ATOM     62  S   UNL A   1      35.384  32.490  30.062  1.00  0.00     0.124 S 
ATOM     63  O   UNL A   1      35.100  31.657  28.895  1.00  0.00    -0.237 OA
ATOM     64  O   UNL A   1      34.319  32.590  31.052  1.00  0.00    -0.237 OA
ATOM     65  O   UNL A   1      36.080  33.741  29.765  1.00  0.00    -0.744 OA
ENDBRANCH  58  62
ENDBRANCH  41  55
BRANCH  42  66
ATOM     66  C   UNL A   1      47.061  27.561  25.977  1.00  0.00     0.023 A 
ATOM     67  C   UNL A   1      47.179  27.838  24.607  1.00  0.00     0.031 A 
ATOM     68  C   UNL A   1      48.105  26.863  26.608  1.00  0.00     0.131 A 
ATOM     69  C   UNL A   1      48.306  27.390  23.902  1.00  0.00     0.055 A 
ATOM     70  C   UNL A   1      49.246  26.461  25.911  1.00  0.00     0.041 A 
ATOM     71  F   UNL A   1      48.038  26.579  27.919  1.00  0.00    -0.206 F 
ATOM     72  C   UNL A   1      49.345  26.716  24.547  1.00  0.00     0.022 A 
BRANCH  69  73
ATOM     73  S   UNL A   1      48.366  27.657  22.110  1.00  0.00     0.124 S 
ATOM     74  O   UNL A   1      49.495  28.571  21.983  1.00  0.00    -0.237 OA
ATOM     75  O   UNL A   1      48.577  26.303  21.608  1.00  0.00    -0.237 OA
ATOM     76  O   UNL A   1      47.058  28.234  21.808  1.00  0.00    -0.744 OA
ENDBRANCH  69  73
ENDBRANCH  42  66
BRANCH  54  77
ATOM     77  C   UNL A   1      45.272  33.461  29.208  1.00  0.00     0.023 A 
ATOM     78  C   UNL A   1      45.211  34.549  28.317  1.00  0.00     0.031 A 
ATOM     79  C   UNL A   1      46.109  33.574  30.332  1.00  0.00     0.131 A 
ATOM     80  C   UNL A   1      46.020  35.676  28.534  1.00  0.00     0.055 A 
ATOM     81  C   UNL A   1      46.870  34.719  30.571  1.00  0.00     0.041 A 
ATOM     82  F   UNL A   1      46.209  32.566  31.212  1.00  0.00    -0.206 F 
ATOM     83  C   UNL A   1      46.841  35.772  29.661  1.00  0.00     0.022 A 
BRANCH  80  84
ATOM     84  S   UNL A   1      46.070  36.972  27.264  1.00  0.00     0.124 S 
ATOM     85  O   UNL A   1      46.906  37.986  27.896  1.00  0.00    -0.237 OA
ATOM     86  O   UNL A   1      46.662  36.272  26.130  1.00  0.00    -0.237 OA
ATOM     87  O   UNL A   1      44.665  37.342  27.098  1.00  0.00    -0.744 OA
ENDBRANCH  80  84
ENDBRANCH  54  77
ENDBRANCH  28  29
ENDBRANCH  21  23
ENDBRANCH  20  21
ENDBRANCH  19  20
ENDBRANCH   1  19
TORSDOF 18
ENDMDL
MODEL 2
REMARK VINA RESULT:     -10.6      1.643      1.998
REMARK SMILES C=CCN(CC(=O)OCCOC(=O)c1ccc(-c2c3nc(c(-c4cc(S(=O)(=O)[O-])ccc4F)c4ccc([nH]4)c(-c4cc(S(=O)(=O)[O-])ccc4F)c4nc(c(-c5cc(S(=O)(=O)[O-])ccc5F)c5ccc2[nH]5)C=C4)C=C3)cc1)c1nc2ccccc2s1
REMARK SMILES IDX 9 1 8 2 6 3 7 4 5 5 4 6 3 7 2 8 1 9 77 10 78 11 85 12 79 13
REMARK SMILES IDX 84 14 80 15 83 16 81 17 82 18 10 19 11 20 12 21 13 22 14 23
REMARK SMILES IDX 15 24 76 25 16 26 75 27 17 28 18 29 19 30 69 31 20 32 74 33
REMARK SMILES IDX 68 34 70 35 21 36 73 37 67 38 66 39 22 41 54 42 34 43 53 44
REMARK SMILES IDX 35 45 38 46 52 47 71 48 36 49 37 50 51 52 72 53 39 54 23 55
REMARK SMILES IDX 24 56 32 57 25 58 31 59 33 60 30 61 26 62 27 63 28 64 29 65
REMARK SMILES IDX 55 66 56 67 64 68 57 69 63 70 65 71 62 72 58 73 59 74 60 75
REMARK SMILES IDX 61 76 40 77 41 78 49 79 42 80 48 81 50 82 47 83 43 84 44 85
REMARK SMILES IDX 45 86 46 87
REMARK H PARENT 70 40 38 51
REMARK Flexibility Score: inf
ROOT
ATOM      1  C   UNL A   1      36.679  22.726  23.642  1.00  0.00     0.274 C 
ENDROOT
BRANCH   1   2
ATOM      2  O   UNL A   1      35.651  23.513  24.273  1.00  0.00    -0.461 OA
BRANCH   2   3
ATOM      3  C   UNL A   1      34.476  23.567  23.588  1.00  0.00     0.325 C 
ATOM      4  O   UNL A   1      34.399  23.672  22.364  1.00  0.00    -0.250 OA
BRANCH   3   5
ATOM      5  C   UNL A   1      33.227  23.510  24.452  1.00  0.00     0.241 C 
BRANCH   5   6
ATOM      6  N   UNL A   1      33.121  22.389  25.389  1.00  0.00    -0.333 N 
BRANCH   6   7
ATOM      7  C   UNL A   1      32.841  22.682  26.781  1.00  0.00     0.146 C 
BRANCH   7   8
ATOM      8  C   UNL A   1      31.480  23.305  26.914  1.00  0.00    -0.014 C 
ATOM      9  C   UNL A   1      30.347  22.744  26.470  1.00  0.00     0.006 C 
ENDBRANCH   7   8
ENDBRANCH   6   7
BRANCH   6  10
ATOM     10  C   UNL A   1      33.179  21.114  24.902  1.00  0.00     0.187 A 
ATOM     11  N   UNL A   1      34.037  20.210  25.326  1.00  0.00    -0.220 NA
ATOM     12  S   UNL A   1      32.163  20.564  23.611  1.00  0.00    -0.097 S 
ATOM     13  C   UNL A   1      33.888  19.017  24.620  1.00  0.00     0.084 A 
ATOM     14  C   UNL A   1      32.958  19.051  23.586  1.00  0.00     0.056 A 
ATOM     15  C   UNL A   1      34.585  17.809  24.845  1.00  0.00     0.030 A 
ATOM     16  C   UNL A   1      32.757  17.962  22.721  1.00  0.00     0.021 A 
ATOM     17  C   UNL A   1      34.386  16.711  24.000  1.00  0.00     0.002 A 
ATOM     18  C   UNL A   1      33.496  16.797  22.937  1.00  0.00     0.002 A 
ENDBRANCH   6  10
ENDBRANCH   5   6
ENDBRANCH   3   5
ENDBRANCH   2   3
ENDBRANCH   1   2
BRANCH   1  19
ATOM     19  C   UNL A   1      36.898  21.416  24.398  1.00  0.00     0.275 C 
BRANCH  19  20
ATOM     20  O   UNL A   1      37.297  21.690  25.750  1.00  0.00    -0.458 OA
BRANCH  20  21
ATOM     21  C   UNL A   1      38.628  21.571  25.979  1.00  0.00     0.338 C 
ATOM     22  O   UNL A   1      39.302  20.576  25.762  1.00  0.00    -0.246 OA
BRANCH  21  23
ATOM     23  C   UNL A   1      39.193  22.832  26.530  1.00  0.00     0.060 A 
ATOM     24  C   UNL A   1      38.852  24.092  26.027  1.00  0.00     0.016 A 
ATOM     25  C   UNL A   1      40.175  22.736  27.522  1.00  0.00     0.016 A 
ATOM     26  C   UNL A   1      39.522  25.238  26.468  1.00  0.00     0.010 A 
ATOM     27  C   UNL A   1      40.812  23.886  27.998  1.00  0.00     0.010 A 
ATOM     28  C   UNL A   1      40.505  25.146  27.462  1.00  0.00    -0.014 A 
BRANCH  28  29
ATOM     29  C   UNL A   1      41.223  26.347  27.962  1.00  0.00     0.031 A 
ATOM     30  C   UNL A   1      40.483  27.414  28.722  1.00  0.00     0.074 A 
ATOM     31  C   UNL A   1      42.528  26.511  27.680  1.00  0.00     0.049 A 
ATOM     32  N   UNL A   1      40.876  28.613  29.073  1.00  0.00    -0.248 NA
ATOM     33  C   UNL A   1      39.109  27.087  29.127  1.00  0.00     0.031 C 
ATOM     34  C   UNL A   1      43.371  25.539  26.982  1.00  0.00     0.029 A 
ATOM     35  N   UNL A   1      43.370  27.566  27.929  1.00  0.00    -0.354 N 
ATOM     36  C   UNL A   1      39.791  29.196  29.721  1.00  0.00     0.074 A 
ATOM     37  C   UNL A   1      38.715  28.224  29.682  1.00  0.00     0.031 C 
ATOM     38  C   UNL A   1      44.609  26.042  26.861  1.00  0.00     0.029 A 
ATOM     39  C   UNL A   1      44.632  27.394  27.412  1.00  0.00     0.049 A 
ATOM     40  H   UNL A   1      43.096  28.369  28.429  1.00  0.00     0.167 HD
ATOM     41  C   UNL A   1      39.706  30.422  30.299  1.00  0.00     0.034 A 
ATOM     42  C   UNL A   1      45.677  28.240  27.352  1.00  0.00     0.034 A 
ATOM     43  C   UNL A   1      40.790  31.380  30.326  1.00  0.00     0.049 A 
ATOM     44  C   UNL A   1      45.538  29.625  27.923  1.00  0.00     0.074 A 
ATOM     45  C   UNL A   1      40.814  32.647  30.886  1.00  0.00     0.029 A 
ATOM     46  N   UNL A   1      42.046  31.180  29.762  1.00  0.00    -0.354 N 
ATOM     47  N   UNL A   1      44.498  30.181  28.500  1.00  0.00    -0.248 NA
ATOM     48  C   UNL A   1      46.716  30.495  27.832  1.00  0.00     0.031 C 
ATOM     49  C   UNL A   1      42.056  33.232  30.611  1.00  0.00     0.029 A 
ATOM     50  C   UNL A   1      42.839  32.306  29.942  1.00  0.00     0.049 A 
ATOM     51  H   UNL A   1      42.331  30.358  29.301  1.00  0.00     0.167 HD
ATOM     52  C   UNL A   1      44.910  31.458  28.871  1.00  0.00     0.074 A 
ATOM     53  C   UNL A   1      46.293  31.584  28.456  1.00  0.00     0.031 C 
ATOM     54  C   UNL A   1      44.211  32.432  29.508  1.00  0.00     0.034 A 
BRANCH  41  55
ATOM     55  C   UNL A   1      38.374  30.811  30.901  1.00  0.00     0.023 A 
ATOM     56  C   UNL A   1      37.351  31.395  30.131  1.00  0.00     0.031 A 
ATOM     57  C   UNL A   1      38.137  30.631  32.276  1.00  0.00     0.131 A 
ATOM     58  C   UNL A   1      36.177  31.850  30.753  1.00  0.00     0.055 A 
ATOM     59  C   UNL A   1      36.932  31.008  32.874  1.00  0.00     0.041 A 
ATOM     60  F   UNL A   1      39.081  30.101  33.069  1.00  0.00    -0.206 F 
ATOM     61  C   UNL A   1      35.949  31.636  32.114  1.00  0.00     0.022 A 
BRANCH  58  62
ATOM     62  S   UNL A   1      35.016  32.858  29.789  1.00  0.00     0.124 S 
ATOM     63  O   UNL A   1      35.889  33.915  29.281  1.00  0.00    -0.237 OA
ATOM     64  O   UNL A   1      34.517  31.911  28.801  1.00  0.00    -0.237 OA
ATOM     65  O   UNL A   1      34.038  33.299  30.782  1.00  0.00    -0.744 OA
ENDBRANCH  58  62
ENDBRANCH  41  55
BRANCH  42  66
ATOM     66  C   UNL A   1      46.945  27.811  26.700  1.00  0.00     0.023 A 
ATOM     67  C   UNL A   1      47.100  27.903  25.309  1.00  0.00     0.031 A 
ATOM     68  C   UNL A   1      48.008  27.288  27.455  1.00  0.00     0.131 A 
ATOM     69  C   UNL A   1      48.283  27.446  24.710  1.00  0.00     0.055 A 
ATOM     70  C   UNL A   1      49.201  26.878  26.859  1.00  0.00     0.041 A 
ATOM     71  F   UNL A   1      47.907  27.185  28.791  1.00  0.00    -0.206 F 
ATOM     72  C   UNL A   1      49.339  26.947  25.477  1.00  0.00     0.022 A 
BRANCH  69  73
ATOM     73  S   UNL A   1      48.399  27.464  22.901  1.00  0.00     0.124 S 
ATOM     74  O   UNL A   1      48.405  26.040  22.589  1.00  0.00    -0.237 OA
ATOM     75  O   UNL A   1      47.195  28.198  22.527  1.00  0.00    -0.237 OA
ATOM     76  O   UNL A   1      49.656  28.165  22.649  1.00  0.00    -0.744 OA
ENDBRANCH  69  73
ENDBRANCH  42  66
BRANCH  54  77
ATOM     77  C   UNL A   1      44.965  33.697  29.843  1.00  0.00     0.023 A 
ATOM     78  C   UNL A   1      45.630  33.866  31.071  1.00  0.00     0.031 A 
ATOM     79  C   UNL A   1      44.973  34.771  28.935  1.00  0.00     0.131 A 
ATOM     80  C   UNL A   1      46.222  35.100  31.382  1.00  0.00     0.055 A 
ATOM     81  C   UNL A   1      45.610  35.977  29.227  1.00  0.00     0.041 A 
ATOM     82  F   UNL A   1      44.350  34.667  27.750  1.00  0.00    -0.206 F 
ATOM     83  C   UNL A   1      46.226  36.153  30.463  1.00  0.00     0.022 A 
BRANCH  80  84
ATOM     84  S   UNL A   1      46.895  35.351  33.049  1.00  0.00     0.124 S 
ATOM     85  O   UNL A   1      48.193  34.692  32.957  1.00  0.00    -0.237 OA
ATOM     86  O   UNL A   1      46.924  36.806  33.156  1.00  0.00    -0.237 OA
ATOM     87  O   UNL A   1      45.922  34.686  33.915  1.00  0.00    -0.744 OA
ENDBRANCH  80  84
ENDBRANCH  54  77
ENDBRANCH  28  29
ENDBRANCH  21  23
ENDBRANCH  20  21
ENDBRANCH  19  20
ENDBRANCH   1  19
TORSDOF 18
ENDMDL
MODEL 3
REMARK VINA RESULT:     -10.4      1.774      3.226
REMARK SMILES C=CCN(CC(=O)OCCOC(=O)c1ccc(-c2c3nc(c(-c4cc(S(=O)(=O)[O-])ccc4F)c4ccc([nH]4)c(-c4cc(S(=O)(=O)[O-])ccc4F)c4nc(c(-c5cc(S(=O)(=O)[O-])ccc5F)c5ccc2[nH]5)C=C4)C=C3)cc1)c1nc2ccccc2s1
REMARK SMILES IDX 9 1 8 2 6 3 7 4 5 5 4 6 3 7 2 8 1 9 77 10 78 11 85 12 79 13
REMARK SMILES IDX 84 14 80 15 83 16 81 17 82 18 10 19 11 20 12 21 13 22 14 23
REMARK SMILES IDX 15 24 76 25 16 26 75 27 17 28 18 29 19 30 69 31 20 32 74 33
REMARK SMILES IDX 68 34 70 35 21 36 73 37 67 38 66 39 22 41 54 42 34 43 53 44
REMARK SMILES IDX 35 45 38 46 52 47 71 48 36 49 37 50 51 52 72 53 39 54 23 55
REMARK SMILES IDX 24 56 32 57 25 58 31 59 33 60 30 61 26 62 27 63 28 64 29 65
REMARK SMILES IDX 55 66 56 67 64 68 57 69 63 70 65 71 62 72 58 73 59 74 60 75
REMARK SMILES IDX 61 76 40 77 41 78 49 79 42 80 48 81 50 82 47 83 43 84 44 85
REMARK SMILES IDX 45 86 46 87
REMARK H PARENT 70 40 38 51
REMARK Flexibility Score: inf
ROOT
ATOM      1  C   UNL A   1      34.481  21.266  24.586  1.00  0.00     0.274 C 
ENDROOT
BRANCH   1   2
ATOM      2  O   UNL A   1      34.137  22.664  24.619  1.00  0.00    -0.461 OA
BRANCH   2   3
ATOM      3  C   UNL A   1      34.185  23.289  23.411  1.00  0.00     0.325 C 
ATOM      4  O   UNL A   1      35.185  23.319  22.693  1.00  0.00    -0.250 OA
BRANCH   3   5
ATOM      5  C   UNL A   1      32.901  23.990  22.999  1.00  0.00     0.241 C 
BRANCH   5   6
ATOM      6  N   UNL A   1      32.014  24.433  24.077  1.00  0.00    -0.333 N 
BRANCH   6   7
ATOM      7  C   UNL A   1      31.021  23.501  24.575  1.00  0.00     0.146 C 
BRANCH   7   8
ATOM      8  C   UNL A   1      31.144  23.366  26.067  1.00  0.00    -0.014 C 
ATOM      9  C   UNL A   1      30.153  22.958  26.872  1.00  0.00     0.006 C 
ENDBRANCH   7   8
ENDBRANCH   6   7
BRANCH   6  10
ATOM     10  C   UNL A   1      32.224  25.659  24.642  1.00  0.00     0.187 A 
ATOM     11  N   UNL A   1      31.492  26.720  24.376  1.00  0.00    -0.220 NA
ATOM     12  S   UNL A   1      33.533  25.967  25.733  1.00  0.00    -0.097 S 
ATOM     13  C   UNL A   1      31.964  27.834  25.069  1.00  0.00     0.084 A 
ATOM     14  C   UNL A   1      33.127  27.626  25.805  1.00  0.00     0.056 A 
ATOM     15  C   UNL A   1      31.392  29.125  25.084  1.00  0.00     0.030 A 
ATOM     16  C   UNL A   1      33.782  28.668  26.483  1.00  0.00     0.021 A 
ATOM     17  C   UNL A   1      32.027  30.170  25.766  1.00  0.00     0.002 A 
ATOM     18  C   UNL A   1      33.220  29.945  26.440  1.00  0.00     0.002 A 
ENDBRANCH   6  10
ENDBRANCH   5   6
ENDBRANCH   3   5
ENDBRANCH   2   3
ENDBRANCH   1   2
BRANCH   1  19
ATOM     19  C   UNL A   1      35.714  20.991  25.445  1.00  0.00     0.275 C 
BRANCH  19  20
ATOM     20  O   UNL A   1      36.887  21.515  24.803  1.00  0.00    -0.458 OA
BRANCH  20  21
ATOM     21  C   UNL A   1      38.055  21.174  25.399  1.00  0.00     0.338 C 
ATOM     22  O   UNL A   1      38.517  20.045  25.468  1.00  0.00    -0.246 OA
BRANCH  21  23
ATOM     23  C   UNL A   1      38.738  22.367  25.968  1.00  0.00     0.060 A 
ATOM     24  C   UNL A   1      38.249  23.666  25.795  1.00  0.00     0.016 A 
ATOM     25  C   UNL A   1      39.966  22.179  26.612  1.00  0.00     0.016 A 
ATOM     26  C   UNL A   1      39.002  24.769  26.211  1.00  0.00     0.010 A 
ATOM     27  C   UNL A   1      40.696  23.279  27.071  1.00  0.00     0.010 A 
ATOM     28  C   UNL A   1      40.230  24.585  26.858  1.00  0.00    -0.014 A 
BRANCH  28  29
ATOM     29  C   UNL A   1      41.045  25.737  27.326  1.00  0.00     0.031 A 
ATOM     30  C   UNL A   1      40.436  26.792  28.208  1.00  0.00     0.074 A 
ATOM     31  C   UNL A   1      42.317  25.870  26.906  1.00  0.00     0.049 A 
ATOM     32  N   UNL A   1      40.911  27.959  28.563  1.00  0.00    -0.248 NA
ATOM     33  C   UNL A   1      39.103  26.493  28.750  1.00  0.00     0.031 C 
ATOM     34  C   UNL A   1      43.039  24.903  26.077  1.00  0.00     0.029 A 
ATOM     35  N   UNL A   1      43.221  26.883  27.104  1.00  0.00    -0.354 N 
ATOM     36  C   UNL A   1      39.928  28.547  29.353  1.00  0.00     0.074 A 
ATOM     37  C   UNL A   1      38.818  27.616  29.394  1.00  0.00     0.031 C 
ATOM     38  C   UNL A   1      44.274  25.369  25.839  1.00  0.00     0.029 A 
ATOM     39  C   UNL A   1      44.410  26.693  26.441  1.00  0.00     0.049 A 
ATOM     40  H   UNL A   1      43.036  27.671  27.665  1.00  0.00     0.167 HD
ATOM     41  C   UNL A   1      39.955  29.748  29.989  1.00  0.00     0.034 A 
ATOM     42  C   UNL A   1      45.475  27.504  26.301  1.00  0.00     0.034 A 
ATOM     43  C   UNL A   1      41.072  30.666  29.935  1.00  0.00     0.049 A 
ATOM     44  C   UNL A   1      45.453  28.866  26.943  1.00  0.00     0.074 A 
ATOM     45  C   UNL A   1      41.206  31.903  30.543  1.00  0.00     0.029 A 
ATOM     46  N   UNL A   1      42.249  30.450  29.226  1.00  0.00    -0.354 N 
ATOM     47  N   UNL A   1      44.506  29.429  27.656  1.00  0.00    -0.248 NA
ATOM     48  C   UNL A   1      46.647  29.699  26.757  1.00  0.00     0.031 C 
ATOM     49  C   UNL A   1      42.433  32.459  30.155  1.00  0.00     0.029 A 
ATOM     50  C   UNL A   1      43.100  31.539  29.364  1.00  0.00     0.049 A 
ATOM     51  H   UNL A   1      42.450  29.641  28.701  1.00  0.00     0.167 HD
ATOM     52  C   UNL A   1      45.006  30.673  28.032  1.00  0.00     0.074 A 
ATOM     53  C   UNL A   1      46.339  30.771  27.471  1.00  0.00     0.031 C 
ATOM     54  C   UNL A   1      44.420  31.639  28.785  1.00  0.00     0.034 A 
BRANCH  41  55
ATOM     55  C   UNL A   1      38.714  30.152  30.752  1.00  0.00     0.023 A 
ATOM     56  C   UNL A   1      37.661  30.858  30.141  1.00  0.00     0.031 A 
ATOM     57  C   UNL A   1      38.598  29.863  32.124  1.00  0.00     0.131 A 
ATOM     58  C   UNL A   1      36.583  31.319  30.914  1.00  0.00     0.055 A 
ATOM     59  C   UNL A   1      37.482  30.250  32.870  1.00  0.00     0.041 A 
ATOM     60  F   UNL A   1      39.578  29.214  32.771  1.00  0.00    -0.206 F 
ATOM     61  C   UNL A   1      36.473  30.996  32.269  1.00  0.00     0.022 A 
BRANCH  58  62
ATOM     62  S   UNL A   1      35.401  32.472  30.160  1.00  0.00     0.124 S 
ATOM     63  O   UNL A   1      34.967  31.725  28.981  1.00  0.00    -0.237 OA
ATOM     64  O   UNL A   1      34.407  32.641  31.212  1.00  0.00    -0.237 OA
ATOM     65  O   UNL A   1      36.211  33.653  29.872  1.00  0.00    -0.744 OA
ENDBRANCH  58  62
ENDBRANCH  41  55
BRANCH  42  66
ATOM     66  C   UNL A   1      46.645  27.065  25.494  1.00  0.00     0.023 A 
ATOM     67  C   UNL A   1      46.898  27.629  24.235  1.00  0.00     0.031 A 
ATOM     68  C   UNL A   1      47.512  26.062  25.960  1.00  0.00     0.131 A 
ATOM     69  C   UNL A   1      47.977  27.163  23.468  1.00  0.00     0.055 A 
ATOM     70  C   UNL A   1      48.612  25.635  25.213  1.00  0.00     0.041 A 
ATOM     71  F   UNL A   1      47.313  25.495  27.161  1.00  0.00    -0.206 F 
ATOM     72  C   UNL A   1      48.843  26.181  23.955  1.00  0.00     0.022 A 
BRANCH  69  73
ATOM     73  S   UNL A   1      48.199  27.828  21.796  1.00  0.00     0.124 S 
ATOM     74  O   UNL A   1      46.987  28.620  21.627  1.00  0.00    -0.237 OA
ATOM     75  O   UNL A   1      49.443  28.577  21.929  1.00  0.00    -0.237 OA
ATOM     76  O   UNL A   1      48.283  26.629  20.963  1.00  0.00    -0.744 OA
ENDBRANCH  69  73
ENDBRANCH  42  66
BRANCH  54  77
ATOM     77  C   UNL A   1      45.254  32.861  29.086  1.00  0.00     0.023 A 
ATOM     78  C   UNL A   1      45.246  33.993  28.251  1.00  0.00     0.031 A 
ATOM     79  C   UNL A   1      46.109  32.870  30.203  1.00  0.00     0.131 A 
ATOM     80  C   UNL A   1      46.121  35.060  28.511  1.00  0.00     0.055 A 
ATOM     81  C   UNL A   1      46.937  33.957  30.488  1.00  0.00     0.041 A 
ATOM     82  F   UNL A   1      46.161  31.815  31.031  1.00  0.00    -0.206 F 
ATOM     83  C   UNL A   1      46.958  35.053  29.630  1.00  0.00     0.022 A 
BRANCH  80  84
ATOM     84  S   UNL A   1      46.231  36.413  27.307  1.00  0.00     0.124 S 
ATOM     85  O   UNL A   1      47.470  36.098  26.605  1.00  0.00    -0.237 OA
ATOM     86  O   UNL A   1      45.002  36.246  26.538  1.00  0.00    -0.237 OA
ATOM     87  O   UNL A   1      46.279  37.613  28.142  1.00  0.00    -0.744 OA
ENDBRANCH  80  84
ENDBRANCH  54  77
ENDBRANCH  28  29
ENDBRANCH  21  23
ENDBRANCH  20  21
ENDBRANCH  19  20
ENDBRANCH   1  19
TORSDOF 18
ENDMDL
