MODEL 1
REMARK VINA RESULT:     -11.4      0.000      0.000
REMARK SMILES Cc1ccc([C@@H](C)[N@@H+]2CCO[C@H](CC(=O)OCCOC(=O)c3ccc(-c4c5nc(c(-c6cc(S(=O)(=O)[O-])ccc6F)c6ccc([nH]6)c(-c6cc(S(=O)(=O)[O-])ccc6F)c6nc(c(-c7cc(S(=O)(=O)[O-])ccc7F)c7ccc4[nH]7)C=C6)C=C5)cc3)C2)o1
REMARK SMILES IDX 17 1 16 2 14 3 15 4 13 5 12 6 8 7 9 8 85 9 10 11 11 12 6 13
REMARK SMILES IDX 7 14 5 15 1 16 2 17 3 18 86 19 4 20 18 21 19 22 20 23 21 24
REMARK SMILES IDX 22 25 23 26 84 27 24 28 83 29 25 30 26 31 27 32 77 33 28 34
REMARK SMILES IDX 82 35 76 36 78 37 29 38 81 39 75 40 74 41 30 43 62 44 42 45
REMARK SMILES IDX 61 46 43 47 46 48 60 49 79 50 44 51 45 52 59 54 80 55 47 56
REMARK SMILES IDX 31 57 32 58 40 59 33 60 39 61 41 62 38 63 34 64 35 65 36 66
REMARK SMILES IDX 37 67 63 68 64 69 72 70 65 71 71 72 73 73 70 74 66 75 67 76
REMARK SMILES IDX 68 77 69 78 48 79 49 80 57 81 50 82 56 83 58 84 55 85 51 86
REMARK SMILES IDX 52 87 53 88 54 89
REMARK H PARENT 8 10 78 42 46 53
REMARK Flexibility Score: inf
ROOT
ATOM      1  C   UNL A   1      35.696  21.428  24.623  1.00  0.00     0.274 C 
ENDROOT
BRANCH   1   2
ATOM      2  O   UNL A   1      34.646  21.680  25.577  1.00  0.00    -0.462 OA
BRANCH   2   3
ATOM      3  C   UNL A   1      33.564  22.308  25.054  1.00  0.00     0.308 C 
ATOM      4  O   UNL A   1      32.534  21.722  24.746  1.00  0.00    -0.252 OA
BRANCH   3   5
ATOM      5  C   UNL A   1      33.635  23.804  25.113  1.00  0.00     0.160 C 
BRANCH   5   6
ATOM      6  C   UNL A   1      34.266  24.618  23.991  1.00  0.00     0.184 C 
ATOM      7  N   UNL A   1      32.796  26.620  23.362  1.00  0.00    -0.322 N 
ATOM      8  C   UNL A   1      32.746  26.039  22.023  1.00  0.00     0.291 C 
ATOM      9  C   UNL A   1      33.964  26.136  24.091  1.00  0.00     0.295 C 
ATOM     10  H   UNL A   1      32.979  27.619  23.275  1.00  0.00     0.348 HD
ATOM     11  C   UNL A   1      32.901  24.513  22.031  1.00  0.00     0.222 C 
ATOM     12  O   UNL A   1      34.112  24.097  22.668  1.00  0.00    -0.366 OA
BRANCH   7  13
ATOM     13  C   UNL A   1      31.525  26.921  24.044  1.00  0.00     0.248 C 
ATOM     14  C   UNL A   1      30.472  27.571  23.130  1.00  0.00     0.084 C 
BRANCH  13  15
ATOM     15  C   UNL A   1      31.613  27.630  25.372  1.00  0.00     0.161 A 
ATOM     16  C   UNL A   1      32.086  30.847  26.880  1.00  0.00     0.087 C 
ATOM     17  C   UNL A   1      31.805  29.412  26.653  1.00  0.00     0.101 A 
ATOM     18  C   UNL A   1      31.558  28.357  27.501  1.00  0.00     0.046 A 
ATOM     19  O   UNL A   1      31.830  28.978  25.361  1.00  0.00    -0.460 OA
ATOM     20  C   UNL A   1      31.403  27.217  26.677  1.00  0.00     0.052 A 
ENDBRANCH  13  15
ENDBRANCH   7  13
ENDBRANCH   5   6
ENDBRANCH   3   5
ENDBRANCH   2   3
ENDBRANCH   1   2
BRANCH   1  21
ATOM     21  C   UNL A   1      36.901  20.717  25.254  1.00  0.00     0.275 C 
BRANCH  21  22
ATOM     22  O   UNL A   1      38.152  21.388  25.000  1.00  0.00    -0.458 OA
BRANCH  22  23
ATOM     23  C   UNL A   1      39.148  21.088  25.870  1.00  0.00     0.338 C 
ATOM     24  O   UNL A   1      39.673  20.000  26.033  1.00  0.00    -0.246 OA
BRANCH  23  25
ATOM     25  C   UNL A   1      39.611  22.298  26.570  1.00  0.00     0.060 A 
ATOM     26  C   UNL A   1      39.146  23.545  26.137  1.00  0.00     0.016 A 
ATOM     27  C   UNL A   1      40.624  22.219  27.524  1.00  0.00     0.016 A 
ATOM     28  C   UNL A   1      39.710  24.719  26.621  1.00  0.00     0.010 A 
ATOM     29  C   UNL A   1      41.189  23.399  28.017  1.00  0.00     0.010 A 
ATOM     30  C   UNL A   1      40.756  24.651  27.542  1.00  0.00    -0.014 A 
BRANCH  30  31
ATOM     31  C   UNL A   1      41.494  25.885  27.892  1.00  0.00     0.031 A 
ATOM     32  C   UNL A   1      40.783  26.952  28.673  1.00  0.00     0.074 A 
ATOM     33  C   UNL A   1      42.784  26.030  27.544  1.00  0.00     0.049 A 
ATOM     34  N   UNL A   1      41.163  28.170  28.957  1.00  0.00    -0.248 NA
ATOM     35  C   UNL A   1      39.457  26.594  29.201  1.00  0.00     0.031 C 
ATOM     36  C   UNL A   1      43.595  25.014  26.872  1.00  0.00     0.029 A 
ATOM     37  N   UNL A   1      43.636  27.094  27.696  1.00  0.00    -0.354 N 
ATOM     38  C   UNL A   1      40.111  28.737  29.669  1.00  0.00     0.074 A 
ATOM     39  C   UNL A   1      39.075  27.730  29.763  1.00  0.00     0.031 C 
ATOM     40  C   UNL A   1      44.821  25.515  26.645  1.00  0.00     0.029 A 
ATOM     41  C   UNL A   1      44.859  26.902  27.100  1.00  0.00     0.049 A 
ATOM     42  H   UNL A   1      43.393  27.914  28.184  1.00  0.00     0.167 HD
ATOM     43  C   UNL A   1      40.023  29.987  30.185  1.00  0.00     0.034 A 
ATOM     44  C   UNL A   1      45.873  27.768  26.900  1.00  0.00     0.034 A 
ATOM     45  C   UNL A   1      41.076  30.967  30.068  1.00  0.00     0.049 A 
ATOM     46  C   UNL A   1      45.721  29.181  27.405  1.00  0.00     0.074 A 
ATOM     47  C   UNL A   1      41.102  32.270  30.535  1.00  0.00     0.029 A 
ATOM     48  N   UNL A   1      42.291  30.752  29.428  1.00  0.00    -0.354 N 
ATOM     49  N   UNL A   1      44.707  29.730  28.035  1.00  0.00    -0.248 NA
ATOM     50  C   UNL A   1      46.848  30.093  27.170  1.00  0.00     0.031 C 
ATOM     51  C   UNL A   1      42.302  32.859  30.121  1.00  0.00     0.029 A 
ATOM     52  C   UNL A   1      43.060  31.904  29.460  1.00  0.00     0.049 A 
ATOM     53  H   UNL A   1      42.566  29.903  29.012  1.00  0.00     0.167 HD
ATOM     54  C   UNL A   1      45.083  31.046  28.289  1.00  0.00     0.074 A 
ATOM     55  C   UNL A   1      46.423  31.202  27.758  1.00  0.00     0.031 C 
ATOM     56  C   UNL A   1      44.390  32.036  28.908  1.00  0.00     0.034 A 
BRANCH  43  57
ATOM     57  C   UNL A   1      38.717  30.373  30.836  1.00  0.00     0.023 A 
ATOM     58  C   UNL A   1      37.679  30.996  30.120  1.00  0.00     0.031 A 
ATOM     59  C   UNL A   1      38.532  30.169  32.216  1.00  0.00     0.131 A 
ATOM     60  C   UNL A   1      36.541  31.463  30.798  1.00  0.00     0.055 A 
ATOM     61  C   UNL A   1      37.366  30.565  32.871  1.00  0.00     0.041 A 
ATOM     62  F   UNL A   1      39.498  29.603  32.957  1.00  0.00    -0.206 F 
ATOM     63  C   UNL A   1      36.368  31.232  32.165  1.00  0.00     0.022 A 
BRANCH  60  64
ATOM     64  S   UNL A   1      35.362  32.511  29.901  1.00  0.00     0.124 S 
ATOM     65  O   UNL A   1      36.194  33.659  29.550  1.00  0.00    -0.237 OA
ATOM     66  O   UNL A   1      34.957  31.652  28.794  1.00  0.00    -0.237 OA
ATOM     67  O   UNL A   1      34.322  32.782  30.892  1.00  0.00    -0.744 OA
ENDBRANCH  60  64
ENDBRANCH  43  57
BRANCH  44  68
ATOM     68  C   UNL A   1      47.074  27.351  26.123  1.00  0.00     0.023 A 
ATOM     69  C   UNL A   1      47.232  27.701  24.773  1.00  0.00     0.031 A 
ATOM     70  C   UNL A   1      48.075  26.561  26.720  1.00  0.00     0.131 A 
ATOM     71  C   UNL A   1      48.347  27.236  24.057  1.00  0.00     0.055 A 
ATOM     72  C   UNL A   1      49.205  26.143  26.018  1.00  0.00     0.041 A 
ATOM     73  F   UNL A   1      47.973  26.196  28.009  1.00  0.00    -0.206 F 
ATOM     74  C   UNL A   1      49.341  26.472  24.673  1.00  0.00     0.022 A 
BRANCH  71  75
ATOM     75  S   UNL A   1      48.449  27.586  22.279  1.00  0.00     0.124 S 
ATOM     76  O   UNL A   1      47.150  28.199  22.022  1.00  0.00    -0.237 OA
ATOM     77  O   UNL A   1      49.603  28.476  22.212  1.00  0.00    -0.237 OA
ATOM     78  O   UNL A   1      48.646  26.268  21.683  1.00  0.00    -0.744 OA
ENDBRANCH  71  75
ENDBRANCH  44  68
BRANCH  56  79
ATOM     79  C   UNL A   1      45.096  33.359  29.074  1.00  0.00     0.023 A 
ATOM     80  C   UNL A   1      45.003  34.372  28.104  1.00  0.00     0.031 A 
ATOM     81  C   UNL A   1      45.877  33.601  30.216  1.00  0.00     0.131 A 
ATOM     82  C   UNL A   1      45.726  35.563  28.271  1.00  0.00     0.055 A 
ATOM     83  C   UNL A   1      46.548  34.810  30.404  1.00  0.00     0.041 A 
ATOM     84  F   UNL A   1      45.999  32.666  31.172  1.00  0.00    -0.206 F 
ATOM     85  C   UNL A   1      46.485  35.795  29.422  1.00  0.00     0.022 A 
BRANCH  82  86
ATOM     86  S   UNL A   1      45.731  36.776  26.922  1.00  0.00     0.124 S 
ATOM     87  O   UNL A   1      44.328  37.172  26.865  1.00  0.00    -0.237 OA
ATOM     88  O   UNL A   1      46.659  37.788  27.415  1.00  0.00    -0.237 OA
ATOM     89  O   UNL A   1      46.206  36.008  25.772  1.00  0.00    -0.744 OA
ENDBRANCH  82  86
ENDBRANCH  56  79
ENDBRANCH  30  31
ENDBRANCH  23  25
ENDBRANCH  22  23
ENDBRANCH  21  22
ENDBRANCH   1  21
TORSDOF 17
ENDMDL
MODEL 2
REMARK VINA RESULT:     -11.4      4.926     10.060
REMARK SMILES Cc1ccc([C@@H](C)[N@@H+]2CCO[C@H](CC(=O)OCCOC(=O)c3ccc(-c4c5nc(c(-c6cc(S(=O)(=O)[O-])ccc6F)c6ccc([nH]6)c(-c6cc(S(=O)(=O)[O-])ccc6F)c6nc(c(-c7cc(S(=O)(=O)[O-])ccc7F)c7ccc4[nH]7)C=C6)C=C5)cc3)C2)o1
REMARK SMILES IDX 17 1 16 2 14 3 15 4 13 5 12 6 8 7 9 8 85 9 10 11 11 12 6 13
REMARK SMILES IDX 7 14 5 15 1 16 2 17 3 18 86 19 4 20 18 21 19 22 20 23 21 24
REMARK SMILES IDX 22 25 23 26 84 27 24 28 83 29 25 30 26 31 27 32 77 33 28 34
REMARK SMILES IDX 82 35 76 36 78 37 29 38 81 39 75 40 74 41 30 43 62 44 42 45
REMARK SMILES IDX 61 46 43 47 46 48 60 49 79 50 44 51 45 52 59 54 80 55 47 56
REMARK SMILES IDX 31 57 32 58 40 59 33 60 39 61 41 62 38 63 34 64 35 65 36 66
REMARK SMILES IDX 37 67 63 68 64 69 72 70 65 71 71 72 73 73 70 74 66 75 67 76
REMARK SMILES IDX 68 77 69 78 48 79 49 80 57 81 50 82 56 83 58 84 55 85 51 86
REMARK SMILES IDX 52 87 53 88 54 89
REMARK H PARENT 8 10 78 42 46 53
REMARK Flexibility Score: inf
ROOT
ATOM      1  C   UNL A   1      31.421  29.641  24.786  1.00  0.00     0.274 C 
ENDROOT
BRANCH   1   2
ATOM      2  O   UNL A   1      30.258  29.717  23.938  1.00  0.00    -0.462 OA
BRANCH   2   3
ATOM      3  C   UNL A   1      30.209  28.757  22.982  1.00  0.00     0.308 C 
ATOM      4  O   UNL A   1      29.908  28.988  21.818  1.00  0.00    -0.252 OA
BRANCH   3   5
ATOM      5  C   UNL A   1      30.793  27.442  23.401  1.00  0.00     0.160 C 
BRANCH   5   6
ATOM      6  C   UNL A   1      30.890  26.268  22.436  1.00  0.00     0.184 C 
ATOM      7  N   UNL A   1      31.765  24.170  23.617  1.00  0.00    -0.322 N 
ATOM      8  C   UNL A   1      32.863  24.203  22.654  1.00  0.00     0.291 C 
ATOM      9  C   UNL A   1      30.608  24.898  23.106  1.00  0.00     0.295 C 
ATOM     10  H   UNL A   1      31.421  23.212  23.683  1.00  0.00     0.348 HD
ATOM     11  C   UNL A   1      33.175  25.621  22.157  1.00  0.00     0.222 C 
ATOM     12  O   UNL A   1      32.031  26.251  21.574  1.00  0.00    -0.366 OA
BRANCH   7  13
ATOM     13  C   UNL A   1      32.092  24.142  25.053  1.00  0.00     0.248 C 
ATOM     14  C   UNL A   1      31.057  23.391  25.909  1.00  0.00     0.084 C 
BRANCH  13  15
ATOM     15  C   UNL A   1      32.487  25.450  25.691  1.00  0.00     0.161 A 
ATOM     16  C   UNL A   1      31.355  27.998  27.944  1.00  0.00     0.087 C 
ATOM     17  C   UNL A   1      32.180  27.163  27.044  1.00  0.00     0.101 A 
ATOM     18  C   UNL A   1      33.454  27.296  26.541  1.00  0.00     0.046 A 
ATOM     19  O   UNL A   1      31.593  26.040  26.539  1.00  0.00    -0.460 OA
ATOM     20  C   UNL A   1      33.663  26.180  25.697  1.00  0.00     0.052 A 
ENDBRANCH  13  15
ENDBRANCH   7  13
ENDBRANCH   5   6
ENDBRANCH   3   5
ENDBRANCH   2   3
ENDBRANCH   1   2
BRANCH   1  21
ATOM     21  C   UNL A   1      31.553  30.861  25.709  1.00  0.00     0.275 C 
BRANCH  21  22
ATOM     22  O   UNL A   1      32.473  30.650  26.799  1.00  0.00    -0.458 OA
BRANCH  22  23
ATOM     23  C   UNL A   1      33.124  31.763  27.220  1.00  0.00     0.338 C 
ATOM     24  O   UNL A   1      32.652  32.880  27.349  1.00  0.00    -0.246 OA
BRANCH  23  25
ATOM     25  C   UNL A   1      34.507  31.443  27.609  1.00  0.00     0.060 A 
ATOM     26  C   UNL A   1      34.843  30.108  27.863  1.00  0.00     0.016 A 
ATOM     27  C   UNL A   1      35.415  32.462  27.891  1.00  0.00     0.016 A 
ATOM     28  C   UNL A   1      36.068  29.781  28.432  1.00  0.00     0.010 A 
ATOM     29  C   UNL A   1      36.651  32.135  28.460  1.00  0.00     0.010 A 
ATOM     30  C   UNL A   1      36.966  30.797  28.762  1.00  0.00    -0.014 A 
BRANCH  30  31
ATOM     31  C   UNL A   1      38.170  30.469  29.559  1.00  0.00     0.031 A 
ATOM     32  C   UNL A   1      39.182  29.525  28.978  1.00  0.00     0.074 A 
ATOM     33  C   UNL A   1      38.363  31.032  30.764  1.00  0.00     0.049 A 
ATOM     34  N   UNL A   1      40.222  28.969  29.541  1.00  0.00    -0.248 NA
ATOM     35  C   UNL A   1      38.988  29.154  27.567  1.00  0.00     0.031 C 
ATOM     36  C   UNL A   1      37.491  32.034  31.376  1.00  0.00     0.029 A 
ATOM     37  N   UNL A   1      39.349  30.829  31.695  1.00  0.00    -0.354 N 
ATOM     38  C   UNL A   1      40.791  28.158  28.564  1.00  0.00     0.074 A 
ATOM     39  C   UNL A   1      39.971  28.288  27.379  1.00  0.00     0.031 C 
ATOM     40  C   UNL A   1      37.968  32.340  32.594  1.00  0.00     0.029 A 
ATOM     41  C   UNL A   1      39.139  31.512  32.869  1.00  0.00     0.049 A 
ATOM     42  H   UNL A   1      40.131  30.251  31.537  1.00  0.00     0.167 HD
ATOM     43  C   UNL A   1      41.891  27.372  28.661  1.00  0.00     0.034 A 
ATOM     44  C   UNL A   1      39.790  31.435  34.047  1.00  0.00     0.034 A 
ATOM     45  C   UNL A   1      42.683  27.263  29.863  1.00  0.00     0.049 A 
ATOM     46  C   UNL A   1      40.959  30.489  34.162  1.00  0.00     0.074 A 
ATOM     47  C   UNL A   1      43.809  26.492  30.091  1.00  0.00     0.029 A 
ATOM     48  N   UNL A   1      42.423  27.944  31.047  1.00  0.00    -0.354 N 
ATOM     49  N   UNL A   1      41.465  29.686  33.253  1.00  0.00    -0.248 NA
ATOM     50  C   UNL A   1      41.642  30.436  35.460  1.00  0.00     0.031 C 
ATOM     51  C   UNL A   1      44.189  26.657  31.428  1.00  0.00     0.029 A 
ATOM     52  C   UNL A   1      43.346  27.588  32.016  1.00  0.00     0.049 A 
ATOM     53  H   UNL A   1      41.688  28.586  31.177  1.00  0.00     0.167 HD
ATOM     54  C   UNL A   1      42.540  29.048  33.865  1.00  0.00     0.074 A 
ATOM     55  C   UNL A   1      42.616  29.572  35.215  1.00  0.00     0.031 C 
ATOM     56  C   UNL A   1      43.390  28.116  33.361  1.00  0.00     0.034 A 
BRANCH  43  57
ATOM     57  C   UNL A   1      42.233  26.516  27.465  1.00  0.00     0.023 A 
ATOM     58  C   UNL A   1      41.834  25.171  27.369  1.00  0.00     0.031 A 
ATOM     59  C   UNL A   1      43.029  27.041  26.431  1.00  0.00     0.131 A 
ATOM     60  C   UNL A   1      42.295  24.378  26.305  1.00  0.00     0.055 A 
ATOM     61  C   UNL A   1      43.420  26.269  25.336  1.00  0.00     0.041 A 
ATOM     62  F   UNL A   1      43.462  28.311  26.480  1.00  0.00    -0.206 F 
ATOM     63  C   UNL A   1      43.067  24.923  25.277  1.00  0.00     0.022 A 
BRANCH  60  64
ATOM     64  S   UNL A   1      42.002  22.588  26.364  1.00  0.00     0.124 S 
ATOM     65  O   UNL A   1      42.744  22.205  27.562  1.00  0.00    -0.237 OA
ATOM     66  O   UNL A   1      40.549  22.510  26.459  1.00  0.00    -0.237 OA
ATOM     67  O   UNL A   1      42.570  22.107  25.106  1.00  0.00    -0.744 OA
ENDBRANCH  60  64
ENDBRANCH  43  57
BRANCH  44  68
ATOM     68  C   UNL A   1      39.303  32.207  35.225  1.00  0.00     0.023 A 
ATOM     69  C   UNL A   1      39.743  33.516  35.476  1.00  0.00     0.031 A 
ATOM     70  C   UNL A   1      38.407  31.627  36.143  1.00  0.00     0.131 A 
ATOM     71  C   UNL A   1      39.311  34.189  36.631  1.00  0.00     0.055 A 
ATOM     72  C   UNL A   1      37.943  32.317  37.262  1.00  0.00     0.041 A 
ATOM     73  F   UNL A   1      37.956  30.376  35.953  1.00  0.00    -0.206 F 
ATOM     74  C   UNL A   1      38.404  33.605  37.517  1.00  0.00     0.022 A 
BRANCH  71  75
ATOM     75  S   UNL A   1      40.009  35.824  36.998  1.00  0.00     0.124 S 
ATOM     76  O   UNL A   1      41.425  35.513  37.163  1.00  0.00    -0.237 OA
ATOM     77  O   UNL A   1      39.653  36.580  35.803  1.00  0.00    -0.237 OA
ATOM     78  O   UNL A   1      39.312  36.224  38.218  1.00  0.00    -0.744 OA
ENDBRANCH  71  75
ENDBRANCH  44  68
BRANCH  56  79
ATOM     79  C   UNL A   1      44.497  27.644  34.271  1.00  0.00     0.023 A 
ATOM     80  C   UNL A   1      44.370  26.478  35.045  1.00  0.00     0.031 A 
ATOM     81  C   UNL A   1      45.691  28.378  34.366  1.00  0.00     0.131 A 
ATOM     82  C   UNL A   1      45.400  26.109  35.923  1.00  0.00     0.055 A 
ATOM     83  C   UNL A   1      46.736  27.975  35.198  1.00  0.00     0.041 A 
ATOM     84  F   UNL A   1      45.864  29.500  33.648  1.00  0.00    -0.206 F 
ATOM     85  C   UNL A   1      46.589  26.841  35.993  1.00  0.00     0.022 A 
BRANCH  82  86
ATOM     86  S   UNL A   1      45.134  24.704  37.038  1.00  0.00     0.124 S 
ATOM     87  O   UNL A   1      46.493  24.398  37.471  1.00  0.00    -0.237 OA
ATOM     88  O   UNL A   1      44.255  25.274  38.054  1.00  0.00    -0.237 OA
ATOM     89  O   UNL A   1      44.514  23.696  36.179  1.00  0.00    -0.744 OA
ENDBRANCH  82  86
ENDBRANCH  56  79
ENDBRANCH  30  31
ENDBRANCH  23  25
ENDBRANCH  22  23
ENDBRANCH  21  22
ENDBRANCH   1  21
TORSDOF 17
ENDMDL
MODEL 3
REMARK VINA RESULT:     -11.3      1.569      1.984
REMARK SMILES Cc1ccc([C@@H](C)[N@@H+]2CCO[C@H](CC(=O)OCCOC(=O)c3ccc(-c4c5nc(c(-c6cc(S(=O)(=O)[O-])ccc6F)c6ccc([nH]6)c(-c6cc(S(=O)(=O)[O-])ccc6F)c6nc(c(-c7cc(S(=O)(=O)[O-])ccc7F)c7ccc4[nH]7)C=C6)C=C5)cc3)C2)o1
REMARK SMILES IDX 17 1 16 2 14 3 15 4 13 5 12 6 8 7 9 8 85 9 10 11 11 12 6 13
REMARK SMILES IDX 7 14 5 15 1 16 2 17 3 18 86 19 4 20 18 21 19 22 20 23 21 24
REMARK SMILES IDX 22 25 23 26 84 27 24 28 83 29 25 30 26 31 27 32 77 33 28 34
REMARK SMILES IDX 82 35 76 36 78 37 29 38 81 39 75 40 74 41 30 43 62 44 42 45
REMARK SMILES IDX 61 46 43 47 46 48 60 49 79 50 44 51 45 52 59 54 80 55 47 56
REMARK SMILES IDX 31 57 32 58 40 59 33 60 39 61 41 62 38 63 34 64 35 65 36 66
REMARK SMILES IDX 37 67 63 68 64 69 72 70 65 71 71 72 73 73 70 74 66 75 67 76
REMARK SMILES IDX 68 77 69 78 48 79 49 80 57 81 50 82 56 83 58 84 55 85 51 86
REMARK SMILES IDX 52 87 53 88 54 89
REMARK H PARENT 8 10 78 42 46 53
REMARK Flexibility Score: inf
ROOT
ATOM      1  C   UNL A   1      35.319  21.535  25.287  1.00  0.00     0.274 C 
ENDROOT
BRANCH   1   2
ATOM      2  O   UNL A   1      34.559  21.781  24.088  1.00  0.00    -0.462 OA
BRANCH   2   3
ATOM      3  C   UNL A   1      34.806  22.985  23.516  1.00  0.00     0.308 C 
ATOM      4  O   UNL A   1      35.788  23.205  22.818  1.00  0.00    -0.252 OA
BRANCH   3   5
ATOM      5  C   UNL A   1      33.662  23.950  23.598  1.00  0.00     0.160 C 
BRANCH   5   6
ATOM      6  C   UNL A   1      32.326  23.553  24.213  1.00  0.00     0.184 C 
ATOM      7  N   UNL A   1      30.650  25.488  24.106  1.00  0.00    -0.322 N 
ATOM      8  C   UNL A   1      30.600  25.398  25.563  1.00  0.00     0.291 C 
ATOM      9  C   UNL A   1      31.111  24.231  23.527  1.00  0.00     0.295 C 
ATOM     10  H   UNL A   1      29.696  25.566  23.754  1.00  0.00     0.348 HD
ATOM     11  C   UNL A   1      31.903  24.860  26.170  1.00  0.00     0.222 C 
ATOM     12  O   UNL A   1      32.255  23.579  25.641  1.00  0.00    -0.366 OA
BRANCH   7  13
ATOM     13  C   UNL A   1      30.972  26.789  23.495  1.00  0.00     0.248 C 
ATOM     14  C   UNL A   1      31.343  26.696  22.004  1.00  0.00     0.084 C 
BRANCH  13  15
ATOM     15  C   UNL A   1      31.931  27.679  24.245  1.00  0.00     0.161 A 
ATOM     16  C   UNL A   1      32.095  30.452  26.510  1.00  0.00     0.087 C 
ATOM     17  C   UNL A   1      32.438  29.295  25.655  1.00  0.00     0.101 A 
ATOM     18  C   UNL A   1      33.632  28.711  25.296  1.00  0.00     0.046 A 
ATOM     19  O   UNL A   1      31.404  28.666  25.027  1.00  0.00    -0.460 OA
ATOM     20  C   UNL A   1      33.305  27.653  24.416  1.00  0.00     0.052 A 
ENDBRANCH  13  15
ENDBRANCH   7  13
ENDBRANCH   5   6
ENDBRANCH   3   5
ENDBRANCH   2   3
ENDBRANCH   1   2
BRANCH   1  21
ATOM     21  C   UNL A   1      36.569  20.683  25.023  1.00  0.00     0.275 C 
BRANCH  21  22
ATOM     22  O   UNL A   1      37.769  21.468  24.876  1.00  0.00    -0.458 OA
BRANCH  22  23
ATOM     23  C   UNL A   1      38.794  21.102  25.686  1.00  0.00     0.338 C 
ATOM     24  O   UNL A   1      39.297  19.995  25.772  1.00  0.00    -0.246 OA
BRANCH  23  25
ATOM     25  C   UNL A   1      39.316  22.264  26.424  1.00  0.00     0.060 A 
ATOM     26  C   UNL A   1      38.818  23.535  26.116  1.00  0.00     0.016 A 
ATOM     27  C   UNL A   1      40.406  22.125  27.281  1.00  0.00     0.016 A 
ATOM     28  C   UNL A   1      39.423  24.677  26.629  1.00  0.00     0.010 A 
ATOM     29  C   UNL A   1      41.014  23.272  27.803  1.00  0.00     0.010 A 
ATOM     30  C   UNL A   1      40.544  24.551  27.451  1.00  0.00    -0.014 A 
BRANCH  30  31
ATOM     31  C   UNL A   1      41.311  25.762  27.820  1.00  0.00     0.031 A 
ATOM     32  C   UNL A   1      40.622  26.840  28.606  1.00  0.00     0.074 A 
ATOM     33  C   UNL A   1      42.607  25.876  27.483  1.00  0.00     0.049 A 
ATOM     34  N   UNL A   1      41.031  28.044  28.904  1.00  0.00    -0.248 NA
ATOM     35  C   UNL A   1      39.283  26.511  29.119  1.00  0.00     0.031 C 
ATOM     36  C   UNL A   1      43.396  24.846  26.807  1.00  0.00     0.029 A 
ATOM     37  N   UNL A   1      43.485  26.916  27.652  1.00  0.00    -0.354 N 
ATOM     38  C   UNL A   1      39.989  28.631  29.614  1.00  0.00     0.074 A 
ATOM     39  C   UNL A   1      38.926  27.651  29.690  1.00  0.00     0.031 C 
ATOM     40  C   UNL A   1      44.636  25.317  26.594  1.00  0.00     0.029 A 
ATOM     41  C   UNL A   1      44.708  26.698  27.064  1.00  0.00     0.049 A 
ATOM     42  H   UNL A   1      43.260  27.737  28.146  1.00  0.00     0.167 HD
ATOM     43  C   UNL A   1      39.930  29.878  30.142  1.00  0.00     0.034 A 
ATOM     44  C   UNL A   1      45.745  27.539  26.880  1.00  0.00     0.034 A 
ATOM     45  C   UNL A   1      41.009  30.832  30.043  1.00  0.00     0.049 A 
ATOM     46  C   UNL A   1      45.627  28.951  27.398  1.00  0.00     0.074 A 
ATOM     47  C   UNL A   1      41.065  32.128  30.524  1.00  0.00     0.029 A 
ATOM     48  N   UNL A   1      42.222  30.591  29.411  1.00  0.00    -0.354 N 
ATOM     49  N   UNL A   1      44.622  29.520  28.026  1.00  0.00    -0.248 NA
ATOM     50  C   UNL A   1      46.779  29.835  27.181  1.00  0.00     0.031 C 
ATOM     51  C   UNL A   1      42.283  32.690  30.124  1.00  0.00     0.029 A 
ATOM     52  C   UNL A   1      43.021  31.722  29.460  1.00  0.00     0.049 A 
ATOM     53  H   UNL A   1      42.478  29.739  28.988  1.00  0.00     0.167 HD
ATOM     54  C   UNL A   1      45.030  30.822  28.297  1.00  0.00     0.074 A 
ATOM     55  C   UNL A   1      46.378  30.948  27.777  1.00  0.00     0.031 C 
ATOM     56  C   UNL A   1      44.358  31.825  28.920  1.00  0.00     0.034 A 
BRANCH  43  57
ATOM     57  C   UNL A   1      38.628  30.291  30.787  1.00  0.00     0.023 A 
ATOM     58  C   UNL A   1      37.604  30.929  30.064  1.00  0.00     0.031 A 
ATOM     59  C   UNL A   1      38.437  30.100  32.167  1.00  0.00     0.131 A 
ATOM     60  C   UNL A   1      36.473  31.420  30.736  1.00  0.00     0.055 A 
ATOM     61  C   UNL A   1      37.275  30.522  32.816  1.00  0.00     0.041 A 
ATOM     62  F   UNL A   1      39.390  29.522  32.915  1.00  0.00    -0.206 F 
ATOM     63  C   UNL A   1      36.291  31.201  32.103  1.00  0.00     0.022 A 
BRANCH  60  64
ATOM     64  S   UNL A   1      35.315  32.483  29.829  1.00  0.00     0.124 S 
ATOM     65  O   UNL A   1      34.842  31.581  28.782  1.00  0.00    -0.237 OA
ATOM     66  O   UNL A   1      34.342  32.838  30.856  1.00  0.00    -0.237 OA
ATOM     67  O   UNL A   1      36.156  33.584  29.361  1.00  0.00    -0.744 OA
ENDBRANCH  60  64
ENDBRANCH  43  57
BRANCH  44  68
ATOM     68  C   UNL A   1      46.941  27.099  26.108  1.00  0.00     0.023 A 
ATOM     69  C   UNL A   1      48.053  26.526  26.743  1.00  0.00     0.031 A 
ATOM     70  C   UNL A   1      47.000  27.277  24.713  1.00  0.00     0.131 A 
ATOM     71  C   UNL A   1      49.188  26.181  25.990  1.00  0.00     0.055 A 
ATOM     72  C   UNL A   1      48.109  26.888  23.962  1.00  0.00     0.041 A 
ATOM     73  F   UNL A   1      45.964  27.823  24.054  1.00  0.00    -0.206 F 
ATOM     74  C   UNL A   1      49.218  26.346  24.603  1.00  0.00     0.022 A 
BRANCH  71  75
ATOM     75  S   UNL A   1      50.661  25.576  26.860  1.00  0.00     0.124 S 
ATOM     76  O   UNL A   1      51.535  25.213  25.750  1.00  0.00    -0.237 OA
ATOM     77  O   UNL A   1      51.058  26.747  27.634  1.00  0.00    -0.237 OA
ATOM     78  O   UNL A   1      50.154  24.454  27.647  1.00  0.00    -0.744 OA
ENDBRANCH  71  75
ENDBRANCH  44  68
BRANCH  56  79
ATOM     79  C   UNL A   1      45.097  33.126  29.104  1.00  0.00     0.023 A 
ATOM     80  C   UNL A   1      45.002  34.169  28.167  1.00  0.00     0.031 A 
ATOM     81  C   UNL A   1      45.913  33.319  30.232  1.00  0.00     0.131 A 
ATOM     82  C   UNL A   1      45.755  35.339  28.348  1.00  0.00     0.055 A 
ATOM     83  C   UNL A   1      46.615  34.508  30.436  1.00  0.00     0.041 A 
ATOM     84  F   UNL A   1      46.039  32.354  31.158  1.00  0.00    -0.206 F 
ATOM     85  C   UNL A   1      46.548  35.521  29.485  1.00  0.00     0.022 A 
BRANCH  82  86
ATOM     86  S   UNL A   1      45.751  36.590  27.035  1.00  0.00     0.124 S 
ATOM     87  O   UNL A   1      44.325  36.852  26.869  1.00  0.00    -0.237 OA
ATOM     88  O   UNL A   1      46.533  37.670  27.629  1.00  0.00    -0.237 OA
ATOM     89  O   UNL A   1      46.392  35.910  25.911  1.00  0.00    -0.744 OA
ENDBRANCH  82  86
ENDBRANCH  56  79
ENDBRANCH  30  31
ENDBRANCH  23  25
ENDBRANCH  22  23
ENDBRANCH  21  22
ENDBRANCH   1  21
TORSDOF 17
ENDMDL
