MODEL 1
REMARK VINA RESULT:     -11.4      0.000      0.000
REMARK SMILES CC1(CNS(=O)(=O)Cc2ccc(C(=O)OCCOC(=O)c3ccc(-c4c5nc(c(-c6cc(S(=O)(=O)[O-])ccc6F)c6ccc([nH]6)c(-c6cc(S(=O)(=O)[O-])ccc6F)c6nc(c(-c7cc(S(=O)(=O)[O-])ccc7F)c7ccc4[nH]7)C=C6)C=C5)cc3)cc2)COC1
REMARK SMILES IDX 16 1 15 2 13 3 14 4 12 5 9 6 10 7 85 8 11 9 84 10 8 11 5 12
REMARK SMILES IDX 6 13 7 14 4 15 3 17 2 18 1 19 86 20 88 21 87 22 17 23 18 24
REMARK SMILES IDX 19 25 20 26 21 27 22 28 83 29 23 30 82 31 24 32 25 33 26 34
REMARK SMILES IDX 76 35 27 36 81 37 75 38 77 39 28 40 80 41 74 42 73 43 29 45
REMARK SMILES IDX 61 46 41 47 60 48 42 49 45 50 59 51 78 52 43 53 44 54 58 56
REMARK SMILES IDX 79 57 46 58 30 59 31 60 39 61 32 62 38 63 40 64 37 65 33 66
REMARK SMILES IDX 34 67 35 68 36 69 62 70 63 71 71 72 64 73 70 74 72 75 69 76
REMARK SMILES IDX 65 77 66 78 67 79 68 80 47 81 48 82 56 83 49 84 55 85 57 86
REMARK SMILES IDX 54 87 50 88 51 89 52 90 53 91
REMARK H PARENT 4 16 77 44 45 55
REMARK Flexibility Score: inf
ROOT
ATOM      1  C   UNL A   1      35.384  21.680  24.542  1.00  0.00     0.275 C 
ENDROOT
BRANCH   1   2
ATOM      2  O   UNL A   1      34.134  21.445  25.220  1.00  0.00    -0.458 OA
BRANCH   2   3
ATOM      3  C   UNL A   1      33.912  22.213  26.316  1.00  0.00     0.338 C 
ATOM      4  O   UNL A   1      34.202  21.926  27.467  1.00  0.00    -0.246 OA
BRANCH   3   5
ATOM      5  C   UNL A   1      33.328  23.527  25.945  1.00  0.00     0.060 A 
ATOM      6  C   UNL A   1      32.350  26.070  25.236  1.00  0.00    -0.032 A 
ATOM      7  C   UNL A   1      33.724  25.856  25.386  1.00  0.00     0.006 A 
ATOM      8  C   UNL A   1      31.469  24.998  25.452  1.00  0.00     0.006 A 
ATOM      9  C   UNL A   1      34.206  24.602  25.757  1.00  0.00     0.016 A 
ATOM     10  C   UNL A   1      31.954  23.729  25.797  1.00  0.00     0.016 A 
BRANCH   6  11
ATOM     11  C   UNL A   1      31.841  27.447  24.898  1.00  0.00     0.189 C 
BRANCH  11  12
ATOM     12  S   UNL A   1      31.881  27.779  23.133  1.00  0.00     0.215 S 
ATOM     13  O   UNL A   1      30.936  26.884  22.496  1.00  0.00    -0.212 OA
ATOM     14  O   UNL A   1      33.259  27.812  22.694  1.00  0.00    -0.212 OA
BRANCH  12  15
ATOM     15  N   UNL A   1      31.288  29.345  22.968  1.00  0.00    -0.214 NA
ATOM     16  H   UNL A   1      32.068  29.983  23.134  1.00  0.00     0.141 HD
BRANCH  15  17
ATOM     17  C   UNL A   1      30.179  29.771  23.851  1.00  0.00     0.110 C 
BRANCH  17  18
ATOM     18  C   UNL A   1      29.114  30.588  23.106  1.00  0.00     0.028 C 
ATOM     19  C   UNL A   1      28.866  31.972  23.682  1.00  0.00     0.018 C 
ATOM     20  C   UNL A   1      27.819  29.776  22.878  1.00  0.00     0.170 C 
ATOM     21  C   UNL A   1      29.218  30.497  21.565  1.00  0.00     0.170 C 
ATOM     22  O   UNL A   1      28.295  29.370  21.567  1.00  0.00    -0.380 OA
ENDBRANCH  17  18
ENDBRANCH  15  17
ENDBRANCH  12  15
ENDBRANCH  11  12
ENDBRANCH   6  11
ENDBRANCH   3   5
ENDBRANCH   2   3
ENDBRANCH   1   2
BRANCH   1  23
ATOM     23  C   UNL A   1      36.508  20.843  25.151  1.00  0.00     0.275 C 
BRANCH  23  24
ATOM     24  O   UNL A   1      37.786  21.435  24.857  1.00  0.00    -0.458 OA
BRANCH  24  25
ATOM     25  C   UNL A   1      38.793  21.087  25.692  1.00  0.00     0.338 C 
ATOM     26  O   UNL A   1      39.245  19.972  25.882  1.00  0.00    -0.246 OA
BRANCH  25  27
ATOM     27  C   UNL A   1      39.316  22.285  26.370  1.00  0.00     0.060 A 
ATOM     28  C   UNL A   1      38.785  23.531  26.048  1.00  0.00     0.016 A 
ATOM     29  C   UNL A   1      40.429  22.194  27.202  1.00  0.00     0.016 A 
ATOM     30  C   UNL A   1      39.420  24.694  26.481  1.00  0.00     0.010 A 
ATOM     31  C   UNL A   1      41.012  23.364  27.707  1.00  0.00     0.010 A 
ATOM     32  C   UNL A   1      40.547  24.633  27.315  1.00  0.00    -0.014 A 
BRANCH  32  33
ATOM     33  C   UNL A   1      41.280  25.879  27.704  1.00  0.00     0.031 A 
ATOM     34  C   UNL A   1      40.593  26.933  28.543  1.00  0.00     0.074 A 
ATOM     35  C   UNL A   1      42.568  26.071  27.347  1.00  0.00     0.049 A 
ATOM     36  N   UNL A   1      40.981  28.149  28.835  1.00  0.00    -0.248 NA
ATOM     37  C   UNL A   1      39.288  26.569  29.118  1.00  0.00     0.031 C 
ATOM     38  C   UNL A   1      43.387  25.124  26.589  1.00  0.00     0.029 A 
ATOM     39  N   UNL A   1      43.420  27.126  27.583  1.00  0.00    -0.354 N 
ATOM     40  C   UNL A   1      39.942  28.719  29.568  1.00  0.00     0.074 A 
ATOM     41  C   UNL A   1      38.907  27.712  29.669  1.00  0.00     0.031 C 
ATOM     42  C   UNL A   1      44.627  25.619  26.458  1.00  0.00     0.029 A 
ATOM     43  C   UNL A   1      44.670  26.961  27.029  1.00  0.00     0.049 A 
ATOM     44  H   UNL A   1      43.160  27.923  28.098  1.00  0.00     0.167 HD
ATOM     45  C   UNL A   1      39.858  29.965  30.100  1.00  0.00     0.034 A 
ATOM     46  C   UNL A   1      45.717  27.806  26.938  1.00  0.00     0.034 A 
ATOM     47  C   UNL A   1      40.918  30.945  30.040  1.00  0.00     0.049 A 
ATOM     48  C   UNL A   1      45.590  29.197  27.503  1.00  0.00     0.074 A 
ATOM     49  C   UNL A   1      40.938  32.228  30.562  1.00  0.00     0.029 A 
ATOM     50  N   UNL A   1      42.151  30.748  29.433  1.00  0.00    -0.354 N 
ATOM     51  N   UNL A   1      44.571  29.747  28.122  1.00  0.00    -0.248 NA
ATOM     52  C   UNL A   1      46.750  30.085  27.345  1.00  0.00     0.031 C 
ATOM     53  C   UNL A   1      42.157  32.825  30.221  1.00  0.00     0.029 A 
ATOM     54  C   UNL A   1      42.928  31.892  29.550  1.00  0.00     0.049 A 
ATOM     55  H   UNL A   1      42.433  29.918  28.985  1.00  0.00     0.167 HD
ATOM     56  C   UNL A   1      44.973  31.042  28.436  1.00  0.00     0.074 A 
ATOM     57  C   UNL A   1      46.334  31.182  27.960  1.00  0.00     0.031 C 
ATOM     58  C   UNL A   1      44.279  32.027  29.059  1.00  0.00     0.034 A 
BRANCH  45  59
ATOM     59  C   UNL A   1      38.548  30.363  30.742  1.00  0.00     0.023 A 
ATOM     60  C   UNL A   1      37.529  31.013  30.027  1.00  0.00     0.031 A 
ATOM     61  C   UNL A   1      38.330  30.108  32.109  1.00  0.00     0.131 A 
ATOM     62  C   UNL A   1      36.375  31.453  30.696  1.00  0.00     0.055 A 
ATOM     63  C   UNL A   1      37.145  30.473  32.749  1.00  0.00     0.041 A 
ATOM     64  F   UNL A   1      39.274  29.507  32.851  1.00  0.00    -0.206 F 
ATOM     65  C   UNL A   1      36.165  31.165  32.046  1.00  0.00     0.022 A 
BRANCH  62  66
ATOM     66  S   UNL A   1      35.226  32.544  29.812  1.00  0.00     0.124 S 
ATOM     67  O   UNL A   1      34.606  31.616  28.868  1.00  0.00    -0.237 OA
ATOM     68  O   UNL A   1      34.368  33.031  30.885  1.00  0.00    -0.237 OA
ATOM     69  O   UNL A   1      36.102  33.545  29.207  1.00  0.00    -0.744 OA
ENDBRANCH  62  66
ENDBRANCH  45  59
BRANCH  46  70
ATOM     70  C   UNL A   1      46.957  27.393  26.218  1.00  0.00     0.023 A 
ATOM     71  C   UNL A   1      47.161  27.726  24.870  1.00  0.00     0.031 A 
ATOM     72  C   UNL A   1      47.943  26.624  26.864  1.00  0.00     0.131 A 
ATOM     73  C   UNL A   1      48.307  27.266  24.202  1.00  0.00     0.055 A 
ATOM     74  C   UNL A   1      49.107  26.218  26.211  1.00  0.00     0.041 A 
ATOM     75  F   UNL A   1      47.796  26.273  28.151  1.00  0.00    -0.206 F 
ATOM     76  C   UNL A   1      49.290  26.529  24.869  1.00  0.00     0.022 A 
BRANCH  73  77
ATOM     77  S   UNL A   1      48.464  27.583  22.423  1.00  0.00     0.124 S 
ATOM     78  O   UNL A   1      48.512  26.228  21.884  1.00  0.00    -0.237 OA
ATOM     79  O   UNL A   1      47.251  28.342  22.143  1.00  0.00    -0.237 OA
ATOM     80  O   UNL A   1      49.709  28.340  22.321  1.00  0.00    -0.744 OA
ENDBRANCH  73  77
ENDBRANCH  46  70
BRANCH  58  81
ATOM     81  C   UNL A   1      45.006  33.328  29.299  1.00  0.00     0.023 A 
ATOM     82  C   UNL A   1      44.951  34.387  28.377  1.00  0.00     0.031 A 
ATOM     83  C   UNL A   1      45.783  33.499  30.459  1.00  0.00     0.131 A 
ATOM     84  C   UNL A   1      45.707  35.548  28.601  1.00  0.00     0.055 A 
ATOM     85  C   UNL A   1      46.488  34.678  30.704  1.00  0.00     0.041 A 
ATOM     86  F   UNL A   1      45.872  32.518  31.372  1.00  0.00    -0.206 F 
ATOM     87  C   UNL A   1      46.463  35.706  29.766  1.00  0.00     0.022 A 
BRANCH  84  88
ATOM     88  S   UNL A   1      45.760  36.818  27.306  1.00  0.00     0.124 S 
ATOM     89  O   UNL A   1      46.536  36.156  26.263  1.00  0.00    -0.237 OA
ATOM     90  O   UNL A   1      44.345  37.026  27.014  1.00  0.00    -0.237 OA
ATOM     91  O   UNL A   1      46.429  37.944  27.956  1.00  0.00    -0.744 OA
ENDBRANCH  84  88
ENDBRANCH  58  81
ENDBRANCH  32  33
ENDBRANCH  25  27
ENDBRANCH  24  25
ENDBRANCH  23  24
ENDBRANCH   1  23
TORSDOF 19
ENDMDL
MODEL 2
REMARK VINA RESULT:     -11.4      5.458     10.709
REMARK SMILES CC1(CNS(=O)(=O)Cc2ccc(C(=O)OCCOC(=O)c3ccc(-c4c5nc(c(-c6cc(S(=O)(=O)[O-])ccc6F)c6ccc([nH]6)c(-c6cc(S(=O)(=O)[O-])ccc6F)c6nc(c(-c7cc(S(=O)(=O)[O-])ccc7F)c7ccc4[nH]7)C=C6)C=C5)cc3)cc2)COC1
REMARK SMILES IDX 16 1 15 2 13 3 14 4 12 5 9 6 10 7 85 8 11 9 84 10 8 11 5 12
REMARK SMILES IDX 6 13 7 14 4 15 3 17 2 18 1 19 86 20 88 21 87 22 17 23 18 24
REMARK SMILES IDX 19 25 20 26 21 27 22 28 83 29 23 30 82 31 24 32 25 33 26 34
REMARK SMILES IDX 76 35 27 36 81 37 75 38 77 39 28 40 80 41 74 42 73 43 29 45
REMARK SMILES IDX 61 46 41 47 60 48 42 49 45 50 59 51 78 52 43 53 44 54 58 56
REMARK SMILES IDX 79 57 46 58 30 59 31 60 39 61 32 62 38 63 40 64 37 65 33 66
REMARK SMILES IDX 34 67 35 68 36 69 62 70 63 71 71 72 64 73 70 74 72 75 69 76
REMARK SMILES IDX 65 77 66 78 67 79 68 80 47 81 48 82 56 83 49 84 55 85 57 86
REMARK SMILES IDX 54 87 50 88 51 89 52 90 53 91
REMARK H PARENT 4 16 77 44 45 55
REMARK Flexibility Score: inf
ROOT
ATOM      1  C   UNL A   1      31.702  28.827  27.104  1.00  0.00     0.275 C 
ENDROOT
BRANCH   1   2
ATOM      2  O   UNL A   1      32.380  27.801  26.353  1.00  0.00    -0.458 OA
BRANCH   2   3
ATOM      3  C   UNL A   1      31.627  26.720  26.031  1.00  0.00     0.338 C 
ATOM      4  O   UNL A   1      30.486  26.741  25.595  1.00  0.00    -0.246 OA
BRANCH   3   5
ATOM      5  C   UNL A   1      32.393  25.458  26.197  1.00  0.00     0.060 A 
ATOM      6  C   UNL A   1      33.958  23.133  26.463  1.00  0.00    -0.032 A 
ATOM      7  C   UNL A   1      34.522  24.314  25.968  1.00  0.00     0.006 A 
ATOM      8  C   UNL A   1      32.599  23.127  26.817  1.00  0.00     0.006 A 
ATOM      9  C   UNL A   1      33.741  25.458  25.816  1.00  0.00     0.016 A 
ATOM     10  C   UNL A   1      31.820  24.285  26.693  1.00  0.00     0.016 A 
BRANCH   6  11
ATOM     11  C   UNL A   1      34.799  21.887  26.559  1.00  0.00     0.189 C 
BRANCH  11  12
ATOM     12  S   UNL A   1      34.917  21.017  24.991  1.00  0.00     0.215 S 
ATOM     13  O   UNL A   1      36.322  20.888  24.665  1.00  0.00    -0.212 OA
ATOM     14  O   UNL A   1      34.006  21.629  24.047  1.00  0.00    -0.212 OA
BRANCH  12  15
ATOM     15  N   UNL A   1      34.321  19.474  25.300  1.00  0.00    -0.214 NA
ATOM     16  H   UNL A   1      34.416  19.309  26.303  1.00  0.00     0.141 HD
BRANCH  15  17
ATOM     17  C   UNL A   1      34.950  18.329  24.605  1.00  0.00     0.110 C 
BRANCH  17  18
ATOM     18  C   UNL A   1      33.955  17.193  24.324  1.00  0.00     0.028 C 
ATOM     19  C   UNL A   1      33.883  16.137  25.414  1.00  0.00     0.018 C 
ATOM     20  C   UNL A   1      34.139  16.603  22.907  1.00  0.00     0.170 C 
ATOM     21  C   UNL A   1      32.603  17.672  23.745  1.00  0.00     0.170 C 
ATOM     22  O   UNL A   1      33.120  17.501  22.393  1.00  0.00    -0.380 OA
ENDBRANCH  17  18
ENDBRANCH  15  17
ENDBRANCH  12  15
ENDBRANCH  11  12
ENDBRANCH   6  11
ENDBRANCH   3   5
ENDBRANCH   2   3
ENDBRANCH   1   2
BRANCH   1  23
ATOM     23  C   UNL A   1      31.740  30.165  26.368  1.00  0.00     0.275 C 
BRANCH  23  24
ATOM     24  O   UNL A   1      33.097  30.630  26.249  1.00  0.00    -0.458 OA
BRANCH  24  25
ATOM     25  C   UNL A   1      33.487  31.529  27.183  1.00  0.00     0.338 C 
ATOM     26  O   UNL A   1      32.862  32.493  27.589  1.00  0.00    -0.246 OA
BRANCH  25  27
ATOM     27  C   UNL A   1      34.824  31.176  27.688  1.00  0.00     0.060 A 
ATOM     28  C   UNL A   1      35.082  29.860  28.059  1.00  0.00     0.016 A 
ATOM     29  C   UNL A   1      35.767  32.170  27.939  1.00  0.00     0.016 A 
ATOM     30  C   UNL A   1      36.242  29.547  28.766  1.00  0.00     0.010 A 
ATOM     31  C   UNL A   1      36.972  31.835  28.572  1.00  0.00     0.010 A 
ATOM     32  C   UNL A   1      37.207  30.529  29.040  1.00  0.00    -0.014 A 
BRANCH  32  33
ATOM     33  C   UNL A   1      38.407  30.212  29.876  1.00  0.00     0.031 A 
ATOM     34  C   UNL A   1      39.484  29.295  29.341  1.00  0.00     0.074 A 
ATOM     35  C   UNL A   1      38.569  30.759  31.100  1.00  0.00     0.049 A 
ATOM     36  N   UNL A   1      40.502  28.754  29.962  1.00  0.00    -0.248 NA
ATOM     37  C   UNL A   1      39.390  28.929  27.919  1.00  0.00     0.031 C 
ATOM     38  C   UNL A   1      37.650  31.706  31.733  1.00  0.00     0.029 A 
ATOM     39  N   UNL A   1      39.572  30.603  32.030  1.00  0.00    -0.354 N 
ATOM     40  C   UNL A   1      41.130  27.932  29.028  1.00  0.00     0.074 A 
ATOM     41  C   UNL A   1      40.371  28.046  27.801  1.00  0.00     0.031 C 
ATOM     42  C   UNL A   1      38.149  32.077  32.922  1.00  0.00     0.029 A 
ATOM     43  C   UNL A   1      39.368  31.321  33.187  1.00  0.00     0.049 A 
ATOM     44  H   UNL A   1      40.359  30.033  31.881  1.00  0.00     0.167 HD
ATOM     45  C   UNL A   1      42.232  27.154  29.182  1.00  0.00     0.034 A 
ATOM     46  C   UNL A   1      40.046  31.334  34.352  1.00  0.00     0.034 A 
ATOM     47  C   UNL A   1      43.014  27.088  30.395  1.00  0.00     0.049 A 
ATOM     48  C   UNL A   1      41.245  30.435  34.516  1.00  0.00     0.074 A 
ATOM     49  C   UNL A   1      44.155  26.344  30.646  1.00  0.00     0.029 A 
ATOM     50  N   UNL A   1      42.746  27.801  31.556  1.00  0.00    -0.354 N 
ATOM     51  N   UNL A   1      41.777  29.605  33.649  1.00  0.00    -0.248 NA
ATOM     52  C   UNL A   1      41.923  30.466  35.818  1.00  0.00     0.031 C 
ATOM     53  C   UNL A   1      44.542  26.563  31.973  1.00  0.00     0.029 A 
ATOM     54  C   UNL A   1      43.687  27.498  32.530  1.00  0.00     0.049 A 
ATOM     55  H   UNL A   1      41.998  28.430  31.671  1.00  0.00     0.167 HD
ATOM     56  C   UNL A   1      42.861  29.023  34.301  1.00  0.00     0.074 A 
ATOM     57  C   UNL A   1      42.920  29.615  35.622  1.00  0.00     0.031 C 
ATOM     58  C   UNL A   1      43.728  28.083  33.849  1.00  0.00     0.034 A 
BRANCH  45  59
ATOM     59  C   UNL A   1      42.621  26.260  28.027  1.00  0.00     0.023 A 
ATOM     60  C   UNL A   1      42.007  25.017  27.799  1.00  0.00     0.031 A 
ATOM     61  C   UNL A   1      43.652  26.651  27.153  1.00  0.00     0.131 A 
ATOM     62  C   UNL A   1      42.477  24.181  26.774  1.00  0.00     0.055 A 
ATOM     63  C   UNL A   1      44.059  25.852  26.083  1.00  0.00     0.041 A 
ATOM     64  F   UNL A   1      44.291  27.819  27.330  1.00  0.00    -0.206 F 
ATOM     65  C   UNL A   1      43.482  24.600  25.899  1.00  0.00     0.022 A 
BRANCH  62  66
ATOM     66  S   UNL A   1      41.866  22.474  26.701  1.00  0.00     0.124 S 
ATOM     67  O   UNL A   1      40.434  22.664  26.935  1.00  0.00    -0.237 OA
ATOM     68  O   UNL A   1      42.242  22.063  25.354  1.00  0.00    -0.237 OA
ATOM     69  O   UNL A   1      42.583  21.807  27.784  1.00  0.00    -0.744 OA
ENDBRANCH  62  66
ENDBRANCH  45  59
BRANCH  46  70
ATOM     70  C   UNL A   1      39.569  32.171  35.492  1.00  0.00     0.023 A 
ATOM     71  C   UNL A   1      38.799  31.620  36.528  1.00  0.00     0.031 A 
ATOM     72  C   UNL A   1      39.848  33.550  35.540  1.00  0.00     0.131 A 
ATOM     73  C   UNL A   1      38.309  32.448  37.551  1.00  0.00     0.055 A 
ATOM     74  C   UNL A   1      39.407  34.357  36.589  1.00  0.00     0.041 A 
ATOM     75  F   UNL A   1      40.576  34.129  34.573  1.00  0.00    -0.206 F 
ATOM     76  C   UNL A   1      38.623  33.808  37.598  1.00  0.00     0.022 A 
BRANCH  73  77
ATOM     77  S   UNL A   1      37.191  31.733  38.788  1.00  0.00     0.124 S 
ATOM     78  O   UNL A   1      37.018  30.376  38.282  1.00  0.00    -0.237 OA
ATOM     79  O   UNL A   1      37.971  31.867  40.013  1.00  0.00    -0.237 OA
ATOM     80  O   UNL A   1      36.006  32.585  38.709  1.00  0.00    -0.744 OA
ENDBRANCH  73  77
ENDBRANCH  46  70
BRANCH  58  81
ATOM     81  C   UNL A   1      44.842  27.675  34.783  1.00  0.00     0.023 A 
ATOM     82  C   UNL A   1      44.691  26.616  35.695  1.00  0.00     0.031 A 
ATOM     83  C   UNL A   1      46.062  28.373  34.774  1.00  0.00     0.131 A 
ATOM     84  C   UNL A   1      45.723  26.322  36.600  1.00  0.00     0.055 A 
ATOM     85  C   UNL A   1      47.106  28.039  35.638  1.00  0.00     0.041 A 
ATOM     86  F   UNL A   1      46.258  29.394  33.924  1.00  0.00    -0.206 F 
ATOM     87  C   UNL A   1      46.934  27.018  36.568  1.00  0.00     0.022 A 
BRANCH  84  88
ATOM     88  S   UNL A   1      45.427  25.075  37.885  1.00  0.00     0.124 S 
ATOM     89  O   UNL A   1      44.932  23.946  37.104  1.00  0.00    -0.237 OA
ATOM     90  O   UNL A   1      46.752  24.912  38.473  1.00  0.00    -0.237 OA
ATOM     91  O   UNL A   1      44.437  25.708  38.756  1.00  0.00    -0.744 OA
ENDBRANCH  84  88
ENDBRANCH  58  81
ENDBRANCH  32  33
ENDBRANCH  25  27
ENDBRANCH  24  25
ENDBRANCH  23  24
ENDBRANCH   1  23
TORSDOF 19
ENDMDL
MODEL 3
REMARK VINA RESULT:     -11.3      1.930      2.364
REMARK SMILES CC1(CNS(=O)(=O)Cc2ccc(C(=O)OCCOC(=O)c3ccc(-c4c5nc(c(-c6cc(S(=O)(=O)[O-])ccc6F)c6ccc([nH]6)c(-c6cc(S(=O)(=O)[O-])ccc6F)c6nc(c(-c7cc(S(=O)(=O)[O-])ccc7F)c7ccc4[nH]7)C=C6)C=C5)cc3)cc2)COC1
REMARK SMILES IDX 16 1 15 2 13 3 14 4 12 5 9 6 10 7 85 8 11 9 84 10 8 11 5 12
REMARK SMILES IDX 6 13 7 14 4 15 3 17 2 18 1 19 86 20 88 21 87 22 17 23 18 24
REMARK SMILES IDX 19 25 20 26 21 27 22 28 83 29 23 30 82 31 24 32 25 33 26 34
REMARK SMILES IDX 76 35 27 36 81 37 75 38 77 39 28 40 80 41 74 42 73 43 29 45
REMARK SMILES IDX 61 46 41 47 60 48 42 49 45 50 59 51 78 52 43 53 44 54 58 56
REMARK SMILES IDX 79 57 46 58 30 59 31 60 39 61 32 62 38 63 40 64 37 65 33 66
REMARK SMILES IDX 34 67 35 68 36 69 62 70 63 71 71 72 64 73 70 74 72 75 69 76
REMARK SMILES IDX 65 77 66 78 67 79 68 80 47 81 48 82 56 83 49 84 55 85 57 86
REMARK SMILES IDX 54 87 50 88 51 89 52 90 53 91
REMARK H PARENT 4 16 77 44 45 55
REMARK Flexibility Score: inf
ROOT
ATOM      1  C   UNL A   1      35.392  20.206  25.094  1.00  0.00     0.275 C 
ENDROOT
BRANCH   1   2
ATOM      2  O   UNL A   1      35.049  21.523  25.570  1.00  0.00    -0.458 OA
BRANCH   2   3
ATOM      3  C   UNL A   1      33.778  21.922  25.315  1.00  0.00     0.338 C 
ATOM      4  O   UNL A   1      32.854  21.204  24.966  1.00  0.00    -0.246 OA
BRANCH   3   5
ATOM      5  C   UNL A   1      33.601  23.370  25.593  1.00  0.00     0.060 A 
ATOM      6  C   UNL A   1      33.392  26.138  26.067  1.00  0.00    -0.032 A 
ATOM      7  C   UNL A   1      34.553  25.602  25.500  1.00  0.00     0.006 A 
ATOM      8  C   UNL A   1      32.339  25.271  26.401  1.00  0.00     0.006 A 
ATOM      9  C   UNL A   1      34.664  24.229  25.285  1.00  0.00     0.016 A 
ATOM     10  C   UNL A   1      32.437  23.895  26.159  1.00  0.00     0.016 A 
BRANCH   6  11
ATOM     11  C   UNL A   1      33.314  27.614  26.353  1.00  0.00     0.189 C 
BRANCH  11  12
ATOM     12  S   UNL A   1      32.358  28.503  25.118  1.00  0.00     0.215 S 
ATOM     13  O   UNL A   1      32.759  29.894  25.169  1.00  0.00    -0.212 OA
ATOM     14  O   UNL A   1      30.963  28.143  25.258  1.00  0.00    -0.212 OA
BRANCH  12  15
ATOM     15  N   UNL A   1      32.865  27.880  23.639  1.00  0.00    -0.214 NA
ATOM     16  H   UNL A   1      33.471  28.580  23.208  1.00  0.00     0.141 HD
BRANCH  15  17
ATOM     17  C   UNL A   1      31.835  27.517  22.641  1.00  0.00     0.110 C 
BRANCH  17  18
ATOM     18  C   UNL A   1      31.892  26.034  22.249  1.00  0.00     0.028 C 
ATOM     19  C   UNL A   1      30.980  25.132  23.064  1.00  0.00     0.018 C 
ATOM     20  C   UNL A   1      33.346  25.517  22.158  1.00  0.00     0.170 C 
ATOM     21  C   UNL A   1      31.909  25.788  20.722  1.00  0.00     0.170 C 
ATOM     22  O   UNL A   1      33.366  25.801  20.734  1.00  0.00    -0.380 OA
ENDBRANCH  17  18
ENDBRANCH  15  17
ENDBRANCH  12  15
ENDBRANCH  11  12
ENDBRANCH   6  11
ENDBRANCH   3   5
ENDBRANCH   2   3
ENDBRANCH   1   2
BRANCH   1  23
ATOM     23  C   UNL A   1      36.859  20.137  24.673  1.00  0.00     0.275 C 
BRANCH  23  24
ATOM     24  O   UNL A   1      37.585  21.256  25.213  1.00  0.00    -0.458 OA
BRANCH  24  25
ATOM     25  C   UNL A   1      38.763  20.953  25.808  1.00  0.00     0.338 C 
ATOM     26  O   UNL A   1      39.335  19.878  25.810  1.00  0.00    -0.246 OA
BRANCH  25  27
ATOM     27  C   UNL A   1      39.305  22.146  26.479  1.00  0.00     0.060 A 
ATOM     28  C   UNL A   1      38.780  23.396  26.165  1.00  0.00     0.016 A 
ATOM     29  C   UNL A   1      40.429  22.045  27.295  1.00  0.00     0.016 A 
ATOM     30  C   UNL A   1      39.430  24.554  26.589  1.00  0.00     0.010 A 
ATOM     31  C   UNL A   1      41.029  23.211  27.791  1.00  0.00     0.010 A 
ATOM     32  C   UNL A   1      40.569  24.484  27.406  1.00  0.00    -0.014 A 
BRANCH  32  33
ATOM     33  C   UNL A   1      41.318  25.723  27.785  1.00  0.00     0.031 A 
ATOM     34  C   UNL A   1      40.643  26.795  28.611  1.00  0.00     0.074 A 
ATOM     35  C   UNL A   1      42.610  25.893  27.431  1.00  0.00     0.049 A 
ATOM     36  N   UNL A   1      41.047  28.009  28.891  1.00  0.00    -0.248 NA
ATOM     37  C   UNL A   1      39.331  26.456  29.184  1.00  0.00     0.031 C 
ATOM     38  C   UNL A   1      43.419  24.927  26.686  1.00  0.00     0.029 A 
ATOM     39  N   UNL A   1      43.475  26.939  27.659  1.00  0.00    -0.354 N 
ATOM     40  C   UNL A   1      40.013  28.601  29.614  1.00  0.00     0.074 A 
ATOM     41  C   UNL A   1      38.963  27.610  29.722  1.00  0.00     0.031 C 
ATOM     42  C   UNL A   1      44.666  25.404  26.555  1.00  0.00     0.029 A 
ATOM     43  C   UNL A   1      44.725  26.751  27.112  1.00  0.00     0.049 A 
ATOM     44  H   UNL A   1      43.224  27.745  28.165  1.00  0.00     0.167 HD
ATOM     45  C   UNL A   1      39.944  29.854  30.132  1.00  0.00     0.034 A 
ATOM     46  C   UNL A   1      45.784  27.580  27.016  1.00  0.00     0.034 A 
ATOM     47  C   UNL A   1      41.018  30.818  30.066  1.00  0.00     0.049 A 
ATOM     48  C   UNL A   1      45.675  28.979  27.566  1.00  0.00     0.074 A 
ATOM     49  C   UNL A   1      41.054  32.106  30.574  1.00  0.00     0.029 A 
ATOM     50  N   UNL A   1      42.251  30.598  29.466  1.00  0.00    -0.354 N 
ATOM     51  N   UNL A   1      44.661  29.549  28.175  1.00  0.00    -0.248 NA
ATOM     52  C   UNL A   1      46.847  29.848  27.403  1.00  0.00     0.031 C 
ATOM     53  C   UNL A   1      42.282  32.682  30.232  1.00  0.00     0.029 A 
ATOM     54  C   UNL A   1      43.043  31.732  29.574  1.00  0.00     0.049 A 
ATOM     55  H   UNL A   1      42.523  29.759  29.028  1.00  0.00     0.167 HD
ATOM     56  C   UNL A   1      45.080  30.841  28.477  1.00  0.00     0.074 A 
ATOM     57  C   UNL A   1      46.445  30.958  28.005  1.00  0.00     0.031 C 
ATOM     58  C   UNL A   1      44.398  31.843  29.087  1.00  0.00     0.034 A 
BRANCH  45  59
ATOM     59  C   UNL A   1      38.638  30.277  30.765  1.00  0.00     0.023 A 
ATOM     60  C   UNL A   1      37.618  30.905  30.032  1.00  0.00     0.031 A 
ATOM     61  C   UNL A   1      38.424  30.069  32.141  1.00  0.00     0.131 A 
ATOM     62  C   UNL A   1      36.467  31.370  30.689  1.00  0.00     0.055 A 
ATOM     63  C   UNL A   1      37.242  30.459  32.772  1.00  0.00     0.041 A 
ATOM     64  F   UNL A   1      39.369  29.491  32.899  1.00  0.00    -0.206 F 
ATOM     65  C   UNL A   1      36.262  31.129  32.049  1.00  0.00     0.022 A 
BRANCH  62  66
ATOM     66  S   UNL A   1      35.318  32.433  29.773  1.00  0.00     0.124 S 
ATOM     67  O   UNL A   1      34.825  31.517  28.745  1.00  0.00    -0.237 OA
ATOM     68  O   UNL A   1      34.357  32.815  30.800  1.00  0.00    -0.237 OA
ATOM     69  O   UNL A   1      36.169  33.512  29.279  1.00  0.00    -0.744 OA
ENDBRANCH  62  66
ENDBRANCH  45  59
BRANCH  46  70
ATOM     70  C   UNL A   1      47.021  27.142  26.305  1.00  0.00     0.023 A 
ATOM     71  C   UNL A   1      48.047  26.464  26.980  1.00  0.00     0.031 A 
ATOM     72  C   UNL A   1      47.208  27.431  24.940  1.00  0.00     0.131 A 
ATOM     73  C   UNL A   1      49.227  26.124  26.298  1.00  0.00     0.055 A 
ATOM     74  C   UNL A   1      48.358  27.040  24.254  1.00  0.00     0.041 A 
ATOM     75  F   UNL A   1      46.260  28.081  24.247  1.00  0.00    -0.206 F 
ATOM     76  C   UNL A   1      49.381  26.392  24.936  1.00  0.00     0.022 A 
BRANCH  73  77
ATOM     77  S   UNL A   1      50.593  25.388  27.237  1.00  0.00     0.124 S 
ATOM     78  O   UNL A   1      51.488  24.958  26.168  1.00  0.00    -0.237 OA
ATOM     79  O   UNL A   1      51.051  26.517  28.041  1.00  0.00    -0.237 OA
ATOM     80  O   UNL A   1      49.951  24.311  27.986  1.00  0.00    -0.744 OA
ENDBRANCH  73  77
ENDBRANCH  46  70
BRANCH  58  81
ATOM     81  C   UNL A   1      45.142  33.136  29.316  1.00  0.00     0.023 A 
ATOM     82  C   UNL A   1      45.261  34.109  28.308  1.00  0.00     0.031 A 
ATOM     83  C   UNL A   1      45.758  33.386  30.555  1.00  0.00     0.131 A 
ATOM     84  C   UNL A   1      46.030  35.261  28.538  1.00  0.00     0.055 A 
ATOM     85  C   UNL A   1      46.474  34.559  30.796  1.00  0.00     0.041 A 
ATOM     86  F   UNL A   1      45.677  32.488  31.551  1.00  0.00    -0.206 F 
ATOM     87  C   UNL A   1      46.625  35.498  29.780  1.00  0.00     0.022 A 
BRANCH  84  88
ATOM     88  S   UNL A   1      46.317  36.406  27.160  1.00  0.00     0.124 S 
ATOM     89  O   UNL A   1      45.610  35.749  26.066  1.00  0.00    -0.237 OA
ATOM     90  O   UNL A   1      45.722  37.643  27.653  1.00  0.00    -0.237 OA
ATOM     91  O   UNL A   1      47.774  36.429  27.032  1.00  0.00    -0.744 OA
ENDBRANCH  84  88
ENDBRANCH  58  81
ENDBRANCH  32  33
ENDBRANCH  25  27
ENDBRANCH  24  25
ENDBRANCH  23  24
ENDBRANCH   1  23
TORSDOF 19
ENDMDL
