MODEL 1
REMARK VINA RESULT:     -11.7      0.000      0.000
REMARK SMILES Cc1ccc(-c2noc(CCC(=O)OCCOC(=O)c3ccc(-c4c5nc(c(-c6cc(S(=O)(=O)[O-])ccc6F)c6ccc([nH]6)c(-c6cc(S(=O)(=O)[O-])ccc6F)c6nc(c(-c7cc(S(=O)(=O)[O-])ccc7F)c7ccc4[nH]7)C=C6)C=C5)cc3)n2)cc1C
REMARK SMILES IDX 15 1 14 2 12 3 13 4 11 5 10 6 9 7 6 8 7 9 83 10 8 11 5 12
REMARK SMILES IDX 1 13 2 14 3 15 85 16 4 17 84 18 86 19 16 20 17 21 18 22
REMARK SMILES IDX 19 23 20 24 21 25 82 26 22 27 81 28 23 29 24 30 25 31 75 32
REMARK SMILES IDX 26 33 80 34 74 35 76 36 27 37 79 38 73 39 72 40 28 42 60 43
REMARK SMILES IDX 40 44 59 45 41 46 44 47 58 48 77 49 42 50 43 51 57 53 78 54
REMARK SMILES IDX 45 55 29 56 30 57 38 58 31 59 37 60 39 61 36 62 32 63 33 64
REMARK SMILES IDX 34 65 35 66 61 67 62 68 70 69 63 70 69 71 71 72 68 73 64 74
REMARK SMILES IDX 65 75 66 76 67 77 46 78 47 79 55 80 48 81 54 82 56 83 53 84
REMARK SMILES IDX 49 85 50 86 51 87 52 88
REMARK H PARENT 76 41 44 52
REMARK Flexibility Score: inf
ROOT
ATOM      1  C   UNL A   1      46.042  21.722  25.156  1.00  0.00     0.274 C 
ENDROOT
BRANCH   1   2
ATOM      2  O   UNL A   1      46.394  20.505  24.470  1.00  0.00    -0.462 OA
BRANCH   2   3
ATOM      3  C   UNL A   1      45.523  19.471  24.571  1.00  0.00     0.306 C 
ATOM      4  O   UNL A   1      45.452  18.537  23.784  1.00  0.00    -0.252 OA
BRANCH   3   5
ATOM      5  C   UNL A   1      44.581  19.625  25.741  1.00  0.00     0.132 C 
BRANCH   5   6
ATOM      6  C   UNL A   1      43.246  18.913  25.569  1.00  0.00     0.112 C 
BRANCH   6   7
ATOM      7  C   UNL A   1      42.121  19.710  26.106  1.00  0.00     0.227 A 
ATOM      8  C   UNL A   1      40.468  20.931  26.462  1.00  0.00     0.202 A 
ATOM      9  N   UNL A   1      40.812  20.522  27.691  1.00  0.00    -0.057 NA
ATOM     10  N   UNL A   1      41.270  20.464  25.452  1.00  0.00    -0.191 NA
ATOM     11  O   UNL A   1      41.913  19.693  27.453  1.00  0.00    -0.339 OA
BRANCH   8  12
ATOM     12  C   UNL A   1      39.314  21.753  26.181  1.00  0.00     0.023 A 
ATOM     13  C   UNL A   1      35.833  24.221  25.563  1.00  0.00     0.044 C 
ATOM     14  C   UNL A   1      37.032  23.334  25.750  1.00  0.00    -0.048 A 
ATOM     15  C   UNL A   1      38.177  23.873  26.362  1.00  0.00     0.004 A 
ATOM     16  C   UNL A   1      37.037  21.985  25.341  1.00  0.00    -0.047 A 
ATOM     17  C   UNL A   1      39.310  23.090  26.576  1.00  0.00     0.012 A 
ATOM     18  C   UNL A   1      38.185  21.204  25.566  1.00  0.00     0.015 A 
ATOM     19  C   UNL A   1      35.860  21.319  24.682  1.00  0.00     0.044 C 
ENDBRANCH   8  12
ENDBRANCH   6   7
ENDBRANCH   5   6
ENDBRANCH   3   5
ENDBRANCH   2   3
ENDBRANCH   1   2
BRANCH   1  20
ATOM     20  C   UNL A   1      45.871  22.885  24.176  1.00  0.00     0.275 C 
BRANCH  20  21
ATOM     21  O   UNL A   1      45.124  23.960  24.772  1.00  0.00    -0.458 OA
BRANCH  21  22
ATOM     22  C   UNL A   1      43.781  23.790  24.789  1.00  0.00     0.338 C 
ATOM     23  O   UNL A   1      43.134  22.986  24.142  1.00  0.00    -0.246 OA
BRANCH  22  24
ATOM     24  C   UNL A   1      43.191  24.643  25.830  1.00  0.00     0.060 A 
ATOM     25  C   UNL A   1      43.360  26.027  25.730  1.00  0.00     0.016 A 
ATOM     26  C   UNL A   1      42.540  24.082  26.929  1.00  0.00     0.016 A 
ATOM     27  C   UNL A   1      42.879  26.861  26.736  1.00  0.00     0.010 A 
ATOM     28  C   UNL A   1      42.053  24.921  27.935  1.00  0.00     0.010 A 
ATOM     29  C   UNL A   1      42.228  26.314  27.849  1.00  0.00    -0.014 A 
BRANCH  29  30
ATOM     30  C   UNL A   1      41.772  27.197  28.950  1.00  0.00     0.031 A 
ATOM     31  C   UNL A   1      42.549  27.245  30.235  1.00  0.00     0.074 A 
ATOM     32  C   UNL A   1      40.675  27.960  28.789  1.00  0.00     0.049 A 
ATOM     33  N   UNL A   1      42.279  27.882  31.345  1.00  0.00    -0.248 NA
ATOM     34  C   UNL A   1      43.793  26.465  30.270  1.00  0.00     0.031 C 
ATOM     35  C   UNL A   1      39.874  28.035  27.567  1.00  0.00     0.029 A 
ATOM     36  N   UNL A   1      40.045  28.814  29.658  1.00  0.00    -0.354 N 
ATOM     37  C   UNL A   1      43.317  27.577  32.218  1.00  0.00     0.074 A 
ATOM     38  C   UNL A   1      44.198  26.666  31.515  1.00  0.00     0.031 C 
ATOM     39  C   UNL A   1      38.860  28.894  27.763  1.00  0.00     0.029 A 
ATOM     40  C   UNL A   1      38.909  29.387  29.137  1.00  0.00     0.049 A 
ATOM     41  H   UNL A   1      40.374  28.999  30.566  1.00  0.00     0.167 HD
ATOM     42  C   UNL A   1      43.519  28.024  33.484  1.00  0.00     0.034 A 
ATOM     43  C   UNL A   1      37.996  30.193  29.713  1.00  0.00     0.034 A 
ATOM     44  C   UNL A   1      42.618  28.917  34.172  1.00  0.00     0.049 A 
ATOM     45  C   UNL A   1      38.182  30.588  31.157  1.00  0.00     0.074 A 
ATOM     46  C   UNL A   1      42.718  29.429  35.455  1.00  0.00     0.029 A 
ATOM     47  N   UNL A   1      41.440  29.427  33.636  1.00  0.00    -0.354 N 
ATOM     48  N   UNL A   1      39.154  30.276  31.982  1.00  0.00    -0.248 NA
ATOM     49  C   UNL A   1      37.141  31.441  31.746  1.00  0.00     0.031 C 
ATOM     50  C   UNL A   1      41.572  30.192  35.716  1.00  0.00     0.029 A 
ATOM     51  C   UNL A   1      40.790  30.218  34.572  1.00  0.00     0.049 A 
ATOM     52  H   UNL A   1      41.114  29.251  32.724  1.00  0.00     0.167 HD
ATOM     53  C   UNL A   1      38.857  30.919  33.180  1.00  0.00     0.074 A 
ATOM     54  C   UNL A   1      37.619  31.643  32.965  1.00  0.00     0.031 C 
ATOM     55  C   UNL A   1      39.547  30.920  34.349  1.00  0.00     0.034 A 
BRANCH  42  56
ATOM     56  C   UNL A   1      44.732  27.495  34.212  1.00  0.00     0.023 A 
ATOM     57  C   UNL A   1      44.667  26.341  35.015  1.00  0.00     0.031 A 
ATOM     58  C   UNL A   1      45.956  28.184  34.151  1.00  0.00     0.131 A 
ATOM     59  C   UNL A   1      45.775  25.962  35.788  1.00  0.00     0.055 A 
ATOM     60  C   UNL A   1      47.081  27.754  34.858  1.00  0.00     0.041 A 
ATOM     61  F   UNL A   1      46.074  29.304  33.420  1.00  0.00    -0.206 F 
ATOM     62  C   UNL A   1      46.989  26.647  35.697  1.00  0.00     0.022 A 
BRANCH  59  63
ATOM     63  S   UNL A   1      45.557  24.664  37.036  1.00  0.00     0.124 S 
ATOM     64  O   UNL A   1      46.673  24.933  37.941  1.00  0.00    -0.237 OA
ATOM     65  O   UNL A   1      44.227  24.950  37.559  1.00  0.00    -0.237 OA
ATOM     66  O   UNL A   1      45.674  23.426  36.267  1.00  0.00    -0.744 OA
ENDBRANCH  59  63
ENDBRANCH  42  56
BRANCH  43  67
ATOM     67  C   UNL A   1      36.805  30.653  28.946  1.00  0.00     0.023 A 
ATOM     68  C   UNL A   1      35.857  29.737  28.464  1.00  0.00     0.031 A 
ATOM     69  C   UNL A   1      36.618  32.016  28.649  1.00  0.00     0.131 A 
ATOM     70  C   UNL A   1      34.785  30.189  27.681  1.00  0.00     0.055 A 
ATOM     71  C   UNL A   1      35.523  32.466  27.912  1.00  0.00     0.041 A 
ATOM     72  F   UNL A   1      37.496  32.932  29.086  1.00  0.00    -0.206 F 
ATOM     73  C   UNL A   1      34.604  31.548  27.412  1.00  0.00     0.022 A 
BRANCH  70  74
ATOM     74  S   UNL A   1      33.662  28.964  26.956  1.00  0.00     0.124 S 
ATOM     75  O   UNL A   1      34.574  27.866  26.655  1.00  0.00    -0.237 OA
ATOM     76  O   UNL A   1      32.718  28.735  28.045  1.00  0.00    -0.237 OA
ATOM     77  O   UNL A   1      33.110  29.654  25.792  1.00  0.00    -0.744 OA
ENDBRANCH  70  74
ENDBRANCH  43  67
BRANCH  55  78
ATOM     78  C   UNL A   1      38.993  31.770  35.465  1.00  0.00     0.023 A 
ATOM     79  C   UNL A   1      38.366  31.201  36.589  1.00  0.00     0.031 A 
ATOM     80  C   UNL A   1      39.076  33.171  35.392  1.00  0.00     0.131 A 
ATOM     81  C   UNL A   1      37.798  32.032  37.567  1.00  0.00     0.055 A 
ATOM     82  C   UNL A   1      38.559  33.992  36.395  1.00  0.00     0.041 A 
ATOM     83  F   UNL A   1      39.661  33.766  34.340  1.00  0.00    -0.206 F 
ATOM     84  C   UNL A   1      37.904  33.424  37.484  1.00  0.00     0.022 A 
BRANCH  81  85
ATOM     85  S   UNL A   1      36.843  31.274  38.910  1.00  0.00     0.124 S 
ATOM     86  O   UNL A   1      36.692  29.902  38.438  1.00  0.00    -0.237 OA
ATOM     87  O   UNL A   1      37.720  31.460  40.061  1.00  0.00    -0.237 OA
ATOM     88  O   UNL A   1      35.609  32.059  38.939  1.00  0.00    -0.744 OA
ENDBRANCH  81  85
ENDBRANCH  55  78
ENDBRANCH  29  30
ENDBRANCH  22  24
ENDBRANCH  21  22
ENDBRANCH  20  21
ENDBRANCH   1  20
TORSDOF 17
ENDMDL
MODEL 2
REMARK VINA RESULT:     -11.3      3.350     11.697
REMARK SMILES Cc1ccc(-c2noc(CCC(=O)OCCOC(=O)c3ccc(-c4c5nc(c(-c6cc(S(=O)(=O)[O-])ccc6F)c6ccc([nH]6)c(-c6cc(S(=O)(=O)[O-])ccc6F)c6nc(c(-c7cc(S(=O)(=O)[O-])ccc7F)c7ccc4[nH]7)C=C6)C=C5)cc3)n2)cc1C
REMARK SMILES IDX 15 1 14 2 12 3 13 4 11 5 10 6 9 7 6 8 7 9 83 10 8 11 5 12
REMARK SMILES IDX 1 13 2 14 3 15 85 16 4 17 84 18 86 19 16 20 17 21 18 22
REMARK SMILES IDX 19 23 20 24 21 25 82 26 22 27 81 28 23 29 24 30 25 31 75 32
REMARK SMILES IDX 26 33 80 34 74 35 76 36 27 37 79 38 73 39 72 40 28 42 60 43
REMARK SMILES IDX 40 44 59 45 41 46 44 47 58 48 77 49 42 50 43 51 57 53 78 54
REMARK SMILES IDX 45 55 29 56 30 57 38 58 31 59 37 60 39 61 36 62 32 63 33 64
REMARK SMILES IDX 34 65 35 66 61 67 62 68 70 69 63 70 69 71 71 72 68 73 64 74
REMARK SMILES IDX 65 75 66 76 67 77 46 78 47 79 55 80 48 81 54 82 56 83 53 84
REMARK SMILES IDX 49 85 50 86 51 87 52 88
REMARK H PARENT 76 41 44 52
REMARK Flexibility Score: inf
ROOT
ATOM      1  C   UNL A   1      33.362  34.318  29.145  1.00  0.00     0.274 C 
ENDROOT
BRANCH   1   2
ATOM      2  O   UNL A   1      33.950  35.618  28.943  1.00  0.00    -0.462 OA
BRANCH   2   3
ATOM      3  C   UNL A   1      33.325  36.671  29.524  1.00  0.00     0.306 C 
ATOM      4  O   UNL A   1      33.231  37.787  29.032  1.00  0.00    -0.252 OA
BRANCH   3   5
ATOM      5  C   UNL A   1      32.802  36.340  30.901  1.00  0.00     0.132 C 
BRANCH   5   6
ATOM      6  C   UNL A   1      33.698  36.804  32.041  1.00  0.00     0.112 C 
BRANCH   6   7
ATOM      7  C   UNL A   1      34.410  35.675  32.679  1.00  0.00     0.227 A 
ATOM      8  C   UNL A   1      35.395  33.911  33.200  1.00  0.00     0.202 A 
ATOM      9  N   UNL A   1      35.374  34.597  34.351  1.00  0.00    -0.057 NA
ATOM     10  N   UNL A   1      34.788  34.539  32.142  1.00  0.00    -0.191 NA
ATOM     11  O   UNL A   1      34.725  35.785  34.002  1.00  0.00    -0.339 OA
BRANCH   8  12
ATOM     12  C   UNL A   1      36.049  32.633  33.036  1.00  0.00     0.023 A 
ATOM     13  C   UNL A   1      37.805  28.721  32.596  1.00  0.00     0.044 C 
ATOM     14  C   UNL A   1      37.225  30.096  32.773  1.00  0.00    -0.048 A 
ATOM     15  C   UNL A   1      36.252  30.537  31.860  1.00  0.00     0.004 A 
ATOM     16  C   UNL A   1      37.619  30.945  33.828  1.00  0.00    -0.047 A 
ATOM     17  C   UNL A   1      35.668  31.796  31.988  1.00  0.00     0.012 A 
ATOM     18  C   UNL A   1      37.019  32.211  33.949  1.00  0.00     0.015 A 
ATOM     19  C   UNL A   1      38.648  30.560  34.855  1.00  0.00     0.044 C 
ENDBRANCH   8  12
ENDBRANCH   6   7
ENDBRANCH   5   6
ENDBRANCH   3   5
ENDBRANCH   2   3
ENDBRANCH   1   2
BRANCH   1  20
ATOM     20  C   UNL A   1      33.359  33.501  27.852  1.00  0.00     0.275 C 
BRANCH  20  21
ATOM     21  O   UNL A   1      34.639  32.887  27.623  1.00  0.00    -0.458 OA
BRANCH  21  22
ATOM     22  C   UNL A   1      34.658  31.537  27.725  1.00  0.00     0.338 C 
ATOM     23  O   UNL A   1      33.760  30.765  27.439  1.00  0.00    -0.246 OA
BRANCH  22  24
ATOM     24  C   UNL A   1      36.003  31.093  28.117  1.00  0.00     0.060 A 
ATOM     25  C   UNL A   1      36.239  29.722  28.251  1.00  0.00     0.016 A 
ATOM     26  C   UNL A   1      37.001  32.021  28.418  1.00  0.00     0.016 A 
ATOM     27  C   UNL A   1      37.480  29.270  28.691  1.00  0.00     0.010 A 
ATOM     28  C   UNL A   1      38.248  31.564  28.856  1.00  0.00     0.010 A 
ATOM     29  C   UNL A   1      38.491  30.187  29.003  1.00  0.00    -0.014 A 
BRANCH  29  30
ATOM     30  C   UNL A   1      39.790  29.706  29.533  1.00  0.00     0.031 A 
ATOM     31  C   UNL A   1      40.440  28.497  28.923  1.00  0.00     0.074 A 
ATOM     32  C   UNL A   1      40.387  30.362  30.546  1.00  0.00     0.049 A 
ATOM     33  N   UNL A   1      41.527  27.866  29.287  1.00  0.00    -0.248 NA
ATOM     34  C   UNL A   1      39.769  27.921  27.750  1.00  0.00     0.031 C 
ATOM     35  C   UNL A   1      39.875  31.578  31.178  1.00  0.00     0.029 A 
ATOM     36  N   UNL A   1      41.551  30.095  31.220  1.00  0.00    -0.354 N 
ATOM     37  C   UNL A   1      41.671  26.812  28.391  1.00  0.00     0.074 A 
ATOM     38  C   UNL A   1      40.534  26.871  27.493  1.00  0.00     0.031 C 
ATOM     39  C   UNL A   1      40.726  31.956  32.146  1.00  0.00     0.029 A 
ATOM     40  C   UNL A   1      41.810  30.982  32.238  1.00  0.00     0.049 A 
ATOM     41  H   UNL A   1      42.144  29.343  30.997  1.00  0.00     0.167 HD
ATOM     42  C   UNL A   1      42.663  25.889  28.321  1.00  0.00     0.034 A 
ATOM     43  C   UNL A   1      42.795  30.988  33.159  1.00  0.00     0.034 A 
ATOM     44  C   UNL A   1      43.776  25.838  29.238  1.00  0.00     0.049 A 
ATOM     45  C   UNL A   1      43.826  29.888  33.131  1.00  0.00     0.074 A 
ATOM     46  C   UNL A   1      44.835  24.944  29.266  1.00  0.00     0.029 A 
ATOM     47  N   UNL A   1      43.973  26.713  30.301  1.00  0.00    -0.354 N 
ATOM     48  N   UNL A   1      43.940  28.883  32.295  1.00  0.00    -0.248 NA
ATOM     49  C   UNL A   1      44.857  29.924  34.176  1.00  0.00     0.031 C 
ATOM     50  C   UNL A   1      45.631  25.239  30.381  1.00  0.00     0.029 A 
ATOM     51  C   UNL A   1      45.114  26.362  31.007  1.00  0.00     0.049 A 
ATOM     52  H   UNL A   1      43.387  27.472  30.520  1.00  0.00     0.167 HD
ATOM     53  C   UNL A   1      45.074  28.182  32.696  1.00  0.00     0.074 A 
ATOM     54  C   UNL A   1      45.611  28.887  33.843  1.00  0.00     0.031 C 
ATOM     55  C   UNL A   1      45.627  27.064  32.161  1.00  0.00     0.034 A 
BRANCH  42  56
ATOM     56  C   UNL A   1      42.540  24.832  27.250  1.00  0.00     0.023 A 
ATOM     57  C   UNL A   1      41.660  23.742  27.383  1.00  0.00     0.031 A 
ATOM     58  C   UNL A   1      43.355  24.880  26.105  1.00  0.00     0.131 A 
ATOM     59  C   UNL A   1      41.677  22.707  26.436  1.00  0.00     0.055 A 
ATOM     60  C   UNL A   1      43.307  23.889  25.123  1.00  0.00     0.041 A 
ATOM     61  F   UNL A   1      44.230  25.883  25.931  1.00  0.00    -0.206 F 
ATOM     62  C   UNL A   1      42.478  22.783  25.295  1.00  0.00     0.022 A 
BRANCH  59  63
ATOM     63  S   UNL A   1      40.762  21.184  26.802  1.00  0.00     0.124 S 
ATOM     64  O   UNL A   1      39.465  21.463  26.188  1.00  0.00    -0.237 OA
ATOM     65  O   UNL A   1      41.572  20.164  26.146  1.00  0.00    -0.237 OA
ATOM     66  O   UNL A   1      40.754  21.131  28.262  1.00  0.00    -0.744 OA
ENDBRANCH  59  63
ENDBRANCH  42  56
BRANCH  43  67
ATOM     67  C   UNL A   1      42.838  32.044  34.208  1.00  0.00     0.023 A 
ATOM     68  C   UNL A   1      42.239  31.843  35.462  1.00  0.00     0.031 A 
ATOM     69  C   UNL A   1      43.446  33.288  33.959  1.00  0.00     0.131 A 
ATOM     70  C   UNL A   1      42.229  32.881  36.406  1.00  0.00     0.055 A 
ATOM     71  C   UNL A   1      43.476  34.300  34.919  1.00  0.00     0.041 A 
ATOM     72  F   UNL A   1      44.031  33.532  32.775  1.00  0.00    -0.206 F 
ATOM     73  C   UNL A   1      42.854  34.103  36.148  1.00  0.00     0.022 A 
BRANCH  70  74
ATOM     74  S   UNL A   1      41.322  32.635  37.957  1.00  0.00     0.124 S 
ATOM     75  O   UNL A   1      42.149  31.640  38.631  1.00  0.00    -0.237 OA
ATOM     76  O   UNL A   1      41.335  33.976  38.532  1.00  0.00    -0.237 OA
ATOM     77  O   UNL A   1      40.012  32.162  37.514  1.00  0.00    -0.744 OA
ENDBRANCH  70  74
ENDBRANCH  43  67
BRANCH  55  78
ATOM     78  C   UNL A   1      46.905  26.569  32.792  1.00  0.00     0.023 A 
ATOM     79  C   UNL A   1      46.904  25.571  33.783  1.00  0.00     0.031 A 
ATOM     80  C   UNL A   1      48.140  27.120  32.408  1.00  0.00     0.131 A 
ATOM     81  C   UNL A   1      48.109  25.194  34.396  1.00  0.00     0.055 A 
ATOM     82  C   UNL A   1      49.342  26.702  32.981  1.00  0.00     0.041 A 
ATOM     83  F   UNL A   1      48.198  28.077  31.469  1.00  0.00    -0.206 F 
ATOM     84  C   UNL A   1      49.329  25.743  33.990  1.00  0.00     0.022 A 
BRANCH  81  85
ATOM     85  S   UNL A   1      48.055  24.037  35.792  1.00  0.00     0.124 S 
ATOM     86  O   UNL A   1      48.315  22.759  35.137  1.00  0.00    -0.237 OA
ATOM     87  O   UNL A   1      49.118  24.540  36.656  1.00  0.00    -0.237 OA
ATOM     88  O   UNL A   1      46.701  24.199  36.320  1.00  0.00    -0.744 OA
ENDBRANCH  81  85
ENDBRANCH  55  78
ENDBRANCH  29  30
ENDBRANCH  22  24
ENDBRANCH  21  22
ENDBRANCH  20  21
ENDBRANCH   1  20
TORSDOF 17
ENDMDL
MODEL 3
REMARK VINA RESULT:     -11.2      5.735      8.168
REMARK SMILES Cc1ccc(-c2noc(CCC(=O)OCCOC(=O)c3ccc(-c4c5nc(c(-c6cc(S(=O)(=O)[O-])ccc6F)c6ccc([nH]6)c(-c6cc(S(=O)(=O)[O-])ccc6F)c6nc(c(-c7cc(S(=O)(=O)[O-])ccc7F)c7ccc4[nH]7)C=C6)C=C5)cc3)n2)cc1C
REMARK SMILES IDX 15 1 14 2 12 3 13 4 11 5 10 6 9 7 6 8 7 9 83 10 8 11 5 12
REMARK SMILES IDX 1 13 2 14 3 15 85 16 4 17 84 18 86 19 16 20 17 21 18 22
REMARK SMILES IDX 19 23 20 24 21 25 82 26 22 27 81 28 23 29 24 30 25 31 75 32
REMARK SMILES IDX 26 33 80 34 74 35 76 36 27 37 79 38 73 39 72 40 28 42 60 43
REMARK SMILES IDX 40 44 59 45 41 46 44 47 58 48 77 49 42 50 43 51 57 53 78 54
REMARK SMILES IDX 45 55 29 56 30 57 38 58 31 59 37 60 39 61 36 62 32 63 33 64
REMARK SMILES IDX 34 65 35 66 61 67 62 68 70 69 63 70 69 71 71 72 68 73 64 74
REMARK SMILES IDX 65 75 66 76 67 77 46 78 47 79 55 80 48 81 54 82 56 83 53 84
REMARK SMILES IDX 49 85 50 86 51 87 52 88
REMARK H PARENT 76 41 44 52
REMARK Flexibility Score: inf
ROOT
ATOM      1  C   UNL A   1      36.420  20.360  25.001  1.00  0.00     0.274 C 
ENDROOT
BRANCH   1   2
ATOM      2  O   UNL A   1      35.645  21.548  24.746  1.00  0.00    -0.462 OA
BRANCH   2   3
ATOM      3  C   UNL A   1      34.412  21.607  25.307  1.00  0.00     0.306 C 
ATOM      4  O   UNL A   1      33.408  21.078  24.849  1.00  0.00    -0.252 OA
BRANCH   3   5
ATOM      5  C   UNL A   1      34.386  22.467  26.547  1.00  0.00     0.132 C 
BRANCH   5   6
ATOM      6  C   UNL A   1      33.105  22.352  27.363  1.00  0.00     0.112 C 
BRANCH   6   7
ATOM      7  C   UNL A   1      32.108  23.373  26.974  1.00  0.00     0.227 A 
ATOM      8  C   UNL A   1      31.018  24.979  26.210  1.00  0.00     0.202 A 
ATOM      9  N   UNL A   1      30.110  24.320  26.944  1.00  0.00    -0.057 NA
ATOM     10  N   UNL A   1      32.276  24.433  26.218  1.00  0.00    -0.191 NA
ATOM     11  O   UNL A   1      30.836  23.236  27.448  1.00  0.00    -0.339 OA
BRANCH   8  12
ATOM     12  C   UNL A   1      30.714  26.144  25.411  1.00  0.00     0.023 A 
ATOM     13  C   UNL A   1      29.898  29.517  22.853  1.00  0.00     0.044 C 
ATOM     14  C   UNL A   1      30.199  28.368  23.773  1.00  0.00    -0.048 A 
ATOM     15  C   UNL A   1      29.521  27.153  23.573  1.00  0.00     0.004 A 
ATOM     16  C   UNL A   1      31.143  28.469  24.815  1.00  0.00    -0.047 A 
ATOM     17  C   UNL A   1      29.775  26.049  24.386  1.00  0.00     0.012 A 
ATOM     18  C   UNL A   1      31.393  27.347  25.626  1.00  0.00     0.015 A 
ATOM     19  C   UNL A   1      31.920  29.724  25.104  1.00  0.00     0.044 C 
ENDBRANCH   8  12
ENDBRANCH   6   7
ENDBRANCH   5   6
ENDBRANCH   3   5
ENDBRANCH   2   3
ENDBRANCH   1   2
BRANCH   1  20
ATOM     20  C   UNL A   1      37.920  20.656  24.968  1.00  0.00     0.275 C 
BRANCH  20  21
ATOM     21  O   UNL A   1      38.242  21.796  25.786  1.00  0.00    -0.458 OA
BRANCH  21  22
ATOM     22  C   UNL A   1      39.427  21.721  26.438  1.00  0.00     0.338 C 
ATOM     23  O   UNL A   1      40.146  20.744  26.547  1.00  0.00    -0.246 OA
BRANCH  22  24
ATOM     24  C   UNL A   1      39.815  23.060  26.904  1.00  0.00     0.060 A 
ATOM     25  C   UNL A   1      39.396  24.170  26.164  1.00  0.00     0.016 A 
ATOM     26  C   UNL A   1      40.642  23.216  28.017  1.00  0.00     0.016 A 
ATOM     27  C   UNL A   1      39.807  25.447  26.534  1.00  0.00     0.010 A 
ATOM     28  C   UNL A   1      41.049  24.500  28.389  1.00  0.00     0.010 A 
ATOM     29  C   UNL A   1      40.642  25.622  27.644  1.00  0.00    -0.014 A 
BRANCH  29  30
ATOM     30  C   UNL A   1      41.130  26.977  28.000  1.00  0.00     0.031 A 
ATOM     31  C   UNL A   1      42.559  27.348  27.724  1.00  0.00     0.074 A 
ATOM     32  C   UNL A   1      40.290  27.870  28.554  1.00  0.00     0.049 A 
ATOM     33  N   UNL A   1      43.206  28.442  28.030  1.00  0.00    -0.248 NA
ATOM     34  C   UNL A   1      43.364  26.346  27.013  1.00  0.00     0.031 C 
ATOM     35  C   UNL A   1      38.869  27.638  28.817  1.00  0.00     0.029 A 
ATOM     36  N   UNL A   1      40.510  29.149  28.997  1.00  0.00    -0.354 N 
ATOM     37  C   UNL A   1      44.501  28.263  27.554  1.00  0.00     0.074 A 
ATOM     38  C   UNL A   1      44.550  26.935  26.975  1.00  0.00     0.031 C 
ATOM     39  C   UNL A   1      38.343  28.743  29.371  1.00  0.00     0.029 A 
ATOM     40  C   UNL A   1      39.398  29.737  29.552  1.00  0.00     0.049 A 
ATOM     41  H   UNL A   1      41.379  29.603  28.924  1.00  0.00     0.167 HD
ATOM     42  C   UNL A   1      45.545  29.128  27.590  1.00  0.00     0.034 A 
ATOM     43  C   UNL A   1      39.255  30.929  30.162  1.00  0.00     0.034 A 
ATOM     44  C   UNL A   1      45.478  30.440  28.189  1.00  0.00     0.049 A 
ATOM     45  C   UNL A   1      40.457  31.831  30.290  1.00  0.00     0.074 A 
ATOM     46  C   UNL A   1      46.474  31.398  28.289  1.00  0.00     0.029 A 
ATOM     47  N   UNL A   1      44.352  30.979  28.801  1.00  0.00    -0.354 N 
ATOM     48  N   UNL A   1      41.682  31.642  29.858  1.00  0.00    -0.248 NA
ATOM     49  C   UNL A   1      40.255  33.104  30.993  1.00  0.00     0.031 C 
ATOM     50  C   UNL A   1      45.970  32.484  29.017  1.00  0.00     0.029 A 
ATOM     51  C   UNL A   1      44.638  32.238  29.309  1.00  0.00     0.049 A 
ATOM     52  H   UNL A   1      43.479  30.530  28.866  1.00  0.00     0.167 HD
ATOM     53  C   UNL A   1      42.390  32.787  30.211  1.00  0.00     0.074 A 
ATOM     54  C   UNL A   1      41.452  33.663  30.885  1.00  0.00     0.031 C 
ATOM     55  C   UNL A   1      43.695  33.092  29.993  1.00  0.00     0.034 A 
BRANCH  42  56
ATOM     56  C   UNL A   1      46.856  28.645  27.016  1.00  0.00     0.023 A 
ATOM     57  C   UNL A   1      47.038  28.476  25.631  1.00  0.00     0.031 A 
ATOM     58  C   UNL A   1      47.919  28.294  27.866  1.00  0.00     0.131 A 
ATOM     59  C   UNL A   1      48.218  27.891  25.146  1.00  0.00     0.055 A 
ATOM     60  C   UNL A   1      49.124  27.791  27.370  1.00  0.00     0.041 A 
ATOM     61  F   UNL A   1      47.798  28.413  29.197  1.00  0.00    -0.206 F 
ATOM     62  C   UNL A   1      49.271  27.569  26.003  1.00  0.00     0.022 A 
BRANCH  59  63
ATOM     63  S   UNL A   1      48.289  27.406  23.399  1.00  0.00     0.124 S 
ATOM     64  O   UNL A   1      48.078  25.962  23.484  1.00  0.00    -0.237 OA
ATOM     65  O   UNL A   1      47.199  28.177  22.813  1.00  0.00    -0.237 OA
ATOM     66  O   UNL A   1      49.632  27.808  22.986  1.00  0.00    -0.744 OA
ENDBRANCH  59  63
ENDBRANCH  42  56
BRANCH  43  67
ATOM     67  C   UNL A   1      37.940  31.331  30.735  1.00  0.00     0.023 A 
ATOM     68  C   UNL A   1      37.005  32.043  29.969  1.00  0.00     0.031 A 
ATOM     69  C   UNL A   1      37.615  31.041  32.073  1.00  0.00     0.131 A 
ATOM     70  C   UNL A   1      35.805  32.474  30.555  1.00  0.00     0.055 A 
ATOM     71  C   UNL A   1      36.400  31.429  32.637  1.00  0.00     0.041 A 
ATOM     72  F   UNL A   1      38.476  30.363  32.849  1.00  0.00    -0.206 F 
ATOM     73  C   UNL A   1      35.490  32.161  31.880  1.00  0.00     0.022 A 
BRANCH  70  74
ATOM     74  S   UNL A   1      34.686  33.515  29.578  1.00  0.00     0.124 S 
ATOM     75  O   UNL A   1      34.090  32.541  28.670  1.00  0.00    -0.237 OA
ATOM     76  O   UNL A   1      33.804  34.059  30.606  1.00  0.00    -0.237 OA
ATOM     77  O   UNL A   1      35.582  34.486  28.954  1.00  0.00    -0.744 OA
ENDBRANCH  70  74
ENDBRANCH  43  67
BRANCH  55  78
ATOM     78  C   UNL A   1      44.162  34.452  30.451  1.00  0.00     0.023 A 
ATOM     79  C   UNL A   1      43.953  35.607  29.675  1.00  0.00     0.031 A 
ATOM     80  C   UNL A   1      44.844  34.589  31.673  1.00  0.00     0.131 A 
ATOM     81  C   UNL A   1      44.470  36.839  30.105  1.00  0.00     0.055 A 
ATOM     82  C   UNL A   1      45.307  35.826  32.122  1.00  0.00     0.041 A 
ATOM     83  F   UNL A   1      45.072  33.519  32.451  1.00  0.00    -0.206 F 
ATOM     84  C   UNL A   1      45.133  36.958  31.330  1.00  0.00     0.022 A 
BRANCH  81  85
ATOM     85  S   UNL A   1      44.341  38.273  29.001  1.00  0.00     0.124 S 
ATOM     86  O   UNL A   1      43.219  39.002  29.581  1.00  0.00    -0.237 OA
ATOM     87  O   UNL A   1      45.652  38.898  29.146  1.00  0.00    -0.237 OA
ATOM     88  O   UNL A   1      44.083  37.676  27.691  1.00  0.00    -0.744 OA
ENDBRANCH  81  85
ENDBRANCH  55  78
ENDBRANCH  29  30
ENDBRANCH  22  24
ENDBRANCH  21  22
ENDBRANCH  20  21
ENDBRANCH   1  20
TORSDOF 17
ENDMDL
