MODEL 1
REMARK VINA RESULT:     -10.3      0.000      0.000
REMARK SMILES C=CCCCn1cc(C(=O)OCCOC(=O)c2ccc(-c3c4nc(c(-c5cc(S(=O)(=O)[O-])ccc5F)c5ccc([nH]5)c(-c5cc(S(=O)(=O)[O-])ccc5F)c5nc(c(-c6cc(S(=O)(=O)[O-])ccc6F)c6ccc3[nH]6)C=C5)C=C4)cc2)cc1Br
REMARK SMILES IDX 12 1 11 2 9 3 10 4 8 5 6 6 7 7 81 8 80 9 82 10 5 11 4 12
REMARK SMILES IDX 3 13 2 14 1 15 13 16 14 17 15 18 16 19 17 20 18 21 79 22
REMARK SMILES IDX 19 23 78 24 20 25 21 26 22 27 72 28 23 29 77 30 71 31 73 32
REMARK SMILES IDX 24 33 76 34 70 35 69 36 25 38 57 39 37 40 56 41 38 42 41 43
REMARK SMILES IDX 55 44 74 45 39 46 40 47 54 49 75 50 42 51 26 52 27 53 35 54
REMARK SMILES IDX 28 55 34 56 36 57 33 58 29 59 30 60 31 61 32 62 58 63 59 64
REMARK SMILES IDX 67 65 60 66 66 67 68 68 65 69 61 70 62 71 63 72 64 73 43 74
REMARK SMILES IDX 44 75 52 76 45 77 51 78 53 79 50 80 46 81 47 82 48 83 49 84
REMARK H PARENT 73 37 41 48
REMARK Flexibility Score: inf
ROOT
ATOM      1  C   UNL A   1      33.258  30.190  26.578  1.00  0.00     0.275 C 
ENDROOT
BRANCH   1   2
ATOM      2  O   UNL A   1      33.506  28.789  26.766  1.00  0.00    -0.458 OA
BRANCH   2   3
ATOM      3  C   UNL A   1      33.629  28.044  25.624  1.00  0.00     0.339 C 
ATOM      4  O   UNL A   1      33.964  28.497  24.532  1.00  0.00    -0.246 OA
BRANCH   3   5
ATOM      5  C   UNL A   1      33.351  26.632  25.839  1.00  0.00     0.078 A 
ATOM      6  N   UNL A   1      33.669  24.460  26.246  1.00  0.00    -0.341 N 
ATOM      7  C   UNL A   1      34.277  25.603  25.803  1.00  0.00     0.102 A 
ATOM      8  C   UNL A   1      32.314  24.672  26.259  1.00  0.00     0.085 A 
ATOM      9  C   UNL A   1      32.085  26.011  26.043  1.00  0.00     0.051 A 
ATOM     10  Br  UNL A   1      30.974  23.403  26.549  1.00  0.00    -0.031 Br
BRANCH   6  11
ATOM     11  C   UNL A   1      34.339  23.254  26.698  1.00  0.00     0.123 C 
BRANCH  11  12
ATOM     12  C   UNL A   1      35.044  22.402  25.629  1.00  0.00     0.026 C 
BRANCH  12  13
ATOM     13  C   UNL A   1      36.221  23.048  24.881  1.00  0.00     0.028 C 
BRANCH  13  14
ATOM     14  C   UNL A   1      37.551  22.944  25.567  1.00  0.00    -0.035 C 
ATOM     15  C   UNL A   1      38.124  23.964  26.219  1.00  0.00     0.004 C 
ENDBRANCH  13  14
ENDBRANCH  12  13
ENDBRANCH  11  12
ENDBRANCH   6  11
ENDBRANCH   3   5
ENDBRANCH   2   3
ENDBRANCH   1   2
BRANCH   1  16
ATOM     16  C   UNL A   1      33.740  30.999  27.772  1.00  0.00     0.275 C 
BRANCH  16  17
ATOM     17  O   UNL A   1      35.124  31.314  27.650  1.00  0.00    -0.458 OA
BRANCH  17  18
ATOM     18  C   UNL A   1      35.836  31.173  28.792  1.00  0.00     0.338 C 
ATOM     19  O   UNL A   1      35.551  31.617  29.892  1.00  0.00    -0.246 OA
BRANCH  18  20
ATOM     20  C   UNL A   1      37.152  30.623  28.469  1.00  0.00     0.060 A 
ATOM     21  C   UNL A   1      37.183  29.323  27.955  1.00  0.00     0.016 A 
ATOM     22  C   UNL A   1      38.285  31.238  29.017  1.00  0.00     0.016 A 
ATOM     23  C   UNL A   1      38.305  28.560  28.190  1.00  0.00     0.010 A 
ATOM     24  C   UNL A   1      39.386  30.468  29.280  1.00  0.00     0.010 A 
ATOM     25  C   UNL A   1      39.352  29.119  28.932  1.00  0.00    -0.014 A 
BRANCH  25  26
ATOM     26  C   UNL A   1      40.517  28.307  29.199  1.00  0.00     0.031 A 
ATOM     27  C   UNL A   1      40.841  28.275  30.643  1.00  0.00     0.074 A 
ATOM     28  C   UNL A   1      41.111  27.552  28.255  1.00  0.00     0.049 A 
ATOM     29  N   UNL A   1      41.875  28.774  31.229  1.00  0.00    -0.248 NA
ATOM     30  C   UNL A   1      39.781  27.837  31.572  1.00  0.00     0.031 C 
ATOM     31  C   UNL A   1      40.670  27.312  26.879  1.00  0.00     0.029 A 
ATOM     32  N   UNL A   1      42.186  26.731  28.371  1.00  0.00    -0.354 N 
ATOM     33  C   UNL A   1      41.711  28.476  32.576  1.00  0.00     0.074 A 
ATOM     34  C   UNL A   1      40.324  28.149  32.747  1.00  0.00     0.031 C 
ATOM     35  C   UNL A   1      41.319  26.228  26.390  1.00  0.00     0.029 A 
ATOM     36  C   UNL A   1      42.289  25.767  27.373  1.00  0.00     0.049 A 
ATOM     37  H   UNL A   1      42.841  26.811  29.103  1.00  0.00     0.167 HD
ATOM     38  C   UNL A   1      42.788  28.233  33.370  1.00  0.00     0.034 A 
ATOM     39  C   UNL A   1      43.041  24.631  27.418  1.00  0.00     0.034 A 
ATOM     40  C   UNL A   1      43.992  28.773  32.775  1.00  0.00     0.049 A 
ATOM     41  C   UNL A   1      44.072  24.843  28.472  1.00  0.00     0.074 A 
ATOM     42  C   UNL A   1      44.353  30.034  32.331  1.00  0.00     0.029 A 
ATOM     43  N   UNL A   1      44.877  27.905  32.170  1.00  0.00    -0.354 N 
ATOM     44  N   UNL A   1      45.029  25.726  28.372  1.00  0.00    -0.248 NA
ATOM     45  C   UNL A   1      43.735  24.455  29.837  1.00  0.00     0.031 C 
ATOM     46  C   UNL A   1      45.057  29.805  31.112  1.00  0.00     0.029 A 
ATOM     47  C   UNL A   1      45.185  28.426  30.935  1.00  0.00     0.049 A 
ATOM     48  H   UNL A   1      45.224  27.067  32.552  1.00  0.00     0.167 HD
ATOM     49  C   UNL A   1      45.105  26.322  29.622  1.00  0.00     0.074 A 
ATOM     50  C   UNL A   1      44.340  25.442  30.506  1.00  0.00     0.031 C 
ATOM     51  C   UNL A   1      45.516  27.617  29.775  1.00  0.00     0.034 A 
BRANCH  38  52
ATOM     52  C   UNL A   1      42.808  27.174  34.452  1.00  0.00     0.023 A 
ATOM     53  C   UNL A   1      43.592  26.034  34.201  1.00  0.00     0.031 A 
ATOM     54  C   UNL A   1      41.915  27.070  35.547  1.00  0.00     0.131 A 
ATOM     55  C   UNL A   1      43.385  24.844  34.917  1.00  0.00     0.055 A 
ATOM     56  C   UNL A   1      41.764  25.904  36.300  1.00  0.00     0.041 A 
ATOM     57  F   UNL A   1      41.073  28.044  35.905  1.00  0.00    -0.206 F 
ATOM     58  C   UNL A   1      42.473  24.768  35.963  1.00  0.00     0.022 A 
BRANCH  55  59
ATOM     59  S   UNL A   1      44.197  23.343  34.318  1.00  0.00     0.124 S 
ATOM     60  O   UNL A   1      43.248  22.882  33.311  1.00  0.00    -0.237 OA
ATOM     61  O   UNL A   1      45.462  23.871  33.816  1.00  0.00    -0.237 OA
ATOM     62  O   UNL A   1      44.298  22.513  35.514  1.00  0.00    -0.744 OA
ENDBRANCH  55  59
ENDBRANCH  38  52
BRANCH  39  63
ATOM     63  C   UNL A   1      42.698  23.281  26.871  1.00  0.00     0.023 A 
ATOM     64  C   UNL A   1      43.612  22.505  26.120  1.00  0.00     0.031 A 
ATOM     65  C   UNL A   1      41.522  22.620  27.296  1.00  0.00     0.131 A 
ATOM     66  C   UNL A   1      43.331  21.146  25.829  1.00  0.00     0.055 A 
ATOM     67  C   UNL A   1      41.249  21.282  27.003  1.00  0.00     0.041 A 
ATOM     68  F   UNL A   1      40.628  23.225  28.092  1.00  0.00    -0.206 F 
ATOM     69  C   UNL A   1      42.159  20.534  26.277  1.00  0.00     0.022 A 
BRANCH  66  70
ATOM     70  S   UNL A   1      44.542  20.106  24.944  1.00  0.00     0.124 S 
ATOM     71  O   UNL A   1      44.029  18.762  25.184  1.00  0.00    -0.237 OA
ATOM     72  O   UNL A   1      44.451  20.603  23.576  1.00  0.00    -0.237 OA
ATOM     73  O   UNL A   1      45.807  20.408  25.618  1.00  0.00    -0.744 OA
ENDBRANCH  66  70
ENDBRANCH  39  63
BRANCH  51  74
ATOM     74  C   UNL A   1      46.175  28.326  28.603  1.00  0.00     0.023 A 
ATOM     75  C   UNL A   1      47.542  28.235  28.252  1.00  0.00     0.031 A 
ATOM     76  C   UNL A   1      45.333  29.045  27.734  1.00  0.00     0.131 A 
ATOM     77  C   UNL A   1      48.017  28.866  27.083  1.00  0.00     0.055 A 
ATOM     78  C   UNL A   1      45.800  29.644  26.566  1.00  0.00     0.041 A 
ATOM     79  F   UNL A   1      44.019  29.155  27.994  1.00  0.00    -0.206 F 
ATOM     80  C   UNL A   1      47.147  29.563  26.240  1.00  0.00     0.022 A 
BRANCH  77  81
ATOM     81  S   UNL A   1      49.787  28.830  26.645  1.00  0.00     0.124 S 
ATOM     82  O   UNL A   1      50.252  30.172  26.975  1.00  0.00    -0.237 OA
ATOM     83  O   UNL A   1      50.297  27.751  27.487  1.00  0.00    -0.237 OA
ATOM     84  O   UNL A   1      49.773  28.526  25.212  1.00  0.00    -0.744 OA
ENDBRANCH  77  81
ENDBRANCH  51  74
ENDBRANCH  25  26
ENDBRANCH  18  20
ENDBRANCH  17  18
ENDBRANCH  16  17
ENDBRANCH   1  16
TORSDOF 18
ENDMDL
MODEL 2
REMARK VINA RESULT:     -10.1      4.028      9.591
REMARK SMILES C=CCCCn1cc(C(=O)OCCOC(=O)c2ccc(-c3c4nc(c(-c5cc(S(=O)(=O)[O-])ccc5F)c5ccc([nH]5)c(-c5cc(S(=O)(=O)[O-])ccc5F)c5nc(c(-c6cc(S(=O)(=O)[O-])ccc6F)c6ccc3[nH]6)C=C5)C=C4)cc2)cc1Br
REMARK SMILES IDX 12 1 11 2 9 3 10 4 8 5 6 6 7 7 81 8 80 9 82 10 5 11 4 12
REMARK SMILES IDX 3 13 2 14 1 15 13 16 14 17 15 18 16 19 17 20 18 21 79 22
REMARK SMILES IDX 19 23 78 24 20 25 21 26 22 27 72 28 23 29 77 30 71 31 73 32
REMARK SMILES IDX 24 33 76 34 70 35 69 36 25 38 57 39 37 40 56 41 38 42 41 43
REMARK SMILES IDX 55 44 74 45 39 46 40 47 54 49 75 50 42 51 26 52 27 53 35 54
REMARK SMILES IDX 28 55 34 56 36 57 33 58 29 59 30 60 31 61 32 62 58 63 59 64
REMARK SMILES IDX 67 65 60 66 66 67 68 68 65 69 61 70 62 71 63 72 64 73 43 74
REMARK SMILES IDX 44 75 52 76 45 77 51 78 53 79 50 80 46 81 47 82 48 83 49 84
REMARK H PARENT 73 37 41 48
REMARK Flexibility Score: inf
ROOT
ATOM      1  C   UNL A   1      37.395  22.852  25.668  1.00  0.00     0.275 C 
ENDROOT
BRANCH   1   2
ATOM      2  O   UNL A   1      36.686  22.102  24.671  1.00  0.00    -0.458 OA
BRANCH   2   3
ATOM      3  C   UNL A   1      36.213  22.819  23.606  1.00  0.00     0.339 C 
ATOM      4  O   UNL A   1      36.780  22.904  22.519  1.00  0.00    -0.246 OA
BRANCH   3   5
ATOM      5  C   UNL A   1      34.935  23.457  23.879  1.00  0.00     0.078 A 
ATOM      6  N   UNL A   1      33.424  25.030  24.358  1.00  0.00    -0.341 N 
ATOM      7  C   UNL A   1      34.751  24.705  24.450  1.00  0.00     0.102 A 
ATOM      8  C   UNL A   1      32.727  23.895  24.035  1.00  0.00     0.085 A 
ATOM      9  C   UNL A   1      33.630  22.913  23.701  1.00  0.00     0.051 A 
ATOM     10  Br  UNL A   1      30.870  23.680  24.003  1.00  0.00    -0.031 Br
BRANCH   6  11
ATOM     11  C   UNL A   1      32.856  26.358  24.503  1.00  0.00     0.123 C 
BRANCH  11  12
ATOM     12  C   UNL A   1      33.752  27.439  25.130  1.00  0.00     0.026 C 
BRANCH  12  13
ATOM     13  C   UNL A   1      33.643  27.646  26.650  1.00  0.00     0.028 C 
BRANCH  13  14
ATOM     14  C   UNL A   1      32.648  28.680  27.086  1.00  0.00    -0.035 C 
ATOM     15  C   UNL A   1      31.442  28.376  27.582  1.00  0.00     0.004 C 
ENDBRANCH  13  14
ENDBRANCH  12  13
ENDBRANCH  11  12
ENDBRANCH   6  11
ENDBRANCH   3   5
ENDBRANCH   2   3
ENDBRANCH   1   2
BRANCH   1  16
ATOM     16  C   UNL A   1      38.696  22.165  26.054  1.00  0.00     0.275 C 
BRANCH  16  17
ATOM     17  O   UNL A   1      39.422  22.942  27.003  1.00  0.00    -0.458 OA
BRANCH  17  18
ATOM     18  C   UNL A   1      40.755  23.002  26.778  1.00  0.00     0.338 C 
ATOM     19  O   UNL A   1      41.516  22.060  26.631  1.00  0.00    -0.246 OA
BRANCH  18  20
ATOM     20  C   UNL A   1      41.215  24.373  26.997  1.00  0.00     0.060 A 
ATOM     21  C   UNL A   1      42.130  24.573  28.035  1.00  0.00     0.016 A 
ATOM     22  C   UNL A   1      40.470  25.423  26.442  1.00  0.00     0.016 A 
ATOM     23  C   UNL A   1      42.138  25.798  28.664  1.00  0.00     0.010 A 
ATOM     24  C   UNL A   1      40.454  26.628  27.092  1.00  0.00     0.010 A 
ATOM     25  C   UNL A   1      41.230  26.775  28.239  1.00  0.00    -0.014 A 
BRANCH  25  26
ATOM     26  C   UNL A   1      41.224  28.051  28.919  1.00  0.00     0.031 A 
ATOM     27  C   UNL A   1      42.244  28.969  28.366  1.00  0.00     0.074 A 
ATOM     28  C   UNL A   1      40.285  28.391  29.823  1.00  0.00     0.049 A 
ATOM     29  N   UNL A   1      43.304  29.412  28.950  1.00  0.00    -0.248 NA
ATOM     30  C   UNL A   1      42.202  29.246  26.917  1.00  0.00     0.031 C 
ATOM     31  C   UNL A   1      39.083  27.644  30.203  1.00  0.00     0.029 A 
ATOM     32  N   UNL A   1      40.146  29.552  30.512  1.00  0.00    -0.354 N 
ATOM     33  C   UNL A   1      43.921  30.234  28.016  1.00  0.00     0.074 A 
ATOM     34  C   UNL A   1      43.356  29.886  26.744  1.00  0.00     0.031 C 
ATOM     35  C   UNL A   1      38.232  28.477  30.848  1.00  0.00     0.029 A 
ATOM     36  C   UNL A   1      38.868  29.776  31.017  1.00  0.00     0.049 A 
ATOM     37  H   UNL A   1      40.889  30.184  30.646  1.00  0.00     0.167 HD
ATOM     38  C   UNL A   1      44.619  31.332  28.410  1.00  0.00     0.034 A 
ATOM     39  C   UNL A   1      38.361  30.969  31.438  1.00  0.00     0.034 A 
ATOM     40  C   UNL A   1      44.997  31.223  29.804  1.00  0.00     0.049 A 
ATOM     41  C   UNL A   1      39.527  31.854  31.716  1.00  0.00     0.074 A 
ATOM     42  C   UNL A   1      45.692  30.272  30.532  1.00  0.00     0.029 A 
ATOM     43  N   UNL A   1      44.295  31.957  30.737  1.00  0.00    -0.354 N 
ATOM     44  N   UNL A   1      40.380  31.635  32.679  1.00  0.00    -0.248 NA
ATOM     45  C   UNL A   1      40.037  32.667  30.617  1.00  0.00     0.031 C 
ATOM     46  C   UNL A   1      44.973  30.150  31.757  1.00  0.00     0.029 A 
ATOM     47  C   UNL A   1      43.951  31.102  31.759  1.00  0.00     0.049 A 
ATOM     48  H   UNL A   1      44.080  32.916  30.683  1.00  0.00     0.167 HD
ATOM     49  C   UNL A   1      41.626  31.889  32.125  1.00  0.00     0.074 A 
ATOM     50  C   UNL A   1      41.346  32.599  30.876  1.00  0.00     0.031 C 
ATOM     51  C   UNL A   1      42.750  31.243  32.563  1.00  0.00     0.034 A 
BRANCH  38  52
ATOM     52  C   UNL A   1      44.600  32.649  27.664  1.00  0.00     0.023 A 
ATOM     53  C   UNL A   1      43.944  33.720  28.295  1.00  0.00     0.031 A 
ATOM     54  C   UNL A   1      44.915  32.848  26.297  1.00  0.00     0.131 A 
ATOM     55  C   UNL A   1      43.519  34.840  27.561  1.00  0.00     0.055 A 
ATOM     56  C   UNL A   1      44.551  33.996  25.589  1.00  0.00     0.041 A 
ATOM     57  F   UNL A   1      45.508  31.923  25.535  1.00  0.00    -0.206 F 
ATOM     58  C   UNL A   1      43.815  34.985  26.210  1.00  0.00     0.022 A 
BRANCH  55  59
ATOM     59  S   UNL A   1      42.403  36.010  28.371  1.00  0.00     0.124 S 
ATOM     60  O   UNL A   1      41.128  35.671  27.749  1.00  0.00    -0.237 OA
ATOM     61  O   UNL A   1      42.554  35.640  29.775  1.00  0.00    -0.237 OA
ATOM     62  O   UNL A   1      42.955  37.311  28.005  1.00  0.00    -0.744 OA
ENDBRANCH  55  59
ENDBRANCH  38  52
BRANCH  39  63
ATOM     63  C   UNL A   1      36.967  31.484  31.269  1.00  0.00     0.023 A 
ATOM     64  C   UNL A   1      36.259  32.133  32.309  1.00  0.00     0.031 A 
ATOM     65  C   UNL A   1      36.389  31.561  29.980  1.00  0.00     0.131 A 
ATOM     66  C   UNL A   1      35.044  32.811  32.037  1.00  0.00     0.055 A 
ATOM     67  C   UNL A   1      35.189  32.227  29.720  1.00  0.00     0.041 A 
ATOM     68  F   UNL A   1      37.014  31.066  28.902  1.00  0.00    -0.206 F 
ATOM     69  C   UNL A   1      34.516  32.867  30.746  1.00  0.00     0.022 A 
BRANCH  66  70
ATOM     70  S   UNL A   1      34.170  33.733  33.348  1.00  0.00     0.124 S 
ATOM     71  O   UNL A   1      34.958  33.409  34.531  1.00  0.00    -0.237 OA
ATOM     72  O   UNL A   1      34.244  35.110  32.873  1.00  0.00    -0.237 OA
ATOM     73  O   UNL A   1      32.824  33.156  33.330  1.00  0.00    -0.744 OA
ENDBRANCH  66  70
ENDBRANCH  39  63
BRANCH  51  74
ATOM     74  C   UNL A   1      42.690  30.456  33.861  1.00  0.00     0.023 A 
ATOM     75  C   UNL A   1      42.284  29.107  33.986  1.00  0.00     0.031 A 
ATOM     76  C   UNL A   1      43.180  31.092  35.018  1.00  0.00     0.131 A 
ATOM     77  C   UNL A   1      42.362  28.457  35.236  1.00  0.00     0.055 A 
ATOM     78  C   UNL A   1      43.281  30.438  36.244  1.00  0.00     0.041 A 
ATOM     79  F   UNL A   1      43.601  32.366  34.969  1.00  0.00    -0.206 F 
ATOM     80  C   UNL A   1      42.864  29.118  36.360  1.00  0.00     0.022 A 
BRANCH  77  81
ATOM     81  S   UNL A   1      41.776  26.742  35.443  1.00  0.00     0.124 S 
ATOM     82  O   UNL A   1      40.749  26.601  34.418  1.00  0.00    -0.237 OA
ATOM     83  O   UNL A   1      42.996  25.966  35.239  1.00  0.00    -0.237 OA
ATOM     84  O   UNL A   1      41.269  26.724  36.818  1.00  0.00    -0.744 OA
ENDBRANCH  77  81
ENDBRANCH  51  74
ENDBRANCH  25  26
ENDBRANCH  18  20
ENDBRANCH  17  18
ENDBRANCH  16  17
ENDBRANCH   1  16
TORSDOF 18
ENDMDL
MODEL 3
REMARK VINA RESULT:     -10.1      2.917      7.501
REMARK SMILES C=CCCCn1cc(C(=O)OCCOC(=O)c2ccc(-c3c4nc(c(-c5cc(S(=O)(=O)[O-])ccc5F)c5ccc([nH]5)c(-c5cc(S(=O)(=O)[O-])ccc5F)c5nc(c(-c6cc(S(=O)(=O)[O-])ccc6F)c6ccc3[nH]6)C=C5)C=C4)cc2)cc1Br
REMARK SMILES IDX 12 1 11 2 9 3 10 4 8 5 6 6 7 7 81 8 80 9 82 10 5 11 4 12
REMARK SMILES IDX 3 13 2 14 1 15 13 16 14 17 15 18 16 19 17 20 18 21 79 22
REMARK SMILES IDX 19 23 78 24 20 25 21 26 22 27 72 28 23 29 77 30 71 31 73 32
REMARK SMILES IDX 24 33 76 34 70 35 69 36 25 38 57 39 37 40 56 41 38 42 41 43
REMARK SMILES IDX 55 44 74 45 39 46 40 47 54 49 75 50 42 51 26 52 27 53 35 54
REMARK SMILES IDX 28 55 34 56 36 57 33 58 29 59 30 60 31 61 32 62 58 63 59 64
REMARK SMILES IDX 67 65 60 66 66 67 68 68 65 69 61 70 62 71 63 72 64 73 43 74
REMARK SMILES IDX 44 75 52 76 45 77 51 78 53 79 50 80 46 81 47 82 48 83 49 84
REMARK H PARENT 73 37 41 48
REMARK Flexibility Score: inf
ROOT
ATOM      1  C   UNL A   1      34.168  31.916  27.645  1.00  0.00     0.275 C 
ENDROOT
BRANCH   1   2
ATOM      2  O   UNL A   1      33.592  30.658  27.264  1.00  0.00    -0.458 OA
BRANCH   2   3
ATOM      3  C   UNL A   1      32.307  30.705  26.794  1.00  0.00     0.339 C 
ATOM      4  O   UNL A   1      31.587  31.700  26.840  1.00  0.00    -0.246 OA
BRANCH   3   5
ATOM      5  C   UNL A   1      31.880  29.450  26.194  1.00  0.00     0.078 A 
ATOM      6  N   UNL A   1      31.326  27.931  24.654  1.00  0.00    -0.341 N 
ATOM      7  C   UNL A   1      31.448  29.274  24.890  1.00  0.00     0.102 A 
ATOM      8  C   UNL A   1      31.364  27.279  25.860  1.00  0.00     0.085 A 
ATOM      9  C   UNL A   1      31.736  28.183  26.828  1.00  0.00     0.051 A 
ATOM     10  Br  UNL A   1      31.015  25.471  26.179  1.00  0.00    -0.031 Br
BRANCH   6  11
ATOM     11  C   UNL A   1      31.246  27.294  23.352  1.00  0.00     0.123 C 
BRANCH  11  12
ATOM     12  C   UNL A   1      32.559  27.138  22.566  1.00  0.00     0.026 C 
BRANCH  12  13
ATOM     13  C   UNL A   1      33.714  26.409  23.269  1.00  0.00     0.028 C 
BRANCH  13  14
ATOM     14  C   UNL A   1      33.582  24.916  23.338  1.00  0.00    -0.035 C 
ATOM     15  C   UNL A   1      34.618  24.094  23.546  1.00  0.00     0.004 C 
ENDBRANCH  13  14
ENDBRANCH  12  13
ENDBRANCH  11  12
ENDBRANCH   6  11
ENDBRANCH   3   5
ENDBRANCH   2   3
ENDBRANCH   1   2
BRANCH   1  16
ATOM     16  C   UNL A   1      35.411  31.716  28.498  1.00  0.00     0.275 C 
BRANCH  16  17
ATOM     17  O   UNL A   1      36.030  30.464  28.213  1.00  0.00    -0.458 OA
BRANCH  17  18
ATOM     18  C   UNL A   1      36.619  29.873  29.278  1.00  0.00     0.338 C 
ATOM     19  O   UNL A   1      36.461  30.156  30.453  1.00  0.00    -0.246 OA
BRANCH  18  20
ATOM     20  C   UNL A   1      37.692  28.998  28.805  1.00  0.00     0.060 A 
ATOM     21  C   UNL A   1      38.151  28.024  29.697  1.00  0.00     0.016 A 
ATOM     22  C   UNL A   1      38.435  29.400  27.687  1.00  0.00     0.016 A 
ATOM     23  C   UNL A   1      39.458  27.607  29.584  1.00  0.00     0.010 A 
ATOM     24  C   UNL A   1      39.746  29.011  27.598  1.00  0.00     0.010 A 
ATOM     25  C   UNL A   1      40.261  28.180  28.590  1.00  0.00    -0.014 A 
BRANCH  25  26
ATOM     26  C   UNL A   1      41.640  27.759  28.492  1.00  0.00     0.031 A 
ATOM     27  C   UNL A   1      41.763  26.454  27.804  1.00  0.00     0.074 A 
ATOM     28  C   UNL A   1      42.672  28.552  28.839  1.00  0.00     0.049 A 
ATOM     29  N   UNL A   1      42.149  25.332  28.309  1.00  0.00    -0.248 NA
ATOM     30  C   UNL A   1      41.171  26.331  26.458  1.00  0.00     0.031 C 
ATOM     31  C   UNL A   1      42.633  29.956  29.252  1.00  0.00     0.029 A 
ATOM     32  N   UNL A   1      44.003  28.296  28.775  1.00  0.00    -0.354 N 
ATOM     33  C   UNL A   1      42.093  24.421  27.261  1.00  0.00     0.074 A 
ATOM     34  C   UNL A   1      41.257  25.017  26.259  1.00  0.00     0.031 C 
ATOM     35  C   UNL A   1      43.878  30.480  29.152  1.00  0.00     0.029 A 
ATOM     36  C   UNL A   1      44.811  29.428  28.773  1.00  0.00     0.049 A 
ATOM     37  H   UNL A   1      44.368  27.382  28.735  1.00  0.00     0.167 HD
ATOM     38  C   UNL A   1      42.980  23.394  27.185  1.00  0.00     0.034 A 
ATOM     39  C   UNL A   1      46.117  29.492  28.385  1.00  0.00     0.034 A 
ATOM     40  C   UNL A   1      43.581  23.142  28.479  1.00  0.00     0.049 A 
ATOM     41  C   UNL A   1      46.645  28.100  28.433  1.00  0.00     0.074 A 
ATOM     42  C   UNL A   1      43.062  22.866  29.733  1.00  0.00     0.029 A 
ATOM     43  N   UNL A   1      44.871  23.574  28.703  1.00  0.00    -0.354 N 
ATOM     44  N   UNL A   1      46.786  27.425  29.542  1.00  0.00    -0.248 NA
ATOM     45  C   UNL A   1      46.517  27.285  27.230  1.00  0.00     0.031 C 
ATOM     46  C   UNL A   1      43.856  23.634  30.634  1.00  0.00     0.029 A 
ATOM     47  C   UNL A   1      44.877  24.246  29.904  1.00  0.00     0.049 A 
ATOM     48  H   UNL A   1      45.645  23.428  28.113  1.00  0.00     0.167 HD
ATOM     49  C   UNL A   1      46.330  26.148  29.250  1.00  0.00     0.074 A 
ATOM     50  C   UNL A   1      46.253  26.100  27.789  1.00  0.00     0.031 C 
ATOM     51  C   UNL A   1      45.769  25.351  30.209  1.00  0.00     0.034 A 
BRANCH  38  52
ATOM     52  C   UNL A   1      43.589  22.907  25.887  1.00  0.00     0.023 A 
ATOM     53  C   UNL A   1      43.567  21.519  25.665  1.00  0.00     0.031 A 
ATOM     54  C   UNL A   1      44.422  23.650  25.016  1.00  0.00     0.131 A 
ATOM     55  C   UNL A   1      44.426  20.925  24.726  1.00  0.00     0.055 A 
ATOM     56  C   UNL A   1      45.222  23.059  24.036  1.00  0.00     0.041 A 
ATOM     57  F   UNL A   1      44.588  24.974  25.106  1.00  0.00    -0.206 F 
ATOM     58  C   UNL A   1      45.258  21.684  23.911  1.00  0.00     0.022 A 
BRANCH  55  59
ATOM     59  S   UNL A   1      44.571  19.122  24.733  1.00  0.00     0.124 S 
ATOM     60  O   UNL A   1      44.909  18.854  23.340  1.00  0.00    -0.237 OA
ATOM     61  O   UNL A   1      45.638  18.913  25.706  1.00  0.00    -0.237 OA
ATOM     62  O   UNL A   1      43.245  18.678  25.155  1.00  0.00    -0.744 OA
ENDBRANCH  55  59
ENDBRANCH  38  52
BRANCH  39  63
ATOM     63  C   UNL A   1      46.803  30.600  27.650  1.00  0.00     0.023 A 
ATOM     64  C   UNL A   1      46.096  31.640  27.002  1.00  0.00     0.031 A 
ATOM     65  C   UNL A   1      48.199  30.785  27.785  1.00  0.00     0.131 A 
ATOM     66  C   UNL A   1      46.781  32.787  26.527  1.00  0.00     0.055 A 
ATOM     67  C   UNL A   1      48.868  31.916  27.312  1.00  0.00     0.041 A 
ATOM     68  F   UNL A   1      48.958  29.913  28.464  1.00  0.00    -0.206 F 
ATOM     69  C   UNL A   1      48.160  32.930  26.691  1.00  0.00     0.022 A 
BRANCH  66  70
ATOM     70  S   UNL A   1      45.872  34.180  25.775  1.00  0.00     0.124 S 
ATOM     71  O   UNL A   1      45.435  34.932  26.945  1.00  0.00    -0.237 OA
ATOM     72  O   UNL A   1      46.887  34.808  24.937  1.00  0.00    -0.237 OA
ATOM     73  O   UNL A   1      44.794  33.521  25.032  1.00  0.00    -0.744 OA
ENDBRANCH  66  70
ENDBRANCH  39  63
BRANCH  51  74
ATOM     74  C   UNL A   1      45.907  25.745  31.670  1.00  0.00     0.023 A 
ATOM     75  C   UNL A   1      47.026  25.472  32.492  1.00  0.00     0.031 A 
ATOM     76  C   UNL A   1      44.882  26.540  32.218  1.00  0.00     0.131 A 
ATOM     77  C   UNL A   1      47.075  25.974  33.810  1.00  0.00     0.055 A 
ATOM     78  C   UNL A   1      44.948  27.057  33.511  1.00  0.00     0.041 A 
ATOM     79  F   UNL A   1      43.800  26.856  31.488  1.00  0.00    -0.206 F 
ATOM     80  C   UNL A   1      46.042  26.769  34.315  1.00  0.00     0.022 A 
BRANCH  77  81
ATOM     81  S   UNL A   1      48.468  25.576  34.917  1.00  0.00     0.124 S 
ATOM     82  O   UNL A   1      49.174  24.510  34.216  1.00  0.00    -0.237 OA
ATOM     83  O   UNL A   1      49.170  26.854  35.012  1.00  0.00    -0.237 OA
ATOM     84  O   UNL A   1      47.805  25.155  36.154  1.00  0.00    -0.744 OA
ENDBRANCH  77  81
ENDBRANCH  51  74
ENDBRANCH  25  26
ENDBRANCH  18  20
ENDBRANCH  17  18
ENDBRANCH  16  17
ENDBRANCH   1  16
TORSDOF 18
ENDMDL
