MODEL 1
REMARK VINA RESULT:     -11.6      0.000      0.000
REMARK SMILES CC(C)[C@H](NC(=O)[C@H](C)NC(=O)CNC(=O)OCc1ccccc1)C(=O)OCCOC(=O)c1ccc(-c2c3nc(c(-c4cc(S(=O)(=O)[O-])ccc4F)c4ccc([nH]4)c(-c4cc(S(=O)(=O)[O-])ccc4F)c4nc(c(-c5cc(S(=O)(=O)[O-])ccc5F)c5ccc2[nH]5)C=C4)C=C3)cc1
REMARK SMILES IDX 25 1 26 2 4 3 2 4 1 5 3 6 5 7 6 8 7 10 8 11 9 12 10 13 11 14
REMARK SMILES IDX 12 16 13 17 14 18 15 19 16 21 17 22 18 23 19 24 20 25 24 26
REMARK SMILES IDX 21 27 23 28 22 29 27 30 28 31 29 32 30 33 31 34 32 35 33 36
REMARK SMILES IDX 34 37 95 38 35 39 94 40 36 41 37 42 38 43 88 44 39 45 93 46
REMARK SMILES IDX 87 47 89 48 40 49 92 50 86 51 85 52 41 54 73 55 53 56 72 57
REMARK SMILES IDX 54 58 57 59 71 60 90 61 55 62 56 63 70 65 91 66 58 67 42 68
REMARK SMILES IDX 43 69 51 70 44 71 50 72 52 73 49 74 45 75 46 76 47 77 48 78
REMARK SMILES IDX 74 79 75 80 83 81 76 82 82 83 84 84 81 85 77 86 78 87 79 88
REMARK SMILES IDX 80 89 59 90 60 91 68 92 61 93 67 94 69 95 66 96 62 97 63 98
REMARK SMILES IDX 64 99 65 100
REMARK H PARENT 5 9 10 15 14 20 89 53 57 64
REMARK Flexibility Score: inf
ROOT
ATOM      1  C   UNL A   1      31.960  28.386  26.420  1.00  0.00     0.329 C 
ATOM      2  O   UNL A   1      31.733  28.191  27.604  1.00  0.00    -0.250 OA
ENDROOT
BRANCH   1   3
ATOM      3  C   UNL A   1      31.699  27.347  25.257  1.00  0.00     0.194 C 
BRANCH   3   4
ATOM      4  C   UNL A   1      30.557  27.636  24.260  1.00  0.00     0.017 C 
ATOM      5  C   UNL A   1      31.160  28.000  22.881  1.00  0.00     0.010 C 
ATOM      6  C   UNL A   1      29.604  26.455  24.048  1.00  0.00     0.010 C 
ENDBRANCH   3   4
BRANCH   3   7
ATOM      7  N   UNL A   1      31.719  25.983  25.785  1.00  0.00    -0.341 N 
ATOM      8  C   UNL A   1      32.722  25.066  25.693  1.00  0.00     0.242 C 
ATOM      9  H   UNL A   1      30.910  25.693  26.265  1.00  0.00     0.164 HD
ATOM     10  O   UNL A   1      32.520  23.956  26.185  1.00  0.00    -0.273 OA
BRANCH   8  11
ATOM     11  C   UNL A   1      33.913  25.391  24.778  1.00  0.00     0.168 C 
ATOM     12  C   UNL A   1      33.445  25.091  23.320  1.00  0.00     0.041 C 
BRANCH  11  13
ATOM     13  N   UNL A   1      35.353  24.820  25.429  1.00  0.00    -0.343 N 
ATOM     14  C   UNL A   1      36.293  23.645  25.555  1.00  0.00     0.240 C 
ATOM     15  H   UNL A   1      35.749  25.561  25.943  1.00  0.00     0.164 HD
ATOM     16  O   UNL A   1      37.476  23.897  25.818  1.00  0.00    -0.273 OA
BRANCH  14  17
ATOM     17  C   UNL A   1      35.719  21.830  25.610  1.00  0.00     0.219 C 
BRANCH  17  18
ATOM     18  N   UNL A   1      33.705  21.306  25.831  1.00  0.00    -0.312 N 
ATOM     19  C   UNL A   1      32.515  20.751  25.003  1.00  0.00     0.407 C 
ATOM     20  H   UNL A   1      33.420  21.463  26.760  1.00  0.00     0.167 HD
ATOM     21  O   UNL A   1      31.382  20.861  25.450  1.00  0.00    -0.225 OA
BRANCH  19  22
ATOM     22  O   UNL A   1      32.779  20.269  23.742  1.00  0.00    -0.445 OA
BRANCH  22  23
ATOM     23  C   UNL A   1      32.362  19.045  23.103  1.00  0.00     0.270 C 
BRANCH  23  24
ATOM     24  C   UNL A   1      32.909  17.841  23.841  1.00  0.00    -0.011 A 
ATOM     25  C   UNL A   1      32.266  17.309  24.973  1.00  0.00     0.007 A 
ATOM     26  C   UNL A   1      34.133  17.282  23.454  1.00  0.00     0.007 A 
ATOM     27  C   UNL A   1      32.870  16.287  25.720  1.00  0.00     0.000 A 
ATOM     28  C   UNL A   1      34.729  16.261  24.192  1.00  0.00     0.000 A 
ATOM     29  C   UNL A   1      34.109  15.778  25.338  1.00  0.00     0.000 A 
ENDBRANCH  23  24
ENDBRANCH  22  23
ENDBRANCH  19  22
ENDBRANCH  17  18
ENDBRANCH  14  17
ENDBRANCH  11  13
ENDBRANCH   8  11
ENDBRANCH   3   7
ENDBRANCH   1   3
BRANCH   1  30
ATOM     30  O   UNL A   1      32.249  29.637  25.873  1.00  0.00    -0.461 OA
BRANCH  30  31
ATOM     31  C   UNL A   1      31.764  30.861  26.521  1.00  0.00     0.274 C 
BRANCH  31  32
ATOM     32  C   UNL A   1      32.919  31.608  27.306  1.00  0.00     0.275 C 
BRANCH  32  33
ATOM     33  O   UNL A   1      32.770  33.069  27.330  1.00  0.00    -0.458 OA
BRANCH  33  34
ATOM     34  C   UNL A   1      33.230  33.832  28.387  1.00  0.00     0.338 C 
ATOM     35  O   UNL A   1      32.623  34.787  28.834  1.00  0.00    -0.246 OA
BRANCH  34  36
ATOM     36  C   UNL A   1      34.710  33.413  28.815  1.00  0.00     0.060 A 
ATOM     37  C   UNL A   1      36.444  34.088  28.397  1.00  0.00     0.016 A 
ATOM     38  C   UNL A   1      34.444  32.696  30.416  1.00  0.00     0.016 A 
ATOM     39  C   UNL A   1      37.757  34.045  29.684  1.00  0.00     0.010 A 
ATOM     40  C   UNL A   1      35.763  32.622  31.567  1.00  0.00     0.010 A 
ATOM     41  C   UNL A   1      37.380  33.197  31.201  1.00  0.00    -0.014 A 
BRANCH  41  42
ATOM     42  C   UNL A   1      38.490  32.500  31.878  1.00  0.00     0.031 A 
ATOM     43  C   UNL A   1      39.158  31.294  31.236  1.00  0.00     0.074 A 
ATOM     44  C   UNL A   1      38.923  33.054  33.013  1.00  0.00     0.049 A 
ATOM     45  N   UNL A   1      40.291  30.714  31.543  1.00  0.00    -0.248 NA
ATOM     46  C   UNL A   1      38.537  30.692  30.049  1.00  0.00     0.031 C 
ATOM     47  C   UNL A   1      38.354  34.248  33.644  1.00  0.00     0.029 A 
ATOM     48  N   UNL A   1      39.908  32.653  33.859  1.00  0.00    -0.354 N 
ATOM     49  C   UNL A   1      40.531  29.773  30.534  1.00  0.00     0.074 A 
ATOM     50  C   UNL A   1      39.462  29.870  29.589  1.00  0.00     0.031 C 
ATOM     51  C   UNL A   1      38.965  34.445  34.820  1.00  0.00     0.029 A 
ATOM     52  C   UNL A   1      39.923  33.368  35.026  1.00  0.00     0.049 A 
ATOM     53  H   UNL A   1      40.541  31.928  33.655  1.00  0.00     0.167 HD
ATOM     54  C   UNL A   1      41.505  28.839  30.443  1.00  0.00     0.034 A 
ATOM     55  C   UNL A   1      40.601  33.115  36.155  1.00  0.00     0.034 A 
ATOM     56  C   UNL A   1      42.378  28.584  31.554  1.00  0.00     0.049 A 
ATOM     57  C   UNL A   1      41.556  31.955  36.131  1.00  0.00     0.074 A 
ATOM     58  C   UNL A   1      43.339  27.606  31.703  1.00  0.00     0.029 A 
ATOM     59  N   UNL A   1      42.312  29.281  32.756  1.00  0.00    -0.354 N 
ATOM     60  N   UNL A   1      41.800  31.110  35.151  1.00  0.00    -0.248 NA
ATOM     61  C   UNL A   1      42.341  31.730  37.341  1.00  0.00     0.031 C 
ATOM     62  C   UNL A   1      43.782  27.651  33.029  1.00  0.00     0.029 A 
ATOM     63  C   UNL A   1      43.182  28.729  33.670  1.00  0.00     0.049 A 
ATOM     64  H   UNL A   1      41.729  30.056  32.928  1.00  0.00     0.167 HD
ATOM     65  C   UNL A   1      42.801  30.267  35.617  1.00  0.00     0.074 A 
ATOM     66  C   UNL A   1      43.115  30.725  36.961  1.00  0.00     0.031 C 
ATOM     67  C   UNL A   1      43.417  29.220  35.007  1.00  0.00     0.034 A 
BRANCH  54  68
ATOM     68  C   UNL A   1      41.533  27.947  29.216  1.00  0.00     0.023 A 
ATOM     69  C   UNL A   1      42.460  28.140  28.170  1.00  0.00     0.031 A 
ATOM     70  C   UNL A   1      40.589  26.914  29.063  1.00  0.00     0.131 A 
ATOM     71  C   UNL A   1      42.406  27.331  27.018  1.00  0.00     0.055 A 
ATOM     72  C   UNL A   1      40.579  26.075  27.944  1.00  0.00     0.041 A 
ATOM     73  F   UNL A   1      39.640  26.713  29.989  1.00  0.00    -0.206 F 
ATOM     74  C   UNL A   1      41.487  26.283  26.912  1.00  0.00     0.022 A 
BRANCH  71  75
ATOM     75  S   UNL A   1      43.481  27.717  25.603  1.00  0.00     0.124 S 
ATOM     76  O   UNL A   1      44.288  26.506  25.498  1.00  0.00    -0.237 OA
ATOM     77  O   UNL A   1      42.521  27.947  24.529  1.00  0.00    -0.237 OA
ATOM     78  O   UNL A   1      44.213  28.905  26.042  1.00  0.00    -0.744 OA
ENDBRANCH  71  75
ENDBRANCH  54  68
BRANCH  55  79
ATOM     79  C   UNL A   1      40.368  33.961  37.351  1.00  0.00     0.023 A 
ATOM     80  C   UNL A   1      41.276  34.963  37.705  1.00  0.00     0.031 A 
ATOM     81  C   UNL A   1      39.206  33.811  38.135  1.00  0.00     0.131 A 
ATOM     82  C   UNL A   1      41.030  35.760  38.831  1.00  0.00     0.055 A 
ATOM     83  C   UNL A   1      38.935  34.647  39.219  1.00  0.00     0.041 A 
ATOM     84  F   UNL A   1      38.295  32.873  37.830  1.00  0.00    -0.206 F 
ATOM     85  C   UNL A   1      39.858  35.623  39.579  1.00  0.00     0.022 A 
BRANCH  82  86
ATOM     86  S   UNL A   1      42.317  36.922  39.352  1.00  0.00     0.124 S 
ATOM     87  O   UNL A   1      43.366  36.660  38.374  1.00  0.00    -0.237 OA
ATOM     88  O   UNL A   1      41.631  38.204  39.230  1.00  0.00    -0.237 OA
ATOM     89  O   UNL A   1      42.618  36.503  40.719  1.00  0.00    -0.744 OA
ENDBRANCH  82  86
ENDBRANCH  55  79
BRANCH  67  90
ATOM     90  C   UNL A   1      44.501  28.543  35.793  1.00  0.00     0.023 A 
ATOM     91  C   UNL A   1      44.231  27.416  36.581  1.00  0.00     0.031 A 
ATOM     92  C   UNL A   1      45.812  29.047  35.760  1.00  0.00     0.131 A 
ATOM     93  C   UNL A   1      45.243  26.882  37.383  1.00  0.00     0.055 A 
ATOM     94  C   UNL A   1      46.837  28.451  36.488  1.00  0.00     0.041 A 
ATOM     95  F   UNL A   1      46.114  30.125  35.019  1.00  0.00    -0.206 F 
ATOM     96  C   UNL A   1      46.551  27.374  37.323  1.00  0.00     0.022 A 
BRANCH  93  97
ATOM     97  S   UNL A   1      44.785  25.638  38.615  1.00  0.00     0.124 S 
ATOM     98  O   UNL A   1      44.180  26.460  39.659  1.00  0.00    -0.237 OA
ATOM     99  O   UNL A   1      43.869  24.782  37.868  1.00  0.00    -0.237 OA
ATOM    100  O   UNL A   1      46.062  25.024  38.969  1.00  0.00    -0.744 OA
ENDBRANCH  93  97
ENDBRANCH  67  90
ENDBRANCH  41  42
ENDBRANCH  34  36
ENDBRANCH  33  34
ENDBRANCH  32  33
ENDBRANCH  31  32
ENDBRANCH  30  31
ENDBRANCH   1  30
TORSDOF 23
ENDMDL
MODEL 2
REMARK VINA RESULT:     -11.4      5.898     11.384
REMARK SMILES CC(C)[C@H](NC(=O)[C@H](C)NC(=O)CNC(=O)OCc1ccccc1)C(=O)OCCOC(=O)c1ccc(-c2c3nc(c(-c4cc(S(=O)(=O)[O-])ccc4F)c4ccc([nH]4)c(-c4cc(S(=O)(=O)[O-])ccc4F)c4nc(c(-c5cc(S(=O)(=O)[O-])ccc5F)c5ccc2[nH]5)C=C4)C=C3)cc1
REMARK SMILES IDX 25 1 26 2 4 3 2 4 1 5 3 6 5 7 6 8 7 10 8 11 9 12 10 13 11 14
REMARK SMILES IDX 12 16 13 17 14 18 15 19 16 21 17 22 18 23 19 24 20 25 24 26
REMARK SMILES IDX 21 27 23 28 22 29 27 30 28 31 29 32 30 33 31 34 32 35 33 36
REMARK SMILES IDX 34 37 95 38 35 39 94 40 36 41 37 42 38 43 88 44 39 45 93 46
REMARK SMILES IDX 87 47 89 48 40 49 92 50 86 51 85 52 41 54 73 55 53 56 72 57
REMARK SMILES IDX 54 58 57 59 71 60 90 61 55 62 56 63 70 65 91 66 58 67 42 68
REMARK SMILES IDX 43 69 51 70 44 71 50 72 52 73 49 74 45 75 46 76 47 77 48 78
REMARK SMILES IDX 74 79 75 80 83 81 76 82 82 83 84 84 81 85 77 86 78 87 79 88
REMARK SMILES IDX 80 89 59 90 60 91 68 92 61 93 67 94 69 95 66 96 62 97 63 98
REMARK SMILES IDX 64 99 65 100
REMARK H PARENT 5 9 10 15 14 20 89 53 57 64
REMARK Flexibility Score: inf
ROOT
ATOM      1  C   UNL A   1      36.639  22.769  24.783  1.00  0.00     0.329 C 
ATOM      2  O   UNL A   1      37.232  23.082  23.762  1.00  0.00    -0.250 OA
ENDROOT
BRANCH   1   3
ATOM      3  C   UNL A   1      35.074  22.846  24.989  1.00  0.00     0.194 C 
BRANCH   3   4
ATOM      4  C   UNL A   1      34.289  21.526  25.144  1.00  0.00     0.017 C 
ATOM      5  C   UNL A   1      33.696  21.446  26.572  1.00  0.00     0.010 C 
ATOM      6  C   UNL A   1      33.129  21.373  24.156  1.00  0.00     0.010 C 
ENDBRANCH   3   4
BRANCH   3   7
ATOM      7  N   UNL A   1      34.487  23.798  24.047  1.00  0.00    -0.341 N 
ATOM      8  C   UNL A   1      33.909  25.000  24.324  1.00  0.00     0.242 C 
ATOM      9  H   UNL A   1      34.513  23.540  23.098  1.00  0.00     0.164 HD
ATOM     10  O   UNL A   1      33.446  25.637  23.378  1.00  0.00    -0.273 OA
BRANCH   8  11
ATOM     11  C   UNL A   1      33.651  25.353  25.798  1.00  0.00     0.168 C 
ATOM     12  C   UNL A   1      32.240  24.785  26.148  1.00  0.00     0.041 C 
BRANCH  11  13
ATOM     13  N   UNL A   1      34.133  26.925  26.139  1.00  0.00    -0.343 N 
ATOM     14  C   UNL A   1      33.687  28.345  26.395  1.00  0.00     0.240 C 
ATOM     15  H   UNL A   1      35.116  26.918  26.197  1.00  0.00     0.164 HD
ATOM     16  O   UNL A   1      34.459  29.070  27.037  1.00  0.00    -0.273 OA
BRANCH  14  17
ATOM     17  C   UNL A   1      32.171  29.145  25.566  1.00  0.00     0.219 C 
BRANCH  17  18
ATOM     18  N   UNL A   1      31.615  28.701  23.598  1.00  0.00    -0.312 N 
ATOM     19  C   UNL A   1      30.403  28.166  22.788  1.00  0.00     0.407 C 
ATOM     20  H   UNL A   1      32.364  28.894  22.988  1.00  0.00     0.167 HD
ATOM     21  O   UNL A   1      30.586  27.768  21.646  1.00  0.00    -0.225 OA
BRANCH  19  22
ATOM     22  O   UNL A   1      29.198  28.048  23.440  1.00  0.00    -0.445 OA
BRANCH  22  23
ATOM     23  C   UNL A   1      27.891  28.541  23.082  1.00  0.00     0.270 C 
BRANCH  23  24
ATOM     24  C   UNL A   1      27.969  29.979  22.615  1.00  0.00    -0.011 A 
ATOM     25  C   UNL A   1      28.015  30.315  21.250  1.00  0.00     0.007 A 
ATOM     26  C   UNL A   1      28.089  31.012  23.553  1.00  0.00     0.007 A 
ATOM     27  C   UNL A   1      28.233  31.641  20.850  1.00  0.00     0.000 A 
ATOM     28  C   UNL A   1      28.297  32.331  23.156  1.00  0.00     0.000 A 
ATOM     29  C   UNL A   1      28.391  32.644  21.804  1.00  0.00     0.000 A 
ENDBRANCH  23  24
ENDBRANCH  22  23
ENDBRANCH  19  22
ENDBRANCH  17  18
ENDBRANCH  14  17
ENDBRANCH  11  13
ENDBRANCH   8  11
ENDBRANCH   3   7
ENDBRANCH   1   3
BRANCH   1  30
ATOM     30  O   UNL A   1      37.215  22.058  25.838  1.00  0.00    -0.461 OA
BRANCH  30  31
ATOM     31  C   UNL A   1      38.666  22.089  26.049  1.00  0.00     0.274 C 
BRANCH  31  32
ATOM     32  C   UNL A   1      39.330  20.676  25.780  1.00  0.00     0.275 C 
BRANCH  32  33
ATOM     33  O   UNL A   1      40.113  20.164  26.912  1.00  0.00    -0.458 OA
BRANCH  33  34
ATOM     34  C   UNL A   1      41.495  20.157  26.898  1.00  0.00     0.338 C 
ATOM     35  O   UNL A   1      42.159  19.158  27.106  1.00  0.00    -0.246 OA
BRANCH  34  36
ATOM     36  C   UNL A   1      42.090  21.631  26.754  1.00  0.00     0.060 A 
ATOM     37  C   UNL A   1      42.403  22.786  25.268  1.00  0.00     0.016 A 
ATOM     38  C   UNL A   1      41.667  22.357  28.317  1.00  0.00     0.016 A 
ATOM     39  C   UNL A   1      42.183  24.600  25.481  1.00  0.00     0.010 A 
ATOM     40  C   UNL A   1      41.547  24.099  28.464  1.00  0.00     0.010 A 
ATOM     41  C   UNL A   1      41.867  25.192  27.128  1.00  0.00    -0.014 A 
BRANCH  41  42
ATOM     42  C   UNL A   1      42.410  26.517  27.484  1.00  0.00     0.031 A 
ATOM     43  C   UNL A   1      41.513  27.591  28.080  1.00  0.00     0.074 A 
ATOM     44  C   UNL A   1      43.730  26.664  27.346  1.00  0.00     0.049 A 
ATOM     45  N   UNL A   1      41.844  28.705  28.683  1.00  0.00    -0.248 NA
ATOM     46  C   UNL A   1      40.060  27.376  28.083  1.00  0.00     0.031 C 
ATOM     47  C   UNL A   1      44.646  25.643  26.832  1.00  0.00     0.029 A 
ATOM     48  N   UNL A   1      44.516  27.747  27.580  1.00  0.00    -0.354 N 
ATOM     49  C   UNL A   1      40.655  29.235  29.199  1.00  0.00     0.074 A 
ATOM     50  C   UNL A   1      39.601  28.323  28.879  1.00  0.00     0.031 C 
ATOM     51  C   UNL A   1      45.871  26.178  26.730  1.00  0.00     0.029 A 
ATOM     52  C   UNL A   1      45.796  27.577  27.128  1.00  0.00     0.049 A 
ATOM     53  H   UNL A   1      44.198  28.566  28.025  1.00  0.00     0.167 HD
ATOM     54  C   UNL A   1      40.435  30.423  29.807  1.00  0.00     0.034 A 
ATOM     55  C   UNL A   1      46.768  28.491  26.997  1.00  0.00     0.034 A 
ATOM     56  C   UNL A   1      41.462  31.426  29.842  1.00  0.00     0.049 A 
ATOM     57  C   UNL A   1      46.471  29.877  27.498  1.00  0.00     0.074 A 
ATOM     58  C   UNL A   1      41.397  32.726  30.298  1.00  0.00     0.029 A 
ATOM     59  N   UNL A   1      42.730  31.242  29.301  1.00  0.00    -0.354 N 
ATOM     60  N   UNL A   1      45.357  30.341  28.025  1.00  0.00    -0.248 NA
ATOM     61  C   UNL A   1      47.558  30.848  27.415  1.00  0.00     0.031 C 
ATOM     62  C   UNL A   1      42.595  33.355  29.941  1.00  0.00     0.029 A 
ATOM     63  C   UNL A   1      43.447  32.417  29.370  1.00  0.00     0.049 A 
ATOM     64  H   UNL A   1      43.067  30.397  28.926  1.00  0.00     0.167 HD
ATOM     65  C   UNL A   1      45.622  31.659  28.372  1.00  0.00     0.074 A 
ATOM     66  C   UNL A   1      47.008  31.899  28.003  1.00  0.00     0.031 C 
ATOM     67  C   UNL A   1      44.816  32.590  28.948  1.00  0.00     0.034 A 
BRANCH  54  68
ATOM     68  C   UNL A   1      39.029  30.738  30.284  1.00  0.00     0.023 A 
ATOM     69  C   UNL A   1      38.095  31.415  29.471  1.00  0.00     0.031 A 
ATOM     70  C   UNL A   1      38.627  30.400  31.590  1.00  0.00     0.131 A 
ATOM     71  C   UNL A   1      36.825  31.748  29.980  1.00  0.00     0.055 A 
ATOM     72  C   UNL A   1      37.344  30.679  32.069  1.00  0.00     0.041 A 
ATOM     73  F   UNL A   1      39.484  29.810  32.437  1.00  0.00    -0.206 F 
ATOM     74  C   UNL A   1      36.435  31.360  31.265  1.00  0.00     0.022 A 
BRANCH  71  75
ATOM     75  S   UNL A   1      35.709  32.785  28.988  1.00  0.00     0.124 S 
ATOM     76  O   UNL A   1      34.441  32.622  29.692  1.00  0.00    -0.237 OA
ATOM     77  O   UNL A   1      36.332  34.101  29.082  1.00  0.00    -0.237 OA
ATOM     78  O   UNL A   1      35.757  32.171  27.661  1.00  0.00    -0.744 OA
ENDBRANCH  71  75
ENDBRANCH  54  68
BRANCH  55  79
ATOM     79  C   UNL A   1      48.052  28.106  26.361  1.00  0.00     0.023 A 
ATOM     80  C   UNL A   1      48.144  27.953  24.974  1.00  0.00     0.031 A 
ATOM     81  C   UNL A   1      49.221  27.930  27.127  1.00  0.00     0.131 A 
ATOM     82  C   UNL A   1      49.369  27.601  24.393  1.00  0.00     0.055 A 
ATOM     83  C   UNL A   1      50.452  27.640  26.538  1.00  0.00     0.041 A 
ATOM     84  F   UNL A   1      49.190  28.079  28.462  1.00  0.00    -0.206 F 
ATOM     85  C   UNL A   1      50.528  27.463  25.160  1.00  0.00     0.022 A 
BRANCH  82  86
ATOM     86  S   UNL A   1      49.399  27.242  22.619  1.00  0.00     0.124 S 
ATOM     87  O   UNL A   1      50.756  26.738  22.441  1.00  0.00    -0.237 OA
ATOM     88  O   UNL A   1      48.328  26.258  22.493  1.00  0.00    -0.237 OA
ATOM     89  O   UNL A   1      49.129  28.540  22.005  1.00  0.00    -0.744 OA
ENDBRANCH  82  86
ENDBRANCH  55  79
BRANCH  67  90
ATOM     90  C   UNL A   1      45.444  33.924  29.227  1.00  0.00     0.023 A 
ATOM     91  C   UNL A   1      45.493  34.924  28.247  1.00  0.00     0.031 A 
ATOM     92  C   UNL A   1      46.011  34.184  30.486  1.00  0.00     0.131 A 
ATOM     93  C   UNL A   1      46.183  36.110  28.511  1.00  0.00     0.055 A 
ATOM     94  C   UNL A   1      46.612  35.404  30.774  1.00  0.00     0.041 A 
ATOM     95  F   UNL A   1      45.986  33.253  31.455  1.00  0.00    -0.206 F 
ATOM     96  C   UNL A   1      46.720  36.369  29.775  1.00  0.00     0.022 A 
BRANCH  93  97
ATOM     97  S   UNL A   1      46.497  37.237  27.130  1.00  0.00     0.124 S 
ATOM     98  O   UNL A   1      46.212  36.385  25.979  1.00  0.00    -0.237 OA
ATOM     99  O   UNL A   1      45.541  38.311  27.380  1.00  0.00    -0.237 OA
ATOM    100  O   UNL A   1      47.901  37.601  27.301  1.00  0.00    -0.744 OA
ENDBRANCH  93  97
ENDBRANCH  67  90
ENDBRANCH  41  42
ENDBRANCH  34  36
ENDBRANCH  33  34
ENDBRANCH  32  33
ENDBRANCH  31  32
ENDBRANCH  30  31
ENDBRANCH   1  30
TORSDOF 23
ENDMDL
MODEL 3
REMARK VINA RESULT:     -11.3      5.821     11.357
REMARK SMILES CC(C)[C@H](NC(=O)[C@H](C)NC(=O)CNC(=O)OCc1ccccc1)C(=O)OCCOC(=O)c1ccc(-c2c3nc(c(-c4cc(S(=O)(=O)[O-])ccc4F)c4ccc([nH]4)c(-c4cc(S(=O)(=O)[O-])ccc4F)c4nc(c(-c5cc(S(=O)(=O)[O-])ccc5F)c5ccc2[nH]5)C=C4)C=C3)cc1
REMARK SMILES IDX 25 1 26 2 4 3 2 4 1 5 3 6 5 7 6 8 7 10 8 11 9 12 10 13 11 14
REMARK SMILES IDX 12 16 13 17 14 18 15 19 16 21 17 22 18 23 19 24 20 25 24 26
REMARK SMILES IDX 21 27 23 28 22 29 27 30 28 31 29 32 30 33 31 34 32 35 33 36
REMARK SMILES IDX 34 37 95 38 35 39 94 40 36 41 37 42 38 43 88 44 39 45 93 46
REMARK SMILES IDX 87 47 89 48 40 49 92 50 86 51 85 52 41 54 73 55 53 56 72 57
REMARK SMILES IDX 54 58 57 59 71 60 90 61 55 62 56 63 70 65 91 66 58 67 42 68
REMARK SMILES IDX 43 69 51 70 44 71 50 72 52 73 49 74 45 75 46 76 47 77 48 78
REMARK SMILES IDX 74 79 75 80 83 81 76 82 82 83 84 84 81 85 77 86 78 87 79 88
REMARK SMILES IDX 80 89 59 90 60 91 68 92 61 93 67 94 69 95 66 96 62 97 63 98
REMARK SMILES IDX 64 99 65 100
REMARK H PARENT 5 9 10 15 14 20 89 53 57 64
REMARK Flexibility Score: inf
ROOT
ATOM      1  C   UNL A   1      36.051  21.314  24.653  1.00  0.00     0.329 C 
ATOM      2  O   UNL A   1      35.504  20.410  25.265  1.00  0.00    -0.250 OA
ENDROOT
BRANCH   1   3
ATOM      3  C   UNL A   1      35.424  22.737  24.373  1.00  0.00     0.194 C 
BRANCH   3   4
ATOM      4  C   UNL A   1      35.131  23.659  25.576  1.00  0.00     0.017 C 
ATOM      5  C   UNL A   1      36.433  23.871  26.388  1.00  0.00     0.010 C 
ATOM      6  C   UNL A   1      34.602  25.042  25.186  1.00  0.00     0.010 C 
ENDBRANCH   3   4
BRANCH   3   7
ATOM      7  N   UNL A   1      34.329  22.626  23.409  1.00  0.00    -0.341 N 
ATOM      8  C   UNL A   1      33.020  22.348  23.660  1.00  0.00     0.242 C 
ATOM      9  H   UNL A   1      34.568  22.770  22.465  1.00  0.00     0.164 HD
ATOM     10  O   UNL A   1      32.263  22.270  22.693  1.00  0.00    -0.273 OA
BRANCH   8  11
ATOM     11  C   UNL A   1      32.637  21.907  25.082  1.00  0.00     0.168 C 
ATOM     12  C   UNL A   1      32.223  20.406  24.982  1.00  0.00     0.041 C 
BRANCH  11  13
ATOM     13  N   UNL A   1      31.712  23.079  25.852  1.00  0.00    -0.343 N 
ATOM     14  C   UNL A   1      30.655  24.145  25.694  1.00  0.00     0.240 C 
ATOM     15  H   UNL A   1      31.965  23.063  26.804  1.00  0.00     0.164 HD
ATOM     16  O   UNL A   1      30.002  24.444  26.703  1.00  0.00    -0.273 OA
BRANCH  14  17
ATOM     17  C   UNL A   1      30.466  25.228  24.140  1.00  0.00     0.219 C 
BRANCH  17  18
ATOM     18  N   UNL A   1      32.052  25.560  22.815  1.00  0.00    -0.312 N 
ATOM     19  C   UNL A   1      32.900  26.722  22.230  1.00  0.00     0.407 C 
ATOM     20  H   UNL A   1      32.360  24.702  22.443  1.00  0.00     0.167 HD
ATOM     21  O   UNL A   1      33.570  26.516  21.228  1.00  0.00    -0.225 OA
BRANCH  19  22
ATOM     22  O   UNL A   1      32.759  27.967  22.796  1.00  0.00    -0.445 OA
BRANCH  22  23
ATOM     23  C   UNL A   1      31.833  28.439  23.796  1.00  0.00     0.270 C 
BRANCH  23  24
ATOM     24  C   UNL A   1      32.574  29.041  24.972  1.00  0.00    -0.011 A 
ATOM     25  C   UNL A   1      33.779  28.493  25.449  1.00  0.00     0.007 A 
ATOM     26  C   UNL A   1      32.017  30.117  25.672  1.00  0.00     0.007 A 
ATOM     27  C   UNL A   1      34.366  28.980  26.626  1.00  0.00     0.000 A 
ATOM     28  C   UNL A   1      32.604  30.607  26.836  1.00  0.00     0.000 A 
ATOM     29  C   UNL A   1      33.768  30.025  27.327  1.00  0.00     0.000 A 
ENDBRANCH  23  24
ENDBRANCH  22  23
ENDBRANCH  19  22
ENDBRANCH  17  18
ENDBRANCH  14  17
ENDBRANCH  11  13
ENDBRANCH   8  11
ENDBRANCH   3   7
ENDBRANCH   1   3
BRANCH   1  30
ATOM     30  O   UNL A   1      37.407  21.327  24.321  1.00  0.00    -0.461 OA
BRANCH  30  31
ATOM     31  C   UNL A   1      38.426  21.091  25.350  1.00  0.00     0.274 C 
BRANCH  31  32
ATOM     32  C   UNL A   1      38.983  19.609  25.296  1.00  0.00     0.275 C 
BRANCH  32  33
ATOM     33  O   UNL A   1      40.073  19.351  26.247  1.00  0.00    -0.458 OA
BRANCH  33  34
ATOM     34  C   UNL A   1      41.377  19.722  25.978  1.00  0.00     0.338 C 
ATOM     35  O   UNL A   1      42.160  19.014  25.372  1.00  0.00    -0.246 OA
BRANCH  34  36
ATOM     36  C   UNL A   1      41.762  21.089  26.706  1.00  0.00     0.060 A 
ATOM     37  C   UNL A   1      42.101  21.567  28.522  1.00  0.00     0.016 A 
ATOM     38  C   UNL A   1      42.631  21.959  25.426  1.00  0.00     0.016 A 
ATOM     39  C   UNL A   1      43.364  22.852  28.890  1.00  0.00     0.010 A 
ATOM     40  C   UNL A   1      43.767  23.224  25.848  1.00  0.00     0.010 A 
ATOM     41  C   UNL A   1      44.073  23.715  27.506  1.00  0.00    -0.014 A 
BRANCH  41  42
ATOM     42  C   UNL A   1      44.443  25.128  27.711  1.00  0.00     0.031 A 
ATOM     43  C   UNL A   1      43.381  26.175  28.014  1.00  0.00     0.074 A 
ATOM     44  C   UNL A   1      45.751  25.395  27.715  1.00  0.00     0.049 A 
ATOM     45  N   UNL A   1      43.526  27.394  28.468  1.00  0.00    -0.248 NA
ATOM     46  C   UNL A   1      41.966  25.806  27.871  1.00  0.00     0.031 C 
ATOM     47  C   UNL A   1      46.816  24.416  27.487  1.00  0.00     0.029 A 
ATOM     48  N   UNL A   1      46.399  26.580  27.869  1.00  0.00    -0.354 N 
ATOM     49  C   UNL A   1      42.235  27.862  28.743  1.00  0.00     0.074 A 
ATOM     50  C   UNL A   1      41.320  26.804  28.444  1.00  0.00     0.031 C 
ATOM     51  C   UNL A   1      47.991  25.059  27.453  1.00  0.00     0.029 A 
ATOM     52  C   UNL A   1      47.739  26.485  27.611  1.00  0.00     0.049 A 
ATOM     53  H   UNL A   1      45.952  27.415  28.136  1.00  0.00     0.167 HD
ATOM     54  C   UNL A   1      41.829  29.095  29.122  1.00  0.00     0.034 A 
ATOM     55  C   UNL A   1      48.635  27.470  27.458  1.00  0.00     0.034 A 
ATOM     56  C   UNL A   1      42.749  30.197  29.124  1.00  0.00     0.049 A 
ATOM     57  C   UNL A   1      48.151  28.873  27.692  1.00  0.00     0.074 A 
ATOM     58  C   UNL A   1      42.508  31.535  29.356  1.00  0.00     0.029 A 
ATOM     59  N   UNL A   1      44.092  30.075  28.780  1.00  0.00    -0.354 N 
ATOM     60  N   UNL A   1      46.939  29.286  27.997  1.00  0.00    -0.248 NA
ATOM     61  C   UNL A   1      49.150  29.934  27.590  1.00  0.00     0.031 C 
ATOM     62  C   UNL A   1      43.684  32.232  29.054  1.00  0.00     0.029 A 
ATOM     63  C   UNL A   1      44.685  31.318  28.749  1.00  0.00     0.049 A 
ATOM     64  H   UNL A   1      44.550  29.226  28.588  1.00  0.00     0.167 HD
ATOM     65  C   UNL A   1      47.036  30.662  28.160  1.00  0.00     0.074 A 
ATOM     66  C   UNL A   1      48.433  30.994  27.931  1.00  0.00     0.031 C 
ATOM     67  C   UNL A   1      46.080  31.575  28.477  1.00  0.00     0.034 A 
BRANCH  54  68
ATOM     68  C   UNL A   1      40.349  29.322  29.366  1.00  0.00     0.023 A 
ATOM     69  C   UNL A   1      39.799  29.352  30.665  1.00  0.00     0.031 A 
ATOM     70  C   UNL A   1      39.461  29.463  28.283  1.00  0.00     0.131 A 
ATOM     71  C   UNL A   1      38.409  29.497  30.842  1.00  0.00     0.055 A 
ATOM     72  C   UNL A   1      38.090  29.667  28.467  1.00  0.00     0.041 A 
ATOM     73  F   UNL A   1      39.906  29.383  27.020  1.00  0.00    -0.206 F 
ATOM     74  C   UNL A   1      37.556  29.681  29.751  1.00  0.00     0.022 A 
BRANCH  71  75
ATOM     75  S   UNL A   1      37.699  29.342  32.509  1.00  0.00     0.124 S 
ATOM     76  O   UNL A   1      36.351  29.865  32.312  1.00  0.00    -0.237 OA
ATOM     77  O   UNL A   1      37.803  27.909  32.766  1.00  0.00    -0.237 OA
ATOM     78  O   UNL A   1      38.568  30.182  33.332  1.00  0.00    -0.744 OA
ENDBRANCH  71  75
ENDBRANCH  54  68
BRANCH  55  79
ATOM     79  C   UNL A   1      50.024  27.138  27.054  1.00  0.00     0.023 A 
ATOM     80  C   UNL A   1      51.052  27.094  28.001  1.00  0.00     0.031 A 
ATOM     81  C   UNL A   1      50.337  26.811  25.720  1.00  0.00     0.131 A 
ATOM     82  C   UNL A   1      52.353  26.765  27.601  1.00  0.00     0.055 A 
ATOM     83  C   UNL A   1      51.622  26.424  25.337  1.00  0.00     0.041 A 
ATOM     84  F   UNL A   1      49.384  26.825  24.773  1.00  0.00    -0.206 F 
ATOM     85  C   UNL A   1      52.643  26.411  26.281  1.00  0.00     0.022 A 
BRANCH  82  86
ATOM     86  S   UNL A   1      53.680  26.894  28.826  1.00  0.00     0.124 S 
ATOM     87  O   UNL A   1      54.812  26.332  28.098  1.00  0.00    -0.237 OA
ATOM     88  O   UNL A   1      53.724  28.332  29.071  1.00  0.00    -0.237 OA
ATOM     89  O   UNL A   1      53.191  26.086  29.941  1.00  0.00    -0.744 OA
ENDBRANCH  82  86
ENDBRANCH  55  79
BRANCH  67  90
ATOM     90  C   UNL A   1      46.543  32.995  28.616  1.00  0.00     0.023 A 
ATOM     91  C   UNL A   1      46.689  33.824  27.497  1.00  0.00     0.031 A 
ATOM     92  C   UNL A   1      46.854  33.511  29.885  1.00  0.00     0.131 A 
ATOM     93  C   UNL A   1      47.228  35.104  27.657  1.00  0.00     0.055 A 
ATOM     94  C   UNL A   1      47.299  34.819  30.048  1.00  0.00     0.041 A 
ATOM     95  F   UNL A   1      46.728  32.750  30.985  1.00  0.00    -0.206 F 
ATOM     96  C   UNL A   1      47.509  35.618  28.926  1.00  0.00     0.022 A 
BRANCH  93  97
ATOM     97  S   UNL A   1      47.696  36.023  26.169  1.00  0.00     0.124 S 
ATOM     98  O   UNL A   1      48.873  36.755  26.629  1.00  0.00    -0.237 OA
ATOM     99  O   UNL A   1      47.947  34.953  25.208  1.00  0.00    -0.237 OA
ATOM    100  O   UNL A   1      46.521  36.845  25.893  1.00  0.00    -0.744 OA
ENDBRANCH  93  97
ENDBRANCH  67  90
ENDBRANCH  41  42
ENDBRANCH  34  36
ENDBRANCH  33  34
ENDBRANCH  32  33
ENDBRANCH  31  32
ENDBRANCH  30  31
ENDBRANCH   1  30
TORSDOF 23
ENDMDL
