MODEL 1
REMARK VINA RESULT:     -11.6      0.000      0.000
REMARK SMILES O=C(OCCOC(=O)c1cn(C2CN(C(=O)Nc3ccsc3)C2)nn1)c1ccc(-c2c3nc(c(-c4cc(S(=O)(=O)[O-])ccc4F)c4ccc([nH]4)c(-c4cc(S(=O)(=O)[O-])ccc4F)c4nc(c(-c5cc(S(=O)(=O)[O-])ccc5F)c5ccc2[nH]5)C=C4)C=C3)cc1
REMARK SMILES IDX 4 1 3 2 2 3 1 4 26 5 27 6 88 7 28 8 87 9 29 10 30 11 31 12
REMARK SMILES IDX 81 13 32 14 86 15 80 16 82 17 33 18 85 19 79 20 78 21 34 23
REMARK SMILES IDX 66 24 46 25 65 26 47 27 50 28 64 29 83 30 48 31 49 32 63 34
REMARK SMILES IDX 84 35 51 36 35 37 36 38 44 39 37 40 43 41 45 42 42 43 38 44
REMARK SMILES IDX 39 45 40 46 41 47 67 48 68 49 76 50 69 51 75 52 77 53 74 54
REMARK SMILES IDX 70 55 71 56 72 57 73 58 52 59 53 60 61 61 54 62 60 63 62 64
REMARK SMILES IDX 59 65 55 66 56 67 57 68 58 69 5 70 6 71 7 72 8 73 9 74 10 75
REMARK SMILES IDX 25 76 11 77 24 78 12 79 13 80 23 81 14 82 15 83 16 84 17 85
REMARK SMILES IDX 18 87 19 88 22 89 20 90 21 91
REMARK H PARENT 82 22 50 33 17 86
REMARK Flexibility Score: inf
ROOT
ATOM      1  C   UNL A   1      35.730  33.859  28.048  1.00  0.00     0.275 C 
ENDROOT
BRANCH   1   2
ATOM      2  O   UNL A   1      35.654  32.681  28.876  1.00  0.00    -0.458 OA
BRANCH   2   3
ATOM      3  C   UNL A   1      35.608  31.456  28.303  1.00  0.00     0.338 C 
ATOM      4  O   UNL A   1      34.780  31.130  27.468  1.00  0.00    -0.246 OA
BRANCH   3   5
ATOM      5  C   UNL A   1      36.819  30.662  28.614  1.00  0.00     0.060 A 
ATOM      6  C   UNL A   1      38.030  31.270  28.961  1.00  0.00     0.016 A 
ATOM      7  C   UNL A   1      36.728  29.266  28.546  1.00  0.00     0.016 A 
ATOM      8  C   UNL A   1      39.163  30.495  29.151  1.00  0.00     0.010 A 
ATOM      9  C   UNL A   1      37.865  28.488  28.735  1.00  0.00     0.010 A 
ATOM     10  C   UNL A   1      39.087  29.107  29.005  1.00  0.00    -0.014 A 
BRANCH  10  11
ATOM     11  C   UNL A   1      40.277  28.324  29.329  1.00  0.00     0.031 A 
ATOM     12  C   UNL A   1      40.609  28.307  30.779  1.00  0.00     0.074 A 
ATOM     13  C   UNL A   1      40.945  27.560  28.440  1.00  0.00     0.049 A 
ATOM     14  N   UNL A   1      41.665  28.773  31.362  1.00  0.00    -0.248 NA
ATOM     15  C   UNL A   1      39.572  27.844  31.716  1.00  0.00     0.031 C 
ATOM     16  C   UNL A   1      40.568  27.286  27.054  1.00  0.00     0.029 A 
ATOM     17  N   UNL A   1      42.046  26.772  28.622  1.00  0.00    -0.354 N 
ATOM     18  C   UNL A   1      41.542  28.427  32.705  1.00  0.00     0.074 A 
ATOM     19  C   UNL A   1      40.167  28.054  32.890  1.00  0.00     0.031 C 
ATOM     20  C   UNL A   1      41.282  26.232  26.599  1.00  0.00     0.029 A 
ATOM     21  C   UNL A   1      42.245  25.831  27.612  1.00  0.00     0.049 A 
ATOM     22  H   UNL A   1      42.646  26.861  29.398  1.00  0.00     0.167 HD
ATOM     23  C   UNL A   1      42.643  28.220  33.482  1.00  0.00     0.034 A 
ATOM     24  C   UNL A   1      43.087  24.759  27.627  1.00  0.00     0.034 A 
ATOM     25  C   UNL A   1      43.809  28.863  32.908  1.00  0.00     0.049 A 
ATOM     26  C   UNL A   1      44.134  25.038  28.640  1.00  0.00     0.074 A 
ATOM     27  C   UNL A   1      44.097  30.154  32.504  1.00  0.00     0.029 A 
ATOM     28  N   UNL A   1      44.779  28.078  32.324  1.00  0.00    -0.354 N 
ATOM     29  N   UNL A   1      45.021  25.986  28.509  1.00  0.00    -0.248 NA
ATOM     30  C   UNL A   1      43.913  24.583  30.003  1.00  0.00     0.031 C 
ATOM     31  C   UNL A   1      44.861  30.001  31.308  1.00  0.00     0.029 A 
ATOM     32  C   UNL A   1      45.075  28.637  31.106  1.00  0.00     0.049 A 
ATOM     33  H   UNL A   1      45.185  27.267  32.709  1.00  0.00     0.167 HD
ATOM     34  C   UNL A   1      45.127  26.549  29.772  1.00  0.00     0.074 A 
ATOM     35  C   UNL A   1      44.508  25.576  30.670  1.00  0.00     0.031 C 
ATOM     36  C   UNL A   1      45.445  27.868  29.934  1.00  0.00     0.034 A 
BRANCH  23  37
ATOM     37  C   UNL A   1      42.756  27.105  34.509  1.00  0.00     0.023 A 
ATOM     38  C   UNL A   1      43.567  26.007  34.162  1.00  0.00     0.031 A 
ATOM     39  C   UNL A   1      41.899  26.899  35.615  1.00  0.00     0.131 A 
ATOM     40  C   UNL A   1      43.380  24.752  34.765  1.00  0.00     0.055 A 
ATOM     41  C   UNL A   1      41.772  25.666  36.262  1.00  0.00     0.041 A 
ATOM     42  F   UNL A   1      41.078  27.839  36.091  1.00  0.00    -0.206 F 
ATOM     43  C   UNL A   1      42.481  24.568  35.808  1.00  0.00     0.022 A 
BRANCH  40  44
ATOM     44  S   UNL A   1      44.180  23.319  33.999  1.00  0.00     0.124 S 
ATOM     45  O   UNL A   1      45.450  23.900  33.574  1.00  0.00    -0.237 OA
ATOM     46  O   UNL A   1      44.241  22.380  35.114  1.00  0.00    -0.237 OA
ATOM     47  O   UNL A   1      43.263  22.954  32.923  1.00  0.00    -0.744 OA
ENDBRANCH  40  44
ENDBRANCH  23  37
BRANCH  24  48
ATOM     48  C   UNL A   1      42.860  23.409  27.033  1.00  0.00     0.023 A 
ATOM     49  C   UNL A   1      43.777  22.784  26.156  1.00  0.00     0.031 A 
ATOM     50  C   UNL A   1      41.812  22.599  27.526  1.00  0.00     0.131 A 
ATOM     51  C   UNL A   1      43.618  21.419  25.810  1.00  0.00     0.055 A 
ATOM     52  C   UNL A   1      41.656  21.255  27.176  1.00  0.00     0.041 A 
ATOM     53  F   UNL A   1      40.946  23.059  28.442  1.00  0.00    -0.206 F 
ATOM     54  C   UNL A   1      42.566  20.656  26.322  1.00  0.00     0.022 A 
BRANCH  51  55
ATOM     55  S   UNL A   1      44.844  20.570  24.755  1.00  0.00     0.124 S 
ATOM     56  O   UNL A   1      44.391  19.185  24.804  1.00  0.00    -0.237 OA
ATOM     57  O   UNL A   1      44.693  21.259  23.479  1.00  0.00    -0.237 OA
ATOM     58  O   UNL A   1      46.114  20.823  25.437  1.00  0.00    -0.744 OA
ENDBRANCH  51  55
ENDBRANCH  24  48
BRANCH  36  59
ATOM     59  C   UNL A   1      46.013  28.634  28.756  1.00  0.00     0.023 A 
ATOM     60  C   UNL A   1      47.378  28.669  28.389  1.00  0.00     0.031 A 
ATOM     61  C   UNL A   1      45.096  29.274  27.903  1.00  0.00     0.131 A 
ATOM     62  C   UNL A   1      47.777  29.344  27.218  1.00  0.00     0.055 A 
ATOM     63  C   UNL A   1      45.492  29.922  26.734  1.00  0.00     0.041 A 
ATOM     64  F   UNL A   1      43.780  29.254  28.176  1.00  0.00    -0.206 F 
ATOM     65  C   UNL A   1      46.837  29.967  26.391  1.00  0.00     0.022 A 
BRANCH  62  66
ATOM     66  S   UNL A   1      49.536  29.449  26.753  1.00  0.00     0.124 S 
ATOM     67  O   UNL A   1      49.769  30.880  26.601  1.00  0.00    -0.237 OA
ATOM     68  O   UNL A   1      50.199  28.808  27.887  1.00  0.00    -0.237 OA
ATOM     69  O   UNL A   1      49.602  28.686  25.505  1.00  0.00    -0.744 OA
ENDBRANCH  62  66
ENDBRANCH  36  59
ENDBRANCH  10  11
ENDBRANCH   3   5
ENDBRANCH   2   3
ENDBRANCH   1   2
BRANCH   1  70
ATOM     70  C   UNL A   1      34.426  34.607  27.778  1.00  0.00     0.275 C 
BRANCH  70  71
ATOM     71  O   UNL A   1      33.540  34.417  28.888  1.00  0.00    -0.457 OA
BRANCH  71  72
ATOM     72  C   UNL A   1      32.983  35.544  29.414  1.00  0.00     0.360 C 
ATOM     73  O   UNL A   1      32.226  36.307  28.824  1.00  0.00    -0.244 OA
BRANCH  72  74
ATOM     74  C   UNL A   1      33.438  35.743  30.768  1.00  0.00     0.190 A 
ATOM     75  C   UNL A   1      34.281  34.927  31.494  1.00  0.00     0.147 A 
ATOM     76  N   UNL A   1      33.042  36.794  31.551  1.00  0.00    -0.123 NA
ATOM     77  N   UNL A   1      34.387  35.562  32.697  1.00  0.00    -0.245 N 
ATOM     78  N   UNL A   1      33.602  36.653  32.742  1.00  0.00    -0.066 NA
BRANCH  77  79
ATOM     79  C   UNL A   1      35.372  35.356  33.708  1.00  0.00     0.148 C 
ATOM     80  C   UNL A   1      35.202  34.222  34.723  1.00  0.00     0.150 C 
ATOM     81  C   UNL A   1      36.511  34.500  33.106  1.00  0.00     0.150 C 
ATOM     82  N   UNL A   1      36.603  33.900  34.418  1.00  0.00    -0.320 N 
ATOM     83  C   UNL A   1      37.384  32.970  35.018  1.00  0.00     0.322 C 
ATOM     84  O   UNL A   1      37.012  32.400  36.048  1.00  0.00    -0.248 OA
ATOM     85  N   UNL A   1      38.526  32.527  34.429  1.00  0.00    -0.307 N 
ATOM     86  H   UNL A   1      38.848  31.664  34.776  1.00  0.00     0.171 HD
BRANCH  85  87
ATOM     87  C   UNL A   1      39.321  33.066  33.433  1.00  0.00     0.053 A 
ATOM     88  C   UNL A   1      39.372  32.709  32.055  1.00  0.00     0.038 A 
ATOM     89  C   UNL A   1      40.147  34.140  33.689  1.00  0.00     0.091 A 
ATOM     90  C   UNL A   1      40.377  33.364  31.376  1.00  0.00     0.067 A 
ATOM     91  S   UNL A   1      41.146  34.534  32.355  1.00  0.00    -0.150 S 
ENDBRANCH  85  87
ENDBRANCH  77  79
ENDBRANCH  72  74
ENDBRANCH  71  72
ENDBRANCH  70  71
ENDBRANCH   1  70
TORSDOF 16
ENDMDL
MODEL 2
REMARK VINA RESULT:     -11.6      5.048     11.428
REMARK SMILES O=C(OCCOC(=O)c1cn(C2CN(C(=O)Nc3ccsc3)C2)nn1)c1ccc(-c2c3nc(c(-c4cc(S(=O)(=O)[O-])ccc4F)c4ccc([nH]4)c(-c4cc(S(=O)(=O)[O-])ccc4F)c4nc(c(-c5cc(S(=O)(=O)[O-])ccc5F)c5ccc2[nH]5)C=C4)C=C3)cc1
REMARK SMILES IDX 4 1 3 2 2 3 1 4 26 5 27 6 88 7 28 8 87 9 29 10 30 11 31 12
REMARK SMILES IDX 81 13 32 14 86 15 80 16 82 17 33 18 85 19 79 20 78 21 34 23
REMARK SMILES IDX 66 24 46 25 65 26 47 27 50 28 64 29 83 30 48 31 49 32 63 34
REMARK SMILES IDX 84 35 51 36 35 37 36 38 44 39 37 40 43 41 45 42 42 43 38 44
REMARK SMILES IDX 39 45 40 46 41 47 67 48 68 49 76 50 69 51 75 52 77 53 74 54
REMARK SMILES IDX 70 55 71 56 72 57 73 58 52 59 53 60 61 61 54 62 60 63 62 64
REMARK SMILES IDX 59 65 55 66 56 67 57 68 58 69 5 70 6 71 7 72 8 73 9 74 10 75
REMARK SMILES IDX 25 76 11 77 24 78 12 79 13 80 23 81 14 82 15 83 16 84 17 85
REMARK SMILES IDX 18 87 19 88 22 89 20 90 21 91
REMARK H PARENT 82 22 50 33 17 86
REMARK Flexibility Score: inf
ROOT
ATOM      1  C   UNL A   1      39.259  21.815  26.138  1.00  0.00     0.275 C 
ENDROOT
BRANCH   1   2
ATOM      2  O   UNL A   1      39.950  22.426  27.247  1.00  0.00    -0.458 OA
BRANCH   2   3
ATOM      3  C   UNL A   1      41.150  23.019  27.049  1.00  0.00     0.338 C 
ATOM      4  O   UNL A   1      42.042  22.533  26.371  1.00  0.00    -0.246 OA
BRANCH   3   5
ATOM      5  C   UNL A   1      41.155  24.418  27.531  1.00  0.00     0.060 A 
ATOM      6  C   UNL A   1      42.149  24.899  28.391  1.00  0.00     0.016 A 
ATOM      7  C   UNL A   1      40.124  25.266  27.109  1.00  0.00     0.016 A 
ATOM      8  C   UNL A   1      42.064  26.186  28.895  1.00  0.00     0.010 A 
ATOM      9  C   UNL A   1      40.037  26.558  27.615  1.00  0.00     0.010 A 
ATOM     10  C   UNL A   1      40.989  27.004  28.533  1.00  0.00    -0.014 A 
BRANCH  10  11
ATOM     11  C   UNL A   1      41.004  28.390  28.996  1.00  0.00     0.031 A 
ATOM     12  C   UNL A   1      42.099  29.208  28.407  1.00  0.00     0.074 A 
ATOM     13  C   UNL A   1      40.045  28.939  29.768  1.00  0.00     0.049 A 
ATOM     14  N   UNL A   1      43.089  29.774  29.017  1.00  0.00    -0.248 NA
ATOM     15  C   UNL A   1      42.185  29.287  26.940  1.00  0.00     0.031 C 
ATOM     16  C   UNL A   1      38.791  28.318  30.194  1.00  0.00     0.029 A 
ATOM     17  N   UNL A   1      39.934  30.216  30.244  1.00  0.00    -0.354 N 
ATOM     18  C   UNL A   1      43.773  30.496  28.042  1.00  0.00     0.074 A 
ATOM     19  C   UNL A   1      43.302  29.995  26.780  1.00  0.00     0.031 C 
ATOM     20  C   UNL A   1      37.956  29.274  30.659  1.00  0.00     0.029 A 
ATOM     21  C   UNL A   1      38.651  30.552  30.675  1.00  0.00     0.049 A 
ATOM     22  H   UNL A   1      40.692  30.842  30.278  1.00  0.00     0.167 HD
ATOM     23  C   UNL A   1      44.466  31.626  28.360  1.00  0.00     0.034 A 
ATOM     24  C   UNL A   1      38.168  31.794  30.962  1.00  0.00     0.034 A 
ATOM     25  C   UNL A   1      44.787  31.654  29.773  1.00  0.00     0.049 A 
ATOM     26  C   UNL A   1      39.334  32.660  31.258  1.00  0.00     0.074 A 
ATOM     27  C   UNL A   1      45.433  30.783  30.634  1.00  0.00     0.029 A 
ATOM     28  N   UNL A   1      44.106  32.529  30.592  1.00  0.00    -0.354 N 
ATOM     29  N   UNL A   1      40.099  32.499  32.303  1.00  0.00    -0.248 NA
ATOM     30  C   UNL A   1      39.935  33.406  30.163  1.00  0.00     0.031 C 
ATOM     31  C   UNL A   1      44.687  30.849  31.848  1.00  0.00     0.029 A 
ATOM     32  C   UNL A   1      43.696  31.819  31.692  1.00  0.00     0.049 A 
ATOM     33  H   UNL A   1      43.944  33.485  30.420  1.00  0.00     0.167 HD
ATOM     34  C   UNL A   1      41.387  32.709  31.836  1.00  0.00     0.074 A 
ATOM     35  C   UNL A   1      41.215  33.370  30.544  1.00  0.00     0.031 C 
ATOM     36  C   UNL A   1      42.456  32.074  32.401  1.00  0.00     0.034 A 
BRANCH  23  37
ATOM     37  C   UNL A   1      44.478  32.880  27.501  1.00  0.00     0.023 A 
ATOM     38  C   UNL A   1      43.789  33.999  28.008  1.00  0.00     0.031 A 
ATOM     39  C   UNL A   1      44.822  32.950  26.131  1.00  0.00     0.131 A 
ATOM     40  C   UNL A   1      43.322  35.009  27.150  1.00  0.00     0.055 A 
ATOM     41  C   UNL A   1      44.419  33.997  25.296  1.00  0.00     0.041 A 
ATOM     42  F   UNL A   1      45.492  31.986  25.494  1.00  0.00    -0.206 F 
ATOM     43  C   UNL A   1      43.623  35.013  25.794  1.00  0.00     0.022 A 
BRANCH  40  44
ATOM     44  S   UNL A   1      42.125  36.194  27.813  1.00  0.00     0.124 S 
ATOM     45  O   UNL A   1      42.668  36.426  29.148  1.00  0.00    -0.237 OA
ATOM     46  O   UNL A   1      42.243  37.299  26.867  1.00  0.00    -0.237 OA
ATOM     47  O   UNL A   1      40.862  35.463  27.766  1.00  0.00    -0.744 OA
ENDBRANCH  40  44
ENDBRANCH  23  37
BRANCH  24  48
ATOM     48  C   UNL A   1      36.797  32.324  30.703  1.00  0.00     0.023 A 
ATOM     49  C   UNL A   1      36.114  33.177  31.600  1.00  0.00     0.031 A 
ATOM     50  C   UNL A   1      36.224  32.177  29.419  1.00  0.00     0.131 A 
ATOM     51  C   UNL A   1      34.921  33.829  31.200  1.00  0.00     0.055 A 
ATOM     52  C   UNL A   1      35.043  32.816  29.032  1.00  0.00     0.041 A 
ATOM     53  F   UNL A   1      36.840  31.473  28.457  1.00  0.00    -0.206 F 
ATOM     54  C   UNL A   1      34.390  33.654  29.919  1.00  0.00     0.022 A 
BRANCH  51  55
ATOM     55  S   UNL A   1      34.077  35.007  32.311  1.00  0.00     0.124 S 
ATOM     56  O   UNL A   1      33.205  34.133  33.086  1.00  0.00    -0.237 OA
ATOM     57  O   UNL A   1      35.190  35.618  33.028  1.00  0.00    -0.237 OA
ATOM     58  O   UNL A   1      33.380  35.906  31.390  1.00  0.00    -0.744 OA
ENDBRANCH  51  55
ENDBRANCH  24  48
BRANCH  36  59
ATOM     59  C   UNL A   1      42.281  31.405  33.750  1.00  0.00     0.023 A 
ATOM     60  C   UNL A   1      42.090  30.020  33.955  1.00  0.00     0.031 A 
ATOM     61  C   UNL A   1      42.423  32.216  34.891  1.00  0.00     0.131 A 
ATOM     62  C   UNL A   1      42.028  29.501  35.264  1.00  0.00     0.055 A 
ATOM     63  C   UNL A   1      42.384  31.696  36.184  1.00  0.00     0.041 A 
ATOM     64  F   UNL A   1      42.637  33.537  34.768  1.00  0.00    -0.206 F 
ATOM     65  C   UNL A   1      42.179  30.336  36.376  1.00  0.00     0.022 A 
BRANCH  62  66
ATOM     66  S   UNL A   1      41.730  27.727  35.553  1.00  0.00     0.124 S 
ATOM     67  O   UNL A   1      40.942  27.316  34.397  1.00  0.00    -0.237 OA
ATOM     68  O   UNL A   1      43.086  27.189  35.629  1.00  0.00    -0.237 OA
ATOM     69  O   UNL A   1      41.001  27.710  36.824  1.00  0.00    -0.744 OA
ENDBRANCH  62  66
ENDBRANCH  36  59
ENDBRANCH  10  11
ENDBRANCH   3   5
ENDBRANCH   2   3
ENDBRANCH   1   2
BRANCH   1  70
ATOM     70  C   UNL A   1      37.886  22.377  25.777  1.00  0.00     0.275 C 
BRANCH  70  71
ATOM     71  O   UNL A   1      37.431  21.759  24.567  1.00  0.00    -0.457 OA
BRANCH  71  72
ATOM     72  C   UNL A   1      36.152  21.287  24.576  1.00  0.00     0.360 C 
ATOM     73  O   UNL A   1      35.808  20.169  24.945  1.00  0.00    -0.244 OA
BRANCH  72  74
ATOM     74  C   UNL A   1      35.248  22.281  24.052  1.00  0.00     0.190 A 
ATOM     75  C   UNL A   1      33.916  22.449  24.370  1.00  0.00     0.147 A 
ATOM     76  N   UNL A   1      35.606  23.199  23.100  1.00  0.00    -0.123 NA
ATOM     77  N   UNL A   1      33.534  23.513  23.605  1.00  0.00    -0.245 N 
ATOM     78  N   UNL A   1      34.537  23.925  22.810  1.00  0.00    -0.066 NA
BRANCH  77  79
ATOM     79  C   UNL A   1      32.375  24.328  23.763  1.00  0.00     0.148 C 
ATOM     80  C   UNL A   1      31.254  23.890  24.710  1.00  0.00     0.150 C 
ATOM     81  C   UNL A   1      32.688  25.419  24.813  1.00  0.00     0.150 C 
ATOM     82  N   UNL A   1      31.310  25.267  25.219  1.00  0.00    -0.320 N 
ATOM     83  C   UNL A   1      30.487  25.844  26.127  1.00  0.00     0.322 C 
ATOM     84  O   UNL A   1      29.455  25.276  26.498  1.00  0.00    -0.248 OA
ATOM     85  N   UNL A   1      30.842  26.988  26.770  1.00  0.00    -0.307 N 
ATOM     86  H   UNL A   1      30.342  27.153  27.601  1.00  0.00     0.171 HD
BRANCH  85  87
ATOM     87  C   UNL A   1      31.776  27.963  26.470  1.00  0.00     0.053 A 
ATOM     88  C   UNL A   1      31.723  28.952  25.446  1.00  0.00     0.038 A 
ATOM     89  C   UNL A   1      32.902  28.131  27.251  1.00  0.00     0.091 A 
ATOM     90  C   UNL A   1      32.891  29.678  25.350  1.00  0.00     0.067 A 
ATOM     91  S   UNL A   1      33.986  29.286  26.601  1.00  0.00    -0.150 S 
ENDBRANCH  85  87
ENDBRANCH  77  79
ENDBRANCH  72  74
ENDBRANCH  71  72
ENDBRANCH  70  71
ENDBRANCH   1  70
TORSDOF 16
ENDMDL
MODEL 3
REMARK VINA RESULT:     -11.4      3.538     11.908
REMARK SMILES O=C(OCCOC(=O)c1cn(C2CN(C(=O)Nc3ccsc3)C2)nn1)c1ccc(-c2c3nc(c(-c4cc(S(=O)(=O)[O-])ccc4F)c4ccc([nH]4)c(-c4cc(S(=O)(=O)[O-])ccc4F)c4nc(c(-c5cc(S(=O)(=O)[O-])ccc5F)c5ccc2[nH]5)C=C4)C=C3)cc1
REMARK SMILES IDX 4 1 3 2 2 3 1 4 26 5 27 6 88 7 28 8 87 9 29 10 30 11 31 12
REMARK SMILES IDX 81 13 32 14 86 15 80 16 82 17 33 18 85 19 79 20 78 21 34 23
REMARK SMILES IDX 66 24 46 25 65 26 47 27 50 28 64 29 83 30 48 31 49 32 63 34
REMARK SMILES IDX 84 35 51 36 35 37 36 38 44 39 37 40 43 41 45 42 42 43 38 44
REMARK SMILES IDX 39 45 40 46 41 47 67 48 68 49 76 50 69 51 75 52 77 53 74 54
REMARK SMILES IDX 70 55 71 56 72 57 73 58 52 59 53 60 61 61 54 62 60 63 62 64
REMARK SMILES IDX 59 65 55 66 56 67 57 68 58 69 5 70 6 71 7 72 8 73 9 74 10 75
REMARK SMILES IDX 25 76 11 77 24 78 12 79 13 80 23 81 14 82 15 83 16 84 17 85
REMARK SMILES IDX 18 87 19 88 22 89 20 90 21 91
REMARK H PARENT 82 22 50 33 17 86
REMARK Flexibility Score: inf
ROOT
ATOM      1  C   UNL A   1      40.848  20.961  27.640  1.00  0.00     0.275 C 
ENDROOT
BRANCH   1   2
ATOM      2  O   UNL A   1      41.081  22.266  27.072  1.00  0.00    -0.458 OA
BRANCH   2   3
ATOM      3  C   UNL A   1      40.038  23.096  26.838  1.00  0.00     0.338 C 
ATOM      4  O   UNL A   1      38.967  22.726  26.385  1.00  0.00    -0.246 OA
BRANCH   3   5
ATOM      5  C   UNL A   1      40.262  24.435  27.429  1.00  0.00     0.060 A 
ATOM      6  C   UNL A   1      41.448  24.756  28.100  1.00  0.00     0.016 A 
ATOM      7  C   UNL A   1      39.245  25.389  27.308  1.00  0.00     0.016 A 
ATOM      8  C   UNL A   1      41.579  25.987  28.722  1.00  0.00     0.010 A 
ATOM      9  C   UNL A   1      39.375  26.624  27.933  1.00  0.00     0.010 A 
ATOM     10  C   UNL A   1      40.529  26.908  28.666  1.00  0.00    -0.014 A 
BRANCH  10  11
ATOM     11  C   UNL A   1      40.758  28.235  29.235  1.00  0.00     0.031 A 
ATOM     12  C   UNL A   1      41.819  29.012  28.539  1.00  0.00     0.074 A 
ATOM     13  C   UNL A   1      39.997  28.783  30.203  1.00  0.00     0.049 A 
ATOM     14  N   UNL A   1      42.947  29.427  29.015  1.00  0.00    -0.248 NA
ATOM     15  C   UNL A   1      41.673  29.229  27.090  1.00  0.00     0.031 C 
ATOM     16  C   UNL A   1      38.773  28.231  30.783  1.00  0.00     0.029 A 
ATOM     17  N   UNL A   1      40.094  30.010  30.797  1.00  0.00    -0.354 N 
ATOM     18  C   UNL A   1      43.532  30.183  28.002  1.00  0.00     0.074 A 
ATOM     19  C   UNL A   1      42.815  29.852  26.802  1.00  0.00     0.031 C 
ATOM     20  C   UNL A   1      38.125  29.203  31.463  1.00  0.00     0.029 A 
ATOM     21  C   UNL A   1      38.938  30.410  31.469  1.00  0.00     0.049 A 
ATOM     22  H   UNL A   1      40.907  30.563  30.754  1.00  0.00     0.167 HD
ATOM     23  C   UNL A   1      44.377  31.212  28.291  1.00  0.00     0.034 A 
ATOM     24  C   UNL A   1      38.636  31.653  31.937  1.00  0.00     0.034 A 
ATOM     25  C   UNL A   1      44.926  31.072  29.626  1.00  0.00     0.049 A 
ATOM     26  C   UNL A   1      39.915  32.383  32.102  1.00  0.00     0.074 A 
ATOM     27  C   UNL A   1      45.612  30.068  30.286  1.00  0.00     0.029 A 
ATOM     28  N   UNL A   1      44.478  31.915  30.620  1.00  0.00    -0.354 N 
ATOM     29  N   UNL A   1      40.819  32.054  32.982  1.00  0.00    -0.248 NA
ATOM     30  C   UNL A   1      40.402  33.181  30.987  1.00  0.00     0.031 C 
ATOM     31  C   UNL A   1      45.083  30.074  31.612  1.00  0.00     0.029 A 
ATOM     32  C   UNL A   1      44.182  31.136  31.710  1.00  0.00     0.049 A 
ATOM     33  H   UNL A   1      44.387  32.893  30.560  1.00  0.00     0.167 HD
ATOM     34  C   UNL A   1      42.029  32.199  32.321  1.00  0.00     0.074 A 
ATOM     35  C   UNL A   1      41.717  32.999  31.138  1.00  0.00     0.031 C 
ATOM     36  C   UNL A   1      43.107  31.423  32.640  1.00  0.00     0.034 A 
BRANCH  23  37
ATOM     37  C   UNL A   1      44.376  32.541  27.552  1.00  0.00     0.023 A 
ATOM     38  C   UNL A   1      43.800  33.636  28.223  1.00  0.00     0.031 A 
ATOM     39  C   UNL A   1      44.591  32.724  26.167  1.00  0.00     0.131 A 
ATOM     40  C   UNL A   1      43.309  34.743  27.511  1.00  0.00     0.055 A 
ATOM     41  C   UNL A   1      44.168  33.863  25.473  1.00  0.00     0.041 A 
ATOM     42  F   UNL A   1      45.145  31.796  25.381  1.00  0.00    -0.206 F 
ATOM     43  C   UNL A   1      43.479  34.863  26.137  1.00  0.00     0.022 A 
BRANCH  40  44
ATOM     44  S   UNL A   1      42.245  35.913  28.394  1.00  0.00     0.124 S 
ATOM     45  O   UNL A   1      42.904  35.964  29.696  1.00  0.00    -0.237 OA
ATOM     46  O   UNL A   1      42.363  37.108  27.565  1.00  0.00    -0.237 OA
ATOM     47  O   UNL A   1      40.938  35.264  28.374  1.00  0.00    -0.744 OA
ENDBRANCH  40  44
ENDBRANCH  23  37
BRANCH  24  48
ATOM     48  C   UNL A   1      37.300  32.321  31.963  1.00  0.00     0.023 A 
ATOM     49  C   UNL A   1      36.646  32.788  30.800  1.00  0.00     0.031 A 
ATOM     50  C   UNL A   1      36.530  32.292  33.147  1.00  0.00     0.131 A 
ATOM     51  C   UNL A   1      35.291  33.201  30.859  1.00  0.00     0.055 A 
ATOM     52  C   UNL A   1      35.197  32.706  33.201  1.00  0.00     0.041 A 
ATOM     53  F   UNL A   1      37.017  31.772  34.284  1.00  0.00    -0.206 F 
ATOM     54  C   UNL A   1      34.568  33.155  32.052  1.00  0.00     0.022 A 
BRANCH  51  55
ATOM     55  S   UNL A   1      34.402  33.718  29.350  1.00  0.00     0.124 S 
ATOM     56  O   UNL A   1      33.280  34.474  29.893  1.00  0.00    -0.237 OA
ATOM     57  O   UNL A   1      35.415  34.483  28.632  1.00  0.00    -0.237 OA
ATOM     58  O   UNL A   1      34.036  32.449  28.717  1.00  0.00    -0.744 OA
ENDBRANCH  51  55
ENDBRANCH  24  48
BRANCH  36  59
ATOM     59  C   UNL A   1      43.087  30.640  33.938  1.00  0.00     0.023 A 
ATOM     60  C   UNL A   1      42.483  29.374  34.117  1.00  0.00     0.031 A 
ATOM     61  C   UNL A   1      43.815  31.170  35.018  1.00  0.00     0.131 A 
ATOM     62  C   UNL A   1      42.607  28.702  35.349  1.00  0.00     0.055 A 
ATOM     63  C   UNL A   1      43.954  30.492  36.228  1.00  0.00     0.041 A 
ATOM     64  F   UNL A   1      44.439  32.356  34.905  1.00  0.00    -0.206 F 
ATOM     65  C   UNL A   1      43.343  29.257  36.401  1.00  0.00     0.022 A 
BRANCH  62  66
ATOM     66  S   UNL A   1      41.793  27.094  35.622  1.00  0.00     0.124 S 
ATOM     67  O   UNL A   1      41.203  27.226  36.949  1.00  0.00    -0.237 OA
ATOM     68  O   UNL A   1      40.853  27.025  34.506  1.00  0.00    -0.237 OA
ATOM     69  O   UNL A   1      42.899  26.137  35.541  1.00  0.00    -0.744 OA
ENDBRANCH  62  66
ENDBRANCH  36  59
ENDBRANCH  10  11
ENDBRANCH   3   5
ENDBRANCH   2   3
ENDBRANCH   1   2
BRANCH   1  70
ATOM     70  C   UNL A   1      41.849  19.861  27.296  1.00  0.00     0.275 C 
BRANCH  70  71
ATOM     71  O   UNL A   1      42.175  19.945  25.904  1.00  0.00    -0.457 OA
BRANCH  71  72
ATOM     72  C   UNL A   1      43.341  19.351  25.521  1.00  0.00     0.360 C 
ATOM     73  O   UNL A   1      43.507  18.148  25.355  1.00  0.00    -0.244 OA
BRANCH  72  74
ATOM     74  C   UNL A   1      44.380  20.340  25.371  1.00  0.00     0.190 A 
ATOM     75  C   UNL A   1      44.221  21.694  25.161  1.00  0.00     0.147 A 
ATOM     76  N   UNL A   1      45.716  20.038  25.379  1.00  0.00    -0.123 NA
ATOM     77  N   UNL A   1      45.500  22.163  25.090  1.00  0.00    -0.245 N 
ATOM     78  N   UNL A   1      46.391  21.158  25.172  1.00  0.00    -0.066 NA
BRANCH  77  79
ATOM     79  C   UNL A   1      45.942  23.513  25.214  1.00  0.00     0.148 C 
ATOM     80  C   UNL A   1      45.099  24.652  24.632  1.00  0.00     0.150 C 
ATOM     81  C   UNL A   1      45.503  24.041  26.599  1.00  0.00     0.150 C 
ATOM     82  N   UNL A   1      45.306  25.307  25.931  1.00  0.00    -0.320 N 
ATOM     83  C   UNL A   1      44.931  26.558  26.291  1.00  0.00     0.322 C 
ATOM     84  O   UNL A   1      44.510  27.359  25.452  1.00  0.00    -0.248 OA
ATOM     85  N   UNL A   1      44.862  26.921  27.599  1.00  0.00    -0.307 N 
ATOM     86  H   UNL A   1      44.304  27.714  27.767  1.00  0.00     0.171 HD
BRANCH  85  87
ATOM     87  C   UNL A   1      45.432  26.382  28.738  1.00  0.00     0.053 A 
ATOM     88  C   UNL A   1      44.832  25.525  29.705  1.00  0.00     0.038 A 
ATOM     89  C   UNL A   1      46.768  26.577  29.023  1.00  0.00     0.091 A 
ATOM     90  C   UNL A   1      45.656  25.287  30.785  1.00  0.00     0.067 A 
ATOM     91  S   UNL A   1      47.212  25.953  30.554  1.00  0.00    -0.150 S 
ENDBRANCH  85  87
ENDBRANCH  77  79
ENDBRANCH  72  74
ENDBRANCH  71  72
ENDBRANCH  70  71
ENDBRANCH   1  70
TORSDOF 16
ENDMDL
