MODEL 1
REMARK VINA RESULT:     -12.6      0.000      0.000
REMARK SMILES Cc1c(Br)c(C)c2c(c1Br)O[C@H](C(F)(F)F)C(C(=O)OCCOC(=O)c1ccc(-c3c4nc(c(-c5cc(S(=O)(=O)[O-])ccc5F)c5ccc([nH]5)c(-c5cc(S(=O)(=O)[O-])ccc5F)c5nc(c(-c6cc(S(=O)(=O)[O-])ccc6F)c6ccc3[nH]6)C=C5)C=C4)cc1)=C2
REMARK SMILES IDX 22 1 21 2 20 3 18 4 19 5 17 6 1 7 2 8 3 9 9 10 4 11 5 12
REMARK SMILES IDX 8 13 10 14 6 15 7 16 11 17 89 18 12 19 13 20 14 21 15 22
REMARK SMILES IDX 16 23 23 24 24 25 25 26 26 27 27 28 88 29 28 30 87 31 29 32
REMARK SMILES IDX 30 33 31 34 81 35 32 36 86 37 80 38 82 39 33 40 85 41 79 42
REMARK SMILES IDX 78 43 34 45 66 46 46 47 65 48 47 49 50 50 64 51 83 52 48 53
REMARK SMILES IDX 49 54 63 56 84 57 51 58 35 59 36 60 44 61 37 62 43 63 45 64
REMARK SMILES IDX 42 65 38 66 39 67 40 68 41 69 67 70 68 71 76 72 69 73 75 74
REMARK SMILES IDX 77 75 74 76 70 77 71 78 72 79 73 80 52 81 53 82 61 83 54 84
REMARK SMILES IDX 60 85 62 86 59 87 55 88 56 89 57 90 58 91
REMARK H PARENT 82 44 50 55
REMARK Flexibility Score: inf
ROOT
ATOM      1  C   UNL A   1      36.049  20.852  25.059  1.00  0.00     0.275 C 
ENDROOT
BRANCH   1   2
ATOM      2  C   UNL A   1      34.781  21.608  24.664  1.00  0.00     0.275 C 
BRANCH   2   3
ATOM      3  O   UNL A   1      34.995  23.035  24.682  1.00  0.00    -0.459 OA
BRANCH   3   4
ATOM      4  C   UNL A   1      34.409  23.700  25.704  1.00  0.00     0.338 C 
ATOM      5  O   UNL A   1      34.445  23.395  26.887  1.00  0.00    -0.246 OA
BRANCH   4   6
ATOM      6  C   UNL A   1      33.681  24.882  25.206  1.00  0.00     0.087 C 
ATOM      7  C   UNL A   1      30.370  30.472  24.451  1.00  0.00     0.047 C 
ATOM      8  C   UNL A   1      31.340  29.360  24.777  1.00  0.00    -0.019 A 
ATOM      9  C   UNL A   1      32.313  29.509  25.797  1.00  0.00     0.025 A 
ATOM     10  C   UNL A   1      31.251  28.114  24.118  1.00  0.00     0.064 A 
ATOM     11  Br  UNL A   1      32.365  31.145  26.801  1.00  0.00    -0.050 Br
ATOM     12  C   UNL A   1      33.209  28.460  26.118  1.00  0.00    -0.026 A 
ATOM     13  C   UNL A   1      32.114  27.053  24.444  1.00  0.00     0.142 A 
ATOM     14  Br  UNL A   1      29.896  27.793  22.797  1.00  0.00    -0.046 Br
ATOM     15  C   UNL A   1      34.293  28.626  27.165  1.00  0.00     0.046 C 
ATOM     16  C   UNL A   1      33.082  27.218  25.443  1.00  0.00     0.022 A 
ATOM     17  O   UNL A   1      31.973  25.889  23.729  1.00  0.00    -0.474 OA
ATOM     18  C   UNL A   1      33.902  26.061  25.796  1.00  0.00     0.027 C 
ATOM     19  C   UNL A   1      32.629  24.677  24.168  1.00  0.00     0.316 C 
BRANCH  19  20
ATOM     20  C   UNL A   1      31.566  23.665  24.627  1.00  0.00     0.430 C 
ATOM     21  F   UNL A   1      30.344  23.971  24.128  1.00  0.00    -0.167 F 
ATOM     22  F   UNL A   1      31.851  22.413  24.191  1.00  0.00    -0.167 F 
ATOM     23  F   UNL A   1      31.454  23.610  25.972  1.00  0.00    -0.167 F 
ENDBRANCH  19  20
ENDBRANCH   4   6
ENDBRANCH   3   4
ENDBRANCH   2   3
ENDBRANCH   1   2
BRANCH   1  24
ATOM     24  O   UNL A   1      37.199  21.703  24.910  1.00  0.00    -0.458 OA
BRANCH  24  25
ATOM     25  C   UNL A   1      38.310  21.292  25.563  1.00  0.00     0.338 C 
ATOM     26  O   UNL A   1      38.814  20.183  25.535  1.00  0.00    -0.246 OA
BRANCH  25  27
ATOM     27  C   UNL A   1      38.911  22.421  26.291  1.00  0.00     0.060 A 
ATOM     28  C   UNL A   1      38.396  23.695  26.088  1.00  0.00     0.016 A 
ATOM     29  C   UNL A   1      40.089  22.256  27.017  1.00  0.00     0.016 A 
ATOM     30  C   UNL A   1      39.137  24.810  26.463  1.00  0.00     0.010 A 
ATOM     31  C   UNL A   1      40.754  23.384  27.522  1.00  0.00     0.010 A 
ATOM     32  C   UNL A   1      40.320  24.683  27.202  1.00  0.00    -0.014 A 
BRANCH  32  33
ATOM     33  C   UNL A   1      41.111  25.898  27.582  1.00  0.00     0.031 A 
ATOM     34  C   UNL A   1      40.524  26.934  28.515  1.00  0.00     0.074 A 
ATOM     35  C   UNL A   1      42.379  26.061  27.144  1.00  0.00     0.049 A 
ATOM     36  N   UNL A   1      40.965  28.133  28.802  1.00  0.00    -0.248 NA
ATOM     37  C   UNL A   1      39.272  26.582  29.205  1.00  0.00     0.031 C 
ATOM     38  C   UNL A   1      43.116  25.117  26.298  1.00  0.00     0.029 A 
ATOM     39  N   UNL A   1      43.292  27.064  27.371  1.00  0.00    -0.354 N 
ATOM     40  C   UNL A   1      40.017  28.700  29.649  1.00  0.00     0.074 A 
ATOM     41  C   UNL A   1      38.971  27.716  29.825  1.00  0.00     0.031 C 
ATOM     42  C   UNL A   1      44.381  25.536  26.160  1.00  0.00     0.029 A 
ATOM     43  C   UNL A   1      44.514  26.849  26.776  1.00  0.00     0.049 A 
ATOM     44  H   UNL A   1      43.089  27.863  27.911  1.00  0.00     0.167 HD
ATOM     45  C   UNL A   1      40.022  29.926  30.228  1.00  0.00     0.034 A 
ATOM     46  C   UNL A   1      45.606  27.633  26.675  1.00  0.00     0.034 A 
ATOM     47  C   UNL A   1      41.103  30.873  30.100  1.00  0.00     0.049 A 
ATOM     48  C   UNL A   1      45.559  29.019  27.255  1.00  0.00     0.074 A 
ATOM     49  C   UNL A   1      41.203  32.143  30.643  1.00  0.00     0.029 A 
ATOM     50  N   UNL A   1      42.281  30.646  29.402  1.00  0.00    -0.354 N 
ATOM     51  N   UNL A   1      44.597  29.588  27.941  1.00  0.00    -0.248 NA
ATOM     52  C   UNL A   1      46.723  29.881  27.014  1.00  0.00     0.031 C 
ATOM     53  C   UNL A   1      42.414  32.704  30.226  1.00  0.00     0.029 A 
ATOM     54  C   UNL A   1      43.101  31.761  29.481  1.00  0.00     0.049 A 
ATOM     55  H   UNL A   1      42.502  29.816  28.922  1.00  0.00     0.167 HD
ATOM     56  C   UNL A   1      45.043  30.877  28.218  1.00  0.00     0.074 A 
ATOM     57  C   UNL A   1      46.365  30.995  27.638  1.00  0.00     0.031 C 
ATOM     58  C   UNL A   1      44.410  31.871  28.887  1.00  0.00     0.034 A 
BRANCH  45  59
ATOM     59  C   UNL A   1      38.804  30.345  31.014  1.00  0.00     0.023 A 
ATOM     60  C   UNL A   1      37.737  31.044  30.427  1.00  0.00     0.031 A 
ATOM     61  C   UNL A   1      38.700  30.006  32.377  1.00  0.00     0.131 A 
ATOM     62  C   UNL A   1      36.631  31.413  31.208  1.00  0.00     0.055 A 
ATOM     63  C   UNL A   1      37.569  30.318  33.131  1.00  0.00     0.041 A 
ATOM     64  F   UNL A   1      39.697  29.352  32.995  1.00  0.00    -0.206 F 
ATOM     65  C   UNL A   1      36.527  31.034  32.548  1.00  0.00     0.022 A 
BRANCH  62  66
ATOM     66  S   UNL A   1      35.356  32.471  30.468  1.00  0.00     0.124 S 
ATOM     67  O   UNL A   1      35.009  31.715  29.268  1.00  0.00    -0.237 OA
ATOM     68  O   UNL A   1      34.338  32.518  31.510  1.00  0.00    -0.237 OA
ATOM     69  O   UNL A   1      36.056  33.731  30.223  1.00  0.00    -0.744 OA
ENDBRANCH  62  66
ENDBRANCH  45  59
BRANCH  46  70
ATOM     70  C   UNL A   1      46.803  27.155  25.924  1.00  0.00     0.023 A 
ATOM     71  C   UNL A   1      47.035  27.559  24.601  1.00  0.00     0.031 A 
ATOM     72  C   UNL A   1      47.741  26.296  26.527  1.00  0.00     0.131 A 
ATOM     73  C   UNL A   1      48.175  27.098  23.921  1.00  0.00     0.055 A 
ATOM     74  C   UNL A   1      48.898  25.884  25.865  1.00  0.00     0.041 A 
ATOM     75  F   UNL A   1      47.565  25.878  27.791  1.00  0.00    -0.206 F 
ATOM     76  C   UNL A   1      49.117  26.281  24.551  1.00  0.00     0.022 A 
BRANCH  73  77
ATOM     77  S   UNL A   1      48.398  27.556  22.181  1.00  0.00     0.124 S 
ATOM     78  O   UNL A   1      47.156  28.268  21.900  1.00  0.00    -0.237 OA
ATOM     79  O   UNL A   1      49.607  28.371  22.231  1.00  0.00    -0.237 OA
ATOM     80  O   UNL A   1      48.545  26.268  21.506  1.00  0.00    -0.744 OA
ENDBRANCH  73  77
ENDBRANCH  46  70
BRANCH  58  81
ATOM     81  C   UNL A   1      45.147  33.172  29.050  1.00  0.00     0.023 A 
ATOM     82  C   UNL A   1      45.041  34.196  28.095  1.00  0.00     0.031 A 
ATOM     83  C   UNL A   1      45.929  33.404  30.195  1.00  0.00     0.131 A 
ATOM     84  C   UNL A   1      45.730  35.402  28.290  1.00  0.00     0.055 A 
ATOM     85  C   UNL A   1      46.573  34.622  30.406  1.00  0.00     0.041 A 
ATOM     86  F   UNL A   1      46.058  32.455  31.136  1.00  0.00    -0.206 F 
ATOM     87  C   UNL A   1      46.479  35.628  29.448  1.00  0.00     0.022 A 
BRANCH  84  88
ATOM     88  S   UNL A   1      45.657  36.667  26.992  1.00  0.00     0.124 S 
ATOM     89  O   UNL A   1      46.259  35.970  25.860  1.00  0.00    -0.237 OA
ATOM     90  O   UNL A   1      44.227  36.934  26.889  1.00  0.00    -0.237 OA
ATOM     91  O   UNL A   1      46.453  37.764  27.539  1.00  0.00    -0.744 OA
ENDBRANCH  84  88
ENDBRANCH  58  81
ENDBRANCH  32  33
ENDBRANCH  25  27
ENDBRANCH  24  25
ENDBRANCH   1  24
TORSDOF 15
ENDMDL
MODEL 2
REMARK VINA RESULT:     -12.4      5.077     10.200
REMARK SMILES Cc1c(Br)c(C)c2c(c1Br)O[C@H](C(F)(F)F)C(C(=O)OCCOC(=O)c1ccc(-c3c4nc(c(-c5cc(S(=O)(=O)[O-])ccc5F)c5ccc([nH]5)c(-c5cc(S(=O)(=O)[O-])ccc5F)c5nc(c(-c6cc(S(=O)(=O)[O-])ccc6F)c6ccc3[nH]6)C=C5)C=C4)cc1)=C2
REMARK SMILES IDX 22 1 21 2 20 3 18 4 19 5 17 6 1 7 2 8 3 9 9 10 4 11 5 12
REMARK SMILES IDX 8 13 10 14 6 15 7 16 11 17 89 18 12 19 13 20 14 21 15 22
REMARK SMILES IDX 16 23 23 24 24 25 25 26 26 27 27 28 88 29 28 30 87 31 29 32
REMARK SMILES IDX 30 33 31 34 81 35 32 36 86 37 80 38 82 39 33 40 85 41 79 42
REMARK SMILES IDX 78 43 34 45 66 46 46 47 65 48 47 49 50 50 64 51 83 52 48 53
REMARK SMILES IDX 49 54 63 56 84 57 51 58 35 59 36 60 44 61 37 62 43 63 45 64
REMARK SMILES IDX 42 65 38 66 39 67 40 68 41 69 67 70 68 71 76 72 69 73 75 74
REMARK SMILES IDX 77 75 74 76 70 77 71 78 72 79 73 80 52 81 53 82 61 83 54 84
REMARK SMILES IDX 60 85 62 86 59 87 55 88 56 89 57 90 58 91
REMARK H PARENT 82 44 50 55
REMARK Flexibility Score: inf
ROOT
ATOM      1  C   UNL A   1      31.623  30.075  25.425  1.00  0.00     0.275 C 
ENDROOT
BRANCH   1   2
ATOM      2  C   UNL A   1      31.419  28.654  24.903  1.00  0.00     0.275 C 
BRANCH   2   3
ATOM      3  O   UNL A   1      32.303  27.721  25.561  1.00  0.00    -0.459 OA
BRANCH   3   4
ATOM      4  C   UNL A   1      33.295  27.216  24.792  1.00  0.00     0.338 C 
ATOM      5  O   UNL A   1      34.024  27.844  24.040  1.00  0.00    -0.246 OA
BRANCH   4   6
ATOM      6  C   UNL A   1      33.393  25.755  24.966  1.00  0.00     0.087 C 
ATOM      7  C   UNL A   1      35.108  19.443  24.972  1.00  0.00     0.047 C 
ATOM      8  C   UNL A   1      34.992  20.944  25.101  1.00  0.00    -0.019 A 
ATOM      9  C   UNL A   1      36.137  21.755  25.294  1.00  0.00     0.025 A 
ATOM     10  C   UNL A   1      33.739  21.581  24.958  1.00  0.00     0.064 A 
ATOM     11  Br  UNL A   1      37.867  20.924  25.354  1.00  0.00    -0.050 Br
ATOM     12  C   UNL A   1      36.033  23.165  25.394  1.00  0.00    -0.026 A 
ATOM     13  C   UNL A   1      33.621  22.981  25.027  1.00  0.00     0.142 A 
ATOM     14  Br  UNL A   1      32.154  20.565  24.593  1.00  0.00    -0.046 Br
ATOM     15  C   UNL A   1      37.241  24.041  25.660  1.00  0.00     0.046 C 
ATOM     16  C   UNL A   1      34.759  23.771  25.233  1.00  0.00     0.022 A 
ATOM     17  O   UNL A   1      32.359  23.509  24.908  1.00  0.00    -0.474 OA
ATOM     18  C   UNL A   1      34.593  25.224  25.220  1.00  0.00     0.027 C 
ATOM     19  C   UNL A   1      32.177  24.930  24.704  1.00  0.00     0.316 C 
BRANCH  19  20
ATOM     20  C   UNL A   1      31.619  25.170  23.291  1.00  0.00     0.430 C 
ATOM     21  F   UNL A   1      32.585  25.603  22.446  1.00  0.00    -0.167 F 
ATOM     22  F   UNL A   1      31.126  24.029  22.751  1.00  0.00    -0.167 F 
ATOM     23  F   UNL A   1      30.627  26.086  23.278  1.00  0.00    -0.167 F 
ENDBRANCH  19  20
ENDBRANCH   4   6
ENDBRANCH   3   4
ENDBRANCH   2   3
ENDBRANCH   1   2
BRANCH   1  24
ATOM     24  O   UNL A   1      32.245  30.041  26.721  1.00  0.00    -0.458 OA
BRANCH  24  25
ATOM     25  C   UNL A   1      32.810  31.204  27.122  1.00  0.00     0.338 C 
ATOM     26  O   UNL A   1      32.276  32.297  27.192  1.00  0.00    -0.246 OA
BRANCH  25  27
ATOM     27  C   UNL A   1      34.196  30.966  27.554  1.00  0.00     0.060 A 
ATOM     28  C   UNL A   1      34.616  29.657  27.754  1.00  0.00     0.016 A 
ATOM     29  C   UNL A   1      35.013  32.025  27.944  1.00  0.00     0.016 A 
ATOM     30  C   UNL A   1      35.770  29.404  28.487  1.00  0.00     0.010 A 
ATOM     31  C   UNL A   1      36.250  31.757  28.550  1.00  0.00     0.010 A 
ATOM     32  C   UNL A   1      36.621  30.442  28.886  1.00  0.00    -0.014 A 
BRANCH  32  33
ATOM     33  C   UNL A   1      37.852  30.148  29.689  1.00  0.00     0.031 A 
ATOM     34  C   UNL A   1      38.988  29.351  29.086  1.00  0.00     0.074 A 
ATOM     35  C   UNL A   1      37.992  30.636  30.941  1.00  0.00     0.049 A 
ATOM     36  N   UNL A   1      40.035  28.829  29.675  1.00  0.00    -0.248 NA
ATOM     37  C   UNL A   1      38.933  29.094  27.638  1.00  0.00     0.031 C 
ATOM     38  C   UNL A   1      37.021  31.484  31.639  1.00  0.00     0.029 A 
ATOM     39  N   UNL A   1      39.021  30.518  31.847  1.00  0.00    -0.354 N 
ATOM     40  C   UNL A   1      40.725  28.133  28.687  1.00  0.00     0.074 A 
ATOM     41  C   UNL A   1      39.974  28.290  27.461  1.00  0.00     0.031 C 
ATOM     42  C   UNL A   1      37.536  31.881  32.810  1.00  0.00     0.029 A 
ATOM     43  C   UNL A   1      38.807  31.204  33.022  1.00  0.00     0.049 A 
ATOM     44  H   UNL A   1      39.834  29.992  31.671  1.00  0.00     0.167 HD
ATOM     45  C   UNL A   1      41.879  27.429  28.793  1.00  0.00     0.034 A 
ATOM     46  C   UNL A   1      39.512  31.243  34.170  1.00  0.00     0.034 A 
ATOM     47  C   UNL A   1      42.655  27.335  30.006  1.00  0.00     0.049 A 
ATOM     48  C   UNL A   1      40.745  30.393  34.293  1.00  0.00     0.074 A 
ATOM     49  C   UNL A   1      43.837  26.643  30.219  1.00  0.00     0.029 A 
ATOM     50  N   UNL A   1      42.346  27.968  31.201  1.00  0.00    -0.354 N 
ATOM     51  N   UNL A   1      41.311  29.633  33.386  1.00  0.00    -0.248 NA
ATOM     52  C   UNL A   1      41.411  30.372  35.602  1.00  0.00     0.031 C 
ATOM     53  C   UNL A   1      44.209  26.813  31.556  1.00  0.00     0.029 A 
ATOM     54  C   UNL A   1      43.299  27.664  32.160  1.00  0.00     0.049 A 
ATOM     55  H   UNL A   1      41.563  28.548  31.346  1.00  0.00     0.167 HD
ATOM     56  C   UNL A   1      42.404  29.046  34.016  1.00  0.00     0.074 A 
ATOM     57  C   UNL A   1      42.427  29.551  35.372  1.00  0.00     0.031 C 
ATOM     58  C   UNL A   1      43.302  28.163  33.513  1.00  0.00     0.034 A 
BRANCH  45  59
ATOM     59  C   UNL A   1      42.357  26.660  27.586  1.00  0.00     0.023 A 
ATOM     60  C   UNL A   1      42.061  25.301  27.398  1.00  0.00     0.031 A 
ATOM     61  C   UNL A   1      43.099  27.319  26.586  1.00  0.00     0.131 A 
ATOM     62  C   UNL A   1      42.536  24.634  26.258  1.00  0.00     0.055 A 
ATOM     63  C   UNL A   1      43.512  26.666  25.424  1.00  0.00     0.041 A 
ATOM     64  F   UNL A   1      43.425  28.614  26.720  1.00  0.00    -0.206 F 
ATOM     65  C   UNL A   1      43.237  25.312  25.258  1.00  0.00     0.022 A 
BRANCH  62  66
ATOM     66  S   UNL A   1      42.296  22.840  26.134  1.00  0.00     0.124 S 
ATOM     67  O   UNL A   1      42.734  22.581  24.765  1.00  0.00    -0.237 OA
ATOM     68  O   UNL A   1      43.161  22.329  27.189  1.00  0.00    -0.237 OA
ATOM     69  O   UNL A   1      40.862  22.669  26.366  1.00  0.00    -0.744 OA
ENDBRANCH  62  66
ENDBRANCH  45  59
BRANCH  46  70
ATOM     70  C   UNL A   1      39.020  32.055  35.321  1.00  0.00     0.023 A 
ATOM     71  C   UNL A   1      38.379  31.449  36.412  1.00  0.00     0.031 A 
ATOM     72  C   UNL A   1      39.199  33.451  35.353  1.00  0.00     0.131 A 
ATOM     73  C   UNL A   1      37.933  32.237  37.485  1.00  0.00     0.055 A 
ATOM     74  C   UNL A   1      38.802  34.222  36.445  1.00  0.00     0.041 A 
ATOM     75  F   UNL A   1      39.805  34.081  34.333  1.00  0.00    -0.206 F 
ATOM     76  C   UNL A   1      38.159  33.616  37.518  1.00  0.00     0.022 A 
BRANCH  73  77
ATOM     77  S   UNL A   1      37.020  31.441  38.834  1.00  0.00     0.124 S 
ATOM     78  O   UNL A   1      35.801  32.240  38.879  1.00  0.00    -0.237 OA
ATOM     79  O   UNL A   1      36.874  30.075  38.339  1.00  0.00    -0.237 OA
ATOM     80  O   UNL A   1      37.910  31.592  39.983  1.00  0.00    -0.744 OA
ENDBRANCH  73  77
ENDBRANCH  46  70
BRANCH  58  81
ATOM     81  C   UNL A   1      44.403  27.702  34.428  1.00  0.00     0.023 A 
ATOM     82  C   UNL A   1      44.201  26.657  35.344  1.00  0.00     0.031 A 
ATOM     83  C   UNL A   1      45.679  28.287  34.351  1.00  0.00     0.131 A 
ATOM     84  C   UNL A   1      45.257  26.242  36.169  1.00  0.00     0.055 A 
ATOM     85  C   UNL A   1      46.738  27.838  35.140  1.00  0.00     0.041 A 
ATOM     86  F   UNL A   1      45.920  29.287  33.489  1.00  0.00    -0.206 F 
ATOM     87  C   UNL A   1      46.528  26.814  36.060  1.00  0.00     0.022 A 
BRANCH  84  88
ATOM     88  S   UNL A   1      44.940  24.961  37.413  1.00  0.00     0.124 S 
ATOM     89  O   UNL A   1      44.848  25.749  38.638  1.00  0.00    -0.237 OA
ATOM     90  O   UNL A   1      43.694  24.365  36.944  1.00  0.00    -0.237 OA
ATOM     91  O   UNL A   1      46.113  24.095  37.319  1.00  0.00    -0.744 OA
ENDBRANCH  84  88
ENDBRANCH  58  81
ENDBRANCH  32  33
ENDBRANCH  25  27
ENDBRANCH  24  25
ENDBRANCH   1  24
TORSDOF 15
ENDMDL
MODEL 3
REMARK VINA RESULT:     -12.4      1.393      1.608
REMARK SMILES Cc1c(Br)c(C)c2c(c1Br)O[C@H](C(F)(F)F)C(C(=O)OCCOC(=O)c1ccc(-c3c4nc(c(-c5cc(S(=O)(=O)[O-])ccc5F)c5ccc([nH]5)c(-c5cc(S(=O)(=O)[O-])ccc5F)c5nc(c(-c6cc(S(=O)(=O)[O-])ccc6F)c6ccc3[nH]6)C=C5)C=C4)cc1)=C2
REMARK SMILES IDX 22 1 21 2 20 3 18 4 19 5 17 6 1 7 2 8 3 9 9 10 4 11 5 12
REMARK SMILES IDX 8 13 10 14 6 15 7 16 11 17 89 18 12 19 13 20 14 21 15 22
REMARK SMILES IDX 16 23 23 24 24 25 25 26 26 27 27 28 88 29 28 30 87 31 29 32
REMARK SMILES IDX 30 33 31 34 81 35 32 36 86 37 80 38 82 39 33 40 85 41 79 42
REMARK SMILES IDX 78 43 34 45 66 46 46 47 65 48 47 49 50 50 64 51 83 52 48 53
REMARK SMILES IDX 49 54 63 56 84 57 51 58 35 59 36 60 44 61 37 62 43 63 45 64
REMARK SMILES IDX 42 65 38 66 39 67 40 68 41 69 67 70 68 71 76 72 69 73 75 74
REMARK SMILES IDX 77 75 74 76 70 77 71 78 72 79 73 80 52 81 53 82 61 83 54 84
REMARK SMILES IDX 60 85 62 86 59 87 55 88 56 89 57 90 58 91
REMARK H PARENT 82 44 50 55
REMARK Flexibility Score: inf
ROOT
ATOM      1  C   UNL A   1      36.230  20.748  25.105  1.00  0.00     0.275 C 
ENDROOT
BRANCH   1   2
ATOM      2  C   UNL A   1      34.891  21.452  24.886  1.00  0.00     0.275 C 
BRANCH   2   3
ATOM      3  O   UNL A   1      35.046  22.887  24.900  1.00  0.00    -0.459 OA
BRANCH   3   4
ATOM      4  C   UNL A   1      34.380  23.536  25.883  1.00  0.00     0.338 C 
ATOM      5  O   UNL A   1      34.340  23.224  27.063  1.00  0.00    -0.246 OA
BRANCH   4   6
ATOM      6  C   UNL A   1      33.670  24.710  25.341  1.00  0.00     0.087 C 
ATOM      7  C   UNL A   1      30.447  30.319  24.383  1.00  0.00     0.047 C 
ATOM      8  C   UNL A   1      31.399  29.205  24.749  1.00  0.00    -0.019 A 
ATOM      9  C   UNL A   1      32.377  29.377  25.760  1.00  0.00     0.025 A 
ATOM     10  C   UNL A   1      31.288  27.936  24.137  1.00  0.00     0.064 A 
ATOM     11  Br  UNL A   1      32.458  31.049  26.701  1.00  0.00    -0.050 Br
ATOM     12  C   UNL A   1      33.258  28.327  26.119  1.00  0.00    -0.026 A 
ATOM     13  C   UNL A   1      32.136  26.875  24.501  1.00  0.00     0.142 A 
ATOM     14  Br  UNL A   1      29.925  27.588  22.833  1.00  0.00    -0.046 Br
ATOM     15  C   UNL A   1      34.347  28.514  27.156  1.00  0.00     0.046 C 
ATOM     16  C   UNL A   1      33.108  27.062  25.491  1.00  0.00     0.022 A 
ATOM     17  O   UNL A   1      31.974  25.687  23.831  1.00  0.00    -0.474 OA
ATOM     18  C   UNL A   1      33.912  25.906  25.886  1.00  0.00     0.027 C 
ATOM     19  C   UNL A   1      32.611  24.482  24.314  1.00  0.00     0.316 C 
BRANCH  19  20
ATOM     20  C   UNL A   1      31.534  23.506  24.813  1.00  0.00     0.430 C 
ATOM     21  F   UNL A   1      30.442  23.521  24.011  1.00  0.00    -0.167 F 
ATOM     22  F   UNL A   1      31.985  22.227  24.816  1.00  0.00    -0.167 F 
ATOM     23  F   UNL A   1      31.121  23.791  26.068  1.00  0.00    -0.167 F 
ENDBRANCH  19  20
ENDBRANCH   4   6
ENDBRANCH   3   4
ENDBRANCH   2   3
ENDBRANCH   1   2
BRANCH   1  24
ATOM     24  O   UNL A   1      37.305  21.702  25.056  1.00  0.00    -0.458 OA
BRANCH  24  25
ATOM     25  C   UNL A   1      38.440  21.326  25.688  1.00  0.00     0.338 C 
ATOM     26  O   UNL A   1      38.981  20.234  25.646  1.00  0.00    -0.246 OA
BRANCH  25  27
ATOM     27  C   UNL A   1      39.015  22.471  26.412  1.00  0.00     0.060 A 
ATOM     28  C   UNL A   1      38.528  23.743  26.139  1.00  0.00     0.016 A 
ATOM     29  C   UNL A   1      40.149  22.317  27.206  1.00  0.00     0.016 A 
ATOM     30  C   UNL A   1      39.261  24.862  26.519  1.00  0.00     0.010 A 
ATOM     31  C   UNL A   1      40.799  23.453  27.711  1.00  0.00     0.010 A 
ATOM     32  C   UNL A   1      40.401  24.746  27.326  1.00  0.00    -0.014 A 
BRANCH  32  33
ATOM     33  C   UNL A   1      41.185  25.963  27.710  1.00  0.00     0.031 A 
ATOM     34  C   UNL A   1      40.575  27.017  28.608  1.00  0.00     0.074 A 
ATOM     35  C   UNL A   1      42.466  26.115  27.308  1.00  0.00     0.049 A 
ATOM     36  N   UNL A   1      41.012  28.219  28.888  1.00  0.00    -0.248 NA
ATOM     37  C   UNL A   1      39.301  26.682  29.265  1.00  0.00     0.031 C 
ATOM     38  C   UNL A   1      43.225  25.154  26.500  1.00  0.00     0.029 A 
ATOM     39  N   UNL A   1      43.376  27.118  27.546  1.00  0.00    -0.354 N 
ATOM     40  C   UNL A   1      40.042  28.803  29.697  1.00  0.00     0.074 A 
ATOM     41  C   UNL A   1      38.986  27.827  29.857  1.00  0.00     0.031 C 
ATOM     42  C   UNL A   1      44.494  25.566  26.393  1.00  0.00     0.029 A 
ATOM     43  C   UNL A   1      44.615  26.888  26.992  1.00  0.00     0.049 A 
ATOM     44  H   UNL A   1      43.161  27.926  28.067  1.00  0.00     0.167 HD
ATOM     45  C   UNL A   1      40.035  30.039  30.256  1.00  0.00     0.034 A 
ATOM     46  C   UNL A   1      45.713  27.666  26.911  1.00  0.00     0.034 A 
ATOM     47  C   UNL A   1      41.123  30.979  30.145  1.00  0.00     0.049 A 
ATOM     48  C   UNL A   1      45.655  29.061  27.466  1.00  0.00     0.074 A 
ATOM     49  C   UNL A   1      41.212  32.258  30.670  1.00  0.00     0.029 A 
ATOM     50  N   UNL A   1      42.321  30.736  29.487  1.00  0.00    -0.354 N 
ATOM     51  N   UNL A   1      44.675  29.645  28.114  1.00  0.00    -0.248 NA
ATOM     52  C   UNL A   1      46.829  29.915  27.247  1.00  0.00     0.031 C 
ATOM     53  C   UNL A   1      42.438  32.807  30.282  1.00  0.00     0.029 A 
ATOM     54  C   UNL A   1      43.143  31.849  29.573  1.00  0.00     0.049 A 
ATOM     55  H   UNL A   1      42.553  29.897  29.027  1.00  0.00     0.167 HD
ATOM     56  C   UNL A   1      45.119  30.936  28.383  1.00  0.00     0.074 A 
ATOM     57  C   UNL A   1      46.458  31.040  27.842  1.00  0.00     0.031 C 
ATOM     58  C   UNL A   1      44.470  31.944  29.017  1.00  0.00     0.034 A 
BRANCH  45  59
ATOM     59  C   UNL A   1      38.796  30.476  30.998  1.00  0.00     0.023 A 
ATOM     60  C   UNL A   1      37.734  31.138  30.360  1.00  0.00     0.031 A 
ATOM     61  C   UNL A   1      38.666  30.190  32.371  1.00  0.00     0.131 A 
ATOM     62  C   UNL A   1      36.608  31.526  31.101  1.00  0.00     0.055 A 
ATOM     63  C   UNL A   1      37.514  30.520  33.087  1.00  0.00     0.041 A 
ATOM     64  F   UNL A   1      39.655  29.574  33.036  1.00  0.00    -0.206 F 
ATOM     65  C   UNL A   1      36.479  31.200  32.454  1.00  0.00     0.022 A 
BRANCH  62  66
ATOM     66  S   UNL A   1      35.339  32.539  30.292  1.00  0.00     0.124 S 
ATOM     67  O   UNL A   1      34.294  32.570  31.313  1.00  0.00    -0.237 OA
ATOM     68  O   UNL A   1      36.038  33.796  30.056  1.00  0.00    -0.237 OA
ATOM     69  O   UNL A   1      35.005  31.776  29.090  1.00  0.00    -0.744 OA
ENDBRANCH  62  66
ENDBRANCH  45  59
BRANCH  46  70
ATOM     70  C   UNL A   1      46.930  27.171  26.204  1.00  0.00     0.023 A 
ATOM     71  C   UNL A   1      47.965  26.535  26.905  1.00  0.00     0.031 A 
ATOM     72  C   UNL A   1      47.067  27.315  24.810  1.00  0.00     0.131 A 
ATOM     73  C   UNL A   1      49.096  26.072  26.212  1.00  0.00     0.055 A 
ATOM     74  C   UNL A   1      48.168  26.807  24.120  1.00  0.00     0.041 A 
ATOM     75  F   UNL A   1      46.107  27.919  24.092  1.00  0.00    -0.206 F 
ATOM     76  C   UNL A   1      49.194  26.186  24.823  1.00  0.00     0.022 A 
BRANCH  73  77
ATOM     77  S   UNL A   1      50.461  25.344  27.157  1.00  0.00     0.124 S 
ATOM     78  O   UNL A   1      51.406  25.006  26.099  1.00  0.00    -0.237 OA
ATOM     79  O   UNL A   1      50.846  26.444  28.035  1.00  0.00    -0.237 OA
ATOM     80  O   UNL A   1      49.840  24.203  27.827  1.00  0.00    -0.744 OA
ENDBRANCH  73  77
ENDBRANCH  46  70
BRANCH  58  81
ATOM     81  C   UNL A   1      45.207  33.244  29.181  1.00  0.00     0.023 A 
ATOM     82  C   UNL A   1      45.148  34.247  28.199  1.00  0.00     0.031 A 
ATOM     83  C   UNL A   1      45.942  33.499  30.352  1.00  0.00     0.131 A 
ATOM     84  C   UNL A   1      45.835  35.453  28.395  1.00  0.00     0.055 A 
ATOM     85  C   UNL A   1      46.584  34.718  30.562  1.00  0.00     0.041 A 
ATOM     86  F   UNL A   1      46.026  32.571  31.319  1.00  0.00    -0.206 F 
ATOM     87  C   UNL A   1      46.537  35.702  29.578  1.00  0.00     0.022 A 
BRANCH  84  88
ATOM     88  S   UNL A   1      45.825  36.688  27.067  1.00  0.00     0.124 S 
ATOM     89  O   UNL A   1      46.325  35.915  25.935  1.00  0.00    -0.237 OA
ATOM     90  O   UNL A   1      44.420  37.075  27.005  1.00  0.00    -0.237 OA
ATOM     91  O   UNL A   1      46.731  37.726  27.557  1.00  0.00    -0.744 OA
ENDBRANCH  84  88
ENDBRANCH  58  81
ENDBRANCH  32  33
ENDBRANCH  25  27
ENDBRANCH  24  25
ENDBRANCH   1  24
TORSDOF 15
ENDMDL
