MODEL 1
REMARK VINA RESULT:     -11.8      0.000      0.000
REMARK SMILES O=C(CCCC(=O)N1CCN(c2ncccn2)CC1)OCCOC(=O)c1ccc(-c2c3nc(c(-c4cc(S(=O)(=O)[O-])ccc4F)c4ccc([nH]4)c(-c4cc(S(=O)(=O)[O-])ccc4F)c4nc(c(-c5cc(S(=O)(=O)[O-])ccc5F)c5ccc2[nH]5)C=C4)C=C3)cc1
REMARK SMILES IDX 21 1 20 2 2 3 1 4 3 5 4 6 5 7 6 8 7 9 8 10 9 11 19 12 10 13
REMARK SMILES IDX 18 14 11 15 12 16 13 17 17 18 14 19 16 20 15 21 22 22 23 23
REMARK SMILES IDX 24 24 25 25 26 26 27 27 88 28 28 29 87 30 29 31 30 32 31 33
REMARK SMILES IDX 81 34 32 35 86 36 80 37 82 38 33 39 85 40 79 41 78 42 34 44
REMARK SMILES IDX 66 45 46 46 65 47 47 48 50 49 64 50 83 51 48 52 49 53 63 55
REMARK SMILES IDX 84 56 51 57 35 58 36 59 44 60 37 61 43 62 45 63 42 64 38 65
REMARK SMILES IDX 39 66 40 67 41 68 67 69 68 70 76 71 69 72 75 73 77 74 74 75
REMARK SMILES IDX 70 76 71 77 72 78 73 79 52 80 53 81 61 82 54 83 60 84 62 85
REMARK SMILES IDX 59 86 55 87 56 88 57 89 58 90
REMARK H PARENT 82 43 50 54
REMARK Flexibility Score: inf
ROOT
ATOM      1  C   UNL A   1      35.710  21.110  25.127  1.00  0.00     0.274 C 
ENDROOT
BRANCH   1   2
ATOM      2  O   UNL A   1      35.466  21.782  26.360  1.00  0.00    -0.462 OA
BRANCH   2   3
ATOM      3  C   UNL A   1      34.964  23.006  26.550  1.00  0.00     0.305 C 
ATOM      4  O   UNL A   1      34.094  23.124  27.421  1.00  0.00    -0.252 OA
BRANCH   3   5
ATOM      5  C   UNL A   1      35.267  24.215  25.678  1.00  0.00     0.123 C 
BRANCH   5   6
ATOM      6  C   UNL A   1      34.429  25.197  24.822  1.00  0.00     0.022 C 
BRANCH   6   7
ATOM      7  C   UNL A   1      32.922  25.194  24.565  1.00  0.00     0.101 C 
BRANCH   7   8
ATOM      8  C   UNL A   1      32.075  24.111  23.822  1.00  0.00     0.222 C 
ATOM      9  O   UNL A   1      31.310  24.508  22.930  1.00  0.00    -0.275 OA
ATOM     10  N   UNL A   1      32.267  22.741  23.978  1.00  0.00    -0.339 N 
ATOM     11  C   UNL A   1      32.003  21.897  22.792  1.00  0.00     0.141 C 
ATOM     12  C   UNL A   1      31.741  22.097  25.173  1.00  0.00     0.141 C 
ATOM     13  C   UNL A   1      32.572  20.461  22.906  1.00  0.00     0.141 C 
ATOM     14  C   UNL A   1      32.190  20.631  25.369  1.00  0.00     0.141 C 
ATOM     15  N   UNL A   1      32.152  19.821  24.150  1.00  0.00    -0.337 N 
BRANCH  15  16
ATOM     16  C   UNL A   1      32.650  18.539  24.419  1.00  0.00     0.225 A 
ATOM     17  N   UNL A   1      32.379  17.950  25.597  1.00  0.00    -0.221 NA
ATOM     18  N   UNL A   1      33.266  17.892  23.411  1.00  0.00    -0.221 NA
ATOM     19  C   UNL A   1      32.688  16.639  25.713  1.00  0.00     0.117 A 
ATOM     20  C   UNL A   1      33.581  16.592  23.583  1.00  0.00     0.117 A 
ATOM     21  C   UNL A   1      33.292  15.898  24.726  1.00  0.00     0.040 A 
ENDBRANCH  15  16
ENDBRANCH   7   8
ENDBRANCH   6   7
ENDBRANCH   5   6
ENDBRANCH   3   5
ENDBRANCH   2   3
ENDBRANCH   1   2
BRANCH   1  22
ATOM     22  C   UNL A   1      37.181  20.950  24.791  1.00  0.00     0.275 C 
BRANCH  22  23
ATOM     23  O   UNL A   1      37.969  22.090  25.186  1.00  0.00    -0.458 OA
BRANCH  23  24
ATOM     24  C   UNL A   1      39.072  21.800  25.914  1.00  0.00     0.338 C 
ATOM     25  O   UNL A   1      39.676  20.722  25.895  1.00  0.00    -0.246 OA
BRANCH  24  26
ATOM     26  C   UNL A   1      39.552  22.945  26.719  1.00  0.00     0.060 A 
ATOM     27  C   UNL A   1      39.046  24.201  26.395  1.00  0.00     0.016 A 
ATOM     28  C   UNL A   1      40.548  22.848  27.698  1.00  0.00     0.016 A 
ATOM     29  C   UNL A   1      39.594  25.341  26.978  1.00  0.00     0.010 A 
ATOM     30  C   UNL A   1      41.064  23.985  28.323  1.00  0.00     0.010 A 
ATOM     31  C   UNL A   1      40.633  25.245  27.918  1.00  0.00    -0.014 A 
BRANCH  31  32
ATOM     32  C   UNL A   1      41.285  26.479  28.409  1.00  0.00     0.031 A 
ATOM     33  C   UNL A   1      42.699  26.804  28.011  1.00  0.00     0.074 A 
ATOM     34  C   UNL A   1      40.561  27.340  29.146  1.00  0.00     0.049 A 
ATOM     35  N   UNL A   1      43.341  27.940  28.103  1.00  0.00    -0.248 NA
ATOM     36  C   UNL A   1      43.503  25.708  27.447  1.00  0.00     0.031 C 
ATOM     37  C   UNL A   1      39.209  27.081  29.643  1.00  0.00     0.029 A 
ATOM     38  N   UNL A   1      40.840  28.611  29.570  1.00  0.00    -0.354 N 
ATOM     39  C   UNL A   1      44.610  27.705  27.585  1.00  0.00     0.074 A 
ATOM     40  C   UNL A   1      44.673  26.298  27.253  1.00  0.00     0.031 C 
ATOM     41  C   UNL A   1      38.748  28.187  30.245  1.00  0.00     0.029 A 
ATOM     42  C   UNL A   1      39.776  29.223  30.190  1.00  0.00     0.049 A 
ATOM     43  H   UNL A   1      41.715  29.045  29.442  1.00  0.00     0.167 HD
ATOM     44  C   UNL A   1      45.618  28.592  27.381  1.00  0.00     0.034 A 
ATOM     45  C   UNL A   1      39.635  30.488  30.629  1.00  0.00     0.034 A 
ATOM     46  C   UNL A   1      45.530  29.986  27.751  1.00  0.00     0.049 A 
ATOM     47  C   UNL A   1      40.763  31.459  30.387  1.00  0.00     0.074 A 
ATOM     48  C   UNL A   1      46.459  30.993  27.562  1.00  0.00     0.029 A 
ATOM     49  N   UNL A   1      44.449  30.565  28.408  1.00  0.00    -0.354 N 
ATOM     50  N   UNL A   1      41.920  31.255  29.797  1.00  0.00    -0.248 NA
ATOM     51  C   UNL A   1      40.551  32.837  30.841  1.00  0.00     0.031 C 
ATOM     52  C   UNL A   1      45.975  32.158  28.170  1.00  0.00     0.029 A 
ATOM     53  C   UNL A   1      44.704  31.905  28.662  1.00  0.00     0.049 A 
ATOM     54  H   UNL A   1      43.621  30.092  28.657  1.00  0.00     0.167 HD
ATOM     55  C   UNL A   1      42.559  32.491  29.780  1.00  0.00     0.074 A 
ATOM     56  C   UNL A   1      41.647  33.434  30.397  1.00  0.00     0.031 C 
ATOM     57  C   UNL A   1      43.786  32.822  29.297  1.00  0.00     0.034 A 
BRANCH  44  58
ATOM     58  C   UNL A   1      46.898  28.069  26.766  1.00  0.00     0.023 A 
ATOM     59  C   UNL A   1      47.138  28.139  25.380  1.00  0.00     0.031 A 
ATOM     60  C   UNL A   1      47.886  27.471  27.568  1.00  0.00     0.131 A 
ATOM     61  C   UNL A   1      48.292  27.555  24.834  1.00  0.00     0.055 A 
ATOM     62  C   UNL A   1      49.072  26.967  27.028  1.00  0.00     0.041 A 
ATOM     63  F   UNL A   1      47.710  27.351  28.894  1.00  0.00    -0.206 F 
ATOM     64  C   UNL A   1      49.274  26.993  25.652  1.00  0.00     0.022 A 
BRANCH  61  65
ATOM     65  S   UNL A   1      48.425  27.410  23.028  1.00  0.00     0.124 S 
ATOM     66  O   UNL A   1      47.252  28.160  22.582  1.00  0.00    -0.237 OA
ATOM     67  O   UNL A   1      49.718  28.025  22.754  1.00  0.00    -0.237 OA
ATOM     68  O   UNL A   1      48.357  25.969  22.793  1.00  0.00    -0.744 OA
ENDBRANCH  61  65
ENDBRANCH  44  58
BRANCH  45  69
ATOM     69  C   UNL A   1      38.373  30.916  31.296  1.00  0.00     0.023 A 
ATOM     70  C   UNL A   1      37.341  31.538  30.576  1.00  0.00     0.031 A 
ATOM     71  C   UNL A   1      38.192  30.727  32.678  1.00  0.00     0.131 A 
ATOM     72  C   UNL A   1      36.197  31.995  31.248  1.00  0.00     0.055 A 
ATOM     73  C   UNL A   1      37.028  31.132  33.331  1.00  0.00     0.041 A 
ATOM     74  F   UNL A   1      39.143  30.127  33.411  1.00  0.00    -0.206 F 
ATOM     75  C   UNL A   1      36.027  31.783  32.618  1.00  0.00     0.022 A 
BRANCH  72  76
ATOM     76  S   UNL A   1      34.967  32.953  30.320  1.00  0.00     0.124 S 
ATOM     77  O   UNL A   1      35.780  34.037  29.780  1.00  0.00    -0.237 OA
ATOM     78  O   UNL A   1      34.485  31.971  29.356  1.00  0.00    -0.237 OA
ATOM     79  O   UNL A   1      34.001  33.347  31.343  1.00  0.00    -0.744 OA
ENDBRANCH  72  76
ENDBRANCH  45  69
BRANCH  57  80
ATOM     80  C   UNL A   1      44.181  34.277  29.392  1.00  0.00     0.023 A 
ATOM     81  C   UNL A   1      43.664  35.245  28.512  1.00  0.00     0.031 A 
ATOM     82  C   UNL A   1      45.121  34.694  30.353  1.00  0.00     0.131 A 
ATOM     83  C   UNL A   1      44.147  36.561  28.557  1.00  0.00     0.055 A 
ATOM     84  C   UNL A   1      45.542  36.021  30.441  1.00  0.00     0.041 A 
ATOM     85  F   UNL A   1      45.650  33.814  31.218  1.00  0.00    -0.206 F 
ATOM     86  C   UNL A   1      45.070  36.959  29.528  1.00  0.00     0.022 A 
BRANCH  83  87
ATOM     87  S   UNL A   1      43.652  37.713  27.247  1.00  0.00     0.124 S 
ATOM     88  O   UNL A   1      42.838  36.861  26.387  1.00  0.00    -0.237 OA
ATOM     89  O   UNL A   1      42.931  38.739  27.993  1.00  0.00    -0.237 OA
ATOM     90  O   UNL A   1      44.924  38.144  26.670  1.00  0.00    -0.744 OA
ENDBRANCH  83  87
ENDBRANCH  57  80
ENDBRANCH  31  32
ENDBRANCH  24  26
ENDBRANCH  23  24
ENDBRANCH  22  23
ENDBRANCH   1  22
TORSDOF 18
ENDMDL
MODEL 2
REMARK VINA RESULT:     -11.5      1.868      2.148
REMARK SMILES O=C(CCCC(=O)N1CCN(c2ncccn2)CC1)OCCOC(=O)c1ccc(-c2c3nc(c(-c4cc(S(=O)(=O)[O-])ccc4F)c4ccc([nH]4)c(-c4cc(S(=O)(=O)[O-])ccc4F)c4nc(c(-c5cc(S(=O)(=O)[O-])ccc5F)c5ccc2[nH]5)C=C4)C=C3)cc1
REMARK SMILES IDX 21 1 20 2 2 3 1 4 3 5 4 6 5 7 6 8 7 9 8 10 9 11 19 12 10 13
REMARK SMILES IDX 18 14 11 15 12 16 13 17 17 18 14 19 16 20 15 21 22 22 23 23
REMARK SMILES IDX 24 24 25 25 26 26 27 27 88 28 28 29 87 30 29 31 30 32 31 33
REMARK SMILES IDX 81 34 32 35 86 36 80 37 82 38 33 39 85 40 79 41 78 42 34 44
REMARK SMILES IDX 66 45 46 46 65 47 47 48 50 49 64 50 83 51 48 52 49 53 63 55
REMARK SMILES IDX 84 56 51 57 35 58 36 59 44 60 37 61 43 62 45 63 42 64 38 65
REMARK SMILES IDX 39 66 40 67 41 68 67 69 68 70 76 71 69 72 75 73 77 74 74 75
REMARK SMILES IDX 70 76 71 77 72 78 73 79 52 80 53 81 61 82 54 83 60 84 62 85
REMARK SMILES IDX 59 86 55 87 56 88 57 89 58 90
REMARK H PARENT 82 43 50 54
REMARK Flexibility Score: inf
ROOT
ATOM      1  C   UNL A   1      35.650  20.869  25.019  1.00  0.00     0.274 C 
ENDROOT
BRANCH   1   2
ATOM      2  O   UNL A   1      35.508  21.558  26.258  1.00  0.00    -0.462 OA
BRANCH   2   3
ATOM      3  C   UNL A   1      35.064  22.802  26.468  1.00  0.00     0.305 C 
ATOM      4  O   UNL A   1      34.309  22.970  27.432  1.00  0.00    -0.252 OA
BRANCH   3   5
ATOM      5  C   UNL A   1      35.291  23.975  25.526  1.00  0.00     0.123 C 
BRANCH   5   6
ATOM      6  C   UNL A   1      34.436  25.163  25.017  1.00  0.00     0.022 C 
BRANCH   6   7
ATOM      7  C   UNL A   1      32.944  25.195  24.687  1.00  0.00     0.101 C 
BRANCH   7   8
ATOM      8  C   UNL A   1      32.111  24.135  23.896  1.00  0.00     0.222 C 
ATOM      9  O   UNL A   1      31.374  24.558  22.992  1.00  0.00    -0.275 OA
ATOM     10  N   UNL A   1      32.289  22.761  24.025  1.00  0.00    -0.339 N 
ATOM     11  C   UNL A   1      32.052  21.946  22.814  1.00  0.00     0.141 C 
ATOM     12  C   UNL A   1      31.725  22.094  25.191  1.00  0.00     0.141 C 
ATOM     13  C   UNL A   1      32.608  20.504  22.910  1.00  0.00     0.141 C 
ATOM     14  C   UNL A   1      32.158  20.620  25.364  1.00  0.00     0.141 C 
ATOM     15  N   UNL A   1      32.150  19.839  24.127  1.00  0.00    -0.337 N 
BRANCH  15  16
ATOM     16  C   UNL A   1      32.631  18.547  24.380  1.00  0.00     0.225 A 
ATOM     17  N   UNL A   1      32.208  17.877  25.466  1.00  0.00    -0.221 NA
ATOM     18  N   UNL A   1      33.396  17.976  23.430  1.00  0.00    -0.221 NA
ATOM     19  C   UNL A   1      32.525  16.565  25.539  1.00  0.00     0.117 A 
ATOM     20  C   UNL A   1      33.711  16.672  23.560  1.00  0.00     0.117 A 
ATOM     21  C   UNL A   1      33.277  15.899  24.603  1.00  0.00     0.040 A 
ENDBRANCH  15  16
ENDBRANCH   7   8
ENDBRANCH   6   7
ENDBRANCH   5   6
ENDBRANCH   3   5
ENDBRANCH   2   3
ENDBRANCH   1   2
BRANCH   1  22
ATOM     22  C   UNL A   1      37.089  20.589  24.629  1.00  0.00     0.275 C 
BRANCH  22  23
ATOM     23  O   UNL A   1      37.980  21.669  24.973  1.00  0.00    -0.458 OA
BRANCH  23  24
ATOM     24  C   UNL A   1      38.992  21.333  25.806  1.00  0.00     0.338 C 
ATOM     25  O   UNL A   1      39.477  20.203  25.921  1.00  0.00    -0.246 OA
BRANCH  24  26
ATOM     26  C   UNL A   1      39.534  22.490  26.552  1.00  0.00     0.060 A 
ATOM     27  C   UNL A   1      39.092  23.753  26.168  1.00  0.00     0.016 A 
ATOM     28  C   UNL A   1      40.530  22.391  27.531  1.00  0.00     0.016 A 
ATOM     29  C   UNL A   1      39.701  24.891  26.692  1.00  0.00     0.010 A 
ATOM     30  C   UNL A   1      41.108  23.528  28.098  1.00  0.00     0.010 A 
ATOM     31  C   UNL A   1      40.740  24.787  27.632  1.00  0.00    -0.014 A 
BRANCH  31  32
ATOM     32  C   UNL A   1      41.458  26.009  28.060  1.00  0.00     0.031 A 
ATOM     33  C   UNL A   1      42.852  26.284  27.568  1.00  0.00     0.074 A 
ATOM     34  C   UNL A   1      40.807  26.903  28.825  1.00  0.00     0.049 A 
ATOM     35  N   UNL A   1      43.532  27.402  27.599  1.00  0.00    -0.248 NA
ATOM     36  C   UNL A   1      43.586  25.156  26.974  1.00  0.00     0.031 C 
ATOM     37  C   UNL A   1      39.482  26.693  29.410  1.00  0.00     0.029 A 
ATOM     38  N   UNL A   1      41.149  28.172  29.208  1.00  0.00    -0.354 N 
ATOM     39  C   UNL A   1      44.758  27.121  27.007  1.00  0.00     0.074 A 
ATOM     40  C   UNL A   1      44.759  25.707  26.697  1.00  0.00     0.031 C 
ATOM     41  C   UNL A   1      39.092  27.822  30.021  1.00  0.00     0.029 A 
ATOM     42  C   UNL A   1      40.145  28.825  29.883  1.00  0.00     0.049 A 
ATOM     43  H   UNL A   1      42.026  28.577  29.018  1.00  0.00     0.167 HD
ATOM     44  C   UNL A   1      45.776  27.973  26.724  1.00  0.00     0.034 A 
ATOM     45  C   UNL A   1      40.069  30.101  30.307  1.00  0.00     0.034 A 
ATOM     46  C   UNL A   1      45.752  29.375  27.074  1.00  0.00     0.049 A 
ATOM     47  C   UNL A   1      41.207  31.033  29.978  1.00  0.00     0.074 A 
ATOM     48  C   UNL A   1      46.697  30.350  26.809  1.00  0.00     0.029 A 
ATOM     49  N   UNL A   1      44.733  29.997  27.788  1.00  0.00    -0.354 N 
ATOM     50  N   UNL A   1      42.318  30.785  29.321  1.00  0.00    -0.248 NA
ATOM     51  C   UNL A   1      41.064  32.424  30.420  1.00  0.00     0.031 C 
ATOM     52  C   UNL A   1      46.286  31.539  27.426  1.00  0.00     0.029 A 
ATOM     53  C   UNL A   1      45.042  31.332  28.002  1.00  0.00     0.049 A 
ATOM     54  H   UNL A   1      43.909  29.553  28.096  1.00  0.00     0.167 HD
ATOM     55  C   UNL A   1      42.991  32.001  29.242  1.00  0.00     0.074 A 
ATOM     56  C   UNL A   1      42.147  32.980  29.898  1.00  0.00     0.031 C 
ATOM     57  C   UNL A   1      44.193  32.287  28.676  1.00  0.00     0.034 A 
BRANCH  44  58
ATOM     58  C   UNL A   1      46.999  27.403  26.039  1.00  0.00     0.023 A 
ATOM     59  C   UNL A   1      48.098  26.912  26.771  1.00  0.00     0.031 A 
ATOM     60  C   UNL A   1      47.084  27.367  24.637  1.00  0.00     0.131 A 
ATOM     61  C   UNL A   1      49.255  26.482  26.102  1.00  0.00     0.055 A 
ATOM     62  C   UNL A   1      48.205  26.859  23.975  1.00  0.00     0.041 A 
ATOM     63  F   UNL A   1      46.081  27.841  23.879  1.00  0.00    -0.206 F 
ATOM     64  C   UNL A   1      49.306  26.427  24.708  1.00  0.00     0.022 A 
BRANCH  61  65
ATOM     65  S   UNL A   1      50.747  26.132  27.078  1.00  0.00     0.124 S 
ATOM     66  O   UNL A   1      51.800  26.280  26.076  1.00  0.00    -0.237 OA
ATOM     67  O   UNL A   1      50.698  27.161  28.111  1.00  0.00    -0.237 OA
ATOM     68  O   UNL A   1      50.536  24.765  27.549  1.00  0.00    -0.744 OA
ENDBRANCH  61  65
ENDBRANCH  44  58
BRANCH  45  69
ATOM     69  C   UNL A   1      38.865  30.577  31.045  1.00  0.00     0.023 A 
ATOM     70  C   UNL A   1      37.777  31.154  30.371  1.00  0.00     0.031 A 
ATOM     71  C   UNL A   1      38.796  30.481  32.446  1.00  0.00     0.131 A 
ATOM     72  C   UNL A   1      36.690  31.659  31.102  1.00  0.00     0.055 A 
ATOM     73  C   UNL A   1      37.689  30.933  33.163  1.00  0.00     0.041 A 
ATOM     74  F   UNL A   1      39.805  29.928  33.138  1.00  0.00    -0.206 F 
ATOM     75  C   UNL A   1      36.633  31.540  32.492  1.00  0.00     0.022 A 
BRANCH  72  76
ATOM     76  S   UNL A   1      35.388  32.558  30.215  1.00  0.00     0.124 S 
ATOM     77  O   UNL A   1      35.057  31.622  29.145  1.00  0.00    -0.237 OA
ATOM     78  O   UNL A   1      34.377  32.728  31.253  1.00  0.00    -0.237 OA
ATOM     79  O   UNL A   1      36.053  33.786  29.786  1.00  0.00    -0.744 OA
ENDBRANCH  72  76
ENDBRANCH  45  69
BRANCH  57  80
ATOM     80  C   UNL A   1      44.636  33.731  28.720  1.00  0.00     0.023 A 
ATOM     81  C   UNL A   1      45.408  34.238  29.780  1.00  0.00     0.031 A 
ATOM     82  C   UNL A   1      44.245  34.621  27.704  1.00  0.00     0.131 A 
ATOM     83  C   UNL A   1      45.696  35.609  29.843  1.00  0.00     0.055 A 
ATOM     84  C   UNL A   1      44.598  35.971  27.734  1.00  0.00     0.041 A 
ATOM     85  F   UNL A   1      43.506  34.195  26.668  1.00  0.00    -0.206 F 
ATOM     86  C   UNL A   1      45.312  36.476  28.817  1.00  0.00     0.022 A 
BRANCH  83  87
ATOM     87  S   UNL A   1      46.467  36.266  31.348  1.00  0.00     0.124 S 
ATOM     88  O   UNL A   1      47.679  36.884  30.822  1.00  0.00    -0.237 OA
ATOM     89  O   UNL A   1      45.447  37.186  31.842  1.00  0.00    -0.237 OA
ATOM     90  O   UNL A   1      46.682  35.078  32.171  1.00  0.00    -0.744 OA
ENDBRANCH  83  87
ENDBRANCH  57  80
ENDBRANCH  31  32
ENDBRANCH  24  26
ENDBRANCH  23  24
ENDBRANCH  22  23
ENDBRANCH   1  22
TORSDOF 18
ENDMDL
MODEL 3
REMARK VINA RESULT:     -11.5      4.816      9.814
REMARK SMILES O=C(CCCC(=O)N1CCN(c2ncccn2)CC1)OCCOC(=O)c1ccc(-c2c3nc(c(-c4cc(S(=O)(=O)[O-])ccc4F)c4ccc([nH]4)c(-c4cc(S(=O)(=O)[O-])ccc4F)c4nc(c(-c5cc(S(=O)(=O)[O-])ccc5F)c5ccc2[nH]5)C=C4)C=C3)cc1
REMARK SMILES IDX 21 1 20 2 2 3 1 4 3 5 4 6 5 7 6 8 7 9 8 10 9 11 19 12 10 13
REMARK SMILES IDX 18 14 11 15 12 16 13 17 17 18 14 19 16 20 15 21 22 22 23 23
REMARK SMILES IDX 24 24 25 25 26 26 27 27 88 28 28 29 87 30 29 31 30 32 31 33
REMARK SMILES IDX 81 34 32 35 86 36 80 37 82 38 33 39 85 40 79 41 78 42 34 44
REMARK SMILES IDX 66 45 46 46 65 47 47 48 50 49 64 50 83 51 48 52 49 53 63 55
REMARK SMILES IDX 84 56 51 57 35 58 36 59 44 60 37 61 43 62 45 63 42 64 38 65
REMARK SMILES IDX 39 66 40 67 41 68 67 69 68 70 76 71 69 72 75 73 77 74 74 75
REMARK SMILES IDX 70 76 71 77 72 78 73 79 52 80 53 81 61 82 54 83 60 84 62 85
REMARK SMILES IDX 59 86 55 87 56 88 57 89 58 90
REMARK H PARENT 82 43 50 54
REMARK Flexibility Score: inf
ROOT
ATOM      1  C   UNL A   1      32.772  29.430  24.802  1.00  0.00     0.274 C 
ENDROOT
BRANCH   1   2
ATOM      2  O   UNL A   1      32.172  29.088  23.556  1.00  0.00    -0.462 OA
BRANCH   2   3
ATOM      3  C   UNL A   1      31.310  28.099  23.295  1.00  0.00     0.305 C 
ATOM      4  O   UNL A   1      30.969  27.953  22.116  1.00  0.00    -0.252 OA
BRANCH   3   5
ATOM      5  C   UNL A   1      30.609  27.257  24.350  1.00  0.00     0.123 C 
BRANCH   5   6
ATOM      6  C   UNL A   1      29.874  25.894  24.366  1.00  0.00     0.022 C 
BRANCH   6   7
ATOM      7  C   UNL A   1      30.435  24.503  24.069  1.00  0.00     0.101 C 
BRANCH   7   8
ATOM      8  C   UNL A   1      31.894  23.987  24.289  1.00  0.00     0.222 C 
ATOM      9  O   UNL A   1      32.767  24.840  24.507  1.00  0.00    -0.275 OA
ATOM     10  N   UNL A   1      32.223  22.642  24.433  1.00  0.00    -0.339 N 
ATOM     11  C   UNL A   1      33.363  22.332  25.323  1.00  0.00     0.141 C 
ATOM     12  C   UNL A   1      32.282  21.809  23.240  1.00  0.00     0.141 C 
ATOM     13  C   UNL A   1      33.452  20.841  25.731  1.00  0.00     0.141 C 
ATOM     14  C   UNL A   1      32.434  20.295  23.516  1.00  0.00     0.141 C 
ATOM     15  N   UNL A   1      33.404  19.967  24.562  1.00  0.00    -0.337 N 
BRANCH  15  16
ATOM     16  C   UNL A   1      33.406  18.584  24.786  1.00  0.00     0.225 A 
ATOM     17  N   UNL A   1      32.467  18.031  25.572  1.00  0.00    -0.221 NA
ATOM     18  N   UNL A   1      34.280  17.845  24.074  1.00  0.00    -0.221 NA
ATOM     19  C   UNL A   1      32.380  16.682  25.570  1.00  0.00     0.117 A 
ATOM     20  C   UNL A   1      34.173  16.502  24.125  1.00  0.00     0.117 A 
ATOM     21  C   UNL A   1      33.212  15.856  24.854  1.00  0.00     0.040 A 
ENDBRANCH  15  16
ENDBRANCH   7   8
ENDBRANCH   6   7
ENDBRANCH   5   6
ENDBRANCH   3   5
ENDBRANCH   2   3
ENDBRANCH   1   2
BRANCH   1  22
ATOM     22  C   UNL A   1      31.835  30.129  25.769  1.00  0.00     0.275 C 
BRANCH  22  23
ATOM     23  O   UNL A   1      32.386  30.240  27.096  1.00  0.00    -0.458 OA
BRANCH  23  24
ATOM     24  C   UNL A   1      33.032  31.400  27.354  1.00  0.00     0.338 C 
ATOM     25  O   UNL A   1      32.514  32.522  27.352  1.00  0.00    -0.246 OA
BRANCH  24  26
ATOM     26  C   UNL A   1      34.454  31.203  27.713  1.00  0.00     0.060 A 
ATOM     27  C   UNL A   1      34.844  29.912  28.063  1.00  0.00     0.016 A 
ATOM     28  C   UNL A   1      35.384  32.243  27.824  1.00  0.00     0.016 A 
ATOM     29  C   UNL A   1      36.111  29.690  28.595  1.00  0.00     0.010 A 
ATOM     30  C   UNL A   1      36.673  32.018  28.308  1.00  0.00     0.010 A 
ATOM     31  C   UNL A   1      37.022  30.747  28.759  1.00  0.00    -0.014 A 
BRANCH  31  32
ATOM     32  C   UNL A   1      38.304  30.500  29.456  1.00  0.00     0.031 A 
ATOM     33  C   UNL A   1      38.514  30.998  30.861  1.00  0.00     0.074 A 
ATOM     34  C   UNL A   1      39.238  29.754  28.842  1.00  0.00     0.049 A 
ATOM     35  N   UNL A   1      39.433  30.656  31.727  1.00  0.00    -0.248 NA
ATOM     36  C   UNL A   1      37.580  32.021  31.354  1.00  0.00     0.031 C 
ATOM     37  C   UNL A   1      39.156  29.288  27.456  1.00  0.00     0.029 A 
ATOM     38  N   UNL A   1      40.411  29.225  29.308  1.00  0.00    -0.354 N 
ATOM     39  C   UNL A   1      39.172  31.398  32.874  1.00  0.00     0.074 A 
ATOM     40  C   UNL A   1      38.057  32.267  32.565  1.00  0.00     0.031 C 
ATOM     41  C   UNL A   1      40.200  28.484  27.205  1.00  0.00     0.029 A 
ATOM     42  C   UNL A   1      41.029  28.392  28.404  1.00  0.00     0.049 A 
ATOM     43  H   UNL A   1      40.776  29.420  30.201  1.00  0.00     0.167 HD
ATOM     44  C   UNL A   1      39.792  31.336  34.080  1.00  0.00     0.034 A 
ATOM     45  C   UNL A   1      42.119  27.613  28.543  1.00  0.00     0.034 A 
ATOM     46  C   UNL A   1      40.922  30.476  34.344  1.00  0.00     0.049 A 
ATOM     47  C   UNL A   1      42.789  27.555  29.892  1.00  0.00     0.074 A 
ATOM     48  C   UNL A   1      41.611  30.289  35.529  1.00  0.00     0.029 A 
ATOM     49  N   UNL A   1      41.543  29.670  33.396  1.00  0.00    -0.354 N 
ATOM     50  N   UNL A   1      42.470  28.178  31.004  1.00  0.00    -0.248 NA
ATOM     51  C   UNL A   1      43.945  26.661  30.011  1.00  0.00     0.031 C 
ATOM     52  C   UNL A   1      42.691  29.433  35.279  1.00  0.00     0.029 A 
ATOM     53  C   UNL A   1      42.627  29.013  33.960  1.00  0.00     0.049 A 
ATOM     54  H   UNL A   1      41.255  29.577  32.458  1.00  0.00     0.167 HD
ATOM     55  C   UNL A   1      43.368  27.723  31.965  1.00  0.00     0.074 A 
ATOM     56  C   UNL A   1      44.223  26.758  31.302  1.00  0.00     0.031 C 
ATOM     57  C   UNL A   1      43.478  28.067  33.275  1.00  0.00     0.034 A 
BRANCH  44  58
ATOM     58  C   UNL A   1      39.281  32.244  35.178  1.00  0.00     0.023 A 
ATOM     59  C   UNL A   1      39.728  33.572  35.311  1.00  0.00     0.031 A 
ATOM     60  C   UNL A   1      38.351  31.773  36.122  1.00  0.00     0.131 A 
ATOM     61  C   UNL A   1      39.308  34.353  36.400  1.00  0.00     0.055 A 
ATOM     62  C   UNL A   1      37.871  32.583  37.155  1.00  0.00     0.041 A 
ATOM     63  F   UNL A   1      37.901  30.509  36.067  1.00  0.00    -0.206 F 
ATOM     64  C   UNL A   1      38.361  33.876  37.308  1.00  0.00     0.022 A 
BRANCH  61  65
ATOM     65  S   UNL A   1      40.125  35.948  36.695  1.00  0.00     0.124 S 
ATOM     66  O   UNL A   1      39.431  36.421  37.892  1.00  0.00    -0.237 OA
ATOM     67  O   UNL A   1      41.519  35.562  36.876  1.00  0.00    -0.237 OA
ATOM     68  O   UNL A   1      39.840  36.710  35.481  1.00  0.00    -0.744 OA
ENDBRANCH  61  65
ENDBRANCH  44  58
BRANCH  45  69
ATOM     69  C   UNL A   1      42.613  26.803  27.394  1.00  0.00     0.023 A 
ATOM     70  C   UNL A   1      42.244  25.457  27.238  1.00  0.00     0.031 A 
ATOM     71  C   UNL A   1      43.488  27.361  26.445  1.00  0.00     0.131 A 
ATOM     72  C   UNL A   1      42.787  24.701  26.187  1.00  0.00     0.055 A 
ATOM     73  C   UNL A   1      43.980  26.620  25.370  1.00  0.00     0.041 A 
ATOM     74  F   UNL A   1      43.864  28.646  26.542  1.00  0.00    -0.206 F 
ATOM     75  C   UNL A   1      43.640  25.278  25.244  1.00  0.00     0.022 A 
BRANCH  72  76
ATOM     76  S   UNL A   1      42.429  22.924  26.120  1.00  0.00     0.124 S 
ATOM     77  O   UNL A   1      42.990  22.557  24.824  1.00  0.00    -0.237 OA
ATOM     78  O   UNL A   1      43.142  22.427  27.291  1.00  0.00    -0.237 OA
ATOM     79  O   UNL A   1      40.971  22.867  26.208  1.00  0.00    -0.744 OA
ENDBRANCH  72  76
ENDBRANCH  45  69
BRANCH  57  80
ATOM     80  C   UNL A   1      44.545  27.356  34.075  1.00  0.00     0.023 A 
ATOM     81  C   UNL A   1      44.268  26.187  34.806  1.00  0.00     0.031 A 
ATOM     82  C   UNL A   1      45.849  27.880  34.136  1.00  0.00     0.131 A 
ATOM     83  C   UNL A   1      45.256  25.628  35.629  1.00  0.00     0.055 A 
ATOM     84  C   UNL A   1      46.848  27.275  34.899  1.00  0.00     0.041 A 
ATOM     85  F   UNL A   1      46.172  28.994  33.461  1.00  0.00    -0.206 F 
ATOM     86  C   UNL A   1      46.550  26.153  35.667  1.00  0.00     0.022 A 
BRANCH  83  87
ATOM     87  S   UNL A   1      44.789  24.281  36.751  1.00  0.00     0.124 S 
ATOM     88  O   UNL A   1      43.776  24.918  37.585  1.00  0.00    -0.237 OA
ATOM     89  O   UNL A   1      44.304  23.261  35.827  1.00  0.00    -0.237 OA
ATOM     90  O   UNL A   1      46.039  23.954  37.434  1.00  0.00    -0.744 OA
ENDBRANCH  83  87
ENDBRANCH  57  80
ENDBRANCH  31  32
ENDBRANCH  24  26
ENDBRANCH  23  24
ENDBRANCH  22  23
ENDBRANCH   1  22
TORSDOF 18
ENDMDL
