MODEL 1
REMARK VINA RESULT:     -12.4      0.000      0.000
REMARK SMILES CC1(C)S[C@H](c2ccc(-c3cccc([N+](=O)[O-])c3)o2)[NH2+][C@@H]1C(=O)OCCOC(=O)c1ccc(-c2c3nc(c(-c4cc(S(=O)(=O)[O-])ccc4F)c4ccc([nH]4)c(-c4cc(S(=O)(=O)[O-])ccc4F)c4nc(c(-c5cc(S(=O)(=O)[O-])ccc5F)c5ccc2[nH]5)C=C4)C=C3)cc1
REMARK SMILES IDX 25 1 24 2 22 3 23 4 21 5 1 6 2 7 3 8 4 9 5 10 20 11 6 14
REMARK SMILES IDX 7 15 19 16 8 17 9 18 10 19 11 20 18 21 12 22 14 23 13 24
REMARK SMILES IDX 15 25 16 26 17 27 26 28 27 29 28 30 29 31 30 32 31 33 92 34
REMARK SMILES IDX 32 35 91 36 33 37 34 38 35 39 85 40 36 41 90 42 84 43 86 44
REMARK SMILES IDX 37 45 89 46 83 47 82 48 38 50 70 51 50 52 69 53 51 54 54 55
REMARK SMILES IDX 68 56 87 57 52 58 53 59 67 61 88 62 55 63 39 64 40 65 48 66
REMARK SMILES IDX 41 67 47 68 49 69 46 70 42 71 43 72 44 73 45 74 71 75 72 76
REMARK SMILES IDX 80 77 73 78 79 79 81 80 78 81 74 82 75 83 76 84 77 85 56 86
REMARK SMILES IDX 57 87 65 88 58 89 64 90 66 91 63 92 59 93 60 94 61 95 62 96
REMARK H PARENT 20 12 20 13 86 49 54 60
REMARK Flexibility Score: inf
ROOT
ATOM      1  C   UNL A   1      35.516  22.350  23.784  1.00  0.00     0.274 C 
ENDROOT
BRANCH   1   2
ATOM      2  O   UNL A   1      35.419  23.762  23.570  1.00  0.00    -0.458 OA
BRANCH   2   3
ATOM      3  C   UNL A   1      34.788  24.484  24.552  1.00  0.00     0.366 C 
ATOM      4  O   UNL A   1      35.048  24.399  25.742  1.00  0.00    -0.245 OA
BRANCH   3   5
ATOM      5  C   UNL A   1      33.727  25.397  23.907  1.00  0.00     0.310 C 
ATOM      6  C   UNL A   1      32.424  27.573  24.018  1.00  0.00     0.030 C 
ATOM      7  C   UNL A   1      32.874  26.325  24.813  1.00  0.00     0.079 C 
ATOM      8  C   UNL A   1      33.483  26.813  26.128  1.00  0.00     0.030 C 
ATOM      9  S   UNL A   1      31.375  25.342  25.171  1.00  0.00    -0.078 SA
ATOM     10  C   UNL A   1      31.767  24.025  23.979  1.00  0.00     0.311 C 
ATOM     11  N   UNL A   1      32.795  24.564  23.080  1.00  0.00    -0.316 N 
ATOM     12  H   UNL A   1      32.360  25.140  22.360  1.00  0.00     0.348 HD
ATOM     13  H   UNL A   1      33.302  23.806  22.623  1.00  0.00     0.348 HD
BRANCH  10  14
ATOM     14  C   UNL A   1      32.098  22.730  24.675  1.00  0.00     0.172 A 
ATOM     15  C   UNL A   1      32.180  22.409  26.020  1.00  0.00     0.054 A 
ATOM     16  O   UNL A   1      32.305  21.589  23.931  1.00  0.00    -0.454 OA
ATOM     17  C   UNL A   1      32.473  21.031  26.106  1.00  0.00     0.051 A 
ATOM     18  C   UNL A   1      32.547  20.571  24.811  1.00  0.00     0.134 A 
BRANCH  18  19
ATOM     19  C   UNL A   1      32.820  19.258  24.254  1.00  0.00     0.024 A 
ATOM     20  C   UNL A   1      32.456  18.961  22.934  1.00  0.00     0.012 A 
ATOM     21  C   UNL A   1      33.528  18.304  24.993  1.00  0.00     0.097 A 
ATOM     22  C   UNL A   1      32.704  17.703  22.378  1.00  0.00     0.008 A 
ATOM     23  C   UNL A   1      33.832  17.063  24.411  1.00  0.00     0.270 A 
ATOM     24  C   UNL A   1      33.396  16.747  23.116  1.00  0.00     0.085 A 
BRANCH  23  25
ATOM     25  N   UNL A   1      34.664  16.102  25.143  1.00  0.00     0.062 N 
ATOM     26  O   UNL A   1      35.790  16.472  25.508  1.00  0.00    -0.258 OA
ATOM     27  O   UNL A   1      34.186  14.983  25.377  1.00  0.00    -0.258 OA
ENDBRANCH  23  25
ENDBRANCH  18  19
ENDBRANCH  10  14
ENDBRANCH   3   5
ENDBRANCH   2   3
ENDBRANCH   1   2
BRANCH   1  28
ATOM     28  C   UNL A   1      36.940  21.885  24.075  1.00  0.00     0.275 C 
BRANCH  28  29
ATOM     29  O   UNL A   1      37.122  21.633  25.474  1.00  0.00    -0.458 OA
BRANCH  29  30
ATOM     30  C   UNL A   1      38.378  21.234  25.793  1.00  0.00     0.338 C 
ATOM     31  O   UNL A   1      38.906  20.171  25.517  1.00  0.00    -0.246 OA
BRANCH  30  32
ATOM     32  C   UNL A   1      39.115  22.370  26.364  1.00  0.00     0.060 A 
ATOM     33  C   UNL A   1      38.611  23.647  26.103  1.00  0.00     0.016 A 
ATOM     34  C   UNL A   1      40.289  22.201  27.099  1.00  0.00     0.016 A 
ATOM     35  C   UNL A   1      39.271  24.768  26.588  1.00  0.00     0.010 A 
ATOM     36  C   UNL A   1      40.968  23.330  27.564  1.00  0.00     0.010 A 
ATOM     37  C   UNL A   1      40.462  24.617  27.304  1.00  0.00    -0.014 A 
BRANCH  37  38
ATOM     38  C   UNL A   1      41.248  25.823  27.638  1.00  0.00     0.031 A 
ATOM     39  C   UNL A   1      40.583  26.906  28.435  1.00  0.00     0.074 A 
ATOM     40  C   UNL A   1      42.544  25.914  27.296  1.00  0.00     0.049 A 
ATOM     41  N   UNL A   1      41.039  28.079  28.782  1.00  0.00    -0.248 NA
ATOM     42  C   UNL A   1      39.222  26.617  28.912  1.00  0.00     0.031 C 
ATOM     43  C   UNL A   1      43.314  24.869  26.623  1.00  0.00     0.029 A 
ATOM     44  N   UNL A   1      43.442  26.935  27.472  1.00  0.00    -0.354 N 
ATOM     45  C   UNL A   1      40.018  28.676  29.513  1.00  0.00     0.074 A 
ATOM     46  C   UNL A   1      38.915  27.739  29.542  1.00  0.00     0.031 C 
ATOM     47  C   UNL A   1      44.568  25.311  26.426  1.00  0.00     0.029 A 
ATOM     48  C   UNL A   1      44.672  26.689  26.906  1.00  0.00     0.049 A 
ATOM     49  H   UNL A   1      43.227  27.765  27.954  1.00  0.00     0.167 HD
ATOM     50  C   UNL A   1      40.009  29.897  30.101  1.00  0.00     0.034 A 
ATOM     51  C   UNL A   1      45.737  27.501  26.756  1.00  0.00     0.034 A 
ATOM     52  C   UNL A   1      41.112  30.821  30.028  1.00  0.00     0.049 A 
ATOM     53  C   UNL A   1      45.649  28.913  27.293  1.00  0.00     0.074 A 
ATOM     54  C   UNL A   1      41.204  32.098  30.554  1.00  0.00     0.029 A 
ATOM     55  N   UNL A   1      42.315  30.574  29.375  1.00  0.00    -0.354 N 
ATOM     56  N   UNL A   1      44.666  29.491  27.948  1.00  0.00    -0.248 NA
ATOM     57  C   UNL A   1      46.811  29.782  27.067  1.00  0.00     0.031 C 
ATOM     58  C   UNL A   1      42.422  32.650  30.147  1.00  0.00     0.029 A 
ATOM     59  C   UNL A   1      43.136  31.688  29.450  1.00  0.00     0.049 A 
ATOM     60  H   UNL A   1      42.548  29.730  28.924  1.00  0.00     0.167 HD
ATOM     61  C   UNL A   1      45.108  30.778  28.241  1.00  0.00     0.074 A 
ATOM     62  C   UNL A   1      46.448  30.887  27.702  1.00  0.00     0.031 C 
ATOM     63  C   UNL A   1      44.469  31.779  28.900  1.00  0.00     0.034 A 
BRANCH  50  64
ATOM     64  C   UNL A   1      38.733  30.319  30.785  1.00  0.00     0.023 A 
ATOM     65  C   UNL A   1      37.690  30.953  30.088  1.00  0.00     0.031 A 
ATOM     66  C   UNL A   1      38.583  30.132  32.171  1.00  0.00     0.131 A 
ATOM     67  C   UNL A   1      36.578  31.443  30.791  1.00  0.00     0.055 A 
ATOM     68  C   UNL A   1      37.437  30.546  32.850  1.00  0.00     0.041 A 
ATOM     69  F   UNL A   1      39.560  29.561  32.893  1.00  0.00    -0.206 F 
ATOM     70  C   UNL A   1      36.432  31.221  32.162  1.00  0.00     0.022 A 
BRANCH  67  71
ATOM     71  S   UNL A   1      35.403  32.513  29.917  1.00  0.00     0.124 S 
ATOM     72  O   UNL A   1      36.257  33.632  29.527  1.00  0.00    -0.237 OA
ATOM     73  O   UNL A   1      34.939  31.655  28.833  1.00  0.00    -0.237 OA
ATOM     74  O   UNL A   1      34.403  32.828  30.935  1.00  0.00    -0.744 OA
ENDBRANCH  67  71
ENDBRANCH  50  64
BRANCH  51  75
ATOM     75  C   UNL A   1      46.946  27.046  26.008  1.00  0.00     0.023 A 
ATOM     76  C   UNL A   1      48.033  26.452  26.668  1.00  0.00     0.031 A 
ATOM     77  C   UNL A   1      47.062  27.270  24.624  1.00  0.00     0.131 A 
ATOM     78  C   UNL A   1      49.206  26.151  25.955  1.00  0.00     0.055 A 
ATOM     79  C   UNL A   1      48.206  26.913  23.908  1.00  0.00     0.041 A 
ATOM     80  F   UNL A   1      46.059  27.847  23.941  1.00  0.00    -0.206 F 
ATOM     81  C   UNL A   1      49.294  26.363  24.578  1.00  0.00     0.022 A 
BRANCH  78  82
ATOM     82  S   UNL A   1      50.660  25.578  26.876  1.00  0.00     0.124 S 
ATOM     83  O   UNL A   1      50.112  24.453  27.625  1.00  0.00    -0.237 OA
ATOM     84  O   UNL A   1      51.587  25.242  25.800  1.00  0.00    -0.237 OA
ATOM     85  O   UNL A   1      51.034  26.741  27.679  1.00  0.00    -0.744 OA
ENDBRANCH  78  82
ENDBRANCH  51  75
BRANCH  63  86
ATOM     86  C   UNL A   1      45.238  33.061  29.125  1.00  0.00     0.023 A 
ATOM     87  C   UNL A   1      45.197  34.127  28.210  1.00  0.00     0.031 A 
ATOM     88  C   UNL A   1      46.021  33.215  30.284  1.00  0.00     0.131 A 
ATOM     89  C   UNL A   1      45.964  35.278  28.444  1.00  0.00     0.055 A 
ATOM     90  C   UNL A   1      46.727  34.390  30.544  1.00  0.00     0.041 A 
ATOM     91  F   UNL A   1      46.101  32.229  31.192  1.00  0.00    -0.206 F 
ATOM     92  C   UNL A   1      46.712  35.425  29.615  1.00  0.00     0.022 A 
BRANCH  89  93
ATOM     93  S   UNL A   1      46.044  36.550  27.152  1.00  0.00     0.124 S 
ATOM     94  O   UNL A   1      46.337  35.755  25.963  1.00  0.00    -0.237 OA
ATOM     95  O   UNL A   1      44.712  37.141  27.212  1.00  0.00    -0.237 OA
ATOM     96  O   UNL A   1      47.129  37.422  27.597  1.00  0.00    -0.744 OA
ENDBRANCH  89  93
ENDBRANCH  63  86
ENDBRANCH  37  38
ENDBRANCH  30  32
ENDBRANCH  29  30
ENDBRANCH  28  29
ENDBRANCH   1  28
TORSDOF 17
ENDMDL
MODEL 2
REMARK VINA RESULT:     -12.4      1.927      2.150
REMARK SMILES CC1(C)S[C@H](c2ccc(-c3cccc([N+](=O)[O-])c3)o2)[NH2+][C@@H]1C(=O)OCCOC(=O)c1ccc(-c2c3nc(c(-c4cc(S(=O)(=O)[O-])ccc4F)c4ccc([nH]4)c(-c4cc(S(=O)(=O)[O-])ccc4F)c4nc(c(-c5cc(S(=O)(=O)[O-])ccc5F)c5ccc2[nH]5)C=C4)C=C3)cc1
REMARK SMILES IDX 25 1 24 2 22 3 23 4 21 5 1 6 2 7 3 8 4 9 5 10 20 11 6 14
REMARK SMILES IDX 7 15 19 16 8 17 9 18 10 19 11 20 18 21 12 22 14 23 13 24
REMARK SMILES IDX 15 25 16 26 17 27 26 28 27 29 28 30 29 31 30 32 31 33 92 34
REMARK SMILES IDX 32 35 91 36 33 37 34 38 35 39 85 40 36 41 90 42 84 43 86 44
REMARK SMILES IDX 37 45 89 46 83 47 82 48 38 50 70 51 50 52 69 53 51 54 54 55
REMARK SMILES IDX 68 56 87 57 52 58 53 59 67 61 88 62 55 63 39 64 40 65 48 66
REMARK SMILES IDX 41 67 47 68 49 69 46 70 42 71 43 72 44 73 45 74 71 75 72 76
REMARK SMILES IDX 80 77 73 78 79 79 81 80 78 81 74 82 75 83 76 84 77 85 56 86
REMARK SMILES IDX 57 87 65 88 58 89 64 90 66 91 63 92 59 93 60 94 61 95 62 96
REMARK H PARENT 20 12 20 13 86 49 54 60
REMARK Flexibility Score: inf
ROOT
ATOM      1  C   UNL A   1      35.628  22.196  24.205  1.00  0.00     0.274 C 
ENDROOT
BRANCH   1   2
ATOM      2  O   UNL A   1      35.678  23.595  23.901  1.00  0.00    -0.458 OA
BRANCH   2   3
ATOM      3  C   UNL A   1      34.981  24.425  24.741  1.00  0.00     0.366 C 
ATOM      4  O   UNL A   1      34.958  24.312  25.957  1.00  0.00    -0.245 OA
BRANCH   3   5
ATOM      5  C   UNL A   1      34.254  25.498  23.906  1.00  0.00     0.310 C 
ATOM      6  C   UNL A   1      33.379  27.877  23.774  1.00  0.00     0.030 C 
ATOM      7  C   UNL A   1      33.426  26.592  24.631  1.00  0.00     0.079 C 
ATOM      8  C   UNL A   1      33.845  26.998  26.046  1.00  0.00     0.030 C 
ATOM      9  S   UNL A   1      31.731  25.909  24.678  1.00  0.00    -0.078 SA
ATOM     10  C   UNL A   1      32.099  24.509  23.577  1.00  0.00     0.311 C 
ATOM     11  N   UNL A   1      33.365  24.825  22.904  1.00  0.00    -0.316 N 
ATOM     12  H   UNL A   1      33.194  25.449  22.116  1.00  0.00     0.348 HD
ATOM     13  H   UNL A   1      33.803  23.975  22.550  1.00  0.00     0.348 HD
BRANCH  10  14
ATOM     14  C   UNL A   1      32.042  23.196  24.315  1.00  0.00     0.172 A 
ATOM     15  C   UNL A   1      31.681  22.893  25.617  1.00  0.00     0.054 A 
ATOM     16  O   UNL A   1      32.314  22.024  23.643  1.00  0.00    -0.454 OA
ATOM     17  C   UNL A   1      31.758  21.492  25.759  1.00  0.00     0.051 A 
ATOM     18  C   UNL A   1      32.153  21.001  24.536  1.00  0.00     0.134 A 
BRANCH  18  19
ATOM     19  C   UNL A   1      32.410  19.653  24.060  1.00  0.00     0.024 A 
ATOM     20  C   UNL A   1      32.344  19.364  22.690  1.00  0.00     0.012 A 
ATOM     21  C   UNL A   1      32.813  18.650  24.946  1.00  0.00     0.097 A 
ATOM     22  C   UNL A   1      32.583  18.074  22.209  1.00  0.00     0.008 A 
ATOM     23  C   UNL A   1      33.113  17.370  24.453  1.00  0.00     0.270 A 
ATOM     24  C   UNL A   1      32.970  17.069  23.090  1.00  0.00     0.085 A 
BRANCH  23  25
ATOM     25  N   UNL A   1      33.637  16.345  25.363  1.00  0.00     0.062 N 
ATOM     26  O   UNL A   1      34.853  16.106  25.327  1.00  0.00    -0.258 OA
ATOM     27  O   UNL A   1      32.839  15.793  26.134  1.00  0.00    -0.258 OA
ENDBRANCH  23  25
ENDBRANCH  18  19
ENDBRANCH  10  14
ENDBRANCH   3   5
ENDBRANCH   2   3
ENDBRANCH   1   2
BRANCH   1  28
ATOM     28  C   UNL A   1      37.006  21.587  24.444  1.00  0.00     0.275 C 
BRANCH  28  29
ATOM     29  O   UNL A   1      37.376  21.681  25.826  1.00  0.00    -0.458 OA
BRANCH  29  30
ATOM     30  C   UNL A   1      38.680  21.390  26.058  1.00  0.00     0.338 C 
ATOM     31  O   UNL A   1      39.273  20.370  25.751  1.00  0.00    -0.246 OA
BRANCH  30  32
ATOM     32  C   UNL A   1      39.359  22.588  26.569  1.00  0.00     0.060 A 
ATOM     33  C   UNL A   1      38.947  23.819  26.051  1.00  0.00     0.016 A 
ATOM     34  C   UNL A   1      40.400  22.515  27.496  1.00  0.00     0.016 A 
ATOM     35  C   UNL A   1      39.564  24.991  26.469  1.00  0.00     0.010 A 
ATOM     36  C   UNL A   1      41.039  23.692  27.895  1.00  0.00     0.010 A 
ATOM     37  C   UNL A   1      40.624  24.932  27.378  1.00  0.00    -0.014 A 
BRANCH  37  38
ATOM     38  C   UNL A   1      41.390  26.165  27.655  1.00  0.00     0.031 A 
ATOM     39  C   UNL A   1      40.746  27.229  28.492  1.00  0.00     0.074 A 
ATOM     40  C   UNL A   1      42.657  26.296  27.226  1.00  0.00     0.049 A 
ATOM     41  N   UNL A   1      41.186  28.418  28.805  1.00  0.00    -0.248 NA
ATOM     42  C   UNL A   1      39.430  26.898  29.062  1.00  0.00     0.031 C 
ATOM     43  C   UNL A   1      43.413  25.274  26.503  1.00  0.00     0.029 A 
ATOM     44  N   UNL A   1      43.530  27.347  27.337  1.00  0.00    -0.354 N 
ATOM     45  C   UNL A   1      40.198  28.985  29.603  1.00  0.00     0.074 A 
ATOM     46  C   UNL A   1      39.130  28.013  29.709  1.00  0.00     0.031 C 
ATOM     47  C   UNL A   1      44.635  25.757  26.221  1.00  0.00     0.029 A 
ATOM     48  C   UNL A   1      44.726  27.139  26.690  1.00  0.00     0.049 A 
ATOM     49  H   UNL A   1      43.322  28.172  27.831  1.00  0.00     0.167 HD
ATOM     50  C   UNL A   1      40.189  30.207  30.187  1.00  0.00     0.034 A 
ATOM     51  C   UNL A   1      45.752  27.985  26.466  1.00  0.00     0.034 A 
ATOM     52  C   UNL A   1      41.253  31.167  30.037  1.00  0.00     0.049 A 
ATOM     53  C   UNL A   1      45.654  29.395  27.004  1.00  0.00     0.074 A 
ATOM     54  C   UNL A   1      41.338  32.448  30.553  1.00  0.00     0.029 A 
ATOM     55  N   UNL A   1      42.416  30.956  29.305  1.00  0.00    -0.354 N 
ATOM     56  N   UNL A   1      44.699  29.944  27.723  1.00  0.00    -0.248 NA
ATOM     57  C   UNL A   1      46.769  30.301  26.698  1.00  0.00     0.031 C 
ATOM     58  C   UNL A   1      42.508  33.038  30.063  1.00  0.00     0.029 A 
ATOM     59  C   UNL A   1      43.203  32.096  29.321  1.00  0.00     0.049 A 
ATOM     60  H   UNL A   1      42.645  30.118  28.841  1.00  0.00     0.167 HD
ATOM     61  C   UNL A   1      45.117  31.246  27.983  1.00  0.00     0.074 A 
ATOM     62  C   UNL A   1      46.413  31.397  27.353  1.00  0.00     0.031 C 
ATOM     63  C   UNL A   1      44.493  32.229  28.681  1.00  0.00     0.034 A 
BRANCH  50  64
ATOM     64  C   UNL A   1      38.949  30.591  30.956  1.00  0.00     0.023 A 
ATOM     65  C   UNL A   1      37.823  31.146  30.323  1.00  0.00     0.031 A 
ATOM     66  C   UNL A   1      38.916  30.448  32.354  1.00  0.00     0.131 A 
ATOM     67  C   UNL A   1      36.745  31.606  31.095  1.00  0.00     0.055 A 
ATOM     68  C   UNL A   1      37.805  30.830  33.107  1.00  0.00     0.041 A 
ATOM     69  F   UNL A   1      39.974  29.954  33.016  1.00  0.00    -0.206 F 
ATOM     70  C   UNL A   1      36.716  31.428  32.480  1.00  0.00     0.022 A 
BRANCH  67  71
ATOM     71  S   UNL A   1      35.451  32.583  30.281  1.00  0.00     0.124 S 
ATOM     72  O   UNL A   1      36.155  33.832  30.005  1.00  0.00    -0.237 OA
ATOM     73  O   UNL A   1      35.121  31.765  29.119  1.00  0.00    -0.237 OA
ATOM     74  O   UNL A   1      34.403  32.678  31.296  1.00  0.00    -0.744 OA
ENDBRANCH  67  71
ENDBRANCH  50  64
BRANCH  51  75
ATOM     75  C   UNL A   1      46.921  27.566  25.639  1.00  0.00     0.023 A 
ATOM     76  C   UNL A   1      47.050  27.968  24.300  1.00  0.00     0.031 A 
ATOM     77  C   UNL A   1      47.893  26.689  26.157  1.00  0.00     0.131 A 
ATOM     78  C   UNL A   1      48.094  27.454  23.512  1.00  0.00     0.055 A 
ATOM     79  C   UNL A   1      48.963  26.230  25.387  1.00  0.00     0.041 A 
ATOM     80  F   UNL A   1      47.814  26.260  27.427  1.00  0.00    -0.206 F 
ATOM     81  C   UNL A   1      49.059  26.601  24.050  1.00  0.00     0.022 A 
BRANCH  78  82
ATOM     82  S   UNL A   1      48.110  27.831  21.737  1.00  0.00     0.124 S 
ATOM     83  O   UNL A   1      46.794  28.434  21.551  1.00  0.00    -0.237 OA
ATOM     84  O   UNL A   1      49.250  28.735  21.630  1.00  0.00    -0.237 OA
ATOM     85  O   UNL A   1      48.292  26.523  21.112  1.00  0.00    -0.744 OA
ENDBRANCH  78  82
ENDBRANCH  51  75
BRANCH  63  86
ATOM     86  C   UNL A   1      45.232  33.536  28.851  1.00  0.00     0.023 A 
ATOM     87  C   UNL A   1      46.215  33.714  29.840  1.00  0.00     0.031 A 
ATOM     88  C   UNL A   1      44.949  34.619  27.998  1.00  0.00     0.131 A 
ATOM     89  C   UNL A   1      46.842  34.961  29.985  1.00  0.00     0.055 A 
ATOM     90  C   UNL A   1      45.624  35.835  28.104  1.00  0.00     0.041 A 
ATOM     91  F   UNL A   1      44.017  34.507  27.038  1.00  0.00    -0.206 F 
ATOM     92  C   UNL A   1      46.568  36.016  29.110  1.00  0.00     0.022 A 
BRANCH  89  93
ATOM     93  S   UNL A   1      47.958  35.218  31.392  1.00  0.00     0.124 S 
ATOM     94  O   UNL A   1      49.228  34.731  30.863  1.00  0.00    -0.237 OA
ATOM     95  O   UNL A   1      47.866  36.659  31.604  1.00  0.00    -0.237 OA
ATOM     96  O   UNL A   1      47.372  34.398  32.450  1.00  0.00    -0.744 OA
ENDBRANCH  89  93
ENDBRANCH  63  86
ENDBRANCH  37  38
ENDBRANCH  30  32
ENDBRANCH  29  30
ENDBRANCH  28  29
ENDBRANCH   1  28
TORSDOF 17
ENDMDL
MODEL 3
REMARK VINA RESULT:     -12.2      2.023      7.825
REMARK SMILES CC1(C)S[C@H](c2ccc(-c3cccc([N+](=O)[O-])c3)o2)[NH2+][C@@H]1C(=O)OCCOC(=O)c1ccc(-c2c3nc(c(-c4cc(S(=O)(=O)[O-])ccc4F)c4ccc([nH]4)c(-c4cc(S(=O)(=O)[O-])ccc4F)c4nc(c(-c5cc(S(=O)(=O)[O-])ccc5F)c5ccc2[nH]5)C=C4)C=C3)cc1
REMARK SMILES IDX 25 1 24 2 22 3 23 4 21 5 1 6 2 7 3 8 4 9 5 10 20 11 6 14
REMARK SMILES IDX 7 15 19 16 8 17 9 18 10 19 11 20 18 21 12 22 14 23 13 24
REMARK SMILES IDX 15 25 16 26 17 27 26 28 27 29 28 30 29 31 30 32 31 33 92 34
REMARK SMILES IDX 32 35 91 36 33 37 34 38 35 39 85 40 36 41 90 42 84 43 86 44
REMARK SMILES IDX 37 45 89 46 83 47 82 48 38 50 70 51 50 52 69 53 51 54 54 55
REMARK SMILES IDX 68 56 87 57 52 58 53 59 67 61 88 62 55 63 39 64 40 65 48 66
REMARK SMILES IDX 41 67 47 68 49 69 46 70 42 71 43 72 44 73 45 74 71 75 72 76
REMARK SMILES IDX 80 77 73 78 79 79 81 80 78 81 74 82 75 83 76 84 77 85 56 86
REMARK SMILES IDX 57 87 65 88 58 89 64 90 66 91 63 92 59 93 60 94 61 95 62 96
REMARK H PARENT 20 12 20 13 86 49 54 60
REMARK Flexibility Score: inf
ROOT
ATOM      1  C   UNL A   1      36.323  21.711  24.386  1.00  0.00     0.274 C 
ENDROOT
BRANCH   1   2
ATOM      2  O   UNL A   1      36.238  23.120  24.145  1.00  0.00    -0.458 OA
BRANCH   2   3
ATOM      3  C   UNL A   1      35.077  23.735  24.538  1.00  0.00     0.366 C 
ATOM      4  O   UNL A   1      34.646  23.725  25.680  1.00  0.00    -0.245 OA
BRANCH   3   5
ATOM      5  C   UNL A   1      34.431  24.424  23.319  1.00  0.00     0.310 C 
ATOM      6  C   UNL A   1      33.317  26.502  22.378  1.00  0.00     0.030 C 
ATOM      7  C   UNL A   1      33.328  25.492  23.548  1.00  0.00     0.079 C 
ATOM      8  C   UNL A   1      33.358  26.296  24.849  1.00  0.00     0.030 C 
ATOM      9  S   UNL A   1      31.767  24.545  23.461  1.00  0.00    -0.078 SA
ATOM     10  C   UNL A   1      32.551  23.011  22.875  1.00  0.00     0.311 C 
ATOM     11  N   UNL A   1      33.887  23.380  22.392  1.00  0.00    -0.316 N 
ATOM     12  H   UNL A   1      33.823  23.755  21.446  1.00  0.00     0.348 HD
ATOM     13  H   UNL A   1      34.498  22.564  22.374  1.00  0.00     0.348 HD
BRANCH  10  14
ATOM     14  C   UNL A   1      32.493  21.927  23.921  1.00  0.00     0.172 A 
ATOM     15  C   UNL A   1      31.798  21.845  25.117  1.00  0.00     0.054 A 
ATOM     16  O   UNL A   1      33.159  20.740  23.710  1.00  0.00    -0.454 OA
ATOM     17  C   UNL A   1      32.068  20.577  25.672  1.00  0.00     0.051 A 
ATOM     18  C   UNL A   1      32.906  19.937  24.787  1.00  0.00     0.134 A 
BRANCH  18  19
ATOM     19  C   UNL A   1      33.527  18.625  24.803  1.00  0.00     0.024 A 
ATOM     20  C   UNL A   1      34.911  18.496  24.619  1.00  0.00     0.012 A 
ATOM     21  C   UNL A   1      32.773  17.483  25.091  1.00  0.00     0.097 A 
ATOM     22  C   UNL A   1      35.530  17.244  24.625  1.00  0.00     0.008 A 
ATOM     23  C   UNL A   1      33.408  16.233  25.159  1.00  0.00     0.270 A 
ATOM     24  C   UNL A   1      34.780  16.104  24.897  1.00  0.00     0.085 A 
BRANCH  23  25
ATOM     25  N   UNL A   1      32.640  15.050  25.564  1.00  0.00     0.062 N 
ATOM     26  O   UNL A   1      31.424  15.189  25.760  1.00  0.00    -0.258 OA
ATOM     27  O   UNL A   1      33.245  13.973  25.664  1.00  0.00    -0.258 OA
ENDBRANCH  23  25
ENDBRANCH  18  19
ENDBRANCH  10  14
ENDBRANCH   3   5
ENDBRANCH   2   3
ENDBRANCH   1   2
BRANCH   1  28
ATOM     28  C   UNL A   1      37.670  21.283  24.962  1.00  0.00     0.275 C 
BRANCH  28  29
ATOM     29  O   UNL A   1      37.960  21.994  26.172  1.00  0.00    -0.458 OA
BRANCH  29  30
ATOM     30  C   UNL A   1      39.282  22.036  26.472  1.00  0.00     0.338 C 
ATOM     31  O   UNL A   1      40.123  21.195  26.210  1.00  0.00    -0.246 OA
BRANCH  30  32
ATOM     32  C   UNL A   1      39.615  23.367  26.997  1.00  0.00     0.060 A 
ATOM     33  C   UNL A   1      38.929  24.455  26.450  1.00  0.00     0.016 A 
ATOM     34  C   UNL A   1      40.601  23.558  27.967  1.00  0.00     0.016 A 
ATOM     35  C   UNL A   1      39.212  25.744  26.880  1.00  0.00     0.010 A 
ATOM     36  C   UNL A   1      40.906  24.858  28.379  1.00  0.00     0.010 A 
ATOM     37  C   UNL A   1      40.215  25.954  27.832  1.00  0.00    -0.014 A 
BRANCH  37  38
ATOM     38  C   UNL A   1      40.634  27.340  28.127  1.00  0.00     0.031 A 
ATOM     39  C   UNL A   1      42.063  27.719  27.876  1.00  0.00     0.074 A 
ATOM     40  C   UNL A   1      39.740  28.253  28.542  1.00  0.00     0.049 A 
ATOM     41  N   UNL A   1      42.679  28.842  28.126  1.00  0.00    -0.248 NA
ATOM     42  C   UNL A   1      42.905  26.690  27.246  1.00  0.00     0.031 C 
ATOM     43  C   UNL A   1      38.306  28.016  28.706  1.00  0.00     0.029 A 
ATOM     44  N   UNL A   1      39.908  29.566  28.899  1.00  0.00    -0.354 N 
ATOM     45  C   UNL A   1      43.987  28.656  27.693  1.00  0.00     0.074 A 
ATOM     46  C   UNL A   1      44.075  27.305  27.181  1.00  0.00     0.031 C 
ATOM     47  C   UNL A   1      37.728  29.146  29.150  1.00  0.00     0.029 A 
ATOM     48  C   UNL A   1      38.756  30.164  29.356  1.00  0.00     0.049 A 
ATOM     49  H   UNL A   1      40.771  30.036  28.837  1.00  0.00     0.167 HD
ATOM     50  C   UNL A   1      45.016  29.537  27.726  1.00  0.00     0.034 A 
ATOM     51  C   UNL A   1      38.570  31.376  29.916  1.00  0.00     0.034 A 
ATOM     52  C   UNL A   1      44.906  30.867  28.271  1.00  0.00     0.049 A 
ATOM     53  C   UNL A   1      39.766  32.288  30.078  1.00  0.00     0.074 A 
ATOM     54  C   UNL A   1      45.889  31.834  28.390  1.00  0.00     0.029 A 
ATOM     55  N   UNL A   1      43.744  31.414  28.804  1.00  0.00    -0.354 N 
ATOM     56  N   UNL A   1      41.013  32.094  29.705  1.00  0.00    -0.248 NA
ATOM     57  C   UNL A   1      39.532  33.579  30.737  1.00  0.00     0.031 C 
ATOM     58  C   UNL A   1      45.343  32.928  29.068  1.00  0.00     0.029 A 
ATOM     59  C   UNL A   1      43.996  32.687  29.288  1.00  0.00     0.049 A 
ATOM     60  H   UNL A   1      42.871  30.961  28.832  1.00  0.00     0.167 HD
ATOM     61  C   UNL A   1      41.700  33.253  30.055  1.00  0.00     0.074 A 
ATOM     62  C   UNL A   1      40.729  34.144  30.656  1.00  0.00     0.031 C 
ATOM     63  C   UNL A   1      43.013  33.559  29.891  1.00  0.00     0.034 A 
BRANCH  50  64
ATOM     64  C   UNL A   1      46.357  29.044  27.241  1.00  0.00     0.023 A 
ATOM     65  C   UNL A   1      46.603  28.772  25.884  1.00  0.00     0.031 A 
ATOM     66  C   UNL A   1      47.388  28.791  28.162  1.00  0.00     0.131 A 
ATOM     67  C   UNL A   1      47.822  28.193  25.498  1.00  0.00     0.055 A 
ATOM     68  C   UNL A   1      48.629  28.295  27.760  1.00  0.00     0.041 A 
ATOM     69  F   UNL A   1      47.200  29.002  29.474  1.00  0.00    -0.206 F 
ATOM     70  C   UNL A   1      48.846  27.977  26.423  1.00  0.00     0.022 A 
BRANCH  67  71
ATOM     71  S   UNL A   1      47.991  27.579  23.800  1.00  0.00     0.124 S 
ATOM     72  O   UNL A   1      47.055  28.439  23.081  1.00  0.00    -0.237 OA
ATOM     73  O   UNL A   1      49.405  27.800  23.522  1.00  0.00    -0.237 OA
ATOM     74  O   UNL A   1      47.586  26.178  23.900  1.00  0.00    -0.744 OA
ENDBRANCH  67  71
ENDBRANCH  50  64
BRANCH  51  75
ATOM     75  C   UNL A   1      37.231  31.778  30.439  1.00  0.00     0.023 A 
ATOM     76  C   UNL A   1      36.320  32.490  29.644  1.00  0.00     0.031 A 
ATOM     77  C   UNL A   1      36.874  31.520  31.776  1.00  0.00     0.131 A 
ATOM     78  C   UNL A   1      35.122  32.964  30.205  1.00  0.00     0.055 A 
ATOM     79  C   UNL A   1      35.654  31.940  32.311  1.00  0.00     0.041 A 
ATOM     80  F   UNL A   1      37.711  30.855  32.588  1.00  0.00    -0.206 F 
ATOM     81  C   UNL A   1      34.776  32.680  31.527  1.00  0.00     0.022 A 
BRANCH  78  82
ATOM     82  S   UNL A   1      34.067  34.054  29.209  1.00  0.00     0.124 S 
ATOM     83  O   UNL A   1      35.035  35.021  28.703  1.00  0.00    -0.237 OA
ATOM     84  O   UNL A   1      33.515  33.126  28.227  1.00  0.00    -0.237 OA
ATOM     85  O   UNL A   1      33.107  34.577  30.178  1.00  0.00    -0.744 OA
ENDBRANCH  78  82
ENDBRANCH  51  75
BRANCH  63  86
ATOM     86  C   UNL A   1      43.461  34.939  30.315  1.00  0.00     0.023 A 
ATOM     87  C   UNL A   1      43.341  36.055  29.470  1.00  0.00     0.031 A 
ATOM     88  C   UNL A   1      44.011  35.135  31.595  1.00  0.00     0.131 A 
ATOM     89  C   UNL A   1      43.812  37.306  29.895  1.00  0.00     0.055 A 
ATOM     90  C   UNL A   1      44.416  36.395  32.037  1.00  0.00     0.041 A 
ATOM     91  F   UNL A   1      44.153  34.104  32.444  1.00  0.00    -0.206 F 
ATOM     92  C   UNL A   1      44.330  37.488  31.181  1.00  0.00     0.022 A 
BRANCH  89  93
ATOM     93  S   UNL A   1      43.826  38.682  28.712  1.00  0.00     0.124 S 
ATOM     94  O   UNL A   1      42.668  38.374  27.877  1.00  0.00    -0.237 OA
ATOM     95  O   UNL A   1      43.693  39.845  29.583  1.00  0.00    -0.237 OA
ATOM     96  O   UNL A   1      45.121  38.551  28.048  1.00  0.00    -0.744 OA
ENDBRANCH  89  93
ENDBRANCH  63  86
ENDBRANCH  37  38
ENDBRANCH  30  32
ENDBRANCH  29  30
ENDBRANCH  28  29
ENDBRANCH   1  28
TORSDOF 17
ENDMDL
