MODEL 1
REMARK VINA RESULT:     -12.8      0.000      0.000
REMARK SMILES Cc1cc(C(=O)OCCOC(=O)c2ccc(-c3c4nc(c(-c5cc(S(=O)(=O)[O-])ccc5F)c5ccc([nH]5)c(-c5cc(S(=O)(=O)[O-])ccc5F)c5nc(c(-c6cc(S(=O)(=O)[O-])ccc6F)c6ccc3[nH]6)C=C5)C=C4)cc2)ccc1NC(=O)c1ccc(=O)n(CCOc2ccccc2)n1
REMARK SMILES IDX 7 1 5 2 6 3 4 4 1 5 2 6 3 7 78 8 77 9 76 10 79 11 80 12
REMARK SMILES IDX 81 14 82 15 83 16 97 17 84 18 87 19 85 20 86 21 88 22 89 23
REMARK SMILES IDX 90 24 91 25 92 26 96 27 93 28 95 29 94 30 8 31 9 32 10 33
REMARK SMILES IDX 11 34 12 35 13 36 14 37 75 38 15 39 74 40 16 41 17 42 18 43
REMARK SMILES IDX 68 44 19 45 73 46 67 47 69 48 20 49 72 50 66 51 65 52 21 54
REMARK SMILES IDX 53 55 33 56 52 57 34 58 37 59 51 60 70 61 35 62 36 63 50 65
REMARK SMILES IDX 71 66 38 67 22 68 23 69 31 70 24 71 30 72 32 73 29 74 25 75
REMARK SMILES IDX 26 76 27 77 28 78 54 79 55 80 63 81 56 82 62 83 64 84 61 85
REMARK SMILES IDX 57 86 58 87 59 88 60 89 39 90 40 91 48 92 41 93 47 94 49 95
REMARK SMILES IDX 46 96 42 97 43 98 44 99 45 100
REMARK H PARENT 79 13 69 53 37 64
REMARK Flexibility Score: inf
ROOT
ATOM      1  O   UNL A   1      35.885  23.022  24.853  1.00  0.00    -0.458 OA
ENDROOT
BRANCH   1   2
ATOM      2  C   UNL A   1      35.205  23.319  23.724  1.00  0.00     0.338 C 
ATOM      3  O   UNL A   1      35.523  22.985  22.587  1.00  0.00    -0.246 OA
BRANCH   2   4
ATOM      4  C   UNL A   1      34.262  24.437  23.871  1.00  0.00     0.060 A 
ATOM      5  C   UNL A   1      33.452  27.796  22.215  1.00  0.00     0.046 C 
ATOM      6  C   UNL A   1      33.740  26.786  23.291  1.00  0.00    -0.027 A 
ATOM      7  C   UNL A   1      33.965  25.420  22.907  1.00  0.00     0.021 A 
ATOM      8  C   UNL A   1      34.000  27.152  24.618  1.00  0.00     0.044 A 
ATOM      9  C   UNL A   1      34.439  26.134  25.430  1.00  0.00     0.027 A 
ATOM     10  C   UNL A   1      34.322  24.791  25.188  1.00  0.00     0.018 A 
BRANCH   8  11
ATOM     11  N   UNL A   1      33.890  28.461  25.163  1.00  0.00    -0.320 N 
ATOM     12  C   UNL A   1      32.739  29.234  25.423  1.00  0.00     0.276 C 
ATOM     13  H   UNL A   1      34.744  28.892  25.393  1.00  0.00     0.170 HD
ATOM     14  O   UNL A   1      32.814  30.415  25.749  1.00  0.00    -0.267 OA
BRANCH  12  15
ATOM     15  C   UNL A   1      31.344  28.633  25.202  1.00  0.00     0.149 A 
ATOM     16  C   UNL A   1      30.644  29.088  23.979  1.00  0.00     0.042 A 
ATOM     17  N   UNL A   1      30.937  27.656  25.967  1.00  0.00    -0.164 NA
ATOM     18  C   UNL A   1      29.846  28.182  23.410  1.00  0.00     0.076 A 
ATOM     19  N   UNL A   1      29.985  26.781  25.396  1.00  0.00    -0.226 N 
ATOM     20  C   UNL A   1      29.687  26.847  24.030  1.00  0.00     0.266 A 
ATOM     21  O   UNL A   1      29.356  25.907  23.312  1.00  0.00    -0.268 OA
BRANCH  19  22
ATOM     22  C   UNL A   1      29.740  25.522  26.126  1.00  0.00     0.190 C 
BRANCH  22  23
ATOM     23  C   UNL A   1      30.846  24.473  25.927  1.00  0.00     0.253 C 
BRANCH  23  24
ATOM     24  O   UNL A   1      31.101  23.663  27.099  1.00  0.00    -0.492 OA
BRANCH  24  25
ATOM     25  C   UNL A   1      32.057  22.716  26.872  1.00  0.00     0.119 A 
ATOM     26  C   UNL A   1      33.120  22.524  27.743  1.00  0.00     0.046 A 
ATOM     27  C   UNL A   1      31.988  21.975  25.701  1.00  0.00     0.046 A 
ATOM     28  C   UNL A   1      34.019  21.478  27.506  1.00  0.00     0.004 A 
ATOM     29  C   UNL A   1      32.815  20.871  25.511  1.00  0.00     0.004 A 
ATOM     30  C   UNL A   1      33.829  20.614  26.426  1.00  0.00     0.000 A 
ENDBRANCH  24  25
ENDBRANCH  23  24
ENDBRANCH  22  23
ENDBRANCH  19  22
ENDBRANCH  12  15
ENDBRANCH   8  11
ENDBRANCH   2   4
ENDBRANCH   1   2
BRANCH   1  31
ATOM     31  C   UNL A   1      36.742  21.882  24.682  1.00  0.00     0.275 C 
BRANCH  31  32
ATOM     32  C   UNL A   1      37.983  21.946  25.578  1.00  0.00     0.275 C 
BRANCH  32  33
ATOM     33  O   UNL A   1      38.445  23.227  26.089  1.00  0.00    -0.458 OA
BRANCH  33  34
ATOM     34  C   UNL A   1      39.713  23.415  26.530  1.00  0.00     0.338 C 
ATOM     35  O   UNL A   1      40.646  22.678  26.192  1.00  0.00    -0.246 OA
BRANCH  34  36
ATOM     36  C   UNL A   1      39.926  24.688  27.253  1.00  0.00     0.060 A 
ATOM     37  C   UNL A   1      40.390  25.801  26.530  1.00  0.00     0.016 A 
ATOM     38  C   UNL A   1      39.398  24.840  28.534  1.00  0.00     0.016 A 
ATOM     39  C   UNL A   1      40.206  27.082  27.025  1.00  0.00     0.010 A 
ATOM     40  C   UNL A   1      39.074  26.099  28.965  1.00  0.00     0.010 A 
ATOM     41  C   UNL A   1      39.517  27.210  28.229  1.00  0.00    -0.014 A 
BRANCH  41  42
ATOM     42  C   UNL A   1      39.600  28.406  29.039  1.00  0.00     0.031 A 
ATOM     43  C   UNL A   1      38.626  29.497  28.921  1.00  0.00     0.074 A 
ATOM     44  C   UNL A   1      40.593  28.262  29.945  1.00  0.00     0.049 A 
ATOM     45  N   UNL A   1      38.837  30.684  29.358  1.00  0.00    -0.248 NA
ATOM     46  C   UNL A   1      37.329  29.375  28.255  1.00  0.00     0.031 C 
ATOM     47  C   UNL A   1      40.962  28.996  31.134  1.00  0.00     0.029 A 
ATOM     48  N   UNL A   1      41.653  27.366  29.785  1.00  0.00    -0.354 N 
ATOM     49  C   UNL A   1      37.632  31.358  29.364  1.00  0.00     0.074 A 
ATOM     50  C   UNL A   1      36.761  30.556  28.542  1.00  0.00     0.031 C 
ATOM     51  C   UNL A   1      42.265  28.741  31.396  1.00  0.00     0.029 A 
ATOM     52  C   UNL A   1      42.798  27.938  30.293  1.00  0.00     0.049 A 
ATOM     53  H   UNL A   1      41.591  26.473  29.375  1.00  0.00     0.167 HD
ATOM     54  C   UNL A   1      37.503  32.413  30.222  1.00  0.00     0.034 A 
ATOM     55  C   UNL A   1      43.716  28.355  29.367  1.00  0.00     0.034 A 
ATOM     56  C   UNL A   1      38.791  32.649  30.877  1.00  0.00     0.049 A 
ATOM     57  C   UNL A   1      43.746  29.866  29.347  1.00  0.00     0.074 A 
ATOM     58  C   UNL A   1      39.305  32.192  32.080  1.00  0.00     0.029 A 
ATOM     59  N   UNL A   1      39.873  33.059  30.110  1.00  0.00    -0.354 N 
ATOM     60  N   UNL A   1      42.702  30.640  29.517  1.00  0.00    -0.248 NA
ATOM     61  C   UNL A   1      45.004  30.594  29.300  1.00  0.00     0.031 C 
ATOM     62  C   UNL A   1      40.723  32.204  31.965  1.00  0.00     0.029 A 
ATOM     63  C   UNL A   1      41.061  32.683  30.708  1.00  0.00     0.049 A 
ATOM     64  H   UNL A   1      39.803  33.548  29.258  1.00  0.00     0.167 HD
ATOM     65  C   UNL A   1      43.137  31.925  29.723  1.00  0.00     0.074 A 
ATOM     66  C   UNL A   1      44.584  31.840  29.562  1.00  0.00     0.031 C 
ATOM     67  C   UNL A   1      42.329  32.977  30.064  1.00  0.00     0.034 A 
BRANCH  54  68
ATOM     68  C   UNL A   1      36.222  33.044  30.730  1.00  0.00     0.023 A 
ATOM     69  C   UNL A   1      35.455  33.816  29.821  1.00  0.00     0.031 A 
ATOM     70  C   UNL A   1      35.716  32.997  32.042  1.00  0.00     0.131 A 
ATOM     71  C   UNL A   1      34.315  34.536  30.224  1.00  0.00     0.055 A 
ATOM     72  C   UNL A   1      34.583  33.724  32.450  1.00  0.00     0.041 A 
ATOM     73  F   UNL A   1      36.268  32.226  32.988  1.00  0.00    -0.206 F 
ATOM     74  C   UNL A   1      33.881  34.507  31.543  1.00  0.00     0.022 A 
BRANCH  71  75
ATOM     75  S   UNL A   1      33.422  35.527  28.994  1.00  0.00     0.124 S 
ATOM     76  O   UNL A   1      34.503  36.010  28.140  1.00  0.00    -0.237 OA
ATOM     77  O   UNL A   1      32.519  34.547  28.401  1.00  0.00    -0.237 OA
ATOM     78  O   UNL A   1      32.768  36.559  29.799  1.00  0.00    -0.744 OA
ENDBRANCH  71  75
ENDBRANCH  54  68
BRANCH  55  79
ATOM     79  C   UNL A   1      43.906  27.443  28.176  1.00  0.00     0.023 A 
ATOM     80  C   UNL A   1      44.139  26.067  28.425  1.00  0.00     0.031 A 
ATOM     81  C   UNL A   1      43.650  27.798  26.843  1.00  0.00     0.131 A 
ATOM     82  C   UNL A   1      43.985  25.096  27.420  1.00  0.00     0.055 A 
ATOM     83  C   UNL A   1      43.559  26.830  25.820  1.00  0.00     0.041 A 
ATOM     84  F   UNL A   1      43.400  29.070  26.506  1.00  0.00    -0.206 F 
ATOM     85  C   UNL A   1      43.699  25.470  26.110  1.00  0.00     0.022 A 
BRANCH  82  86
ATOM     86  S   UNL A   1      43.911  23.346  27.917  1.00  0.00     0.124 S 
ATOM     87  O   UNL A   1      43.818  22.666  26.631  1.00  0.00    -0.237 OA
ATOM     88  O   UNL A   1      45.167  23.172  28.644  1.00  0.00    -0.237 OA
ATOM     89  O   UNL A   1      42.715  23.277  28.749  1.00  0.00    -0.744 OA
ENDBRANCH  82  86
ENDBRANCH  55  79
BRANCH  67  90
ATOM     90  C   UNL A   1      42.732  34.421  29.903  1.00  0.00     0.023 A 
ATOM     91  C   UNL A   1      42.493  35.121  28.719  1.00  0.00     0.031 A 
ATOM     92  C   UNL A   1      43.278  35.180  30.965  1.00  0.00     0.131 A 
ATOM     93  C   UNL A   1      42.933  36.436  28.553  1.00  0.00     0.055 A 
ATOM     94  C   UNL A   1      43.581  36.538  30.845  1.00  0.00     0.041 A 
ATOM     95  F   UNL A   1      43.529  34.647  32.170  1.00  0.00    -0.206 F 
ATOM     96  C   UNL A   1      43.442  37.169  29.618  1.00  0.00     0.022 A 
BRANCH  93  97
ATOM     97  S   UNL A   1      42.956  37.084  26.868  1.00  0.00     0.124 S 
ATOM     98  O   UNL A   1      41.834  38.020  26.897  1.00  0.00    -0.237 OA
ATOM     99  O   UNL A   1      44.280  37.691  26.780  1.00  0.00    -0.237 OA
ATOM    100  O   UNL A   1      42.754  35.898  26.041  1.00  0.00    -0.744 OA
ENDBRANCH  93  97
ENDBRANCH  67  90
ENDBRANCH  41  42
ENDBRANCH  34  36
ENDBRANCH  33  34
ENDBRANCH  32  33
ENDBRANCH  31  32
ENDBRANCH   1  31
TORSDOF 20
ENDMDL
MODEL 2
REMARK VINA RESULT:     -12.6      3.296      9.409
REMARK SMILES Cc1cc(C(=O)OCCOC(=O)c2ccc(-c3c4nc(c(-c5cc(S(=O)(=O)[O-])ccc5F)c5ccc([nH]5)c(-c5cc(S(=O)(=O)[O-])ccc5F)c5nc(c(-c6cc(S(=O)(=O)[O-])ccc6F)c6ccc3[nH]6)C=C5)C=C4)cc2)ccc1NC(=O)c1ccc(=O)n(CCOc2ccccc2)n1
REMARK SMILES IDX 7 1 5 2 6 3 4 4 1 5 2 6 3 7 78 8 77 9 76 10 79 11 80 12
REMARK SMILES IDX 81 14 82 15 83 16 97 17 84 18 87 19 85 20 86 21 88 22 89 23
REMARK SMILES IDX 90 24 91 25 92 26 96 27 93 28 95 29 94 30 8 31 9 32 10 33
REMARK SMILES IDX 11 34 12 35 13 36 14 37 75 38 15 39 74 40 16 41 17 42 18 43
REMARK SMILES IDX 68 44 19 45 73 46 67 47 69 48 20 49 72 50 66 51 65 52 21 54
REMARK SMILES IDX 53 55 33 56 52 57 34 58 37 59 51 60 70 61 35 62 36 63 50 65
REMARK SMILES IDX 71 66 38 67 22 68 23 69 31 70 24 71 30 72 32 73 29 74 25 75
REMARK SMILES IDX 26 76 27 77 28 78 54 79 55 80 63 81 56 82 62 83 64 84 61 85
REMARK SMILES IDX 57 86 58 87 59 88 60 89 39 90 40 91 48 92 41 93 47 94 49 95
REMARK SMILES IDX 46 96 42 97 43 98 44 99 45 100
REMARK H PARENT 79 13 69 53 37 64
REMARK Flexibility Score: inf
ROOT
ATOM      1  O   UNL A   1      32.012  29.835  27.322  1.00  0.00    -0.458 OA
ENDROOT
BRANCH   1   2
ATOM      2  C   UNL A   1      32.346  28.670  26.724  1.00  0.00     0.338 C 
ATOM      3  O   UNL A   1      33.358  28.014  26.948  1.00  0.00    -0.246 OA
BRANCH   2   4
ATOM      4  C   UNL A   1      31.634  28.420  25.463  1.00  0.00     0.060 A 
ATOM      5  C   UNL A   1      30.043  25.505  23.550  1.00  0.00     0.046 C 
ATOM      6  C   UNL A   1      30.874  26.729  23.823  1.00  0.00    -0.027 A 
ATOM      7  C   UNL A   1      30.856  27.288  25.146  1.00  0.00     0.021 A 
ATOM      8  C   UNL A   1      31.815  27.219  22.909  1.00  0.00     0.044 A 
ATOM      9  C   UNL A   1      32.629  28.219  23.387  1.00  0.00     0.027 A 
ATOM     10  C   UNL A   1      32.401  28.995  24.492  1.00  0.00     0.018 A 
BRANCH   8  11
ATOM     11  N   UNL A   1      32.018  26.751  21.581  1.00  0.00    -0.320 N 
ATOM     12  C   UNL A   1      32.707  25.606  21.127  1.00  0.00     0.276 C 
ATOM     13  H   UNL A   1      31.620  27.307  20.875  1.00  0.00     0.170 HD
ATOM     14  O   UNL A   1      32.933  25.420  19.935  1.00  0.00    -0.267 OA
BRANCH  12  15
ATOM     15  C   UNL A   1      33.284  24.604  22.137  1.00  0.00     0.149 A 
ATOM     16  C   UNL A   1      34.337  25.141  23.030  1.00  0.00     0.042 A 
ATOM     17  N   UNL A   1      32.717  23.437  22.280  1.00  0.00    -0.164 NA
ATOM     18  C   UNL A   1      34.366  24.613  24.256  1.00  0.00     0.076 A 
ATOM     19  N   UNL A   1      32.873  22.826  23.545  1.00  0.00    -0.226 N 
ATOM     20  C   UNL A   1      33.409  23.543  24.621  1.00  0.00     0.266 A 
ATOM     21  O   UNL A   1      33.127  23.393  25.806  1.00  0.00    -0.268 OA
BRANCH  19  22
ATOM     22  C   UNL A   1      32.006  21.664  23.816  1.00  0.00     0.190 C 
BRANCH  22  23
ATOM     23  C   UNL A   1      32.774  20.336  23.920  1.00  0.00     0.253 C 
BRANCH  23  24
ATOM     24  O   UNL A   1      32.162  19.375  24.813  1.00  0.00    -0.492 OA
BRANCH  24  25
ATOM     25  C   UNL A   1      32.701  18.128  24.673  1.00  0.00     0.119 A 
ATOM     26  C   UNL A   1      33.406  17.758  23.537  1.00  0.00     0.046 A 
ATOM     27  C   UNL A   1      32.474  17.195  25.674  1.00  0.00     0.046 A 
ATOM     28  C   UNL A   1      34.013  16.498  23.488  1.00  0.00     0.004 A 
ATOM     29  C   UNL A   1      33.157  15.982  25.679  1.00  0.00     0.004 A 
ATOM     30  C   UNL A   1      33.941  15.636  24.585  1.00  0.00     0.000 A 
ENDBRANCH  24  25
ENDBRANCH  23  24
ENDBRANCH  22  23
ENDBRANCH  19  22
ENDBRANCH  12  15
ENDBRANCH   8  11
ENDBRANCH   2   4
ENDBRANCH   1   2
BRANCH   1  31
ATOM     31  C   UNL A   1      33.045  30.824  27.192  1.00  0.00     0.275 C 
BRANCH  31  32
ATOM     32  C   UNL A   1      32.481  32.227  26.952  1.00  0.00     0.275 C 
BRANCH  32  33
ATOM     33  O   UNL A   1      32.173  33.090  28.082  1.00  0.00    -0.458 OA
BRANCH  33  34
ATOM     34  C   UNL A   1      32.938  34.162  28.402  1.00  0.00     0.338 C 
ATOM     35  O   UNL A   1      32.493  35.315  28.406  1.00  0.00    -0.246 OA
BRANCH  34  36
ATOM     36  C   UNL A   1      34.266  33.820  28.959  1.00  0.00     0.060 A 
ATOM     37  C   UNL A   1      34.339  32.842  29.967  1.00  0.00     0.016 A 
ATOM     38  C   UNL A   1      35.414  34.244  28.292  1.00  0.00     0.016 A 
ATOM     39  C   UNL A   1      35.534  32.187  30.218  1.00  0.00     0.010 A 
ATOM     40  C   UNL A   1      36.559  33.504  28.422  1.00  0.00     0.010 A 
ATOM     41  C   UNL A   1      36.624  32.510  29.412  1.00  0.00    -0.014 A 
BRANCH  41  42
ATOM     42  C   UNL A   1      37.985  32.215  29.805  1.00  0.00     0.031 A 
ATOM     43  C   UNL A   1      38.663  30.979  29.399  1.00  0.00     0.074 A 
ATOM     44  C   UNL A   1      38.503  33.285  30.450  1.00  0.00     0.049 A 
ATOM     45  N   UNL A   1      39.714  30.526  29.979  1.00  0.00    -0.248 NA
ATOM     46  C   UNL A   1      38.199  30.099  28.327  1.00  0.00     0.031 C 
ATOM     47  C   UNL A   1      39.847  33.652  30.835  1.00  0.00     0.029 A 
ATOM     48  N   UNL A   1      37.719  34.262  31.068  1.00  0.00    -0.354 N 
ATOM     49  C   UNL A   1      40.255  29.544  29.173  1.00  0.00     0.074 A 
ATOM     50  C   UNL A   1      39.208  29.219  28.238  1.00  0.00     0.031 C 
ATOM     51  C   UNL A   1      39.762  34.552  31.843  1.00  0.00     0.029 A 
ATOM     52  C   UNL A   1      38.352  34.678  32.217  1.00  0.00     0.049 A 
ATOM     53  H   UNL A   1      36.855  34.597  30.735  1.00  0.00     0.167 HD
ATOM     54  C   UNL A   1      41.589  29.280  29.310  1.00  0.00     0.034 A 
ATOM     55  C   UNL A   1      37.793  34.253  33.392  1.00  0.00     0.034 A 
ATOM     56  C   UNL A   1      42.115  30.073  30.423  1.00  0.00     0.049 A 
ATOM     57  C   UNL A   1      38.704  33.231  34.032  1.00  0.00     0.074 A 
ATOM     58  C   UNL A   1      42.722  31.318  30.454  1.00  0.00     0.029 A 
ATOM     59  N   UNL A   1      41.658  29.818  31.708  1.00  0.00    -0.354 N 
ATOM     60  N   UNL A   1      39.419  32.349  33.378  1.00  0.00    -0.248 NA
ATOM     61  C   UNL A   1      38.988  33.264  35.458  1.00  0.00     0.031 C 
ATOM     62  C   UNL A   1      42.496  31.866  31.748  1.00  0.00     0.029 A 
ATOM     63  C   UNL A   1      41.774  30.948  32.496  1.00  0.00     0.049 A 
ATOM     64  H   UNL A   1      41.301  28.953  32.016  1.00  0.00     0.167 HD
ATOM     65  C   UNL A   1      40.328  31.792  34.243  1.00  0.00     0.074 A 
ATOM     66  C   UNL A   1      40.003  32.390  35.532  1.00  0.00     0.031 C 
ATOM     67  C   UNL A   1      41.324  30.925  33.876  1.00  0.00     0.034 A 
BRANCH  54  68
ATOM     68  C   UNL A   1      42.504  28.589  28.319  1.00  0.00     0.023 A 
ATOM     69  C   UNL A   1      42.789  27.216  28.521  1.00  0.00     0.031 A 
ATOM     70  C   UNL A   1      43.162  29.176  27.222  1.00  0.00     0.131 A 
ATOM     71  C   UNL A   1      43.716  26.516  27.727  1.00  0.00     0.055 A 
ATOM     72  C   UNL A   1      44.097  28.483  26.433  1.00  0.00     0.041 A 
ATOM     73  F   UNL A   1      42.917  30.435  26.838  1.00  0.00    -0.206 F 
ATOM     74  C   UNL A   1      44.386  27.148  26.688  1.00  0.00     0.022 A 
BRANCH  71  75
ATOM     75  S   UNL A   1      44.042  24.768  28.090  1.00  0.00     0.124 S 
ATOM     76  O   UNL A   1      42.754  24.313  28.606  1.00  0.00    -0.237 OA
ATOM     77  O   UNL A   1      44.435  24.247  26.785  1.00  0.00    -0.237 OA
ATOM     78  O   UNL A   1      45.116  24.822  29.081  1.00  0.00    -0.744 OA
ENDBRANCH  71  75
ENDBRANCH  54  68
BRANCH  55  79
ATOM     79  C   UNL A   1      36.281  34.250  33.435  1.00  0.00     0.023 A 
ATOM     80  C   UNL A   1      35.610  35.477  33.206  1.00  0.00     0.031 A 
ATOM     81  C   UNL A   1      35.480  33.099  33.458  1.00  0.00     0.131 A 
ATOM     82  C   UNL A   1      34.242  35.524  32.883  1.00  0.00     0.055 A 
ATOM     83  C   UNL A   1      34.093  33.152  33.199  1.00  0.00     0.041 A 
ATOM     84  F   UNL A   1      36.021  31.888  33.650  1.00  0.00    -0.206 F 
ATOM     85  C   UNL A   1      33.472  34.363  32.882  1.00  0.00     0.022 A 
BRANCH  82  86
ATOM     86  S   UNL A   1      33.566  37.079  32.221  1.00  0.00     0.124 S 
ATOM     87  O   UNL A   1      34.435  38.077  32.834  1.00  0.00    -0.237 OA
ATOM     88  O   UNL A   1      33.716  36.899  30.779  1.00  0.00    -0.237 OA
ATOM     89  O   UNL A   1      32.185  37.080  32.692  1.00  0.00    -0.744 OA
ENDBRANCH  82  86
ENDBRANCH  55  79
BRANCH  67  90
ATOM     90  C   UNL A   1      42.047  30.030  34.851  1.00  0.00     0.023 A 
ATOM     91  C   UNL A   1      41.691  28.690  35.017  1.00  0.00     0.031 A 
ATOM     92  C   UNL A   1      43.184  30.458  35.576  1.00  0.00     0.131 A 
ATOM     93  C   UNL A   1      42.318  27.887  35.971  1.00  0.00     0.055 A 
ATOM     94  C   UNL A   1      43.903  29.611  36.421  1.00  0.00     0.041 A 
ATOM     95  F   UNL A   1      43.657  31.710  35.489  1.00  0.00    -0.206 F 
ATOM     96  C   UNL A   1      43.450  28.321  36.653  1.00  0.00     0.022 A 
BRANCH  93  97
ATOM     97  S   UNL A   1      41.506  26.330  36.392  1.00  0.00     0.124 S 
ATOM     98  O   UNL A   1      40.796  26.024  35.153  1.00  0.00    -0.237 OA
ATOM     99  O   UNL A   1      42.635  25.458  36.703  1.00  0.00    -0.237 OA
ATOM    100  O   UNL A   1      40.656  26.683  37.526  1.00  0.00    -0.744 OA
ENDBRANCH  93  97
ENDBRANCH  67  90
ENDBRANCH  41  42
ENDBRANCH  34  36
ENDBRANCH  33  34
ENDBRANCH  32  33
ENDBRANCH  31  32
ENDBRANCH   1  31
TORSDOF 20
ENDMDL
MODEL 3
REMARK VINA RESULT:     -12.6      3.732      9.882
REMARK SMILES Cc1cc(C(=O)OCCOC(=O)c2ccc(-c3c4nc(c(-c5cc(S(=O)(=O)[O-])ccc5F)c5ccc([nH]5)c(-c5cc(S(=O)(=O)[O-])ccc5F)c5nc(c(-c6cc(S(=O)(=O)[O-])ccc6F)c6ccc3[nH]6)C=C5)C=C4)cc2)ccc1NC(=O)c1ccc(=O)n(CCOc2ccccc2)n1
REMARK SMILES IDX 7 1 5 2 6 3 4 4 1 5 2 6 3 7 78 8 77 9 76 10 79 11 80 12
REMARK SMILES IDX 81 14 82 15 83 16 97 17 84 18 87 19 85 20 86 21 88 22 89 23
REMARK SMILES IDX 90 24 91 25 92 26 96 27 93 28 95 29 94 30 8 31 9 32 10 33
REMARK SMILES IDX 11 34 12 35 13 36 14 37 75 38 15 39 74 40 16 41 17 42 18 43
REMARK SMILES IDX 68 44 19 45 73 46 67 47 69 48 20 49 72 50 66 51 65 52 21 54
REMARK SMILES IDX 53 55 33 56 52 57 34 58 37 59 51 60 70 61 35 62 36 63 50 65
REMARK SMILES IDX 71 66 38 67 22 68 23 69 31 70 24 71 30 72 32 73 29 74 25 75
REMARK SMILES IDX 26 76 27 77 28 78 54 79 55 80 63 81 56 82 62 83 64 84 61 85
REMARK SMILES IDX 57 86 58 87 59 88 60 89 39 90 40 91 48 92 41 93 47 94 49 95
REMARK SMILES IDX 46 96 42 97 43 98 44 99 45 100
REMARK H PARENT 79 13 69 53 37 64
REMARK Flexibility Score: inf
ROOT
ATOM      1  O   UNL A   1      33.267  29.748  26.126  1.00  0.00    -0.458 OA
ENDROOT
BRANCH   1   2
ATOM      2  C   UNL A   1      32.166  29.597  25.357  1.00  0.00     0.338 C 
ATOM      3  O   UNL A   1      31.316  30.456  25.146  1.00  0.00    -0.246 OA
BRANCH   2   4
ATOM      4  C   UNL A   1      31.801  28.196  25.105  1.00  0.00     0.060 A 
ATOM      5  C   UNL A   1      28.742  26.126  24.082  1.00  0.00     0.046 C 
ATOM      6  C   UNL A   1      29.964  26.557  24.846  1.00  0.00    -0.027 A 
ATOM      7  C   UNL A   1      30.664  27.734  24.412  1.00  0.00     0.021 A 
ATOM      8  C   UNL A   1      30.325  25.986  26.074  1.00  0.00     0.044 A 
ATOM      9  C   UNL A   1      31.347  26.623  26.737  1.00  0.00     0.027 A 
ATOM     10  C   UNL A   1      32.244  27.504  26.195  1.00  0.00     0.018 A 
BRANCH   8  11
ATOM     11  N   UNL A   1      29.709  24.861  26.689  1.00  0.00    -0.320 N 
ATOM     12  C   UNL A   1      30.095  23.504  26.674  1.00  0.00     0.276 C 
ATOM     13  H   UNL A   1      28.892  25.058  27.199  1.00  0.00     0.170 HD
ATOM     14  O   UNL A   1      29.370  22.621  27.122  1.00  0.00    -0.267 OA
BRANCH  12  15
ATOM     15  C   UNL A   1      31.408  23.086  25.997  1.00  0.00     0.149 A 
ATOM     16  C   UNL A   1      32.321  22.273  26.833  1.00  0.00     0.042 A 
ATOM     17  N   UNL A   1      31.567  23.297  24.718  1.00  0.00    -0.164 NA
ATOM     18  C   UNL A   1      33.050  21.374  26.170  1.00  0.00     0.076 A 
ATOM     19  N   UNL A   1      32.453  22.418  24.053  1.00  0.00    -0.226 N 
ATOM     20  C   UNL A   1      32.935  21.273  24.697  1.00  0.00     0.266 A 
ATOM     21  O   UNL A   1      33.222  20.205  24.163  1.00  0.00    -0.268 OA
BRANCH  19  22
ATOM     22  C   UNL A   1      32.418  22.454  22.579  1.00  0.00     0.190 C 
BRANCH  22  23
ATOM     23  C   UNL A   1      33.715  22.983  21.948  1.00  0.00     0.253 C 
BRANCH  23  24
ATOM     24  O   UNL A   1      34.240  24.167  22.595  1.00  0.00    -0.492 OA
BRANCH  24  25
ATOM     25  C   UNL A   1      35.150  23.861  23.565  1.00  0.00     0.119 A 
ATOM     26  C   UNL A   1      35.097  24.436  24.827  1.00  0.00     0.046 A 
ATOM     27  C   UNL A   1      36.189  22.999  23.248  1.00  0.00     0.046 A 
ATOM     28  C   UNL A   1      36.000  24.016  25.810  1.00  0.00     0.004 A 
ATOM     29  C   UNL A   1      37.026  22.501  24.243  1.00  0.00     0.004 A 
ATOM     30  C   UNL A   1      36.923  23.004  25.535  1.00  0.00     0.000 A 
ENDBRANCH  24  25
ENDBRANCH  23  24
ENDBRANCH  22  23
ENDBRANCH  19  22
ENDBRANCH  12  15
ENDBRANCH   8  11
ENDBRANCH   2   4
ENDBRANCH   1   2
BRANCH   1  31
ATOM     31  C   UNL A   1      33.144  30.856  27.031  1.00  0.00     0.275 C 
BRANCH  31  32
ATOM     32  C   UNL A   1      34.502  31.331  27.558  1.00  0.00     0.275 C 
BRANCH  32  33
ATOM     33  O   UNL A   1      35.569  30.370  27.786  1.00  0.00    -0.458 OA
BRANCH  33  34
ATOM     34  C   UNL A   1      36.294  30.354  28.932  1.00  0.00     0.338 C 
ATOM     35  O   UNL A   1      35.876  30.845  29.986  1.00  0.00    -0.246 OA
BRANCH  34  36
ATOM     36  C   UNL A   1      37.509  29.511  28.873  1.00  0.00     0.060 A 
ATOM     37  C   UNL A   1      38.426  29.726  27.828  1.00  0.00     0.016 A 
ATOM     38  C   UNL A   1      37.860  28.744  29.982  1.00  0.00     0.016 A 
ATOM     39  C   UNL A   1      39.737  29.293  27.949  1.00  0.00     0.010 A 
ATOM     40  C   UNL A   1      39.182  28.445  30.181  1.00  0.00     0.010 A 
ATOM     41  C   UNL A   1      40.102  28.683  29.147  1.00  0.00    -0.014 A 
BRANCH  41  42
ATOM     42  C   UNL A   1      41.279  27.850  29.258  1.00  0.00     0.031 A 
ATOM     43  C   UNL A   1      41.300  26.463  28.781  1.00  0.00     0.074 A 
ATOM     44  C   UNL A   1      42.308  28.593  29.723  1.00  0.00     0.049 A 
ATOM     45  N   UNL A   1      42.178  25.602  29.147  1.00  0.00    -0.248 NA
ATOM     46  C   UNL A   1      40.304  25.887  27.877  1.00  0.00     0.031 C 
ATOM     47  C   UNL A   1      43.735  28.373  29.796  1.00  0.00     0.029 A 
ATOM     48  N   UNL A   1      42.134  29.778  30.443  1.00  0.00    -0.354 N 
ATOM     49  C   UNL A   1      42.093  24.517  28.296  1.00  0.00     0.074 A 
ATOM     50  C   UNL A   1      40.830  24.679  27.622  1.00  0.00     0.031 C 
ATOM     51  C   UNL A   1      44.236  29.190  30.752  1.00  0.00     0.029 A 
ATOM     52  C   UNL A   1      43.111  29.858  31.409  1.00  0.00     0.049 A 
ATOM     53  H   UNL A   1      41.429  30.446  30.283  1.00  0.00     0.167 HD
ATOM     54  C   UNL A   1      43.204  23.734  28.161  1.00  0.00     0.034 A 
ATOM     55  C   UNL A   1      42.694  29.648  32.696  1.00  0.00     0.034 A 
ATOM     56  C   UNL A   1      44.230  24.203  29.096  1.00  0.00     0.049 A 
ATOM     57  C   UNL A   1      43.232  28.321  33.180  1.00  0.00     0.074 A 
ATOM     58  C   UNL A   1      45.276  25.096  28.934  1.00  0.00     0.029 A 
ATOM     59  N   UNL A   1      43.995  24.103  30.460  1.00  0.00    -0.354 N 
ATOM     60  N   UNL A   1      43.375  27.253  32.435  1.00  0.00    -0.248 NA
ATOM     61  C   UNL A   1      43.803  28.180  34.510  1.00  0.00     0.031 C 
ATOM     62  C   UNL A   1      45.572  25.636  30.217  1.00  0.00     0.029 A 
ATOM     63  C   UNL A   1      44.720  25.058  31.147  1.00  0.00     0.049 A 
ATOM     64  H   UNL A   1      43.396  23.444  30.880  1.00  0.00     0.167 HD
ATOM     65  C   UNL A   1      44.145  26.343  33.115  1.00  0.00     0.074 A 
ATOM     66  C   UNL A   1      44.372  26.970  34.412  1.00  0.00     0.031 C 
ATOM     67  C   UNL A   1      44.606  25.164  32.591  1.00  0.00     0.034 A 
BRANCH  54  68
ATOM     68  C   UNL A   1      43.530  22.773  27.035  1.00  0.00     0.023 A 
ATOM     69  C   UNL A   1      42.887  21.510  27.032  1.00  0.00     0.031 A 
ATOM     70  C   UNL A   1      44.455  22.971  25.994  1.00  0.00     0.131 A 
ATOM     71  C   UNL A   1      43.208  20.507  26.098  1.00  0.00     0.055 A 
ATOM     72  C   UNL A   1      44.786  21.967  25.066  1.00  0.00     0.041 A 
ATOM     73  F   UNL A   1      45.064  24.147  25.799  1.00  0.00    -0.206 F 
ATOM     74  C   UNL A   1      44.170  20.724  25.120  1.00  0.00     0.022 A 
BRANCH  71  75
ATOM     75  S   UNL A   1      42.358  18.907  26.200  1.00  0.00     0.124 S 
ATOM     76  O   UNL A   1      43.130  18.087  25.271  1.00  0.00    -0.237 OA
ATOM     77  O   UNL A   1      42.487  18.575  27.615  1.00  0.00    -0.237 OA
ATOM     78  O   UNL A   1      40.997  19.216  25.762  1.00  0.00    -0.744 OA
ENDBRANCH  71  75
ENDBRANCH  54  68
BRANCH  55  79
ATOM     79  C   UNL A   1      41.356  30.252  33.058  1.00  0.00     0.023 A 
ATOM     80  C   UNL A   1      41.215  31.660  32.957  1.00  0.00     0.031 A 
ATOM     81  C   UNL A   1      40.175  29.525  33.268  1.00  0.00     0.131 A 
ATOM     82  C   UNL A   1      39.953  32.278  32.931  1.00  0.00     0.055 A 
ATOM     83  C   UNL A   1      38.911  30.152  33.307  1.00  0.00     0.041 A 
ATOM     84  F   UNL A   1      40.199  28.188  33.360  1.00  0.00    -0.206 F 
ATOM     85  C   UNL A   1      38.792  31.530  33.110  1.00  0.00     0.022 A 
BRANCH  82  86
ATOM     86  S   UNL A   1      39.857  34.018  32.403  1.00  0.00     0.124 S 
ATOM     87  O   UNL A   1      41.261  34.357  32.208  1.00  0.00    -0.237 OA
ATOM     88  O   UNL A   1      39.044  33.934  31.190  1.00  0.00    -0.237 OA
ATOM     89  O   UNL A   1      39.203  34.681  33.526  1.00  0.00    -0.744 OA
ENDBRANCH  82  86
ENDBRANCH  55  79
BRANCH  67  90
ATOM     90  C   UNL A   1      45.099  24.015  33.434  1.00  0.00     0.023 A 
ATOM     91  C   UNL A   1      46.406  23.974  33.925  1.00  0.00     0.031 A 
ATOM     92  C   UNL A   1      44.249  22.968  33.863  1.00  0.00     0.131 A 
ATOM     93  C   UNL A   1      46.875  22.874  34.645  1.00  0.00     0.055 A 
ATOM     94  C   UNL A   1      44.680  21.944  34.707  1.00  0.00     0.041 A 
ATOM     95  F   UNL A   1      42.961  22.898  33.497  1.00  0.00    -0.206 F 
ATOM     96  C   UNL A   1      46.014  21.871  35.077  1.00  0.00     0.022 A 
BRANCH  93  97
ATOM     97  S   UNL A   1      48.663  22.734  34.853  1.00  0.00     0.124 S 
ATOM     98  O   UNL A   1      49.147  23.771  33.944  1.00  0.00    -0.237 OA
ATOM     99  O   UNL A   1      48.838  23.011  36.275  1.00  0.00    -0.237 OA
ATOM    100  O   UNL A   1      48.950  21.363  34.442  1.00  0.00    -0.744 OA
ENDBRANCH  93  97
ENDBRANCH  67  90
ENDBRANCH  41  42
ENDBRANCH  34  36
ENDBRANCH  33  34
ENDBRANCH  32  33
ENDBRANCH  31  32
ENDBRANCH   1  31
TORSDOF 20
ENDMDL
