MODEL 1
REMARK VINA RESULT:     -10.9      0.000      0.000
REMARK SMILES CCCC1(C(=O)OCCOC(=O)c2ccc(-c3c4nc(c(-c5cc(S(=O)(=O)[O-])ccc5F)c5ccc([nH]5)c(-c5cc(S(=O)(=O)[O-])ccc5F)c5nc(c(-c6cc(S(=O)(=O)[O-])ccc6F)c6ccc3[nH]6)C=C5)C=C4)cc2)CC[NH+]([C@H](C)[C@H](C)O)CC1
REMARK SMILES IDX 8 1 7 2 5 3 6 4 4 5 76 6 85 7 77 8 84 9 78 10 3 12 2 13 1 14
REMARK SMILES IDX 79 15 80 16 81 17 82 18 83 19 9 21 10 22 11 23 12 24 13 25
REMARK SMILES IDX 14 26 75 27 15 28 74 29 16 30 17 31 18 32 68 33 19 34 73 35
REMARK SMILES IDX 67 36 69 37 20 38 72 39 66 40 65 41 21 43 53 44 33 45 52 46
REMARK SMILES IDX 34 47 37 48 51 49 70 50 35 51 36 52 50 54 71 55 38 56 22 57
REMARK SMILES IDX 23 58 31 59 24 60 30 61 32 62 29 63 25 64 26 65 27 66 28 67
REMARK SMILES IDX 54 68 55 69 63 70 56 71 62 72 64 73 61 74 57 75 58 76 59 77
REMARK SMILES IDX 60 78 39 79 40 80 48 81 41 82 47 83 49 84 46 85 42 86 43 87
REMARK SMILES IDX 44 88 45 89
REMARK H PARENT 78 11 83 20 69 42 37 53
REMARK Flexibility Score: inf
ROOT
ATOM      1  C   UNL A   1      36.578  23.071  23.493  1.00  0.00     0.274 C 
ENDROOT
BRANCH   1   2
ATOM      2  O   UNL A   1      35.668  23.983  24.139  1.00  0.00    -0.462 OA
BRANCH   2   3
ATOM      3  C   UNL A   1      34.392  24.037  23.669  1.00  0.00     0.312 C 
ATOM      4  O   UNL A   1      34.067  23.723  22.529  1.00  0.00    -0.252 OA
BRANCH   3   5
ATOM      5  C   UNL A   1      33.413  24.659  24.682  1.00  0.00     0.079 C 
ATOM      6  C   UNL A   1      34.020  25.895  25.369  1.00  0.00     0.080 C 
ATOM      7  C   UNL A   1      32.213  25.106  23.802  1.00  0.00     0.080 C 
ATOM      8  C   UNL A   1      32.975  26.744  26.076  1.00  0.00     0.263 C 
ATOM      9  C   UNL A   1      31.260  26.086  24.484  1.00  0.00     0.263 C 
ATOM     10  N   UNL A   1      31.905  27.188  25.190  1.00  0.00    -0.331 N 
ATOM     11  H   UNL A   1      31.205  27.542  25.841  1.00  0.00     0.348 HD
BRANCH   5  12
ATOM     12  C   UNL A   1      32.917  23.588  25.699  1.00  0.00     0.019 C 
BRANCH  12  13
ATOM     13  C   UNL A   1      33.886  23.132  26.799  1.00  0.00    -0.002 C 
ATOM     14  C   UNL A   1      33.279  22.356  27.958  1.00  0.00     0.004 C 
ENDBRANCH  12  13
ENDBRANCH   5  12
BRANCH  10  15
ATOM     15  C   UNL A   1      32.103  28.431  24.429  1.00  0.00     0.209 C 
ATOM     16  C   UNL A   1      32.888  29.551  25.130  1.00  0.00     0.078 C 
BRANCH  15  17
ATOM     17  C   UNL A   1      30.770  29.028  23.869  1.00  0.00     0.169 C 
ATOM     18  C   UNL A   1      30.757  29.171  22.350  1.00  0.00     0.045 C 
BRANCH  17  19
ATOM     19  O   UNL A   1      30.548  30.330  24.431  1.00  0.00    -0.387 OA
ATOM     20  H   UNL A   1      29.968  30.254  25.204  1.00  0.00     0.211 HD
ENDBRANCH  17  19
ENDBRANCH  15  17
ENDBRANCH  10  15
ENDBRANCH   3   5
ENDBRANCH   2   3
ENDBRANCH   1   2
BRANCH   1  21
ATOM     21  C   UNL A   1      36.563  21.727  24.211  1.00  0.00     0.275 C 
BRANCH  21  22
ATOM     22  O   UNL A   1      37.032  21.933  25.552  1.00  0.00    -0.458 OA
BRANCH  22  23
ATOM     23  C   UNL A   1      38.330  21.639  25.788  1.00  0.00     0.338 C 
ATOM     24  O   UNL A   1      38.927  20.635  25.424  1.00  0.00    -0.246 OA
BRANCH  23  25
ATOM     25  C   UNL A   1      38.972  22.757  26.515  1.00  0.00     0.060 A 
ATOM     26  C   UNL A   1      38.467  24.052  26.412  1.00  0.00     0.016 A 
ATOM     27  C   UNL A   1      40.180  22.547  27.181  1.00  0.00     0.016 A 
ATOM     28  C   UNL A   1      39.224  25.137  26.850  1.00  0.00     0.010 A 
ATOM     29  C   UNL A   1      40.872  23.633  27.736  1.00  0.00     0.010 A 
ATOM     30  C   UNL A   1      40.431  24.955  27.540  1.00  0.00    -0.014 A 
BRANCH  30  31
ATOM     31  C   UNL A   1      41.248  26.122  28.007  1.00  0.00     0.031 A 
ATOM     32  C   UNL A   1      40.630  27.179  28.895  1.00  0.00     0.074 A 
ATOM     33  C   UNL A   1      42.547  26.259  27.662  1.00  0.00     0.049 A 
ATOM     34  N   UNL A   1      41.029  28.403  29.133  1.00  0.00    -0.248 NA
ATOM     35  C   UNL A   1      39.383  26.815  29.587  1.00  0.00     0.031 C 
ATOM     36  C   UNL A   1      43.332  25.301  26.881  1.00  0.00     0.029 A 
ATOM     37  N   UNL A   1      43.447  27.263  27.936  1.00  0.00    -0.354 N 
ATOM     38  C   UNL A   1      40.040  28.986  29.921  1.00  0.00     0.074 A 
ATOM     39  C   UNL A   1      39.028  27.971  30.134  1.00  0.00     0.031 C 
ATOM     40  C   UNL A   1      44.600  25.724  26.800  1.00  0.00     0.029 A 
ATOM     41  C   UNL A   1      44.690  27.056  27.382  1.00  0.00     0.049 A 
ATOM     42  H   UNL A   1      43.224  28.055  28.477  1.00  0.00     0.167 HD
ATOM     43  C   UNL A   1      39.979  30.253  30.406  1.00  0.00     0.034 A 
ATOM     44  C   UNL A   1      45.763  27.864  27.270  1.00  0.00     0.034 A 
ATOM     45  C   UNL A   1      41.039  31.224  30.255  1.00  0.00     0.049 A 
ATOM     46  C   UNL A   1      45.666  29.275  27.779  1.00  0.00     0.074 A 
ATOM     47  C   UNL A   1      41.083  32.536  30.702  1.00  0.00     0.029 A 
ATOM     48  N   UNL A   1      42.258  30.983  29.633  1.00  0.00    -0.354 N 
ATOM     49  N   UNL A   1      44.659  29.871  28.372  1.00  0.00    -0.248 NA
ATOM     50  C   UNL A   1      46.839  30.132  27.568  1.00  0.00     0.031 C 
ATOM     51  C   UNL A   1      42.305  33.097  30.312  1.00  0.00     0.029 A 
ATOM     52  C   UNL A   1      43.052  32.120  29.678  1.00  0.00     0.049 A 
ATOM     53  H   UNL A   1      42.520  30.128  29.220  1.00  0.00     0.167 HD
ATOM     54  C   UNL A   1      45.078  31.177  28.603  1.00  0.00     0.074 A 
ATOM     55  C   UNL A   1      46.438  31.271  28.113  1.00  0.00     0.031 C 
ATOM     56  C   UNL A   1      44.396  32.209  29.161  1.00  0.00     0.034 A 
BRANCH  43  57
ATOM     57  C   UNL A   1      38.699  30.690  31.080  1.00  0.00     0.023 A 
ATOM     58  C   UNL A   1      37.623  31.253  30.376  1.00  0.00     0.031 A 
ATOM     59  C   UNL A   1      38.562  30.538  32.475  1.00  0.00     0.131 A 
ATOM     60  C   UNL A   1      36.484  31.693  31.071  1.00  0.00     0.055 A 
ATOM     61  C   UNL A   1      37.399  30.910  33.150  1.00  0.00     0.041 A 
ATOM     62  F   UNL A   1      39.565  30.025  33.206  1.00  0.00    -0.206 F 
ATOM     63  C   UNL A   1      36.355  31.503  32.449  1.00  0.00     0.022 A 
BRANCH  60  64
ATOM     64  S   UNL A   1      35.220  32.632  30.169  1.00  0.00     0.124 S 
ATOM     65  O   UNL A   1      34.935  31.741  29.047  1.00  0.00    -0.237 OA
ATOM     66  O   UNL A   1      34.161  32.769  31.162  1.00  0.00    -0.237 OA
ATOM     67  O   UNL A   1      35.904  33.873  29.810  1.00  0.00    -0.744 OA
ENDBRANCH  60  64
ENDBRANCH  43  57
BRANCH  44  68
ATOM     68  C   UNL A   1      46.980  27.398  26.544  1.00  0.00     0.023 A 
ATOM     69  C   UNL A   1      47.170  27.690  25.186  1.00  0.00     0.031 A 
ATOM     70  C   UNL A   1      47.963  26.632  27.199  1.00  0.00     0.131 A 
ATOM     71  C   UNL A   1      48.306  27.203  24.520  1.00  0.00     0.055 A 
ATOM     72  C   UNL A   1      49.120  26.203  26.549  1.00  0.00     0.041 A 
ATOM     73  F   UNL A   1      47.826  26.317  28.497  1.00  0.00    -0.206 F 
ATOM     74  C   UNL A   1      49.291  26.480  25.198  1.00  0.00     0.022 A 
BRANCH  71  75
ATOM     75  S   UNL A   1      48.448  27.468  22.732  1.00  0.00     0.124 S 
ATOM     76  O   UNL A   1      48.389  26.103  22.223  1.00  0.00    -0.237 OA
ATOM     77  O   UNL A   1      47.285  28.305  22.455  1.00  0.00    -0.237 OA
ATOM     78  O   UNL A   1      49.741  28.133  22.587  1.00  0.00    -0.744 OA
ENDBRANCH  71  75
ENDBRANCH  44  68
BRANCH  56  79
ATOM     79  C   UNL A   1      45.142  33.511  29.291  1.00  0.00     0.023 A 
ATOM     80  C   UNL A   1      45.076  34.498  28.292  1.00  0.00     0.031 A 
ATOM     81  C   UNL A   1      45.970  33.744  30.402  1.00  0.00     0.131 A 
ATOM     82  C   UNL A   1      45.875  35.647  28.393  1.00  0.00     0.055 A 
ATOM     83  C   UNL A   1      46.723  34.912  30.522  1.00  0.00     0.041 A 
ATOM     84  F   UNL A   1      46.072  32.831  31.381  1.00  0.00    -0.206 F 
ATOM     85  C   UNL A   1      46.690  35.864  29.508  1.00  0.00     0.022 A 
BRANCH  82  86
ATOM     86  S   UNL A   1      45.915  36.805  26.997  1.00  0.00     0.124 S 
ATOM     87  O   UNL A   1      46.381  35.954  25.909  1.00  0.00    -0.237 OA
ATOM     88  O   UNL A   1      44.525  37.243  26.916  1.00  0.00    -0.237 OA
ATOM     89  O   UNL A   1      46.862  37.832  27.431  1.00  0.00    -0.744 OA
ENDBRANCH  82  86
ENDBRANCH  56  79
ENDBRANCH  30  31
ENDBRANCH  23  25
ENDBRANCH  22  23
ENDBRANCH  21  22
ENDBRANCH   1  21
TORSDOF 19
ENDMDL
MODEL 2
REMARK VINA RESULT:     -10.8      4.952      9.968
REMARK SMILES CCCC1(C(=O)OCCOC(=O)c2ccc(-c3c4nc(c(-c5cc(S(=O)(=O)[O-])ccc5F)c5ccc([nH]5)c(-c5cc(S(=O)(=O)[O-])ccc5F)c5nc(c(-c6cc(S(=O)(=O)[O-])ccc6F)c6ccc3[nH]6)C=C5)C=C4)cc2)CC[NH+]([C@H](C)[C@H](C)O)CC1
REMARK SMILES IDX 8 1 7 2 5 3 6 4 4 5 76 6 85 7 77 8 84 9 78 10 3 12 2 13 1 14
REMARK SMILES IDX 79 15 80 16 81 17 82 18 83 19 9 21 10 22 11 23 12 24 13 25
REMARK SMILES IDX 14 26 75 27 15 28 74 29 16 30 17 31 18 32 68 33 19 34 73 35
REMARK SMILES IDX 67 36 69 37 20 38 72 39 66 40 65 41 21 43 53 44 33 45 52 46
REMARK SMILES IDX 34 47 37 48 51 49 70 50 35 51 36 52 50 54 71 55 38 56 22 57
REMARK SMILES IDX 23 58 31 59 24 60 30 61 32 62 29 63 25 64 26 65 27 66 28 67
REMARK SMILES IDX 54 68 55 69 63 70 56 71 62 72 64 73 61 74 57 75 58 76 59 77
REMARK SMILES IDX 60 78 39 79 40 80 48 81 41 82 47 83 49 84 46 85 42 86 43 87
REMARK SMILES IDX 44 88 45 89
REMARK H PARENT 78 11 83 20 69 42 37 53
REMARK Flexibility Score: inf
ROOT
ATOM      1  C   UNL A   1      32.745  28.832  24.625  1.00  0.00     0.274 C 
ENDROOT
BRANCH   1   2
ATOM      2  O   UNL A   1      32.117  27.736  23.930  1.00  0.00    -0.462 OA
BRANCH   2   3
ATOM      3  C   UNL A   1      32.923  26.894  23.227  1.00  0.00     0.312 C 
ATOM      4  O   UNL A   1      33.459  27.186  22.163  1.00  0.00    -0.252 OA
BRANCH   3   5
ATOM      5  C   UNL A   1      32.986  25.483  23.841  1.00  0.00     0.079 C 
ATOM      6  C   UNL A   1      33.636  24.475  22.878  1.00  0.00     0.080 C 
ATOM      7  C   UNL A   1      33.907  25.667  25.080  1.00  0.00     0.080 C 
ATOM      8  C   UNL A   1      34.056  23.189  23.572  1.00  0.00     0.263 C 
ATOM      9  C   UNL A   1      34.445  24.363  25.666  1.00  0.00     0.263 C 
ATOM     10  N   UNL A   1      34.968  23.414  24.687  1.00  0.00    -0.331 N 
ATOM     11  H   UNL A   1      34.975  22.511  25.160  1.00  0.00     0.348 HD
BRANCH   5  12
ATOM     12  C   UNL A   1      31.577  25.031  24.327  1.00  0.00     0.019 C 
BRANCH  12  13
ATOM     13  C   UNL A   1      31.200  25.288  25.793  1.00  0.00    -0.002 C 
ATOM     14  C   UNL A   1      29.786  25.788  26.052  1.00  0.00     0.004 C 
ENDBRANCH  12  13
ENDBRANCH   5  12
BRANCH  10  15
ATOM     15  C   UNL A   1      36.409  23.490  24.404  1.00  0.00     0.209 C 
ATOM     16  C   UNL A   1      36.895  22.802  23.117  1.00  0.00     0.078 C 
BRANCH  15  17
ATOM     17  C   UNL A   1      37.297  23.007  25.597  1.00  0.00     0.169 C 
ATOM     18  C   UNL A   1      38.081  24.132  26.268  1.00  0.00     0.045 C 
BRANCH  17  19
ATOM     19  O   UNL A   1      38.245  22.033  25.132  1.00  0.00    -0.387 OA
ATOM     20  H   UNL A   1      38.903  21.867  25.825  1.00  0.00     0.211 HD
ENDBRANCH  17  19
ENDBRANCH  15  17
ENDBRANCH  10  15
ENDBRANCH   3   5
ENDBRANCH   2   3
ENDBRANCH   1   2
BRANCH   1  21
ATOM     21  C   UNL A   1      31.721  29.547  25.498  1.00  0.00     0.275 C 
BRANCH  21  22
ATOM     22  O   UNL A   1      32.294  29.726  26.802  1.00  0.00    -0.458 OA
BRANCH  22  23
ATOM     23  C   UNL A   1      32.859  30.927  27.052  1.00  0.00     0.338 C 
ATOM     24  O   UNL A   1      32.313  32.019  26.975  1.00  0.00    -0.246 OA
BRANCH  23  25
ATOM     25  C   UNL A   1      34.256  30.740  27.503  1.00  0.00     0.060 A 
ATOM     26  C   UNL A   1      34.766  29.460  27.715  1.00  0.00     0.016 A 
ATOM     27  C   UNL A   1      35.021  31.847  27.869  1.00  0.00     0.016 A 
ATOM     28  C   UNL A   1      35.963  29.288  28.408  1.00  0.00     0.010 A 
ATOM     29  C   UNL A   1      36.286  31.666  28.445  1.00  0.00     0.010 A 
ATOM     30  C   UNL A   1      36.762  30.382  28.769  1.00  0.00    -0.014 A 
BRANCH  30  31
ATOM     31  C   UNL A   1      38.048  30.198  29.518  1.00  0.00     0.031 A 
ATOM     32  C   UNL A   1      39.175  29.393  28.909  1.00  0.00     0.074 A 
ATOM     33  C   UNL A   1      38.242  30.747  30.737  1.00  0.00     0.049 A 
ATOM     34  N   UNL A   1      40.208  28.836  29.492  1.00  0.00    -0.248 NA
ATOM     35  C   UNL A   1      39.117  29.164  27.457  1.00  0.00     0.031 C 
ATOM     36  C   UNL A   1      37.301  31.618  31.443  1.00  0.00     0.029 A 
ATOM     37  N   UNL A   1      39.308  30.658  31.601  1.00  0.00    -0.354 N 
ATOM     38  C   UNL A   1      40.868  28.115  28.500  1.00  0.00     0.074 A 
ATOM     39  C   UNL A   1      40.125  28.321  27.274  1.00  0.00     0.031 C 
ATOM     40  C   UNL A   1      37.855  32.038  32.588  1.00  0.00     0.029 A 
ATOM     41  C   UNL A   1      39.121  31.345  32.780  1.00  0.00     0.049 A 
ATOM     42  H   UNL A   1      40.128  30.152  31.397  1.00  0.00     0.167 HD
ATOM     43  C   UNL A   1      41.980  27.344  28.611  1.00  0.00     0.034 A 
ATOM     44  C   UNL A   1      39.832  31.361  33.925  1.00  0.00     0.034 A 
ATOM     45  C   UNL A   1      42.757  27.221  29.824  1.00  0.00     0.049 A 
ATOM     46  C   UNL A   1      41.039  30.474  34.044  1.00  0.00     0.074 A 
ATOM     47  C   UNL A   1      43.898  26.467  30.050  1.00  0.00     0.029 A 
ATOM     48  N   UNL A   1      42.492  27.894  31.011  1.00  0.00    -0.354 N 
ATOM     49  N   UNL A   1      41.558  29.662  33.153  1.00  0.00    -0.248 NA
ATOM     50  C   UNL A   1      41.733  30.478  35.337  1.00  0.00     0.031 C 
ATOM     51  C   UNL A   1      44.294  26.648  31.380  1.00  0.00     0.029 A 
ATOM     52  C   UNL A   1      43.440  27.565  31.970  1.00  0.00     0.049 A 
ATOM     53  H   UNL A   1      41.740  28.513  31.151  1.00  0.00     0.167 HD
ATOM     54  C   UNL A   1      42.640  29.056  33.782  1.00  0.00     0.074 A 
ATOM     55  C   UNL A   1      42.717  29.619  35.114  1.00  0.00     0.031 C 
ATOM     56  C   UNL A   1      43.489  28.111  33.304  1.00  0.00     0.034 A 
BRANCH  43  57
ATOM     57  C   UNL A   1      42.386  26.514  27.415  1.00  0.00     0.023 A 
ATOM     58  C   UNL A   1      42.089  25.146  27.303  1.00  0.00     0.031 A 
ATOM     59  C   UNL A   1      43.096  27.119  26.359  1.00  0.00     0.131 A 
ATOM     60  C   UNL A   1      42.546  24.418  26.192  1.00  0.00     0.055 A 
ATOM     61  C   UNL A   1      43.484  26.407  25.223  1.00  0.00     0.041 A 
ATOM     62  F   UNL A   1      43.428  28.419  26.416  1.00  0.00    -0.206 F 
ATOM     63  C   UNL A   1      43.220  25.044  25.140  1.00  0.00     0.022 A 
BRANCH  60  64
ATOM     64  S   UNL A   1      42.358  22.614  26.194  1.00  0.00     0.124 S 
ATOM     65  O   UNL A   1      40.904  22.469  26.181  1.00  0.00    -0.237 OA
ATOM     66  O   UNL A   1      43.050  22.224  24.971  1.00  0.00    -0.237 OA
ATOM     67  O   UNL A   1      43.007  22.201  27.437  1.00  0.00    -0.744 OA
ENDBRANCH  60  64
ENDBRANCH  43  57
BRANCH  44  68
ATOM     68  C   UNL A   1      39.352  32.156  35.093  1.00  0.00     0.023 A 
ATOM     69  C   UNL A   1      39.828  33.453  35.331  1.00  0.00     0.031 A 
ATOM     70  C   UNL A   1      38.422  31.616  36.001  1.00  0.00     0.131 A 
ATOM     71  C   UNL A   1      39.387  34.161  36.461  1.00  0.00     0.055 A 
ATOM     72  C   UNL A   1      37.941  32.346  37.088  1.00  0.00     0.041 A 
ATOM     73  F   UNL A   1      37.941  30.375  35.824  1.00  0.00    -0.206 F 
ATOM     74  C   UNL A   1      38.433  33.624  37.328  1.00  0.00     0.022 A 
BRANCH  71  75
ATOM     75  S   UNL A   1      40.134  35.773  36.824  1.00  0.00     0.124 S 
ATOM     76  O   UNL A   1      41.556  35.450  36.818  1.00  0.00    -0.237 OA
ATOM     77  O   UNL A   1      39.657  36.587  35.711  1.00  0.00    -0.237 OA
ATOM     78  O   UNL A   1      39.578  36.120  38.130  1.00  0.00    -0.744 OA
ENDBRANCH  71  75
ENDBRANCH  44  68
BRANCH  56  79
ATOM     79  C   UNL A   1      44.587  27.666  34.233  1.00  0.00     0.023 A 
ATOM     80  C   UNL A   1      44.434  26.542  35.065  1.00  0.00     0.031 A 
ATOM     81  C   UNL A   1      45.778  28.406  34.328  1.00  0.00     0.131 A 
ATOM     82  C   UNL A   1      45.430  26.227  36.001  1.00  0.00     0.055 A 
ATOM     83  C   UNL A   1      46.788  28.056  35.225  1.00  0.00     0.041 A 
ATOM     84  F   UNL A   1      45.971  29.489  33.560  1.00  0.00    -0.206 F 
ATOM     85  C   UNL A   1      46.611  26.971  36.078  1.00  0.00     0.022 A 
BRANCH  82  86
ATOM     86  S   UNL A   1      45.117  24.892  37.189  1.00  0.00     0.124 S 
ATOM     87  O   UNL A   1      46.470  24.496  37.565  1.00  0.00    -0.237 OA
ATOM     88  O   UNL A   1      44.339  25.569  38.221  1.00  0.00    -0.237 OA
ATOM     89  O   UNL A   1      44.377  23.903  36.407  1.00  0.00    -0.744 OA
ENDBRANCH  82  86
ENDBRANCH  56  79
ENDBRANCH  30  31
ENDBRANCH  23  25
ENDBRANCH  22  23
ENDBRANCH  21  22
ENDBRANCH   1  21
TORSDOF 19
ENDMDL
MODEL 3
REMARK VINA RESULT:     -10.8      5.147     10.121
REMARK SMILES CCCC1(C(=O)OCCOC(=O)c2ccc(-c3c4nc(c(-c5cc(S(=O)(=O)[O-])ccc5F)c5ccc([nH]5)c(-c5cc(S(=O)(=O)[O-])ccc5F)c5nc(c(-c6cc(S(=O)(=O)[O-])ccc6F)c6ccc3[nH]6)C=C5)C=C4)cc2)CC[NH+]([C@H](C)[C@H](C)O)CC1
REMARK SMILES IDX 8 1 7 2 5 3 6 4 4 5 76 6 85 7 77 8 84 9 78 10 3 12 2 13 1 14
REMARK SMILES IDX 79 15 80 16 81 17 82 18 83 19 9 21 10 22 11 23 12 24 13 25
REMARK SMILES IDX 14 26 75 27 15 28 74 29 16 30 17 31 18 32 68 33 19 34 73 35
REMARK SMILES IDX 67 36 69 37 20 38 72 39 66 40 65 41 21 43 53 44 33 45 52 46
REMARK SMILES IDX 34 47 37 48 51 49 70 50 35 51 36 52 50 54 71 55 38 56 22 57
REMARK SMILES IDX 23 58 31 59 24 60 30 61 32 62 29 63 25 64 26 65 27 66 28 67
REMARK SMILES IDX 54 68 55 69 63 70 56 71 62 72 64 73 61 74 57 75 58 76 59 77
REMARK SMILES IDX 60 78 39 79 40 80 48 81 41 82 47 83 49 84 46 85 42 86 43 87
REMARK SMILES IDX 44 88 45 89
REMARK H PARENT 78 11 83 20 69 42 37 53
REMARK Flexibility Score: inf
ROOT
ATOM      1  C   UNL A   1      31.414  28.765  25.311  1.00  0.00     0.274 C 
ENDROOT
BRANCH   1   2
ATOM      2  O   UNL A   1      32.385  27.790  25.740  1.00  0.00    -0.462 OA
BRANCH   2   3
ATOM      3  C   UNL A   1      31.955  26.511  25.918  1.00  0.00     0.312 C 
ATOM      4  O   UNL A   1      31.136  26.175  26.766  1.00  0.00    -0.252 OA
BRANCH   3   5
ATOM      5  C   UNL A   1      32.706  25.504  25.028  1.00  0.00     0.079 C 
ATOM      6  C   UNL A   1      33.867  24.835  25.784  1.00  0.00     0.080 C 
ATOM      7  C   UNL A   1      31.629  24.433  24.701  1.00  0.00     0.080 C 
ATOM      8  C   UNL A   1      34.381  23.588  25.083  1.00  0.00     0.263 C 
ATOM      9  C   UNL A   1      32.187  23.125  24.143  1.00  0.00     0.263 C 
ATOM     10  N   UNL A   1      33.343  22.590  24.857  1.00  0.00    -0.331 N 
ATOM     11  H   UNL A   1      33.788  21.942  24.209  1.00  0.00     0.348 HD
BRANCH   5  12
ATOM     12  C   UNL A   1      33.162  26.178  23.698  1.00  0.00     0.019 C 
BRANCH  12  13
ATOM     13  C   UNL A   1      32.170  26.212  22.528  1.00  0.00    -0.002 C 
ATOM     14  C   UNL A   1      32.664  25.648  21.204  1.00  0.00     0.004 C 
ENDBRANCH  12  13
ENDBRANCH   5  12
BRANCH  10  15
ATOM     15  C   UNL A   1      33.062  21.622  25.929  1.00  0.00     0.209 C 
ATOM     16  C   UNL A   1      33.687  21.916  27.302  1.00  0.00     0.078 C 
BRANCH  15  17
ATOM     17  C   UNL A   1      33.398  20.148  25.530  1.00  0.00     0.169 C 
ATOM     18  C   UNL A   1      32.740  19.705  24.226  1.00  0.00     0.045 C 
BRANCH  17  19
ATOM     19  O   UNL A   1      32.960  19.254  26.564  1.00  0.00    -0.387 OA
ATOM     20  H   UNL A   1      32.010  19.376  26.715  1.00  0.00     0.211 HD
ENDBRANCH  17  19
ENDBRANCH  15  17
ENDBRANCH  10  15
ENDBRANCH   3   5
ENDBRANCH   2   3
ENDBRANCH   1   2
BRANCH   1  21
ATOM     21  C   UNL A   1      31.736  30.123  25.924  1.00  0.00     0.275 C 
BRANCH  21  22
ATOM     22  O   UNL A   1      33.132  30.143  26.257  1.00  0.00    -0.458 OA
BRANCH  22  23
ATOM     23  C   UNL A   1      33.539  31.130  27.085  1.00  0.00     0.338 C 
ATOM     24  O   UNL A   1      32.872  32.083  27.465  1.00  0.00    -0.246 OA
BRANCH  23  25
ATOM     25  C   UNL A   1      34.924  30.867  27.536  1.00  0.00     0.060 A 
ATOM     26  C   UNL A   1      35.375  29.560  27.711  1.00  0.00     0.016 A 
ATOM     27  C   UNL A   1      35.736  31.928  27.937  1.00  0.00     0.016 A 
ATOM     28  C   UNL A   1      36.560  29.314  28.403  1.00  0.00     0.010 A 
ATOM     29  C   UNL A   1      36.988  31.673  28.513  1.00  0.00     0.010 A 
ATOM     30  C   UNL A   1      37.405  30.360  28.801  1.00  0.00    -0.014 A 
BRANCH  30  31
ATOM     31  C   UNL A   1      38.677  30.096  29.548  1.00  0.00     0.031 A 
ATOM     32  C   UNL A   1      39.735  29.192  28.956  1.00  0.00     0.074 A 
ATOM     33  C   UNL A   1      38.920  30.659  30.752  1.00  0.00     0.049 A 
ATOM     34  N   UNL A   1      40.726  28.572  29.548  1.00  0.00    -0.248 NA
ATOM     35  C   UNL A   1      39.651  28.931  27.510  1.00  0.00     0.031 C 
ATOM     36  C   UNL A   1      38.053  31.618  31.440  1.00  0.00     0.029 A 
ATOM     37  N   UNL A   1      39.982  30.511  31.614  1.00  0.00    -0.354 N 
ATOM     38  C   UNL A   1      41.323  27.777  28.572  1.00  0.00     0.074 A 
ATOM     39  C   UNL A   1      40.590  28.009  27.344  1.00  0.00     0.031 C 
ATOM     40  C   UNL A   1      38.645  32.022  32.570  1.00  0.00     0.029 A 
ATOM     41  C   UNL A   1      39.855  31.239  32.775  1.00  0.00     0.049 A 
ATOM     42  H   UNL A   1      40.759  29.938  31.419  1.00  0.00     0.167 HD
ATOM     43  C   UNL A   1      42.373  26.925  28.698  1.00  0.00     0.034 A 
ATOM     44  C   UNL A   1      40.572  31.229  33.917  1.00  0.00     0.034 A 
ATOM     45  C   UNL A   1      43.145  26.774  29.911  1.00  0.00     0.049 A 
ATOM     46  C   UNL A   1      41.708  30.255  34.053  1.00  0.00     0.074 A 
ATOM     47  C   UNL A   1      44.226  25.940  30.151  1.00  0.00     0.029 A 
ATOM     48  N   UNL A   1      42.940  27.495  31.081  1.00  0.00    -0.354 N 
ATOM     49  N   UNL A   1      42.157  29.383  33.181  1.00  0.00    -0.248 NA
ATOM     50  C   UNL A   1      42.409  30.238  35.343  1.00  0.00     0.031 C 
ATOM     51  C   UNL A   1      44.643  26.124  31.475  1.00  0.00     0.029 A 
ATOM     52  C   UNL A   1      43.865  27.118  32.044  1.00  0.00     0.049 A 
ATOM     53  H   UNL A   1      42.239  28.174  31.208  1.00  0.00     0.167 HD
ATOM     54  C   UNL A   1      43.194  28.711  33.821  1.00  0.00     0.074 A 
ATOM     55  C   UNL A   1      43.322  29.301  35.138  1.00  0.00     0.031 C 
ATOM     56  C   UNL A   1      43.964  27.693  33.363  1.00  0.00     0.034 A 
BRANCH  43  57
ATOM     57  C   UNL A   1      42.706  26.037  27.522  1.00  0.00     0.023 A 
ATOM     58  C   UNL A   1      42.189  24.739  27.380  1.00  0.00     0.031 A 
ATOM     59  C   UNL A   1      43.573  26.511  26.517  1.00  0.00     0.131 A 
ATOM     60  C   UNL A   1      42.586  23.942  26.293  1.00  0.00     0.055 A 
ATOM     61  C   UNL A   1      43.905  25.742  25.401  1.00  0.00     0.041 A 
ATOM     62  F   UNL A   1      44.115  27.736  26.607  1.00  0.00    -0.206 F 
ATOM     63  C   UNL A   1      43.420  24.443  25.290  1.00  0.00     0.022 A 
BRANCH  60  64
ATOM     64  S   UNL A   1      42.095  22.196  26.267  1.00  0.00     0.124 S 
ATOM     65  O   UNL A   1      42.814  21.704  25.094  1.00  0.00    -0.237 OA
ATOM     66  O   UNL A   1      42.573  21.715  27.558  1.00  0.00    -0.237 OA
ATOM     67  O   UNL A   1      40.642  22.249  26.120  1.00  0.00    -0.744 OA
ENDBRANCH  60  64
ENDBRANCH  43  57
BRANCH  44  68
ATOM     68  C   UNL A   1      40.162  32.088  35.066  1.00  0.00     0.023 A 
ATOM     69  C   UNL A   1      39.253  31.625  36.028  1.00  0.00     0.031 A 
ATOM     70  C   UNL A   1      40.663  33.396  35.204  1.00  0.00     0.131 A 
ATOM     71  C   UNL A   1      38.857  32.472  37.076  1.00  0.00     0.055 A 
ATOM     72  C   UNL A   1      40.313  34.211  36.281  1.00  0.00     0.041 A 
ATOM     73  F   UNL A   1      41.530  33.891  34.306  1.00  0.00    -0.206 F 
ATOM     74  C   UNL A   1      39.396  33.752  37.219  1.00  0.00     0.022 A 
BRANCH  71  75
ATOM     75  S   UNL A   1      37.567  31.901  38.216  1.00  0.00     0.124 S 
ATOM     76  O   UNL A   1      36.500  32.862  37.965  1.00  0.00    -0.237 OA
ATOM     77  O   UNL A   1      37.327  30.540  37.746  1.00  0.00    -0.237 OA
ATOM     78  O   UNL A   1      38.203  32.001  39.528  1.00  0.00    -0.744 OA
ENDBRANCH  71  75
ENDBRANCH  44  68
BRANCH  56  79
ATOM     79  C   UNL A   1      45.030  27.187  34.300  1.00  0.00     0.023 A 
ATOM     80  C   UNL A   1      44.792  26.111  35.171  1.00  0.00     0.031 A 
ATOM     81  C   UNL A   1      46.281  27.826  34.359  1.00  0.00     0.131 A 
ATOM     82  C   UNL A   1      45.767  25.744  36.110  1.00  0.00     0.055 A 
ATOM     83  C   UNL A   1      47.267  27.423  35.259  1.00  0.00     0.041 A 
ATOM     84  F   UNL A   1      46.557  28.862  33.551  1.00  0.00    -0.206 F 
ATOM     85  C   UNL A   1      47.008  26.386  36.151  1.00  0.00     0.022 A 
BRANCH  82  86
ATOM     86  S   UNL A   1      45.355  24.482  37.348  1.00  0.00     0.124 S 
ATOM     87  O   UNL A   1      44.276  25.126  38.089  1.00  0.00    -0.237 OA
ATOM     88  O   UNL A   1      44.971  23.345  36.518  1.00  0.00    -0.237 OA
ATOM     89  O   UNL A   1      46.602  24.311  38.091  1.00  0.00    -0.744 OA
ENDBRANCH  82  86
ENDBRANCH  56  79
ENDBRANCH  30  31
ENDBRANCH  23  25
ENDBRANCH  22  23
ENDBRANCH  21  22
ENDBRANCH   1  21
TORSDOF 19
ENDMDL
