MODEL 1
REMARK VINA RESULT:     -11.7      0.000      0.000
REMARK SMILES N#Cc1ccc(/C=C/C(=O)N[C@H]2C=C[C@H](C(=O)OCCOC(=O)c3ccc(-c4c5nc(c(-c6cc(S(=O)(=O)[O-])ccc6F)c6ccc([nH]6)c(-c6cc(S(=O)(=O)[O-])ccc6F)c6nc(c(-c7cc(S(=O)(=O)[O-])ccc7F)c7ccc4[nH]7)C=C6)C=C5)cc3)C2)cc1
REMARK SMILES IDX 19 1 18 2 16 3 17 4 15 5 12 6 13 7 87 8 14 9 11 10 9 11
REMARK SMILES IDX 10 12 8 14 7 15 6 16 3 17 4 18 89 19 5 20 88 21 2 22 1 23
REMARK SMILES IDX 20 24 21 25 22 26 23 27 24 28 25 29 86 30 26 31 85 32 27 33
REMARK SMILES IDX 28 34 29 35 79 36 30 37 84 38 78 39 80 40 31 41 83 42 77 43
REMARK SMILES IDX 76 44 32 46 64 47 44 48 63 49 45 50 48 51 62 52 81 53 46 54
REMARK SMILES IDX 47 55 61 57 82 58 49 59 33 60 34 61 42 62 35 63 41 64 43 65
REMARK SMILES IDX 40 66 36 67 37 68 38 69 39 70 65 71 66 72 74 73 67 74 73 75
REMARK SMILES IDX 75 76 72 77 68 78 69 79 70 80 71 81 50 82 51 83 59 84 52 85
REMARK SMILES IDX 58 86 60 87 57 88 53 89 54 90 55 91 56 92
REMARK H PARENT 11 13 80 45 48 56
REMARK Flexibility Score: inf
ROOT
ATOM      1  C   UNL A   1      37.699  19.575  24.965  1.00  0.00     0.274 C 
ENDROOT
BRANCH   1   2
ATOM      2  O   UNL A   1      37.784  20.988  24.658  1.00  0.00    -0.462 OA
BRANCH   2   3
ATOM      3  C   UNL A   1      36.850  21.749  25.287  1.00  0.00     0.312 C 
ATOM      4  O   UNL A   1      36.088  21.277  26.126  1.00  0.00    -0.252 OA
BRANCH   3   5
ATOM      5  C   UNL A   1      36.817  23.229  24.815  1.00  0.00     0.124 C 
ATOM      6  C   UNL A   1      34.495  23.301  24.394  1.00  0.00     0.106 C 
ATOM      7  C   UNL A   1      35.216  23.350  23.086  1.00  0.00    -0.006 C 
ATOM      8  C   UNL A   1      35.548  23.975  25.273  1.00  0.00     0.048 C 
ATOM      9  C   UNL A   1      36.540  23.274  23.322  1.00  0.00    -0.014 C 
BRANCH   6  10
ATOM     10  N   UNL A   1      33.169  23.797  24.324  1.00  0.00    -0.346 N 
ATOM     11  C   UNL A   1      32.056  23.033  24.077  1.00  0.00     0.244 C 
ATOM     12  O   UNL A   1      30.972  23.587  23.915  1.00  0.00    -0.270 OA
ATOM     13  H   UNL A   1      33.037  24.763  24.461  1.00  0.00     0.164 HD
BRANCH  11  14
ATOM     14  C   UNL A   1      32.105  21.540  24.272  1.00  0.00     0.072 C 
ATOM     15  C   UNL A   1      32.573  20.494  23.562  1.00  0.00     0.014 C 
BRANCH  15  16
ATOM     16  C   UNL A   1      32.725  19.039  23.939  1.00  0.00    -0.025 A 
ATOM     17  C   UNL A   1      33.012  16.340  24.903  1.00  0.00     0.052 A 
ATOM     18  C   UNL A   1      33.233  16.635  23.572  1.00  0.00     0.020 A 
ATOM     19  C   UNL A   1      32.620  17.374  25.751  1.00  0.00     0.020 A 
ATOM     20  C   UNL A   1      33.056  17.951  23.115  1.00  0.00     0.009 A 
ATOM     21  C   UNL A   1      32.499  18.698  25.278  1.00  0.00     0.009 A 
BRANCH  17  22
ATOM     22  C   UNL A   1      33.162  14.997  25.372  1.00  0.00     0.099 C 
ATOM     23  N   UNL A   1      33.278  13.901  25.751  1.00  0.00    -0.192 NA
ENDBRANCH  17  22
ENDBRANCH  15  16
ENDBRANCH  11  14
ENDBRANCH   6  10
ENDBRANCH   3   5
ENDBRANCH   2   3
ENDBRANCH   1   2
BRANCH   1  24
ATOM     24  C   UNL A   1      38.911  19.062  25.754  1.00  0.00     0.275 C 
BRANCH  24  25
ATOM     25  O   UNL A   1      40.053  19.954  25.726  1.00  0.00    -0.458 OA
BRANCH  25  26
ATOM     26  C   UNL A   1      40.482  20.368  26.944  1.00  0.00     0.338 C 
ATOM     27  O   UNL A   1      40.810  19.632  27.864  1.00  0.00    -0.246 OA
BRANCH  26  28
ATOM     28  C   UNL A   1      40.717  21.835  27.003  1.00  0.00     0.060 A 
ATOM     29  C   UNL A   1      41.636  22.244  27.958  1.00  0.00     0.016 A 
ATOM     30  C   UNL A   1      40.024  22.820  26.306  1.00  0.00     0.016 A 
ATOM     31  C   UNL A   1      41.897  23.585  28.231  1.00  0.00     0.010 A 
ATOM     32  C   UNL A   1      40.350  24.190  26.516  1.00  0.00     0.010 A 
ATOM     33  C   UNL A   1      41.344  24.584  27.441  1.00  0.00    -0.014 A 
BRANCH  33  34
ATOM     34  C   UNL A   1      41.718  26.006  27.748  1.00  0.00     0.031 A 
ATOM     35  C   UNL A   1      43.039  26.469  27.206  1.00  0.00     0.074 A 
ATOM     36  C   UNL A   1      40.905  26.928  28.329  1.00  0.00     0.049 A 
ATOM     37  N   UNL A   1      43.640  27.614  27.374  1.00  0.00    -0.248 NA
ATOM     38  C   UNL A   1      43.768  25.513  26.358  1.00  0.00     0.031 C 
ATOM     39  C   UNL A   1      39.531  26.731  28.751  1.00  0.00     0.029 A 
ATOM     40  N   UNL A   1      41.090  28.260  28.645  1.00  0.00    -0.354 N 
ATOM     41  C   UNL A   1      44.836  27.510  26.681  1.00  0.00     0.074 A 
ATOM     42  C   UNL A   1      44.876  26.186  26.095  1.00  0.00     0.031 C 
ATOM     43  C   UNL A   1      38.977  27.849  29.212  1.00  0.00     0.029 A 
ATOM     44  C   UNL A   1      39.996  28.858  29.251  1.00  0.00     0.049 A 
ATOM     45  H   UNL A   1      41.928  28.744  28.455  1.00  0.00     0.167 HD
ATOM     46  C   UNL A   1      45.815  28.437  26.567  1.00  0.00     0.034 A 
ATOM     47  C   UNL A   1      39.791  30.054  29.835  1.00  0.00     0.034 A 
ATOM     48  C   UNL A   1      45.750  29.741  27.181  1.00  0.00     0.049 A 
ATOM     49  C   UNL A   1      40.940  30.997  29.831  1.00  0.00     0.074 A 
ATOM     50  C   UNL A   1      46.710  30.735  27.181  1.00  0.00     0.029 A 
ATOM     51  N   UNL A   1      44.672  30.230  27.912  1.00  0.00    -0.354 N 
ATOM     52  N   UNL A   1      42.114  30.838  29.268  1.00  0.00    -0.248 NA
ATOM     53  C   UNL A   1      40.758  32.264  30.538  1.00  0.00     0.031 C 
ATOM     54  C   UNL A   1      46.256  31.782  27.987  1.00  0.00     0.029 A 
ATOM     55  C   UNL A   1      44.966  31.493  28.405  1.00  0.00     0.049 A 
ATOM     56  H   UNL A   1      43.825  29.751  28.060  1.00  0.00     0.167 HD
ATOM     57  C   UNL A   1      42.809  32.002  29.533  1.00  0.00     0.074 A 
ATOM     58  C   UNL A   1      41.913  32.861  30.287  1.00  0.00     0.031 C 
ATOM     59  C   UNL A   1      44.077  32.325  29.180  1.00  0.00     0.034 A 
BRANCH  46  60
ATOM     60  C   UNL A   1      47.073  28.008  25.860  1.00  0.00     0.023 A 
ATOM     61  C   UNL A   1      47.281  28.239  24.489  1.00  0.00     0.031 A 
ATOM     62  C   UNL A   1      48.045  27.271  26.560  1.00  0.00     0.131 A 
ATOM     63  C   UNL A   1      48.388  27.664  23.848  1.00  0.00     0.055 A 
ATOM     64  C   UNL A   1      49.195  26.789  25.935  1.00  0.00     0.041 A 
ATOM     65  F   UNL A   1      47.878  26.981  27.860  1.00  0.00    -0.206 F 
ATOM     66  C   UNL A   1      49.363  26.969  24.567  1.00  0.00     0.022 A 
BRANCH  63  67
ATOM     67  S   UNL A   1      48.437  27.672  22.033  1.00  0.00     0.124 S 
ATOM     68  O   UNL A   1      48.652  26.257  21.739  1.00  0.00    -0.237 OA
ATOM     69  O   UNL A   1      47.126  28.204  21.684  1.00  0.00    -0.237 OA
ATOM     70  O   UNL A   1      49.568  28.544  21.726  1.00  0.00    -0.744 OA
ENDBRANCH  63  67
ENDBRANCH  46  60
BRANCH  47  71
ATOM     71  C   UNL A   1      38.500  30.374  30.530  1.00  0.00     0.023 A 
ATOM     72  C   UNL A   1      37.522  31.185  29.932  1.00  0.00     0.031 A 
ATOM     73  C   UNL A   1      38.236  29.893  31.830  1.00  0.00     0.131 A 
ATOM     74  C   UNL A   1      36.353  31.518  30.641  1.00  0.00     0.055 A 
ATOM     75  C   UNL A   1      37.041  30.164  32.499  1.00  0.00     0.041 A 
ATOM     76  F   UNL A   1      39.134  29.124  32.466  1.00  0.00    -0.206 F 
ATOM     77  C   UNL A   1      36.096  30.994  31.910  1.00  0.00     0.022 A 
BRANCH  74  78
ATOM     78  S   UNL A   1      35.223  32.751  29.935  1.00  0.00     0.124 S 
ATOM     79  O   UNL A   1      36.154  33.677  29.301  1.00  0.00    -0.237 OA
ATOM     80  O   UNL A   1      34.409  31.941  29.035  1.00  0.00    -0.237 OA
ATOM     81  O   UNL A   1      34.521  33.279  31.103  1.00  0.00    -0.744 OA
ENDBRANCH  74  78
ENDBRANCH  47  71
BRANCH  59  82
ATOM     82  C   UNL A   1      44.539  33.697  29.580  1.00  0.00     0.023 A 
ATOM     83  C   UNL A   1      44.356  34.807  28.740  1.00  0.00     0.031 A 
ATOM     84  C   UNL A   1      45.218  33.880  30.796  1.00  0.00     0.131 A 
ATOM     85  C   UNL A   1      44.918  36.039  29.093  1.00  0.00     0.055 A 
ATOM     86  C   UNL A   1      45.698  35.129  31.181  1.00  0.00     0.041 A 
ATOM     87  F   UNL A   1      45.433  32.845  31.623  1.00  0.00    -0.206 F 
ATOM     88  C   UNL A   1      45.565  36.214  30.319  1.00  0.00     0.022 A 
BRANCH  85  89
ATOM     89  S   UNL A   1      44.910  37.372  27.865  1.00  0.00     0.124 S 
ATOM     90  O   UNL A   1      43.547  37.298  27.350  1.00  0.00    -0.237 OA
ATOM     91  O   UNL A   1      45.223  38.545  28.674  1.00  0.00    -0.237 OA
ATOM     92  O   UNL A   1      45.953  36.972  26.922  1.00  0.00    -0.744 OA
ENDBRANCH  85  89
ENDBRANCH  59  82
ENDBRANCH  33  34
ENDBRANCH  26  28
ENDBRANCH  25  26
ENDBRANCH  24  25
ENDBRANCH   1  24
TORSDOF 18
ENDMDL
MODEL 2
REMARK VINA RESULT:     -11.6      1.375      7.761
REMARK SMILES N#Cc1ccc(/C=C/C(=O)N[C@H]2C=C[C@H](C(=O)OCCOC(=O)c3ccc(-c4c5nc(c(-c6cc(S(=O)(=O)[O-])ccc6F)c6ccc([nH]6)c(-c6cc(S(=O)(=O)[O-])ccc6F)c6nc(c(-c7cc(S(=O)(=O)[O-])ccc7F)c7ccc4[nH]7)C=C6)C=C5)cc3)C2)cc1
REMARK SMILES IDX 19 1 18 2 16 3 17 4 15 5 12 6 13 7 87 8 14 9 11 10 9 11
REMARK SMILES IDX 10 12 8 14 7 15 6 16 3 17 4 18 89 19 5 20 88 21 2 22 1 23
REMARK SMILES IDX 20 24 21 25 22 26 23 27 24 28 25 29 86 30 26 31 85 32 27 33
REMARK SMILES IDX 28 34 29 35 79 36 30 37 84 38 78 39 80 40 31 41 83 42 77 43
REMARK SMILES IDX 76 44 32 46 64 47 44 48 63 49 45 50 48 51 62 52 81 53 46 54
REMARK SMILES IDX 47 55 61 57 82 58 49 59 33 60 34 61 42 62 35 63 41 64 43 65
REMARK SMILES IDX 40 66 36 67 37 68 38 69 39 70 65 71 66 72 74 73 67 74 73 75
REMARK SMILES IDX 75 76 72 77 68 78 69 79 70 80 71 81 50 82 51 83 59 84 52 85
REMARK SMILES IDX 58 86 60 87 57 88 53 89 54 90 55 91 56 92
REMARK H PARENT 11 13 80 45 48 56
REMARK Flexibility Score: inf
ROOT
ATOM      1  C   UNL A   1      34.254  21.472  26.908  1.00  0.00     0.274 C 
ENDROOT
BRANCH   1   2
ATOM      2  O   UNL A   1      33.046  22.127  26.451  1.00  0.00    -0.462 OA
BRANCH   2   3
ATOM      3  C   UNL A   1      32.548  23.041  27.324  1.00  0.00     0.312 C 
ATOM      4  O   UNL A   1      32.885  23.061  28.504  1.00  0.00    -0.252 OA
BRANCH   3   5
ATOM      5  C   UNL A   1      31.502  24.006  26.700  1.00  0.00     0.124 C 
ATOM      6  C   UNL A   1      32.490  24.086  24.557  1.00  0.00     0.106 C 
ATOM      7  C   UNL A   1      32.682  25.413  25.218  1.00  0.00    -0.006 C 
ATOM      8  C   UNL A   1      31.182  23.672  25.229  1.00  0.00     0.048 C 
ATOM      9  C   UNL A   1      32.149  25.359  26.453  1.00  0.00    -0.014 C 
BRANCH   6  10
ATOM     10  N   UNL A   1      32.606  24.140  23.145  1.00  0.00    -0.346 N 
ATOM     11  C   UNL A   1      33.112  23.136  22.360  1.00  0.00     0.244 C 
ATOM     12  O   UNL A   1      33.280  23.339  21.160  1.00  0.00    -0.270 OA
ATOM     13  H   UNL A   1      32.302  24.961  22.695  1.00  0.00     0.164 HD
BRANCH  11  14
ATOM     14  C   UNL A   1      33.202  21.729  22.894  1.00  0.00     0.072 C 
ATOM     15  C   UNL A   1      32.314  20.781  23.251  1.00  0.00     0.014 C 
BRANCH  15  16
ATOM     16  C   UNL A   1      32.518  19.328  23.612  1.00  0.00    -0.025 A 
ATOM     17  C   UNL A   1      32.910  16.631  24.548  1.00  0.00     0.052 A 
ATOM     18  C   UNL A   1      33.082  16.941  23.213  1.00  0.00     0.020 A 
ATOM     19  C   UNL A   1      32.515  17.649  25.415  1.00  0.00     0.020 A 
ATOM     20  C   UNL A   1      32.855  18.255  22.771  1.00  0.00     0.009 A 
ATOM     21  C   UNL A   1      32.342  18.972  24.955  1.00  0.00     0.009 A 
BRANCH  17  22
ATOM     22  C   UNL A   1      33.112  15.291  25.002  1.00  0.00     0.099 C 
ATOM     23  N   UNL A   1      33.283  14.200  25.376  1.00  0.00    -0.192 NA
ENDBRANCH  17  22
ENDBRANCH  15  16
ENDBRANCH  11  14
ENDBRANCH   6  10
ENDBRANCH   3   5
ENDBRANCH   2   3
ENDBRANCH   1   2
BRANCH   1  24
ATOM     24  C   UNL A   1      35.215  21.127  25.763  1.00  0.00     0.275 C 
BRANCH  24  25
ATOM     25  O   UNL A   1      36.284  22.090  25.579  1.00  0.00    -0.458 OA
BRANCH  25  26
ATOM     26  C   UNL A   1      37.536  21.577  25.678  1.00  0.00     0.338 C 
ATOM     27  O   UNL A   1      37.879  20.472  25.284  1.00  0.00    -0.246 OA
BRANCH  26  28
ATOM     28  C   UNL A   1      38.532  22.579  26.141  1.00  0.00     0.060 A 
ATOM     29  C   UNL A   1      38.167  23.903  25.947  1.00  0.00     0.016 A 
ATOM     30  C   UNL A   1      39.816  22.322  26.613  1.00  0.00     0.016 A 
ATOM     31  C   UNL A   1      39.021  24.970  26.215  1.00  0.00     0.010 A 
ATOM     32  C   UNL A   1      40.662  23.410  26.975  1.00  0.00     0.010 A 
ATOM     33  C   UNL A   1      40.243  24.754  26.839  1.00  0.00    -0.014 A 
BRANCH  33  34
ATOM     34  C   UNL A   1      41.087  25.954  27.160  1.00  0.00     0.031 A 
ATOM     35  C   UNL A   1      40.496  26.932  28.133  1.00  0.00     0.074 A 
ATOM     36  C   UNL A   1      42.376  26.140  26.768  1.00  0.00     0.049 A 
ATOM     37  N   UNL A   1      40.967  28.078  28.535  1.00  0.00    -0.248 NA
ATOM     38  C   UNL A   1      39.205  26.556  28.733  1.00  0.00     0.031 C 
ATOM     39  C   UNL A   1      43.186  25.226  25.986  1.00  0.00     0.029 A 
ATOM     40  N   UNL A   1      43.279  27.159  27.004  1.00  0.00    -0.354 N 
ATOM     41  C   UNL A   1      40.019  28.583  29.412  1.00  0.00     0.074 A 
ATOM     42  C   UNL A   1      38.943  27.617  29.478  1.00  0.00     0.031 C 
ATOM     43  C   UNL A   1      44.435  25.658  25.834  1.00  0.00     0.029 A 
ATOM     44  C   UNL A   1      44.516  26.971  26.406  1.00  0.00     0.049 A 
ATOM     45  H   UNL A   1      43.063  27.950  27.549  1.00  0.00     0.167 HD
ATOM     46  C   UNL A   1      40.048  29.758  30.082  1.00  0.00     0.034 A 
ATOM     47  C   UNL A   1      45.607  27.745  26.256  1.00  0.00     0.034 A 
ATOM     48  C   UNL A   1      41.130  30.706  29.978  1.00  0.00     0.049 A 
ATOM     49  C   UNL A   1      45.548  29.097  26.874  1.00  0.00     0.074 A 
ATOM     50  C   UNL A   1      41.234  31.953  30.565  1.00  0.00     0.029 A 
ATOM     51  N   UNL A   1      42.290  30.520  29.233  1.00  0.00    -0.354 N 
ATOM     52  N   UNL A   1      44.589  29.608  27.608  1.00  0.00    -0.248 NA
ATOM     53  C   UNL A   1      46.691  29.980  26.644  1.00  0.00     0.031 C 
ATOM     54  C   UNL A   1      42.405  32.558  30.102  1.00  0.00     0.029 A 
ATOM     55  C   UNL A   1      43.091  31.651  29.310  1.00  0.00     0.049 A 
ATOM     56  H   UNL A   1      42.511  29.707  28.724  1.00  0.00     0.167 HD
ATOM     57  C   UNL A   1      45.024  30.873  27.953  1.00  0.00     0.074 A 
ATOM     58  C   UNL A   1      46.341  31.036  27.363  1.00  0.00     0.031 C 
ATOM     59  C   UNL A   1      44.386  31.812  28.693  1.00  0.00     0.034 A 
BRANCH  46  60
ATOM     60  C   UNL A   1      38.816  30.116  30.871  1.00  0.00     0.023 A 
ATOM     61  C   UNL A   1      37.807  30.946  30.354  1.00  0.00     0.031 A 
ATOM     62  C   UNL A   1      38.699  29.685  32.205  1.00  0.00     0.131 A 
ATOM     63  C   UNL A   1      36.773  31.388  31.193  1.00  0.00     0.055 A 
ATOM     64  C   UNL A   1      37.613  30.046  33.002  1.00  0.00     0.041 A 
ATOM     65  F   UNL A   1      39.654  28.927  32.766  1.00  0.00    -0.206 F 
ATOM     66  C   UNL A   1      36.651  30.917  32.502  1.00  0.00     0.022 A 
BRANCH  63  67
ATOM     67  S   UNL A   1      35.701  32.731  30.610  1.00  0.00     0.124 S 
ATOM     68  O   UNL A   1      34.442  32.413  31.281  1.00  0.00    -0.237 OA
ATOM     69  O   UNL A   1      36.396  33.920  31.088  1.00  0.00    -0.237 OA
ATOM     70  O   UNL A   1      35.688  32.554  29.160  1.00  0.00    -0.744 OA
ENDBRANCH  63  67
ENDBRANCH  46  60
BRANCH  47  71
ATOM     71  C   UNL A   1      46.778  27.298  25.431  1.00  0.00     0.023 A 
ATOM     72  C   UNL A   1      47.011  27.808  24.144  1.00  0.00     0.031 A 
ATOM     73  C   UNL A   1      47.674  26.321  25.913  1.00  0.00     0.131 A 
ATOM     74  C   UNL A   1      48.081  27.316  23.375  1.00  0.00     0.055 A 
ATOM     75  C   UNL A   1      48.779  25.891  25.175  1.00  0.00     0.041 A 
ATOM     76  F   UNL A   1      47.503  25.780  27.131  1.00  0.00    -0.206 F 
ATOM     77  C   UNL A   1      48.980  26.379  23.891  1.00  0.00     0.022 A 
BRANCH  74  78
ATOM     78  S   UNL A   1      48.214  27.823  21.637  1.00  0.00     0.124 S 
ATOM     79  O   UNL A   1      48.337  26.536  20.962  1.00  0.00    -0.237 OA
ATOM     80  O   UNL A   1      46.962  28.541  21.430  1.00  0.00    -0.237 OA
ATOM     81  O   UNL A   1      49.418  28.653  21.615  1.00  0.00    -0.744 OA
ENDBRANCH  74  78
ENDBRANCH  47  71
BRANCH  59  82
ATOM     82  C   UNL A   1      45.146  33.085  28.933  1.00  0.00     0.023 A 
ATOM     83  C   UNL A   1      45.039  34.178  28.060  1.00  0.00     0.031 A 
ATOM     84  C   UNL A   1      46.027  33.179  30.024  1.00  0.00     0.131 A 
ATOM     85  C   UNL A   1      45.863  35.294  28.248  1.00  0.00     0.055 A 
ATOM     86  C   UNL A   1      46.779  34.328  30.253  1.00  0.00     0.041 A 
ATOM     87  F   UNL A   1      46.176  32.152  30.875  1.00  0.00    -0.206 F 
ATOM     88  C   UNL A   1      46.713  35.388  29.353  1.00  0.00     0.022 A 
BRANCH  85  89
ATOM     89  S   UNL A   1      45.907  36.560  26.951  1.00  0.00     0.124 S 
ATOM     90  O   UNL A   1      44.505  36.959  26.874  1.00  0.00    -0.237 OA
ATOM     91  O   UNL A   1      46.822  37.549  27.510  1.00  0.00    -0.237 OA
ATOM     92  O   UNL A   1      46.412  35.836  25.786  1.00  0.00    -0.744 OA
ENDBRANCH  85  89
ENDBRANCH  59  82
ENDBRANCH  33  34
ENDBRANCH  26  28
ENDBRANCH  25  26
ENDBRANCH  24  25
ENDBRANCH   1  24
TORSDOF 18
ENDMDL
MODEL 3
REMARK VINA RESULT:     -11.6      5.454      8.650
REMARK SMILES N#Cc1ccc(/C=C/C(=O)N[C@H]2C=C[C@H](C(=O)OCCOC(=O)c3ccc(-c4c5nc(c(-c6cc(S(=O)(=O)[O-])ccc6F)c6ccc([nH]6)c(-c6cc(S(=O)(=O)[O-])ccc6F)c6nc(c(-c7cc(S(=O)(=O)[O-])ccc7F)c7ccc4[nH]7)C=C6)C=C5)cc3)C2)cc1
REMARK SMILES IDX 19 1 18 2 16 3 17 4 15 5 12 6 13 7 87 8 14 9 11 10 9 11
REMARK SMILES IDX 10 12 8 14 7 15 6 16 3 17 4 18 89 19 5 20 88 21 2 22 1 23
REMARK SMILES IDX 20 24 21 25 22 26 23 27 24 28 25 29 86 30 26 31 85 32 27 33
REMARK SMILES IDX 28 34 29 35 79 36 30 37 84 38 78 39 80 40 31 41 83 42 77 43
REMARK SMILES IDX 76 44 32 46 64 47 44 48 63 49 45 50 48 51 62 52 81 53 46 54
REMARK SMILES IDX 47 55 61 57 82 58 49 59 33 60 34 61 42 62 35 63 41 64 43 65
REMARK SMILES IDX 40 66 36 67 37 68 38 69 39 70 65 71 66 72 74 73 67 74 73 75
REMARK SMILES IDX 75 76 72 77 68 78 69 79 70 80 71 81 50 82 51 83 59 84 52 85
REMARK SMILES IDX 58 86 60 87 57 88 53 89 54 90 55 91 56 92
REMARK H PARENT 11 13 80 45 48 56
REMARK Flexibility Score: inf
ROOT
ATOM      1  C   UNL A   1      31.891  27.938  26.949  1.00  0.00     0.274 C 
ENDROOT
BRANCH   1   2
ATOM      2  O   UNL A   1      31.543  26.856  26.051  1.00  0.00    -0.462 OA
BRANCH   2   3
ATOM      3  C   UNL A   1      32.098  25.661  26.382  1.00  0.00     0.312 C 
ATOM      4  O   UNL A   1      31.435  24.755  26.880  1.00  0.00    -0.252 OA
BRANCH   3   5
ATOM      5  C   UNL A   1      33.626  25.578  26.114  1.00  0.00     0.124 C 
ATOM      6  C   UNL A   1      33.444  24.646  23.952  1.00  0.00     0.106 C 
ATOM      7  C   UNL A   1      33.986  23.603  24.874  1.00  0.00    -0.006 C 
ATOM      8  C   UNL A   1      33.994  25.890  24.650  1.00  0.00     0.048 C 
ATOM      9  C   UNL A   1      34.058  24.121  26.115  1.00  0.00    -0.014 C 
BRANCH   6  10
ATOM     10  N   UNL A   1      33.721  24.387  22.586  1.00  0.00    -0.346 N 
ATOM     11  C   UNL A   1      32.971  24.843  21.532  1.00  0.00     0.244 C 
ATOM     12  O   UNL A   1      33.232  24.454  20.397  1.00  0.00    -0.270 OA
ATOM     13  H   UNL A   1      34.511  23.837  22.379  1.00  0.00     0.164 HD
BRANCH  11  14
ATOM     14  C   UNL A   1      32.027  26.002  21.721  1.00  0.00     0.072 C 
ATOM     15  C   UNL A   1      31.027  26.296  22.576  1.00  0.00     0.014 C 
BRANCH  15  16
ATOM     16  C   UNL A   1      30.255  27.578  22.783  1.00  0.00    -0.025 A 
ATOM     17  C   UNL A   1      28.569  29.880  23.180  1.00  0.00     0.052 A 
ATOM     18  C   UNL A   1      29.895  30.036  22.822  1.00  0.00     0.020 A 
ATOM     19  C   UNL A   1      28.086  28.587  23.370  1.00  0.00     0.020 A 
ATOM     20  C   UNL A   1      30.709  28.902  22.666  1.00  0.00     0.009 A 
ATOM     21  C   UNL A   1      28.910  27.462  23.157  1.00  0.00     0.009 A 
BRANCH  17  22
ATOM     22  C   UNL A   1      27.741  31.030  23.369  1.00  0.00     0.099 C 
ATOM     23  N   UNL A   1      27.059  31.963  23.523  1.00  0.00    -0.192 NA
ENDBRANCH  17  22
ENDBRANCH  15  16
ENDBRANCH  11  14
ENDBRANCH   6  10
ENDBRANCH   3   5
ENDBRANCH   2   3
ENDBRANCH   1   2
BRANCH   1  24
ATOM     24  C   UNL A   1      31.923  29.304  26.252  1.00  0.00     0.275 C 
BRANCH  24  25
ATOM     25  O   UNL A   1      33.252  29.866  26.113  1.00  0.00    -0.458 OA
BRANCH  25  26
ATOM     26  C   UNL A   1      33.509  30.929  26.916  1.00  0.00     0.338 C 
ATOM     27  O   UNL A   1      32.708  31.809  27.197  1.00  0.00    -0.246 OA
BRANCH  26  28
ATOM     28  C   UNL A   1      34.822  30.826  27.604  1.00  0.00     0.060 A 
ATOM     29  C   UNL A   1      35.113  29.576  28.130  1.00  0.00     0.016 A 
ATOM     30  C   UNL A   1      35.702  31.868  27.883  1.00  0.00     0.016 A 
ATOM     31  C   UNL A   1      36.243  29.326  28.904  1.00  0.00     0.010 A 
ATOM     32  C   UNL A   1      36.905  31.599  28.596  1.00  0.00     0.010 A 
ATOM     33  C   UNL A   1      37.220  30.301  29.060  1.00  0.00    -0.014 A 
BRANCH  33  34
ATOM     34  C   UNL A   1      38.446  29.944  29.851  1.00  0.00     0.031 A 
ATOM     35  C   UNL A   1      39.415  29.018  29.178  1.00  0.00     0.074 A 
ATOM     36  C   UNL A   1      38.811  30.503  31.036  1.00  0.00     0.049 A 
ATOM     37  N   UNL A   1      40.512  28.493  29.648  1.00  0.00    -0.248 NA
ATOM     38  C   UNL A   1      39.105  28.645  27.788  1.00  0.00     0.031 C 
ATOM     39  C   UNL A   1      38.108  31.548  31.755  1.00  0.00     0.029 A 
ATOM     40  N   UNL A   1      39.904  30.305  31.857  1.00  0.00    -0.354 N 
ATOM     41  C   UNL A   1      41.011  27.699  28.626  1.00  0.00     0.074 A 
ATOM     42  C   UNL A   1      40.093  27.809  27.513  1.00  0.00     0.031 C 
ATOM     43  C   UNL A   1      38.761  31.939  32.847  1.00  0.00     0.029 A 
ATOM     44  C   UNL A   1      39.900  31.082  33.005  1.00  0.00     0.049 A 
ATOM     45  H   UNL A   1      40.625  29.668  31.644  1.00  0.00     0.167 HD
ATOM     46  C   UNL A   1      42.129  26.937  28.636  1.00  0.00     0.034 A 
ATOM     47  C   UNL A   1      40.665  31.113  34.113  1.00  0.00     0.034 A 
ATOM     48  C   UNL A   1      43.013  26.837  29.771  1.00  0.00     0.049 A 
ATOM     49  C   UNL A   1      41.797  30.151  34.161  1.00  0.00     0.074 A 
ATOM     50  C   UNL A   1      44.139  26.048  29.911  1.00  0.00     0.029 A 
ATOM     51  N   UNL A   1      42.869  27.537  30.965  1.00  0.00    -0.354 N 
ATOM     52  N   UNL A   1      42.190  29.318  33.228  1.00  0.00    -0.248 NA
ATOM     53  C   UNL A   1      42.582  30.114  35.396  1.00  0.00     0.031 C 
ATOM     54  C   UNL A   1      44.619  26.197  31.215  1.00  0.00     0.029 A 
ATOM     55  C   UNL A   1      43.860  27.161  31.860  1.00  0.00     0.049 A 
ATOM     56  H   UNL A   1      42.166  28.202  31.149  1.00  0.00     0.167 HD
ATOM     57  C   UNL A   1      43.290  28.669  33.754  1.00  0.00     0.074 A 
ATOM     58  C   UNL A   1      43.509  29.225  35.077  1.00  0.00     0.031 C 
ATOM     59  C   UNL A   1      44.049  27.700  33.186  1.00  0.00     0.034 A 
BRANCH  46  60
ATOM     60  C   UNL A   1      42.365  26.068  27.429  1.00  0.00     0.023 A 
ATOM     61  C   UNL A   1      41.856  24.761  27.332  1.00  0.00     0.031 A 
ATOM     62  C   UNL A   1      43.194  26.532  26.392  1.00  0.00     0.131 A 
ATOM     63  C   UNL A   1      42.253  23.938  26.268  1.00  0.00     0.055 A 
ATOM     64  C   UNL A   1      43.501  25.742  25.285  1.00  0.00     0.041 A 
ATOM     65  F   UNL A   1      43.744  27.755  26.452  1.00  0.00    -0.206 F 
ATOM     66  C   UNL A   1      43.045  24.430  25.227  1.00  0.00     0.022 A 
BRANCH  63  67
ATOM     67  S   UNL A   1      41.879  22.165  26.360  1.00  0.00     0.124 S 
ATOM     68  O   UNL A   1      40.429  22.161  26.169  1.00  0.00    -0.237 OA
ATOM     69  O   UNL A   1      42.668  21.618  25.263  1.00  0.00    -0.237 OA
ATOM     70  O   UNL A   1      42.325  21.790  27.699  1.00  0.00    -0.744 OA
ENDBRANCH  63  67
ENDBRANCH  46  60
BRANCH  47  71
ATOM     71  C   UNL A   1      40.330  32.008  35.271  1.00  0.00     0.023 A 
ATOM     72  C   UNL A   1      39.299  31.695  36.170  1.00  0.00     0.031 A 
ATOM     73  C   UNL A   1      41.026  33.218  35.478  1.00  0.00     0.131 A 
ATOM     74  C   UNL A   1      38.970  32.590  37.204  1.00  0.00     0.055 A 
ATOM     75  C   UNL A   1      40.746  34.066  36.551  1.00  0.00     0.041 A 
ATOM     76  F   UNL A   1      42.015  33.586  34.647  1.00  0.00    -0.206 F 
ATOM     77  C   UNL A   1      39.702  33.761  37.415  1.00  0.00     0.022 A 
BRANCH  74  78
ATOM     78  S   UNL A   1      37.488  32.269  38.202  1.00  0.00     0.124 S 
ATOM     79  O   UNL A   1      37.911  32.730  39.519  1.00  0.00    -0.237 OA
ATOM     80  O   UNL A   1      36.482  33.082  37.527  1.00  0.00    -0.237 OA
ATOM     81  O   UNL A   1      37.301  30.824  38.080  1.00  0.00    -0.744 OA
ENDBRANCH  74  78
ENDBRANCH  47  71
BRANCH  59  82
ATOM     82  C   UNL A   1      45.216  27.220  33.999  1.00  0.00     0.023 A 
ATOM     83  C   UNL A   1      45.105  26.119  34.863  1.00  0.00     0.031 A 
ATOM     84  C   UNL A   1      46.439  27.911  33.945  1.00  0.00     0.131 A 
ATOM     85  C   UNL A   1      46.178  25.788  35.699  1.00  0.00     0.055 A 
ATOM     86  C   UNL A   1      47.530  27.520  34.716  1.00  0.00     0.041 A 
ATOM     87  F   UNL A   1      46.586  28.980  33.147  1.00  0.00    -0.206 F 
ATOM     88  C   UNL A   1      47.397  26.463  35.614  1.00  0.00     0.022 A 
BRANCH  85  89
ATOM     89  S   UNL A   1      45.907  24.551  36.996  1.00  0.00     0.124 S 
ATOM     90  O   UNL A   1      45.848  23.314  36.223  1.00  0.00    -0.237 OA
ATOM     91  O   UNL A   1      47.085  24.719  37.841  1.00  0.00    -0.237 OA
ATOM     92  O   UNL A   1      44.644  24.965  37.603  1.00  0.00    -0.744 OA
ENDBRANCH  85  89
ENDBRANCH  59  82
ENDBRANCH  33  34
ENDBRANCH  26  28
ENDBRANCH  25  26
ENDBRANCH  24  25
ENDBRANCH   1  24
TORSDOF 18
ENDMDL
