MODEL 1
REMARK VINA RESULT:     -11.4      0.000      0.000
REMARK SMILES Cc1c(N)cccc1SCc1cc(C(=O)OCCOC(=O)c2ccc(-c3c4nc(c(-c5cc(S(=O)(=O)[O-])ccc5F)c5ccc([nH]5)c(-c5cc(S(=O)(=O)[O-])ccc5F)c5nc(c(-c6cc(S(=O)(=O)[O-])ccc6F)c6ccc3[nH]6)C=C5)C=C4)cc2)no1
REMARK SMILES IDX 17 1 16 2 14 3 15 4 13 5 11 6 12 7 86 8 85 9 10 10 9 11 8 12
REMARK SMILES IDX 1 13 2 14 3 15 5 16 7 17 6 18 4 19 18 22 19 23 20 24 21 25
REMARK SMILES IDX 22 26 23 27 84 28 24 29 83 30 25 31 26 32 27 33 77 34 28 35
REMARK SMILES IDX 82 36 76 37 78 38 29 39 81 40 75 41 74 42 30 44 62 45 42 46
REMARK SMILES IDX 61 47 43 48 46 49 60 50 79 51 44 52 45 53 59 55 80 56 47 57
REMARK SMILES IDX 31 58 32 59 40 60 33 61 39 62 41 63 38 64 34 65 35 66 36 67
REMARK SMILES IDX 37 68 63 69 64 70 72 71 65 72 71 73 73 74 70 75 66 76 67 77
REMARK SMILES IDX 68 78 69 79 48 80 49 81 57 82 50 83 56 84 58 85 55 86 51 87
REMARK SMILES IDX 52 88 53 89 54 90
REMARK H PARENT 4 20 4 21 78 43 46 54
REMARK Flexibility Score: inf
ROOT
ATOM      1  C   UNL A   1      35.736  21.122  25.436  1.00  0.00     0.275 C 
ENDROOT
BRANCH   1   2
ATOM      2  O   UNL A   1      34.785  21.231  24.358  1.00  0.00    -0.457 OA
BRANCH   2   3
ATOM      3  C   UNL A   1      33.522  20.755  24.617  1.00  0.00     0.360 C 
ATOM      4  O   UNL A   1      33.221  19.576  24.582  1.00  0.00    -0.244 OA
BRANCH   3   5
ATOM      5  C   UNL A   1      32.600  21.829  24.993  1.00  0.00     0.191 A 
ATOM      6  C   UNL A   1      31.753  23.762  25.674  1.00  0.00     0.147 A 
ATOM      7  C   UNL A   1      32.808  23.229  24.967  1.00  0.00     0.085 A 
ATOM      8  O   UNL A   1      30.879  22.751  25.946  1.00  0.00    -0.360 OA
ATOM      9  N   UNL A   1      31.378  21.562  25.471  1.00  0.00    -0.072 NA
BRANCH   6  10
ATOM     10  C   UNL A   1      31.348  25.057  26.271  1.00  0.00     0.153 C 
BRANCH  10  11
ATOM     11  S   UNL A   1      32.245  26.587  25.864  1.00  0.00    -0.118 SA
BRANCH  11  12
ATOM     12  C   UNL A   1      31.283  27.412  24.600  1.00  0.00     0.013 A 
ATOM     13  C   UNL A   1      33.048  29.124  23.878  1.00  0.00     0.048 C 
ATOM     14  C   UNL A   1      31.695  28.468  23.754  1.00  0.00    -0.015 A 
ATOM     15  C   UNL A   1      30.830  28.881  22.709  1.00  0.00     0.035 A 
ATOM     16  C   UNL A   1      29.538  28.348  22.622  1.00  0.00     0.026 A 
ATOM     17  C   UNL A   1      29.982  26.889  24.472  1.00  0.00     0.015 A 
ATOM     18  C   UNL A   1      29.112  27.358  23.497  1.00  0.00     0.003 A 
BRANCH  15  19
ATOM     19  N   UNL A   1      31.185  29.889  21.815  1.00  0.00    -0.398 N 
ATOM     20  H   UNL A   1      30.720  30.756  21.841  1.00  0.00     0.156 HD
ATOM     21  H   UNL A   1      31.901  29.734  21.156  1.00  0.00     0.156 HD
ENDBRANCH  15  19
ENDBRANCH  11  12
ENDBRANCH  10  11
ENDBRANCH   6  10
ENDBRANCH   3   5
ENDBRANCH   2   3
ENDBRANCH   1   2
BRANCH   1  22
ATOM     22  C   UNL A   1      37.036  20.418  25.025  1.00  0.00     0.275 C 
BRANCH  22  23
ATOM     23  O   UNL A   1      38.167  21.309  25.036  1.00  0.00    -0.458 OA
BRANCH  23  24
ATOM     24  C   UNL A   1      39.123  20.998  25.944  1.00  0.00     0.338 C 
ATOM     25  O   UNL A   1      39.587  19.887  26.149  1.00  0.00    -0.246 OA
BRANCH  24  26
ATOM     26  C   UNL A   1      39.663  22.220  26.566  1.00  0.00     0.060 A 
ATOM     27  C   UNL A   1      39.159  23.431  26.098  1.00  0.00     0.016 A 
ATOM     28  C   UNL A   1      40.712  22.210  27.486  1.00  0.00     0.016 A 
ATOM     29  C   UNL A   1      39.703  24.639  26.513  1.00  0.00     0.010 A 
ATOM     30  C   UNL A   1      41.261  23.431  27.912  1.00  0.00     0.010 A 
ATOM     31  C   UNL A   1      40.776  24.654  27.409  1.00  0.00    -0.014 A 
BRANCH  31  32
ATOM     32  C   UNL A   1      41.444  25.952  27.692  1.00  0.00     0.031 A 
ATOM     33  C   UNL A   1      40.728  26.985  28.522  1.00  0.00     0.074 A 
ATOM     34  C   UNL A   1      42.717  26.165  27.304  1.00  0.00     0.049 A 
ATOM     35  N   UNL A   1      41.094  28.200  28.836  1.00  0.00    -0.248 NA
ATOM     36  C   UNL A   1      39.420  26.590  29.066  1.00  0.00     0.031 C 
ATOM     37  C   UNL A   1      43.547  25.202  26.577  1.00  0.00     0.029 A 
ATOM     38  N   UNL A   1      43.543  27.246  27.485  1.00  0.00    -0.354 N 
ATOM     39  C   UNL A   1      40.049  28.728  29.589  1.00  0.00     0.074 A 
ATOM     40  C   UNL A   1      39.026  27.706  29.661  1.00  0.00     0.031 C 
ATOM     41  C   UNL A   1      44.769  25.729  26.392  1.00  0.00     0.029 A 
ATOM     42  C   UNL A   1      44.791  27.088  26.927  1.00  0.00     0.049 A 
ATOM     43  H   UNL A   1      43.269  28.059  27.967  1.00  0.00     0.167 HD
ATOM     44  C   UNL A   1      39.956  29.953  30.166  1.00  0.00     0.034 A 
ATOM     45  C   UNL A   1      45.823  27.950  26.830  1.00  0.00     0.034 A 
ATOM     46  C   UNL A   1      40.997  30.949  30.102  1.00  0.00     0.049 A 
ATOM     47  C   UNL A   1      45.673  29.329  27.424  1.00  0.00     0.074 A 
ATOM     48  C   UNL A   1      41.003  32.231  30.627  1.00  0.00     0.029 A 
ATOM     49  N   UNL A   1      42.228  30.773  29.481  1.00  0.00    -0.354 N 
ATOM     50  N   UNL A   1      44.650  29.843  28.070  1.00  0.00    -0.248 NA
ATOM     51  C   UNL A   1      46.811  30.244  27.275  1.00  0.00     0.031 C 
ATOM     52  C   UNL A   1      42.210  32.845  30.275  1.00  0.00     0.029 A 
ATOM     53  C   UNL A   1      42.991  31.925  29.592  1.00  0.00     0.049 A 
ATOM     54  H   UNL A   1      42.518  29.948  29.027  1.00  0.00     0.167 HD
ATOM     55  C   UNL A   1      45.035  31.134  28.424  1.00  0.00     0.074 A 
ATOM     56  C   UNL A   1      46.387  31.311  27.935  1.00  0.00     0.031 C 
ATOM     57  C   UNL A   1      44.336  32.086  29.093  1.00  0.00     0.034 A 
BRANCH  44  58
ATOM     58  C   UNL A   1      38.651  30.297  30.847  1.00  0.00     0.023 A 
ATOM     59  C   UNL A   1      37.613  30.970  30.180  1.00  0.00     0.031 A 
ATOM     60  C   UNL A   1      38.469  29.990  32.208  1.00  0.00     0.131 A 
ATOM     61  C   UNL A   1      36.473  31.378  30.892  1.00  0.00     0.055 A 
ATOM     62  C   UNL A   1      37.298  30.328  32.890  1.00  0.00     0.041 A 
ATOM     63  F   UNL A   1      39.434  29.370  32.904  1.00  0.00    -0.206 F 
ATOM     64  C   UNL A   1      36.299  31.041  32.236  1.00  0.00     0.022 A 
BRANCH  61  65
ATOM     65  S   UNL A   1      35.288  32.485  30.078  1.00  0.00     0.124 S 
ATOM     66  O   UNL A   1      34.309  32.702  31.140  1.00  0.00    -0.237 OA
ATOM     67  O   UNL A   1      36.116  33.632  29.726  1.00  0.00    -0.237 OA
ATOM     68  O   UNL A   1      34.803  31.696  28.946  1.00  0.00    -0.744 OA
ENDBRANCH  61  65
ENDBRANCH  44  58
BRANCH  45  69
ATOM     69  C   UNL A   1      47.065  27.568  26.096  1.00  0.00     0.023 A 
ATOM     70  C   UNL A   1      47.224  27.845  24.728  1.00  0.00     0.031 A 
ATOM     71  C   UNL A   1      48.095  26.864  26.748  1.00  0.00     0.131 A 
ATOM     72  C   UNL A   1      48.366  27.387  24.049  1.00  0.00     0.055 A 
ATOM     73  C   UNL A   1      49.253  26.460  26.082  1.00  0.00     0.041 A 
ATOM     74  F   UNL A   1      47.993  26.565  28.053  1.00  0.00    -0.206 F 
ATOM     75  C   UNL A   1      49.388  26.710  24.720  1.00  0.00     0.022 A 
BRANCH  72  76
ATOM     76  S   UNL A   1      48.460  27.609  22.252  1.00  0.00     0.124 S 
ATOM     77  O   UNL A   1      49.618  28.486  22.121  1.00  0.00    -0.237 OA
ATOM     78  O   UNL A   1      48.637  26.238  21.784  1.00  0.00    -0.237 OA
ATOM     79  O   UNL A   1      47.175  28.218  21.915  1.00  0.00    -0.744 OA
ENDBRANCH  72  76
ENDBRANCH  45  69
BRANCH  57  80
ATOM     80  C   UNL A   1      45.052  33.383  29.377  1.00  0.00     0.023 A 
ATOM     81  C   UNL A   1      44.890  34.514  28.558  1.00  0.00     0.031 A 
ATOM     82  C   UNL A   1      45.925  33.479  30.475  1.00  0.00     0.131 A 
ATOM     83  C   UNL A   1      45.632  35.676  28.817  1.00  0.00     0.055 A 
ATOM     84  C   UNL A   1      46.619  34.655  30.760  1.00  0.00     0.041 A 
ATOM     85  F   UNL A   1      46.118  32.428  31.288  1.00  0.00    -0.206 F 
ATOM     86  C   UNL A   1      46.485  35.758  29.921  1.00  0.00     0.022 A 
BRANCH  83  87
ATOM     87  S   UNL A   1      45.538  37.052  27.639  1.00  0.00     0.124 S 
ATOM     88  O   UNL A   1      44.429  36.646  26.784  1.00  0.00    -0.237 OA
ATOM     89  O   UNL A   1      45.287  38.194  28.512  1.00  0.00    -0.237 OA
ATOM     90  O   UNL A   1      46.852  37.043  26.996  1.00  0.00    -0.744 OA
ENDBRANCH  83  87
ENDBRANCH  57  80
ENDBRANCH  31  32
ENDBRANCH  24  26
ENDBRANCH  23  24
ENDBRANCH  22  23
ENDBRANCH   1  22
TORSDOF 18
ENDMDL
MODEL 2
REMARK VINA RESULT:     -11.2      1.335      7.780
REMARK SMILES Cc1c(N)cccc1SCc1cc(C(=O)OCCOC(=O)c2ccc(-c3c4nc(c(-c5cc(S(=O)(=O)[O-])ccc5F)c5ccc([nH]5)c(-c5cc(S(=O)(=O)[O-])ccc5F)c5nc(c(-c6cc(S(=O)(=O)[O-])ccc6F)c6ccc3[nH]6)C=C5)C=C4)cc2)no1
REMARK SMILES IDX 17 1 16 2 14 3 15 4 13 5 11 6 12 7 86 8 85 9 10 10 9 11 8 12
REMARK SMILES IDX 1 13 2 14 3 15 5 16 7 17 6 18 4 19 18 22 19 23 20 24 21 25
REMARK SMILES IDX 22 26 23 27 84 28 24 29 83 30 25 31 26 32 27 33 77 34 28 35
REMARK SMILES IDX 82 36 76 37 78 38 29 39 81 40 75 41 74 42 30 44 62 45 42 46
REMARK SMILES IDX 61 47 43 48 46 49 60 50 79 51 44 52 45 53 59 55 80 56 47 57
REMARK SMILES IDX 31 58 32 59 40 60 33 61 39 62 41 63 38 64 34 65 35 66 36 67
REMARK SMILES IDX 37 68 63 69 64 70 72 71 65 72 71 73 73 74 70 75 66 76 67 77
REMARK SMILES IDX 68 78 69 79 48 80 49 81 57 82 50 83 56 84 58 85 55 86 51 87
REMARK SMILES IDX 52 88 53 89 54 90
REMARK H PARENT 4 20 4 21 78 43 46 54
REMARK Flexibility Score: inf
ROOT
ATOM      1  C   UNL A   1      35.991  20.792  24.798  1.00  0.00     0.275 C 
ENDROOT
BRANCH   1   2
ATOM      2  O   UNL A   1      35.164  21.069  25.945  1.00  0.00    -0.457 OA
BRANCH   2   3
ATOM      3  C   UNL A   1      33.810  20.918  25.764  1.00  0.00     0.360 C 
ATOM      4  O   UNL A   1      33.254  19.840  25.670  1.00  0.00    -0.244 OA
BRANCH   3   5
ATOM      5  C   UNL A   1      33.114  22.207  25.755  1.00  0.00     0.191 A 
ATOM      6  C   UNL A   1      31.676  23.844  25.341  1.00  0.00     0.147 A 
ATOM      7  C   UNL A   1      31.747  22.479  25.505  1.00  0.00     0.085 A 
ATOM      8  O   UNL A   1      32.896  24.366  25.655  1.00  0.00    -0.360 OA
ATOM      9  N   UNL A   1      33.771  23.355  25.968  1.00  0.00    -0.072 NA
BRANCH   6  10
ATOM     10  C   UNL A   1      30.712  24.864  24.863  1.00  0.00     0.153 C 
BRANCH  10  11
ATOM     11  S   UNL A   1      31.297  26.379  24.043  1.00  0.00    -0.118 SA
BRANCH  11  12
ATOM     12  C   UNL A   1      31.940  27.435  25.339  1.00  0.00     0.013 A 
ATOM     13  C   UNL A   1      33.966  28.354  24.068  1.00  0.00     0.048 C 
ATOM     14  C   UNL A   1      33.066  28.288  25.276  1.00  0.00    -0.015 A 
ATOM     15  C   UNL A   1      33.321  29.161  26.364  1.00  0.00     0.035 A 
ATOM     16  C   UNL A   1      32.552  29.063  27.531  1.00  0.00     0.026 A 
ATOM     17  C   UNL A   1      31.181  27.375  26.523  1.00  0.00     0.015 A 
ATOM     18  C   UNL A   1      31.487  28.176  27.615  1.00  0.00     0.003 A 
BRANCH  15  19
ATOM     19  N   UNL A   1      34.389  30.055  26.357  1.00  0.00    -0.398 N 
ATOM     20  H   UNL A   1      34.384  30.823  25.741  1.00  0.00     0.156 HD
ATOM     21  H   UNL A   1      35.150  29.918  26.967  1.00  0.00     0.156 HD
ENDBRANCH  15  19
ENDBRANCH  11  12
ENDBRANCH  10  11
ENDBRANCH   6  10
ENDBRANCH   3   5
ENDBRANCH   2   3
ENDBRANCH   1   2
BRANCH   1  22
ATOM     22  C   UNL A   1      37.435  20.427  25.168  1.00  0.00     0.275 C 
BRANCH  22  23
ATOM     23  O   UNL A   1      38.254  21.592  25.384  1.00  0.00    -0.458 OA
BRANCH  23  24
ATOM     24  C   UNL A   1      39.373  21.367  26.114  1.00  0.00     0.338 C 
ATOM     25  O   UNL A   1      40.034  20.340  26.122  1.00  0.00    -0.246 OA
BRANCH  24  26
ATOM     26  C   UNL A   1      39.800  22.601  26.798  1.00  0.00     0.060 A 
ATOM     27  C   UNL A   1      39.165  23.778  26.411  1.00  0.00     0.016 A 
ATOM     28  C   UNL A   1      40.865  22.645  27.699  1.00  0.00     0.016 A 
ATOM     29  C   UNL A   1      39.593  25.010  26.888  1.00  0.00     0.010 A 
ATOM     30  C   UNL A   1      41.296  23.890  28.189  1.00  0.00     0.010 A 
ATOM     31  C   UNL A   1      40.678  25.083  27.767  1.00  0.00    -0.014 A 
BRANCH  31  32
ATOM     32  C   UNL A   1      41.217  26.425  28.116  1.00  0.00     0.031 A 
ATOM     33  C   UNL A   1      42.621  26.784  27.705  1.00  0.00     0.074 A 
ATOM     34  C   UNL A   1      40.428  27.349  28.697  1.00  0.00     0.049 A 
ATOM     35  N   UNL A   1      43.311  27.865  27.957  1.00  0.00    -0.248 NA
ATOM     36  C   UNL A   1      43.341  25.783  26.903  1.00  0.00     0.031 C 
ATOM     37  C   UNL A   1      39.023  27.150  29.056  1.00  0.00     0.029 A 
ATOM     38  N   UNL A   1      40.685  28.645  29.068  1.00  0.00    -0.354 N 
ATOM     39  C   UNL A   1      44.559  27.664  27.374  1.00  0.00     0.074 A 
ATOM     40  C   UNL A   1      44.534  26.346  26.775  1.00  0.00     0.031 C 
ATOM     41  C   UNL A   1      38.538  28.290  29.577  1.00  0.00     0.029 A 
ATOM     42  C   UNL A   1      39.611  29.279  29.649  1.00  0.00     0.049 A 
ATOM     43  H   UNL A   1      41.557  29.081  28.932  1.00  0.00     0.167 HD
ATOM     44  C   UNL A   1      45.623  28.505  27.340  1.00  0.00     0.034 A 
ATOM     45  C   UNL A   1      39.510  30.503  30.205  1.00  0.00     0.034 A 
ATOM     46  C   UNL A   1      45.620  29.825  27.922  1.00  0.00     0.049 A 
ATOM     47  C   UNL A   1      40.726  31.396  30.213  1.00  0.00     0.074 A 
ATOM     48  C   UNL A   1      46.646  30.753  27.970  1.00  0.00     0.029 A 
ATOM     49  N   UNL A   1      44.528  30.413  28.551  1.00  0.00    -0.354 N 
ATOM     50  N   UNL A   1      41.924  31.165  29.722  1.00  0.00    -0.248 NA
ATOM     51  C   UNL A   1      40.580  32.710  30.850  1.00  0.00     0.031 C 
ATOM     52  C   UNL A   1      46.193  31.874  28.676  1.00  0.00     0.029 A 
ATOM     53  C   UNL A   1      44.862  31.679  29.007  1.00  0.00     0.049 A 
ATOM     54  H   UNL A   1      43.644  29.990  28.659  1.00  0.00     0.167 HD
ATOM     55  C   UNL A   1      42.664  32.318  29.972  1.00  0.00     0.074 A 
ATOM     56  C   UNL A   1      41.773  33.246  30.639  1.00  0.00     0.031 C 
ATOM     57  C   UNL A   1      43.961  32.588  29.676  1.00  0.00     0.034 A 
BRANCH  44  58
ATOM     58  C   UNL A   1      46.897  27.981  26.717  1.00  0.00     0.023 A 
ATOM     59  C   UNL A   1      47.161  28.102  25.341  1.00  0.00     0.031 A 
ATOM     60  C   UNL A   1      47.839  27.303  27.511  1.00  0.00     0.131 A 
ATOM     61  C   UNL A   1      48.298  27.488  24.791  1.00  0.00     0.055 A 
ATOM     62  C   UNL A   1      49.009  26.765  26.970  1.00  0.00     0.041 A 
ATOM     63  F   UNL A   1      47.631  27.136  28.826  1.00  0.00    -0.206 F 
ATOM     64  C   UNL A   1      49.236  26.842  25.600  1.00  0.00     0.022 A 
BRANCH  61  65
ATOM     65  S   UNL A   1      48.462  27.418  22.985  1.00  0.00     0.124 S 
ATOM     66  O   UNL A   1      48.360  25.982  22.735  1.00  0.00    -0.237 OA
ATOM     67  O   UNL A   1      47.338  28.228  22.533  1.00  0.00    -0.237 OA
ATOM     68  O   UNL A   1      49.784  27.992  22.738  1.00  0.00    -0.744 OA
ENDBRANCH  61  65
ENDBRANCH  44  58
BRANCH  45  69
ATOM     69  C   UNL A   1      38.239  30.939  30.853  1.00  0.00     0.023 A 
ATOM     70  C   UNL A   1      37.234  31.602  30.129  1.00  0.00     0.031 A 
ATOM     71  C   UNL A   1      38.035  30.746  32.233  1.00  0.00     0.131 A 
ATOM     72  C   UNL A   1      36.093  32.081  30.792  1.00  0.00     0.055 A 
ATOM     73  C   UNL A   1      36.874  31.175  32.876  1.00  0.00     0.041 A 
ATOM     74  F   UNL A   1      38.965  30.126  32.976  1.00  0.00    -0.206 F 
ATOM     75  C   UNL A   1      35.899  31.859  32.158  1.00  0.00     0.022 A 
BRANCH  72  76
ATOM     76  S   UNL A   1      34.899  33.082  29.863  1.00  0.00     0.124 S 
ATOM     77  O   UNL A   1      34.004  33.537  30.922  1.00  0.00    -0.237 OA
ATOM     78  O   UNL A   1      35.756  34.101  29.266  1.00  0.00    -0.237 OA
ATOM     79  O   UNL A   1      34.316  32.130  28.920  1.00  0.00    -0.744 OA
ENDBRANCH  72  76
ENDBRANCH  45  69
BRANCH  57  80
ATOM     80  C   UNL A   1      44.469  33.963  30.029  1.00  0.00     0.023 A 
ATOM     81  C   UNL A   1      44.369  35.043  29.135  1.00  0.00     0.031 A 
ATOM     82  C   UNL A   1      45.080  34.189  31.275  1.00  0.00     0.131 A 
ATOM     83  C   UNL A   1      44.921  36.287  29.477  1.00  0.00     0.055 A 
ATOM     84  C   UNL A   1      45.578  35.442  31.632  1.00  0.00     0.041 A 
ATOM     85  F   UNL A   1      45.203  33.192  32.166  1.00  0.00    -0.206 F 
ATOM     86  C   UNL A   1      45.513  36.497  30.726  1.00  0.00     0.022 A 
BRANCH  83  87
ATOM     87  S   UNL A   1      44.939  37.606  28.232  1.00  0.00     0.124 S 
ATOM     88  O   UNL A   1      46.269  37.460  27.652  1.00  0.00    -0.237 OA
ATOM     89  O   UNL A   1      43.822  37.236  27.369  1.00  0.00    -0.237 OA
ATOM     90  O   UNL A   1      44.736  38.822  29.018  1.00  0.00    -0.744 OA
ENDBRANCH  83  87
ENDBRANCH  57  80
ENDBRANCH  31  32
ENDBRANCH  24  26
ENDBRANCH  23  24
ENDBRANCH  22  23
ENDBRANCH   1  22
TORSDOF 18
ENDMDL
MODEL 3
REMARK VINA RESULT:     -11.2      5.073     10.073
REMARK SMILES Cc1c(N)cccc1SCc1cc(C(=O)OCCOC(=O)c2ccc(-c3c4nc(c(-c5cc(S(=O)(=O)[O-])ccc5F)c5ccc([nH]5)c(-c5cc(S(=O)(=O)[O-])ccc5F)c5nc(c(-c6cc(S(=O)(=O)[O-])ccc6F)c6ccc3[nH]6)C=C5)C=C4)cc2)no1
REMARK SMILES IDX 17 1 16 2 14 3 15 4 13 5 11 6 12 7 86 8 85 9 10 10 9 11 8 12
REMARK SMILES IDX 1 13 2 14 3 15 5 16 7 17 6 18 4 19 18 22 19 23 20 24 21 25
REMARK SMILES IDX 22 26 23 27 84 28 24 29 83 30 25 31 26 32 27 33 77 34 28 35
REMARK SMILES IDX 82 36 76 37 78 38 29 39 81 40 75 41 74 42 30 44 62 45 42 46
REMARK SMILES IDX 61 47 43 48 46 49 60 50 79 51 44 52 45 53 59 55 80 56 47 57
REMARK SMILES IDX 31 58 32 59 40 60 33 61 39 62 41 63 38 64 34 65 35 66 36 67
REMARK SMILES IDX 37 68 63 69 64 70 72 71 65 72 71 73 73 74 70 75 66 76 67 77
REMARK SMILES IDX 68 78 69 79 48 80 49 81 57 82 50 83 56 84 58 85 55 86 51 87
REMARK SMILES IDX 52 88 53 89 54 90
REMARK H PARENT 4 20 4 21 78 43 46 54
REMARK Flexibility Score: inf
ROOT
ATOM      1  C   UNL A   1      31.399  29.300  24.729  1.00  0.00     0.275 C 
ENDROOT
BRANCH   1   2
ATOM      2  O   UNL A   1      31.762  27.923  24.951  1.00  0.00    -0.457 OA
BRANCH   2   3
ATOM      3  C   UNL A   1      30.724  27.023  24.988  1.00  0.00     0.360 C 
ATOM      4  O   UNL A   1      29.712  27.127  24.319  1.00  0.00    -0.244 OA
BRANCH   3   5
ATOM      5  C   UNL A   1      31.007  25.899  25.883  1.00  0.00     0.191 A 
ATOM      6  C   UNL A   1      31.947  24.143  26.858  1.00  0.00     0.147 A 
ATOM      7  C   UNL A   1      32.255  25.323  26.220  1.00  0.00     0.085 A 
ATOM      8  O   UNL A   1      30.596  24.111  27.047  1.00  0.00    -0.360 OA
ATOM      9  N   UNL A   1      30.021  25.229  26.493  1.00  0.00    -0.072 NA
BRANCH   6  10
ATOM     10  C   UNL A   1      32.627  22.906  27.312  1.00  0.00     0.153 C 
BRANCH  10  11
ATOM     11  S   UNL A   1      34.071  22.260  26.414  1.00  0.00    -0.118 SA
BRANCH  11  12
ATOM     12  C   UNL A   1      33.665  22.359  24.673  1.00  0.00     0.013 A 
ATOM     13  C   UNL A   1      32.263  20.221  24.517  1.00  0.00     0.048 C 
ATOM     14  C   UNL A   1      32.853  21.476  23.925  1.00  0.00    -0.015 A 
ATOM     15  C   UNL A   1      32.528  21.817  22.587  1.00  0.00     0.035 A 
ATOM     16  C   UNL A   1      33.128  22.932  21.987  1.00  0.00     0.026 A 
ATOM     17  C   UNL A   1      34.237  23.479  24.040  1.00  0.00     0.015 A 
ATOM     18  C   UNL A   1      33.979  23.760  22.705  1.00  0.00     0.003 A 
BRANCH  15  19
ATOM     19  N   UNL A   1      31.703  21.014  21.802  1.00  0.00    -0.398 N 
ATOM     20  H   UNL A   1      32.067  20.567  21.004  1.00  0.00     0.156 HD
ATOM     21  H   UNL A   1      30.757  20.894  22.045  1.00  0.00     0.156 HD
ENDBRANCH  15  19
ENDBRANCH  11  12
ENDBRANCH  10  11
ENDBRANCH   6  10
ENDBRANCH   3   5
ENDBRANCH   2   3
ENDBRANCH   1   2
BRANCH   1  22
ATOM     22  C   UNL A   1      31.648  30.195  25.950  1.00  0.00     0.275 C 
BRANCH  22  23
ATOM     23  O   UNL A   1      33.029  30.189  26.360  1.00  0.00    -0.458 OA
BRANCH  23  24
ATOM     24  C   UNL A   1      33.403  31.261  27.098  1.00  0.00     0.338 C 
ATOM     25  O   UNL A   1      32.684  32.188  27.438  1.00  0.00    -0.246 OA
BRANCH  24  26
ATOM     26  C   UNL A   1      34.782  31.092  27.591  1.00  0.00     0.060 A 
ATOM     27  C   UNL A   1      35.171  29.796  27.921  1.00  0.00     0.016 A 
ATOM     28  C   UNL A   1      35.639  32.164  27.845  1.00  0.00     0.016 A 
ATOM     29  C   UNL A   1      36.395  29.551  28.528  1.00  0.00     0.010 A 
ATOM     30  C   UNL A   1      36.881  31.918  28.453  1.00  0.00     0.010 A 
ATOM     31  C   UNL A   1      37.257  30.612  28.821  1.00  0.00    -0.014 A 
BRANCH  31  32
ATOM     32  C   UNL A   1      38.475  30.332  29.628  1.00  0.00     0.031 A 
ATOM     33  C   UNL A   1      39.587  29.514  29.024  1.00  0.00     0.074 A 
ATOM     34  C   UNL A   1      38.634  30.890  30.843  1.00  0.00     0.049 A 
ATOM     35  N   UNL A   1      40.703  29.099  29.564  1.00  0.00    -0.248 NA
ATOM     36  C   UNL A   1      39.410  29.110  27.621  1.00  0.00     0.031 C 
ATOM     37  C   UNL A   1      37.668  31.778  31.494  1.00  0.00     0.029 A 
ATOM     38  N   UNL A   1      39.671  30.815  31.739  1.00  0.00    -0.354 N 
ATOM     39  C   UNL A   1      41.348  28.357  28.580  1.00  0.00     0.074 A 
ATOM     40  C   UNL A   1      40.485  28.362  27.418  1.00  0.00     0.031 C 
ATOM     41  C   UNL A   1      38.168  32.179  32.675  1.00  0.00     0.029 A 
ATOM     42  C   UNL A   1      39.457  31.529  32.896  1.00  0.00     0.049 A 
ATOM     43  H   UNL A   1      40.491  30.297  31.571  1.00  0.00     0.167 HD
ATOM     44  C   UNL A   1      42.551  27.732  28.642  1.00  0.00     0.034 A 
ATOM     45  C   UNL A   1      40.199  31.624  34.017  1.00  0.00     0.034 A 
ATOM     46  C   UNL A   1      43.408  27.760  29.802  1.00  0.00     0.049 A 
ATOM     47  C   UNL A   1      41.503  30.868  34.088  1.00  0.00     0.074 A 
ATOM     48  C   UNL A   1      44.635  27.144  29.988  1.00  0.00     0.029 A 
ATOM     49  N   UNL A   1      43.132  28.450  30.978  1.00  0.00    -0.354 N 
ATOM     50  N   UNL A   1      42.069  30.109  33.176  1.00  0.00    -0.248 NA
ATOM     51  C   UNL A   1      42.267  30.979  35.337  1.00  0.00     0.031 C 
ATOM     52  C   UNL A   1      45.071  27.415  31.290  1.00  0.00     0.029 A 
ATOM     53  C   UNL A   1      44.154  28.260  31.896  1.00  0.00     0.049 A 
ATOM     54  H   UNL A   1      42.328  28.996  31.135  1.00  0.00     0.167 HD
ATOM     55  C   UNL A   1      43.267  29.673  33.736  1.00  0.00     0.074 A 
ATOM     56  C   UNL A   1      43.349  30.268  35.054  1.00  0.00     0.031 C 
ATOM     57  C   UNL A   1      44.215  28.857  33.209  1.00  0.00     0.034 A 
BRANCH  44  58
ATOM     58  C   UNL A   1      42.964  26.909  27.444  1.00  0.00     0.023 A 
ATOM     59  C   UNL A   1      42.654  25.543  27.331  1.00  0.00     0.031 A 
ATOM     60  C   UNL A   1      43.729  27.496  26.420  1.00  0.00     0.131 A 
ATOM     61  C   UNL A   1      43.169  24.794  26.261  1.00  0.00     0.055 A 
ATOM     62  C   UNL A   1      44.171  26.764  25.316  1.00  0.00     0.041 A 
ATOM     63  F   UNL A   1      44.077  28.791  26.484  1.00  0.00    -0.206 F 
ATOM     64  C   UNL A   1      43.905  25.401  25.240  1.00  0.00     0.022 A 
BRANCH  61  65
ATOM     65  S   UNL A   1      42.991  22.989  26.295  1.00  0.00     0.124 S 
ATOM     66  O   UNL A   1      42.804  22.683  24.879  1.00  0.00    -0.237 OA
ATOM     67  O   UNL A   1      44.254  22.557  26.882  1.00  0.00    -0.237 OA
ATOM     68  O   UNL A   1      41.810  22.776  27.130  1.00  0.00    -0.744 OA
ENDBRANCH  61  65
ENDBRANCH  44  58
BRANCH  45  69
ATOM     69  C   UNL A   1      39.709  32.410  35.187  1.00  0.00     0.023 A 
ATOM     70  C   UNL A   1      38.980  31.805  36.225  1.00  0.00     0.031 A 
ATOM     71  C   UNL A   1      39.918  33.800  35.256  1.00  0.00     0.131 A 
ATOM     72  C   UNL A   1      38.453  32.592  37.262  1.00  0.00     0.055 A 
ATOM     73  C   UNL A   1      39.442  34.569  36.317  1.00  0.00     0.041 A 
ATOM     74  F   UNL A   1      40.602  34.432  34.288  1.00  0.00    -0.206 F 
ATOM     75  C   UNL A   1      38.693  33.968  37.323  1.00  0.00     0.022 A 
BRANCH  72  76
ATOM     76  S   UNL A   1      37.372  31.810  38.490  1.00  0.00     0.124 S 
ATOM     77  O   UNL A   1      38.176  31.913  39.703  1.00  0.00    -0.237 OA
ATOM     78  O   UNL A   1      36.184  32.656  38.434  1.00  0.00    -0.237 OA
ATOM     79  O   UNL A   1      37.194  30.455  37.974  1.00  0.00    -0.744 OA
ENDBRANCH  72  76
ENDBRANCH  45  69
BRANCH  57  80
ATOM     80  C   UNL A   1      45.444  28.609  34.048  1.00  0.00     0.023 A 
ATOM     81  C   UNL A   1      45.524  27.530  34.945  1.00  0.00     0.031 A 
ATOM     82  C   UNL A   1      46.543  29.481  33.960  1.00  0.00     0.131 A 
ATOM     83  C   UNL A   1      46.657  27.381  35.759  1.00  0.00     0.055 A 
ATOM     84  C   UNL A   1      47.691  29.296  34.732  1.00  0.00     0.041 A 
ATOM     85  F   UNL A   1      46.519  30.528  33.120  1.00  0.00    -0.206 F 
ATOM     86  C   UNL A   1      47.747  28.250  35.648  1.00  0.00     0.022 A 
BRANCH  83  87
ATOM     87  S   UNL A   1      46.653  26.090  37.033  1.00  0.00     0.124 S 
ATOM     88  O   UNL A   1      45.413  25.379  36.743  1.00  0.00    -0.237 OA
ATOM     89  O   UNL A   1      47.887  25.365  36.746  1.00  0.00    -0.237 OA
ATOM     90  O   UNL A   1      46.657  26.844  38.286  1.00  0.00    -0.744 OA
ENDBRANCH  83  87
ENDBRANCH  57  80
ENDBRANCH  31  32
ENDBRANCH  24  26
ENDBRANCH  23  24
ENDBRANCH  22  23
ENDBRANCH   1  22
TORSDOF 18
ENDMDL
