MODEL 1
REMARK VINA RESULT:     -11.9      0.000      0.000
REMARK SMILES CC1=C(C)C[C@@H](C(=O)OCCOC(=O)c2ccc(-c3c4nc(c(-c5cc(S(=O)(=O)[O-])ccc5F)c5ccc([nH]5)c(-c5cc(S(=O)(=O)[O-])ccc5F)c5nc(c(-c6cc(S(=O)(=O)[O-])ccc6F)c6ccc3[nH]6)C=C5)C=C4)cc2)[C@H](C(=O)NCc2cccnc2)C1
REMARK SMILES IDX 10 1 9 2 7 3 8 4 6 5 1 6 2 7 3 8 89 9 4 10 5 11 78 12 79 13
REMARK SMILES IDX 80 14 81 15 82 17 83 18 84 19 88 20 85 21 87 22 86 23 11 24
REMARK SMILES IDX 12 25 13 26 14 27 15 28 16 29 77 30 17 31 76 32 18 33 19 34
REMARK SMILES IDX 20 35 70 36 21 37 75 38 69 39 71 40 22 41 74 42 68 43 67 44
REMARK SMILES IDX 23 46 55 47 35 48 54 49 36 50 39 51 53 52 72 53 37 54 38 55
REMARK SMILES IDX 52 57 73 58 40 59 24 60 25 61 33 62 26 63 32 64 34 65 31 66
REMARK SMILES IDX 27 67 28 68 29 69 30 70 56 71 57 72 65 73 58 74 64 75 66 76
REMARK SMILES IDX 63 77 59 78 60 79 61 80 62 81 41 82 42 83 50 84 43 85 49 86
REMARK SMILES IDX 51 87 48 88 44 89 45 90 46 91 47 92
REMARK H PARENT 81 16 71 45 39 56
REMARK Flexibility Score: inf
ROOT
ATOM      1  C   UNL A   1      35.795  22.519  23.910  1.00  0.00     0.274 C 
ENDROOT
BRANCH   1   2
ATOM      2  O   UNL A   1      35.891  23.873  24.393  1.00  0.00    -0.462 OA
BRANCH   2   3
ATOM      3  C   UNL A   1      34.911  24.269  25.248  1.00  0.00     0.310 C 
ATOM      4  O   UNL A   1      34.668  23.725  26.320  1.00  0.00    -0.252 OA
BRANCH   3   5
ATOM      5  C   UNL A   1      34.030  25.376  24.685  1.00  0.00     0.116 C 
ATOM      6  C   UNL A   1      29.643  26.058  25.300  1.00  0.00     0.039 C 
ATOM      7  C   UNL A   1      31.130  25.851  25.163  1.00  0.00    -0.074 C 
ATOM      8  C   UNL A   1      32.026  26.410  25.998  1.00  0.00    -0.073 C 
ATOM      9  C   UNL A   1      31.528  24.954  24.021  1.00  0.00     0.045 C 
ATOM     10  C   UNL A   1      31.658  27.321  27.146  1.00  0.00     0.039 C 
ATOM     11  C   UNL A   1      33.507  26.164  25.891  1.00  0.00     0.046 C 
ATOM     12  C   UNL A   1      33.010  24.881  23.651  1.00  0.00     0.097 C 
BRANCH  12  13
ATOM     13  C   UNL A   1      33.263  25.437  22.248  1.00  0.00     0.224 C 
ATOM     14  O   UNL A   1      33.278  24.670  21.282  1.00  0.00    -0.275 OA
ATOM     15  N   UNL A   1      33.478  26.741  21.967  1.00  0.00    -0.352 N 
ATOM     16  H   UNL A   1      33.691  26.909  21.020  1.00  0.00     0.163 HD
BRANCH  15  17
ATOM     17  C   UNL A   1      33.458  27.938  22.775  1.00  0.00     0.153 C 
BRANCH  17  18
ATOM     18  C   UNL A   1      32.072  28.486  22.958  1.00  0.00    -0.010 A 
ATOM     19  C   UNL A   1      31.756  29.335  24.023  1.00  0.00     0.009 A 
ATOM     20  C   UNL A   1      31.031  28.140  22.102  1.00  0.00     0.116 A 
ATOM     21  C   UNL A   1      30.464  29.835  24.159  1.00  0.00     0.020 A 
ATOM     22  N   UNL A   1      29.763  28.591  22.225  1.00  0.00    -0.264 NA
ATOM     23  C   UNL A   1      29.510  29.444  23.237  1.00  0.00     0.111 A 
ENDBRANCH  17  18
ENDBRANCH  15  17
ENDBRANCH  12  13
ENDBRANCH   3   5
ENDBRANCH   2   3
ENDBRANCH   1   2
BRANCH   1  24
ATOM     24  C   UNL A   1      37.022  21.671  24.262  1.00  0.00     0.275 C 
BRANCH  24  25
ATOM     25  O   UNL A   1      37.328  21.725  25.665  1.00  0.00    -0.458 OA
BRANCH  25  26
ATOM     26  C   UNL A   1      38.614  21.432  25.971  1.00  0.00     0.338 C 
ATOM     27  O   UNL A   1      39.192  20.382  25.731  1.00  0.00    -0.246 OA
BRANCH  26  28
ATOM     28  C   UNL A   1      39.281  22.620  26.526  1.00  0.00     0.060 A 
ATOM     29  C   UNL A   1      38.810  23.879  26.147  1.00  0.00     0.016 A 
ATOM     30  C   UNL A   1      40.408  22.504  27.341  1.00  0.00     0.016 A 
ATOM     31  C   UNL A   1      39.469  25.033  26.561  1.00  0.00     0.010 A 
ATOM     32  C   UNL A   1      41.073  23.663  27.756  1.00  0.00     0.010 A 
ATOM     33  C   UNL A   1      40.617  24.932  27.354  1.00  0.00    -0.014 A 
BRANCH  33  34
ATOM     34  C   UNL A   1      41.395  26.152  27.675  1.00  0.00     0.031 A 
ATOM     35  C   UNL A   1      40.767  27.222  28.521  1.00  0.00     0.074 A 
ATOM     36  C   UNL A   1      42.661  26.283  27.239  1.00  0.00     0.049 A 
ATOM     37  N   UNL A   1      41.218  28.410  28.828  1.00  0.00    -0.248 NA
ATOM     38  C   UNL A   1      39.449  26.908  29.091  1.00  0.00     0.031 C 
ATOM     39  C   UNL A   1      43.399  25.276  26.475  1.00  0.00     0.029 A 
ATOM     40  N   UNL A   1      43.550  27.319  27.375  1.00  0.00    -0.354 N 
ATOM     41  C   UNL A   1      40.233  28.997  29.615  1.00  0.00     0.074 A 
ATOM     42  C   UNL A   1      39.151  28.038  29.715  1.00  0.00     0.031 C 
ATOM     43  C   UNL A   1      44.628  25.748  26.206  1.00  0.00     0.029 A 
ATOM     44  C   UNL A   1      44.747  27.105  26.735  1.00  0.00     0.049 A 
ATOM     45  H   UNL A   1      43.350  28.138  27.884  1.00  0.00     0.167 HD
ATOM     46  C   UNL A   1      40.232  30.222  30.197  1.00  0.00     0.034 A 
ATOM     47  C   UNL A   1      45.802  27.925  26.563  1.00  0.00     0.034 A 
ATOM     48  C   UNL A   1      41.321  31.164  30.082  1.00  0.00     0.049 A 
ATOM     49  C   UNL A   1      45.748  29.314  27.150  1.00  0.00     0.074 A 
ATOM     50  C   UNL A   1      41.423  32.439  30.610  1.00  0.00     0.029 A 
ATOM     51  N   UNL A   1      42.500  30.931  29.384  1.00  0.00    -0.354 N 
ATOM     52  N   UNL A   1      44.789  29.881  27.844  1.00  0.00    -0.248 NA
ATOM     53  C   UNL A   1      46.918  30.171  26.925  1.00  0.00     0.031 C 
ATOM     54  C   UNL A   1      42.638  32.995  30.189  1.00  0.00     0.029 A 
ATOM     55  C   UNL A   1      43.324  32.045  29.450  1.00  0.00     0.049 A 
ATOM     56  H   UNL A   1      42.720  30.096  28.912  1.00  0.00     0.167 HD
ATOM     57  C   UNL A   1      45.251  31.156  28.157  1.00  0.00     0.074 A 
ATOM     58  C   UNL A   1      46.578  31.268  27.585  1.00  0.00     0.031 C 
ATOM     59  C   UNL A   1      44.638  32.143  28.860  1.00  0.00     0.034 A 
BRANCH  46  60
ATOM     60  C   UNL A   1      38.986  30.626  30.946  1.00  0.00     0.023 A 
ATOM     61  C   UNL A   1      37.847  31.117  30.283  1.00  0.00     0.031 A 
ATOM     62  C   UNL A   1      38.958  30.569  32.350  1.00  0.00     0.131 A 
ATOM     63  C   UNL A   1      36.758  31.598  31.027  1.00  0.00     0.055 A 
ATOM     64  C   UNL A   1      37.843  30.980  33.082  1.00  0.00     0.041 A 
ATOM     65  F   UNL A   1      40.024  30.129  33.038  1.00  0.00    -0.206 F 
ATOM     66  C   UNL A   1      36.740  31.513  32.421  1.00  0.00     0.022 A 
BRANCH  63  67
ATOM     67  S   UNL A   1      35.421  32.464  30.157  1.00  0.00     0.124 S 
ATOM     68  O   UNL A   1      34.410  32.576  31.205  1.00  0.00    -0.237 OA
ATOM     69  O   UNL A   1      36.063  33.709  29.752  1.00  0.00    -0.237 OA
ATOM     70  O   UNL A   1      35.077  31.556  29.065  1.00  0.00    -0.744 OA
ENDBRANCH  63  67
ENDBRANCH  46  60
BRANCH  47  71
ATOM     71  C   UNL A   1      46.976  27.485  25.758  1.00  0.00     0.023 A 
ATOM     72  C   UNL A   1      47.121  27.863  24.415  1.00  0.00     0.031 A 
ATOM     73  C   UNL A   1      47.951  26.639  26.316  1.00  0.00     0.131 A 
ATOM     74  C   UNL A   1      48.198  27.367  23.662  1.00  0.00     0.055 A 
ATOM     75  C   UNL A   1      49.045  26.185  25.577  1.00  0.00     0.041 A 
ATOM     76  F   UNL A   1      47.858  26.246  27.597  1.00  0.00    -0.206 F 
ATOM     77  C   UNL A   1      49.166  26.540  24.238  1.00  0.00     0.022 A 
BRANCH  74  78
ATOM     78  S   UNL A   1      48.282  27.764  21.894  1.00  0.00     0.124 S 
ATOM     79  O   UNL A   1      48.500  26.449  21.302  1.00  0.00    -0.237 OA
ATOM     80  O   UNL A   1      46.975  28.367  21.656  1.00  0.00    -0.237 OA
ATOM     81  O   UNL A   1      49.414  28.683  21.805  1.00  0.00    -0.744 OA
ENDBRANCH  74  78
ENDBRANCH  47  71
BRANCH  59  82
ATOM     82  C   UNL A   1      45.426  33.410  29.077  1.00  0.00     0.023 A 
ATOM     83  C   UNL A   1      45.377  34.478  28.164  1.00  0.00     0.031 A 
ATOM     84  C   UNL A   1      46.256  33.536  30.205  1.00  0.00     0.131 A 
ATOM     85  C   UNL A   1      46.184  35.608  28.369  1.00  0.00     0.055 A 
ATOM     86  C   UNL A   1      47.020  34.683  30.429  1.00  0.00     0.041 A 
ATOM     87  F   UNL A   1      46.341  32.544  31.106  1.00  0.00    -0.206 F 
ATOM     88  C   UNL A   1      46.995  35.722  29.503  1.00  0.00     0.022 A 
BRANCH  85  89
ATOM     89  S   UNL A   1      46.224  36.896  27.093  1.00  0.00     0.124 S 
ATOM     90  O   UNL A   1      44.892  37.480  27.207  1.00  0.00    -0.237 OA
ATOM     91  O   UNL A   1      47.331  37.739  27.536  1.00  0.00    -0.237 OA
ATOM     92  O   UNL A   1      46.470  36.151  25.859  1.00  0.00    -0.744 OA
ENDBRANCH  85  89
ENDBRANCH  59  82
ENDBRANCH  33  34
ENDBRANCH  26  28
ENDBRANCH  25  26
ENDBRANCH  24  25
ENDBRANCH   1  24
TORSDOF 17
ENDMDL
MODEL 2
REMARK VINA RESULT:     -11.8      2.309      8.474
REMARK SMILES CC1=C(C)C[C@@H](C(=O)OCCOC(=O)c2ccc(-c3c4nc(c(-c5cc(S(=O)(=O)[O-])ccc5F)c5ccc([nH]5)c(-c5cc(S(=O)(=O)[O-])ccc5F)c5nc(c(-c6cc(S(=O)(=O)[O-])ccc6F)c6ccc3[nH]6)C=C5)C=C4)cc2)[C@H](C(=O)NCc2cccnc2)C1
REMARK SMILES IDX 10 1 9 2 7 3 8 4 6 5 1 6 2 7 3 8 89 9 4 10 5 11 78 12 79 13
REMARK SMILES IDX 80 14 81 15 82 17 83 18 84 19 88 20 85 21 87 22 86 23 11 24
REMARK SMILES IDX 12 25 13 26 14 27 15 28 16 29 77 30 17 31 76 32 18 33 19 34
REMARK SMILES IDX 20 35 70 36 21 37 75 38 69 39 71 40 22 41 74 42 68 43 67 44
REMARK SMILES IDX 23 46 55 47 35 48 54 49 36 50 39 51 53 52 72 53 37 54 38 55
REMARK SMILES IDX 52 57 73 58 40 59 24 60 25 61 33 62 26 63 32 64 34 65 31 66
REMARK SMILES IDX 27 67 28 68 29 69 30 70 56 71 57 72 65 73 58 74 64 75 66 76
REMARK SMILES IDX 63 77 59 78 60 79 61 80 62 81 41 82 42 83 50 84 43 85 49 86
REMARK SMILES IDX 51 87 48 88 44 89 45 90 46 91 47 92
REMARK H PARENT 81 16 71 45 39 56
REMARK Flexibility Score: inf
ROOT
ATOM      1  C   UNL A   1      37.404  20.379  24.990  1.00  0.00     0.274 C 
ENDROOT
BRANCH   1   2
ATOM      2  O   UNL A   1      37.668  21.717  24.522  1.00  0.00    -0.462 OA
BRANCH   2   3
ATOM      3  C   UNL A   1      36.768  22.664  24.899  1.00  0.00     0.310 C 
ATOM      4  O   UNL A   1      37.070  23.753  25.376  1.00  0.00    -0.252 OA
BRANCH   3   5
ATOM      5  C   UNL A   1      35.323  22.192  24.810  1.00  0.00     0.116 C 
ATOM      6  C   UNL A   1      31.632  24.597  23.986  1.00  0.00     0.039 C 
ATOM      7  C   UNL A   1      32.892  23.795  24.192  1.00  0.00    -0.074 C 
ATOM      8  C   UNL A   1      33.579  23.240  23.175  1.00  0.00    -0.073 C 
ATOM      9  C   UNL A   1      33.326  23.682  25.629  1.00  0.00     0.045 C 
ATOM     10  C   UNL A   1      33.165  23.329  21.726  1.00  0.00     0.039 C 
ATOM     11  C   UNL A   1      34.864  22.482  23.377  1.00  0.00     0.046 C 
ATOM     12  C   UNL A   1      34.443  22.693  25.963  1.00  0.00     0.097 C 
BRANCH  12  13
ATOM     13  C   UNL A   1      33.938  21.564  26.864  1.00  0.00     0.224 C 
ATOM     14  O   UNL A   1      34.091  21.643  28.085  1.00  0.00    -0.275 OA
ATOM     15  N   UNL A   1      33.317  20.448  26.420  1.00  0.00    -0.352 N 
ATOM     16  H   UNL A   1      33.122  19.797  27.133  1.00  0.00     0.163 HD
BRANCH  15  17
ATOM     17  C   UNL A   1      32.881  20.019  25.112  1.00  0.00     0.153 C 
BRANCH  17  18
ATOM     18  C   UNL A   1      33.071  18.546  24.897  1.00  0.00    -0.010 A 
ATOM     19  C   UNL A   1      33.679  18.049  23.740  1.00  0.00     0.009 A 
ATOM     20  C   UNL A   1      32.613  17.608  25.817  1.00  0.00     0.116 A 
ATOM     21  C   UNL A   1      33.850  16.677  23.575  1.00  0.00     0.020 A 
ATOM     22  N   UNL A   1      32.744  16.271  25.670  1.00  0.00    -0.264 NA
ATOM     23  C   UNL A   1      33.378  15.834  24.563  1.00  0.00     0.111 A 
ENDBRANCH  17  18
ENDBRANCH  15  17
ENDBRANCH  12  13
ENDBRANCH   3   5
ENDBRANCH   2   3
ENDBRANCH   1   2
BRANCH   1  24
ATOM     24  C   UNL A   1      38.683  19.584  25.273  1.00  0.00     0.275 C 
BRANCH  24  25
ATOM     25  O   UNL A   1      39.255  19.921  26.548  1.00  0.00    -0.458 OA
BRANCH  25  26
ATOM     26  C   UNL A   1      40.581  20.194  26.515  1.00  0.00     0.338 C 
ATOM     27  O   UNL A   1      41.461  19.449  26.111  1.00  0.00    -0.246 OA
BRANCH  26  28
ATOM     28  C   UNL A   1      40.816  21.590  26.916  1.00  0.00     0.060 A 
ATOM     29  C   UNL A   1      40.288  22.605  26.115  1.00  0.00     0.016 A 
ATOM     30  C   UNL A   1      41.614  21.903  28.017  1.00  0.00     0.016 A 
ATOM     31  C   UNL A   1      40.569  23.940  26.392  1.00  0.00     0.010 A 
ATOM     32  C   UNL A   1      41.898  23.245  28.295  1.00  0.00     0.010 A 
ATOM     33  C   UNL A   1      41.391  24.268  27.474  1.00  0.00    -0.014 A 
BRANCH  33  34
ATOM     34  C   UNL A   1      41.801  25.677  27.682  1.00  0.00     0.031 A 
ATOM     35  C   UNL A   1      43.124  26.143  27.147  1.00  0.00     0.074 A 
ATOM     36  C   UNL A   1      40.982  26.536  28.316  1.00  0.00     0.049 A 
ATOM     37  N   UNL A   1      43.730  27.291  27.310  1.00  0.00    -0.248 NA
ATOM     38  C   UNL A   1      43.866  25.179  26.320  1.00  0.00     0.031 C 
ATOM     39  C   UNL A   1      39.643  26.214  28.812  1.00  0.00     0.029 A 
ATOM     40  N   UNL A   1      41.157  27.854  28.654  1.00  0.00    -0.354 N 
ATOM     41  C   UNL A   1      44.933  27.185  26.621  1.00  0.00     0.074 A 
ATOM     42  C   UNL A   1      44.979  25.850  26.060  1.00  0.00     0.031 C 
ATOM     43  C   UNL A   1      39.121  27.306  29.394  1.00  0.00     0.029 A 
ATOM     44  C   UNL A   1      40.104  28.387  29.357  1.00  0.00     0.049 A 
ATOM     45  H   UNL A   1      41.962  28.369  28.414  1.00  0.00     0.167 HD
ATOM     46  C   UNL A   1      45.909  28.116  26.473  1.00  0.00     0.034 A 
ATOM     47  C   UNL A   1      39.965  29.595  29.936  1.00  0.00     0.034 A 
ATOM     48  C   UNL A   1      45.845  29.441  27.044  1.00  0.00     0.049 A 
ATOM     49  C   UNL A   1      41.096  30.588  29.830  1.00  0.00     0.074 A 
ATOM     50  C   UNL A   1      46.780  30.459  26.977  1.00  0.00     0.029 A 
ATOM     51  N   UNL A   1      44.781  29.931  27.792  1.00  0.00    -0.354 N 
ATOM     52  N   UNL A   1      42.255  30.459  29.225  1.00  0.00    -0.248 NA
ATOM     53  C   UNL A   1      40.901  31.885  30.488  1.00  0.00     0.031 C 
ATOM     54  C   UNL A   1      46.306  31.542  27.728  1.00  0.00     0.029 A 
ATOM     55  C   UNL A   1      45.046  31.226  28.211  1.00  0.00     0.049 A 
ATOM     56  H   UNL A   1      43.957  29.431  27.995  1.00  0.00     0.167 HD
ATOM     57  C   UNL A   1      42.916  31.669  29.412  1.00  0.00     0.074 A 
ATOM     58  C   UNL A   1      42.023  32.517  30.176  1.00  0.00     0.031 C 
ATOM     59  C   UNL A   1      44.149  32.050  28.986  1.00  0.00     0.034 A 
BRANCH  46  60
ATOM     60  C   UNL A   1      47.149  27.697  25.723  1.00  0.00     0.023 A 
ATOM     61  C   UNL A   1      47.323  27.980  24.356  1.00  0.00     0.031 A 
ATOM     62  C   UNL A   1      48.150  26.956  26.375  1.00  0.00     0.131 A 
ATOM     63  C   UNL A   1      48.434  27.464  23.671  1.00  0.00     0.055 A 
ATOM     64  C   UNL A   1      49.290  26.508  25.705  1.00  0.00     0.041 A 
ATOM     65  F   UNL A   1      48.029  26.637  27.674  1.00  0.00    -0.206 F 
ATOM     66  C   UNL A   1      49.429  26.748  24.341  1.00  0.00     0.022 A 
BRANCH  63  67
ATOM     67  S   UNL A   1      48.495  27.621  21.864  1.00  0.00     0.124 S 
ATOM     68  O   UNL A   1      49.622  28.532  21.684  1.00  0.00    -0.237 OA
ATOM     69  O   UNL A   1      48.708  26.244  21.435  1.00  0.00    -0.237 OA
ATOM     70  O   UNL A   1      47.189  28.184  21.524  1.00  0.00    -0.744 OA
ENDBRANCH  63  67
ENDBRANCH  46  60
BRANCH  47  71
ATOM     71  C   UNL A   1      38.739  29.921  30.717  1.00  0.00     0.023 A 
ATOM     72  C   UNL A   1      37.733  30.741  30.184  1.00  0.00     0.031 A 
ATOM     73  C   UNL A   1      38.580  29.448  32.032  1.00  0.00     0.131 A 
ATOM     74  C   UNL A   1      36.626  31.093  30.974  1.00  0.00     0.055 A 
ATOM     75  C   UNL A   1      37.456  29.763  32.798  1.00  0.00     0.041 A 
ATOM     76  F   UNL A   1      39.514  28.662  32.590  1.00  0.00    -0.206 F 
ATOM     77  C   UNL A   1      36.477  30.600  32.273  1.00  0.00     0.022 A 
BRANCH  74  78
ATOM     78  S   UNL A   1      35.413  32.262  30.304  1.00  0.00     0.124 S 
ATOM     79  O   UNL A   1      34.480  32.395  31.418  1.00  0.00    -0.237 OA
ATOM     80  O   UNL A   1      36.241  33.429  30.018  1.00  0.00    -0.237 OA
ATOM     81  O   UNL A   1      34.887  31.572  29.129  1.00  0.00    -0.744 OA
ENDBRANCH  74  78
ENDBRANCH  47  71
BRANCH  59  82
ATOM     82  C   UNL A   1      44.571  33.461  29.307  1.00  0.00     0.023 A 
ATOM     83  C   UNL A   1      44.317  34.527  28.427  1.00  0.00     0.031 A 
ATOM     84  C   UNL A   1      45.257  33.734  30.503  1.00  0.00     0.131 A 
ATOM     85  C   UNL A   1      44.793  35.812  28.732  1.00  0.00     0.055 A 
ATOM     86  C   UNL A   1      45.685  35.023  30.825  1.00  0.00     0.041 A 
ATOM     87  F   UNL A   1      45.526  32.751  31.377  1.00  0.00    -0.206 F 
ATOM     88  C   UNL A   1      45.464  36.068  29.932  1.00  0.00     0.022 A 
BRANCH  85  89
ATOM     89  S   UNL A   1      44.596  37.132  27.504  1.00  0.00     0.124 S 
ATOM     90  O   UNL A   1      45.731  36.896  26.618  1.00  0.00    -0.237 OA
ATOM     91  O   UNL A   1      43.279  36.843  26.945  1.00  0.00    -0.237 OA
ATOM     92  O   UNL A   1      44.675  38.356  28.299  1.00  0.00    -0.744 OA
ENDBRANCH  85  89
ENDBRANCH  59  82
ENDBRANCH  33  34
ENDBRANCH  26  28
ENDBRANCH  25  26
ENDBRANCH  24  25
ENDBRANCH   1  24
TORSDOF 17
ENDMDL
MODEL 3
REMARK VINA RESULT:     -11.7      1.358      7.816
REMARK SMILES CC1=C(C)C[C@@H](C(=O)OCCOC(=O)c2ccc(-c3c4nc(c(-c5cc(S(=O)(=O)[O-])ccc5F)c5ccc([nH]5)c(-c5cc(S(=O)(=O)[O-])ccc5F)c5nc(c(-c6cc(S(=O)(=O)[O-])ccc6F)c6ccc3[nH]6)C=C5)C=C4)cc2)[C@H](C(=O)NCc2cccnc2)C1
REMARK SMILES IDX 10 1 9 2 7 3 8 4 6 5 1 6 2 7 3 8 89 9 4 10 5 11 78 12 79 13
REMARK SMILES IDX 80 14 81 15 82 17 83 18 84 19 88 20 85 21 87 22 86 23 11 24
REMARK SMILES IDX 12 25 13 26 14 27 15 28 16 29 77 30 17 31 76 32 18 33 19 34
REMARK SMILES IDX 20 35 70 36 21 37 75 38 69 39 71 40 22 41 74 42 68 43 67 44
REMARK SMILES IDX 23 46 55 47 35 48 54 49 36 50 39 51 53 52 72 53 37 54 38 55
REMARK SMILES IDX 52 57 73 58 40 59 24 60 25 61 33 62 26 63 32 64 34 65 31 66
REMARK SMILES IDX 27 67 28 68 29 69 30 70 56 71 57 72 65 73 58 74 64 75 66 76
REMARK SMILES IDX 63 77 59 78 60 79 61 80 62 81 41 82 42 83 50 84 43 85 49 86
REMARK SMILES IDX 51 87 48 88 44 89 45 90 46 91 47 92
REMARK H PARENT 81 16 71 45 39 56
REMARK Flexibility Score: inf
ROOT
ATOM      1  C   UNL A   1      36.905  20.315  24.679  1.00  0.00     0.274 C 
ENDROOT
BRANCH   1   2
ATOM      2  O   UNL A   1      36.633  21.703  24.955  1.00  0.00    -0.462 OA
BRANCH   2   3
ATOM      3  C   UNL A   1      36.089  22.416  23.933  1.00  0.00     0.310 C 
ATOM      4  O   UNL A   1      36.675  22.683  22.889  1.00  0.00    -0.252 OA
BRANCH   3   5
ATOM      5  C   UNL A   1      34.715  22.986  24.259  1.00  0.00     0.116 C 
ATOM      6  C   UNL A   1      33.516  27.269  24.813  1.00  0.00     0.039 C 
ATOM      7  C   UNL A   1      33.925  25.841  24.554  1.00  0.00    -0.074 C 
ATOM      8  C   UNL A   1      33.866  25.273  23.334  1.00  0.00    -0.073 C 
ATOM      9  C   UNL A   1      34.420  25.108  25.772  1.00  0.00     0.045 C 
ATOM     10  C   UNL A   1      33.365  25.980  22.096  1.00  0.00     0.039 C 
ATOM     11  C   UNL A   1      34.321  23.864  23.067  1.00  0.00     0.046 C 
ATOM     12  C   UNL A   1      34.624  23.597  25.664  1.00  0.00     0.097 C 
BRANCH  12  13
ATOM     13  C   UNL A   1      33.667  22.837  26.584  1.00  0.00     0.224 C 
ATOM     14  O   UNL A   1      33.992  22.616  27.754  1.00  0.00    -0.275 OA
ATOM     15  N   UNL A   1      32.453  22.372  26.214  1.00  0.00    -0.352 N 
ATOM     16  H   UNL A   1      32.002  21.847  26.915  1.00  0.00     0.163 HD
BRANCH  15  17
ATOM     17  C   UNL A   1      31.684  22.491  24.997  1.00  0.00     0.153 C 
BRANCH  17  18
ATOM     18  C   UNL A   1      30.981  23.812  24.887  1.00  0.00    -0.010 A 
ATOM     19  C   UNL A   1      30.716  24.596  26.014  1.00  0.00     0.009 A 
ATOM     20  C   UNL A   1      30.524  24.297  23.665  1.00  0.00     0.116 A 
ATOM     21  C   UNL A   1      30.072  25.823  25.877  1.00  0.00     0.020 A 
ATOM     22  N   UNL A   1      29.875  25.472  23.507  1.00  0.00    -0.264 NA
ATOM     23  C   UNL A   1      29.680  26.220  24.612  1.00  0.00     0.111 A 
ENDBRANCH  17  18
ENDBRANCH  15  17
ENDBRANCH  12  13
ENDBRANCH   3   5
ENDBRANCH   2   3
ENDBRANCH   1   2
BRANCH   1  24
ATOM     24  C   UNL A   1      38.338  19.905  25.033  1.00  0.00     0.275 C 
BRANCH  24  25
ATOM     25  O   UNL A   1      38.736  20.400  26.323  1.00  0.00    -0.458 OA
BRANCH  25  26
ATOM     26  C   UNL A   1      40.075  20.502  26.496  1.00  0.00     0.338 C 
ATOM     27  O   UNL A   1      40.904  19.642  26.238  1.00  0.00    -0.246 OA
BRANCH  26  28
ATOM     28  C   UNL A   1      40.423  21.866  26.925  1.00  0.00     0.060 A 
ATOM     29  C   UNL A   1      39.733  22.935  26.349  1.00  0.00     0.016 A 
ATOM     30  C   UNL A   1      41.471  22.100  27.816  1.00  0.00     0.016 A 
ATOM     31  C   UNL A   1      40.094  24.247  26.641  1.00  0.00     0.010 A 
ATOM     32  C   UNL A   1      41.835  23.419  28.110  1.00  0.00     0.010 A 
ATOM     33  C   UNL A   1      41.160  24.498  27.511  1.00  0.00    -0.014 A 
BRANCH  33  34
ATOM     34  C   UNL A   1      41.631  25.889  27.710  1.00  0.00     0.031 A 
ATOM     35  C   UNL A   1      42.947  26.310  27.122  1.00  0.00     0.074 A 
ATOM     36  C   UNL A   1      40.872  26.773  28.384  1.00  0.00     0.049 A 
ATOM     37  N   UNL A   1      43.602  27.433  27.267  1.00  0.00    -0.248 NA
ATOM     38  C   UNL A   1      43.617  25.326  26.259  1.00  0.00     0.031 C 
ATOM     39  C   UNL A   1      39.544  26.497  28.934  1.00  0.00     0.029 A 
ATOM     40  N   UNL A   1      41.110  28.080  28.722  1.00  0.00    -0.354 N 
ATOM     41  C   UNL A   1      44.770  27.288  26.527  1.00  0.00     0.074 A 
ATOM     42  C   UNL A   1      44.741  25.956  25.956  1.00  0.00     0.031 C 
ATOM     43  C   UNL A   1      39.088  27.603  29.545  1.00  0.00     0.029 A 
ATOM     44  C   UNL A   1      40.108  28.646  29.473  1.00  0.00     0.049 A 
ATOM     45  H   UNL A   1      41.923  28.567  28.452  1.00  0.00     0.167 HD
ATOM     46  C   UNL A   1      45.772  28.183  26.344  1.00  0.00     0.034 A 
ATOM     47  C   UNL A   1      40.040  29.854  30.066  1.00  0.00     0.034 A 
ATOM     48  C   UNL A   1      45.782  29.505  26.926  1.00  0.00     0.049 A 
ATOM     49  C   UNL A   1      41.202  30.805  29.918  1.00  0.00     0.074 A 
ATOM     50  C   UNL A   1      46.751  30.488  26.826  1.00  0.00     0.029 A 
ATOM     51  N   UNL A   1      44.770  30.028  27.722  1.00  0.00    -0.354 N 
ATOM     52  N   UNL A   1      42.328  30.638  29.263  1.00  0.00    -0.248 NA
ATOM     53  C   UNL A   1      41.082  32.103  30.592  1.00  0.00     0.031 C 
ATOM     54  C   UNL A   1      46.350  31.582  27.603  1.00  0.00     0.029 A 
ATOM     55  C   UNL A   1      45.100  31.310  28.137  1.00  0.00     0.049 A 
ATOM     56  H   UNL A   1      43.937  29.558  27.956  1.00  0.00     0.167 HD
ATOM     57  C   UNL A   1      43.042  31.821  29.430  1.00  0.00     0.074 A 
ATOM     58  C   UNL A   1      42.213  32.695  30.237  1.00  0.00     0.031 C 
ATOM     59  C   UNL A   1      44.268  32.159  28.955  1.00  0.00     0.034 A 
BRANCH  46  60
ATOM     60  C   UNL A   1      46.964  27.725  25.539  1.00  0.00     0.023 A 
ATOM     61  C   UNL A   1      47.136  28.089  24.192  1.00  0.00     0.031 A 
ATOM     62  C   UNL A   1      47.915  26.866  26.117  1.00  0.00     0.131 A 
ATOM     63  C   UNL A   1      48.191  27.539  23.448  1.00  0.00     0.055 A 
ATOM     64  C   UNL A   1      49.005  26.380  25.391  1.00  0.00     0.041 A 
ATOM     65  F   UNL A   1      47.791  26.466  27.392  1.00  0.00    -0.206 F 
ATOM     66  C   UNL A   1      49.139  26.704  24.044  1.00  0.00     0.022 A 
BRANCH  63  67
ATOM     67  S   UNL A   1      48.233  27.818  21.655  1.00  0.00     0.124 S 
ATOM     68  O   UNL A   1      46.893  28.344  21.406  1.00  0.00    -0.237 OA
ATOM     69  O   UNL A   1      49.331  28.766  21.509  1.00  0.00    -0.237 OA
ATOM     70  O   UNL A   1      48.482  26.486  21.106  1.00  0.00    -0.744 OA
ENDBRANCH  63  67
ENDBRANCH  46  60
BRANCH  47  71
ATOM     71  C   UNL A   1      38.860  30.219  30.900  1.00  0.00     0.023 A 
ATOM     72  C   UNL A   1      37.785  30.943  30.363  1.00  0.00     0.031 A 
ATOM     73  C   UNL A   1      38.817  29.884  32.265  1.00  0.00     0.131 A 
ATOM     74  C   UNL A   1      36.724  31.338  31.194  1.00  0.00     0.055 A 
ATOM     75  C   UNL A   1      37.739  30.240  33.078  1.00  0.00     0.041 A 
ATOM     76  F   UNL A   1      39.821  29.194  32.828  1.00  0.00    -0.206 F 
ATOM     77  C   UNL A   1      36.690  30.981  32.545  1.00  0.00     0.022 A 
BRANCH  74  78
ATOM     78  S   UNL A   1      35.417  32.387  30.502  1.00  0.00     0.124 S 
ATOM     79  O   UNL A   1      35.130  31.714  29.240  1.00  0.00    -0.237 OA
ATOM     80  O   UNL A   1      34.383  32.300  31.527  1.00  0.00    -0.237 OA
ATOM     81  O   UNL A   1      36.059  33.695  30.379  1.00  0.00    -0.744 OA
ENDBRANCH  74  78
ENDBRANCH  47  71
BRANCH  59  82
ATOM     82  C   UNL A   1      44.756  33.551  29.267  1.00  0.00     0.023 A 
ATOM     83  C   UNL A   1      44.416  34.652  28.461  1.00  0.00     0.031 A 
ATOM     84  C   UNL A   1      45.592  33.770  30.375  1.00  0.00     0.131 A 
ATOM     85  C   UNL A   1      44.952  35.917  28.747  1.00  0.00     0.055 A 
ATOM     86  C   UNL A   1      46.083  35.040  30.683  1.00  0.00     0.041 A 
ATOM     87  F   UNL A   1      45.948  32.753  31.175  1.00  0.00    -0.206 F 
ATOM     88  C   UNL A   1      45.773  36.120  29.861  1.00  0.00     0.022 A 
BRANCH  85  89
ATOM     89  S   UNL A   1      44.630  37.283  27.598  1.00  0.00     0.124 S 
ATOM     90  O   UNL A   1      45.784  37.211  26.708  1.00  0.00    -0.237 OA
ATOM     91  O   UNL A   1      43.348  36.903  27.013  1.00  0.00    -0.237 OA
ATOM     92  O   UNL A   1      44.590  38.460  28.465  1.00  0.00    -0.744 OA
ENDBRANCH  85  89
ENDBRANCH  59  82
ENDBRANCH  33  34
ENDBRANCH  26  28
ENDBRANCH  25  26
ENDBRANCH  24  25
ENDBRANCH   1  24
TORSDOF 17
ENDMDL
