MODEL 1
REMARK VINA RESULT:     -12.0      0.000      0.000
REMARK SMILES C[NH2+][C@@]1(C(=O)OCCOC(=O)c2ccc(-c3c4nc(c(-c5cc(S(=O)(=O)[O-])ccc5F)c5ccc([nH]5)c(-c5cc(S(=O)(=O)[O-])ccc5F)c5nc(c(-c6cc(S(=O)(=O)[O-])ccc6F)c6ccc3[nH]6)C=C5)C=C4)cc2)CCC[C@@H](Oc2cc(F)cc(F)c2)C1
REMARK SMILES IDX 8 1 7 2 6 3 4 4 5 5 3 6 75 7 88 8 76 9 78 10 77 11 2 12 1 13
REMARK SMILES IDX 79 16 80 17 81 18 87 19 82 20 85 21 83 22 84 23 86 24 9 25
REMARK SMILES IDX 10 26 11 27 12 28 13 29 74 30 14 31 73 32 15 33 16 34 17 35
REMARK SMILES IDX 67 36 18 37 72 38 66 39 68 40 19 41 71 42 65 43 64 44 20 46
REMARK SMILES IDX 52 47 32 48 51 49 33 50 36 51 50 52 69 53 34 54 35 55 49 57
REMARK SMILES IDX 70 58 37 59 21 60 22 61 30 62 23 63 29 64 31 65 28 66 24 67
REMARK SMILES IDX 25 68 26 69 27 70 53 71 54 72 62 73 55 74 61 75 63 76 60 77
REMARK SMILES IDX 56 78 57 79 58 80 59 81 38 82 39 83 47 84 40 85 46 86 48 87
REMARK SMILES IDX 45 88 41 89 42 90 43 91 44 92
REMARK H PARENT 2 14 2 15 68 45 36 56
REMARK Flexibility Score: inf
ROOT
ATOM      1  C   UNL A   1      31.802  30.244  26.579  1.00  0.00     0.275 C 
ENDROOT
BRANCH   1   2
ATOM      2  C   UNL A   1      31.809  28.915  27.327  1.00  0.00     0.274 C 
BRANCH   2   3
ATOM      3  O   UNL A   1      31.329  27.851  26.479  1.00  0.00    -0.457 OA
BRANCH   3   4
ATOM      4  C   UNL A   1      32.260  27.245  25.691  1.00  0.00     0.368 C 
ATOM      5  O   UNL A   1      33.455  27.200  25.972  1.00  0.00    -0.245 OA
BRANCH   4   6
ATOM      6  C   UNL A   1      31.654  26.642  24.371  1.00  0.00     0.197 C 
ATOM      7  C   UNL A   1      32.629  27.049  23.241  1.00  0.00     0.081 C 
ATOM      8  C   UNL A   1      30.219  27.120  24.065  1.00  0.00     0.126 C 
ATOM      9  C   UNL A   1      32.544  28.540  22.910  1.00  0.00     0.011 C 
ATOM     10  C   UNL A   1      30.097  28.566  23.559  1.00  0.00     0.180 C 
ATOM     11  C   UNL A   1      31.130  28.912  22.479  1.00  0.00     0.046 C 
BRANCH   6  12
ATOM     12  N   UNL A   1      31.640  25.164  24.583  1.00  0.00    -0.334 N 
ATOM     13  C   UNL A   1      32.875  24.422  24.375  1.00  0.00     0.331 C 
ATOM     14  H   UNL A   1      31.348  24.999  25.546  1.00  0.00     0.347 HD
ATOM     15  H   UNL A   1      31.012  24.812  23.859  1.00  0.00     0.347 HD
ENDBRANCH   6  12
BRANCH  10  16
ATOM     16  O   UNL A   1      28.738  28.916  23.193  1.00  0.00    -0.490 OA
BRANCH  16  17
ATOM     17  C   UNL A   1      28.559  30.166  22.668  1.00  0.00     0.125 A 
ATOM     18  C   UNL A   1      28.093  30.286  21.360  1.00  0.00     0.085 A 
ATOM     19  C   UNL A   1      28.928  31.305  23.381  1.00  0.00     0.085 A 
ATOM     20  C   UNL A   1      27.912  31.552  20.813  1.00  0.00     0.129 A 
ATOM     21  C   UNL A   1      28.718  32.561  22.820  1.00  0.00     0.129 A 
ATOM     22  F   UNL A   1      27.443  31.667  19.563  1.00  0.00    -0.207 F 
ATOM     23  C   UNL A   1      28.202  32.698  21.540  1.00  0.00     0.078 A 
ATOM     24  F   UNL A   1      29.015  33.656  23.530  1.00  0.00    -0.207 F 
ENDBRANCH  16  17
ENDBRANCH  10  16
ENDBRANCH   4   6
ENDBRANCH   3   4
ENDBRANCH   2   3
ENDBRANCH   1   2
BRANCH   1  25
ATOM     25  O   UNL A   1      33.152  30.686  26.360  1.00  0.00    -0.458 OA
BRANCH  25  26
ATOM     26  C   UNL A   1      33.616  31.587  27.255  1.00  0.00     0.338 C 
ATOM     27  O   UNL A   1      33.036  32.571  27.682  1.00  0.00    -0.246 OA
BRANCH  26  28
ATOM     28  C   UNL A   1      34.966  31.207  27.697  1.00  0.00     0.060 A 
ATOM     29  C   UNL A   1      35.255  29.870  27.967  1.00  0.00     0.016 A 
ATOM     30  C   UNL A   1      35.898  32.200  27.992  1.00  0.00     0.016 A 
ATOM     31  C   UNL A   1      36.420  29.540  28.657  1.00  0.00     0.010 A 
ATOM     32  C   UNL A   1      37.123  31.847  28.566  1.00  0.00     0.010 A 
ATOM     33  C   UNL A   1      37.383  30.519  28.951  1.00  0.00    -0.014 A 
BRANCH  33  34
ATOM     34  C   UNL A   1      38.636  30.173  29.687  1.00  0.00     0.031 A 
ATOM     35  C   UNL A   1      39.641  29.227  29.072  1.00  0.00     0.074 A 
ATOM     36  C   UNL A   1      38.885  30.690  30.908  1.00  0.00     0.049 A 
ATOM     37  N   UNL A   1      40.653  28.611  29.629  1.00  0.00    -0.248 NA
ATOM     38  C   UNL A   1      39.464  28.916  27.646  1.00  0.00     0.031 C 
ATOM     39  C   UNL A   1      38.032  31.647  31.617  1.00  0.00     0.029 A 
ATOM     40  N   UNL A   1      39.935  30.488  31.771  1.00  0.00    -0.354 N 
ATOM     41  C   UNL A   1      41.187  27.784  28.645  1.00  0.00     0.074 A 
ATOM     42  C   UNL A   1      40.385  27.981  27.456  1.00  0.00     0.031 C 
ATOM     43  C   UNL A   1      38.611  31.982  32.778  1.00  0.00     0.029 A 
ATOM     44  C   UNL A   1      39.824  31.191  32.948  1.00  0.00     0.049 A 
ATOM     45  H   UNL A   1      40.695  29.898  31.565  1.00  0.00     0.167 HD
ATOM     46  C   UNL A   1      42.241  26.931  28.732  1.00  0.00     0.034 A 
ATOM     47  C   UNL A   1      40.577  31.167  34.066  1.00  0.00     0.034 A 
ATOM     48  C   UNL A   1      43.070  26.793  29.906  1.00  0.00     0.049 A 
ATOM     49  C   UNL A   1      41.744  30.225  34.139  1.00  0.00     0.074 A 
ATOM     50  C   UNL A   1      44.163  25.964  30.101  1.00  0.00     0.029 A 
ATOM     51  N   UNL A   1      42.911  27.517  31.079  1.00  0.00    -0.354 N 
ATOM     52  N   UNL A   1      42.169  29.368  33.240  1.00  0.00    -0.248 NA
ATOM     53  C   UNL A   1      42.520  30.229  35.385  1.00  0.00     0.031 C 
ATOM     54  C   UNL A   1      44.640  26.160  31.403  1.00  0.00     0.029 A 
ATOM     55  C   UNL A   1      43.879  27.150  32.003  1.00  0.00     0.049 A 
ATOM     56  H   UNL A   1      42.213  28.194  31.234  1.00  0.00     0.167 HD
ATOM     57  C   UNL A   1      43.257  28.724  33.819  1.00  0.00     0.074 A 
ATOM     58  C   UNL A   1      43.442  29.313  35.130  1.00  0.00     0.031 C 
ATOM     59  C   UNL A   1      44.029  27.728  33.316  1.00  0.00     0.034 A 
BRANCH  46  60
ATOM     60  C   UNL A   1      42.508  26.037  27.545  1.00  0.00     0.023 A 
ATOM     61  C   UNL A   1      41.973  24.742  27.444  1.00  0.00     0.031 A 
ATOM     62  C   UNL A   1      43.349  26.483  26.509  1.00  0.00     0.131 A 
ATOM     63  C   UNL A   1      42.339  23.915  26.370  1.00  0.00     0.055 A 
ATOM     64  C   UNL A   1      43.652  25.683  25.405  1.00  0.00     0.041 A 
ATOM     65  F   UNL A   1      43.906  27.704  26.559  1.00  0.00    -0.206 F 
ATOM     66  C   UNL A   1      43.157  24.385  25.339  1.00  0.00     0.022 A 
BRANCH  63  67
ATOM     67  S   UNL A   1      41.843  22.171  26.407  1.00  0.00     0.124 S 
ATOM     68  O   UNL A   1      42.587  21.628  25.273  1.00  0.00    -0.237 OA
ATOM     69  O   UNL A   1      42.290  21.744  27.728  1.00  0.00    -0.237 OA
ATOM     70  O   UNL A   1      40.393  22.222  26.225  1.00  0.00    -0.744 OA
ENDBRANCH  63  67
ENDBRANCH  46  60
BRANCH  47  71
ATOM     71  C   UNL A   1      40.196  32.004  35.238  1.00  0.00     0.023 A 
ATOM     72  C   UNL A   1      39.216  31.578  36.146  1.00  0.00     0.031 A 
ATOM     73  C   UNL A   1      40.809  33.251  35.458  1.00  0.00     0.131 A 
ATOM     74  C   UNL A   1      38.860  32.404  37.224  1.00  0.00     0.055 A 
ATOM     75  C   UNL A   1      40.485  34.047  36.556  1.00  0.00     0.041 A 
ATOM     76  F   UNL A   1      41.756  33.699  34.617  1.00  0.00    -0.206 F 
ATOM     77  C   UNL A   1      39.498  33.628  37.442  1.00  0.00     0.022 A 
BRANCH  74  78
ATOM     78  S   UNL A   1      37.509  31.880  38.314  1.00  0.00     0.124 S 
ATOM     79  O   UNL A   1      36.488  32.881  38.027  1.00  0.00    -0.237 OA
ATOM     80  O   UNL A   1      37.237  30.529  37.832  1.00  0.00    -0.237 OA
ATOM     81  O   UNL A   1      38.099  31.954  39.648  1.00  0.00    -0.744 OA
ENDBRANCH  74  78
ENDBRANCH  47  71
BRANCH  59  82
ATOM     82  C   UNL A   1      45.151  27.241  34.194  1.00  0.00     0.023 A 
ATOM     83  C   UNL A   1      44.975  26.156  35.069  1.00  0.00     0.031 A 
ATOM     84  C   UNL A   1      46.395  27.893  34.180  1.00  0.00     0.131 A 
ATOM     85  C   UNL A   1      46.014  25.784  35.934  1.00  0.00     0.055 A 
ATOM     86  C   UNL A   1      47.440  27.491  35.012  1.00  0.00     0.041 A 
ATOM     87  F   UNL A   1      46.610  28.936  33.363  1.00  0.00    -0.206 F 
ATOM     88  C   UNL A   1      47.249  26.438  35.903  1.00  0.00     0.022 A 
BRANCH  85  89
ATOM     89  S   UNL A   1      45.707  24.479  37.156  1.00  0.00     0.124 S 
ATOM     90  O   UNL A   1      45.138  23.416  36.332  1.00  0.00    -0.237 OA
ATOM     91  O   UNL A   1      47.043  24.228  37.688  1.00  0.00    -0.237 OA
ATOM     92  O   UNL A   1      44.775  25.101  38.095  1.00  0.00    -0.744 OA
ENDBRANCH  85  89
ENDBRANCH  59  82
ENDBRANCH  33  34
ENDBRANCH  26  28
ENDBRANCH  25  26
ENDBRANCH   1  25
TORSDOF 17
ENDMDL
MODEL 2
REMARK VINA RESULT:     -11.9      6.037     10.845
REMARK SMILES C[NH2+][C@@]1(C(=O)OCCOC(=O)c2ccc(-c3c4nc(c(-c5cc(S(=O)(=O)[O-])ccc5F)c5ccc([nH]5)c(-c5cc(S(=O)(=O)[O-])ccc5F)c5nc(c(-c6cc(S(=O)(=O)[O-])ccc6F)c6ccc3[nH]6)C=C5)C=C4)cc2)CCC[C@@H](Oc2cc(F)cc(F)c2)C1
REMARK SMILES IDX 8 1 7 2 6 3 4 4 5 5 3 6 75 7 88 8 76 9 78 10 77 11 2 12 1 13
REMARK SMILES IDX 79 16 80 17 81 18 87 19 82 20 85 21 83 22 84 23 86 24 9 25
REMARK SMILES IDX 10 26 11 27 12 28 13 29 74 30 14 31 73 32 15 33 16 34 17 35
REMARK SMILES IDX 67 36 18 37 72 38 66 39 68 40 19 41 71 42 65 43 64 44 20 46
REMARK SMILES IDX 52 47 32 48 51 49 33 50 36 51 50 52 69 53 34 54 35 55 49 57
REMARK SMILES IDX 70 58 37 59 21 60 22 61 30 62 23 63 29 64 31 65 28 66 24 67
REMARK SMILES IDX 25 68 26 69 27 70 53 71 54 72 62 73 55 74 61 75 63 76 60 77
REMARK SMILES IDX 56 78 57 79 58 80 59 81 38 82 39 83 47 84 40 85 46 86 48 87
REMARK SMILES IDX 45 88 41 89 42 90 43 91 44 92
REMARK H PARENT 2 14 2 15 68 45 36 56
REMARK Flexibility Score: inf
ROOT
ATOM      1  C   UNL A   1      36.499  21.228  24.413  1.00  0.00     0.275 C 
ENDROOT
BRANCH   1   2
ATOM      2  C   UNL A   1      36.039  22.553  23.813  1.00  0.00     0.274 C 
BRANCH   2   3
ATOM      3  O   UNL A   1      34.601  22.594  23.711  1.00  0.00    -0.457 OA
BRANCH   3   4
ATOM      4  C   UNL A   1      34.005  23.761  24.082  1.00  0.00     0.368 C 
ATOM      5  O   UNL A   1      34.397  24.865  23.715  1.00  0.00    -0.245 OA
BRANCH   4   6
ATOM      6  C   UNL A   1      32.789  23.551  25.057  1.00  0.00     0.197 C 
ATOM      7  C   UNL A   1      33.315  23.915  26.466  1.00  0.00     0.081 C 
ATOM      8  C   UNL A   1      32.207  22.122  25.035  1.00  0.00     0.126 C 
ATOM      9  C   UNL A   1      34.276  22.860  27.016  1.00  0.00     0.011 C 
ATOM     10  C   UNL A   1      33.059  21.050  25.733  1.00  0.00     0.180 C 
ATOM     11  C   UNL A   1      33.590  21.503  27.099  1.00  0.00     0.046 C 
BRANCH   6  12
ATOM     12  N   UNL A   1      31.742  24.510  24.593  1.00  0.00    -0.334 N 
ATOM     13  C   UNL A   1      30.803  24.069  23.571  1.00  0.00     0.331 C 
ATOM     14  H   UNL A   1      31.194  24.778  25.410  1.00  0.00     0.347 HD
ATOM     15  H   UNL A   1      32.270  25.258  24.142  1.00  0.00     0.347 HD
ENDBRANCH   6  12
BRANCH  10  16
ATOM     16  O   UNL A   1      32.409  19.754  25.765  1.00  0.00    -0.490 OA
BRANCH  16  17
ATOM     17  C   UNL A   1      32.794  18.862  24.804  1.00  0.00     0.125 A 
ATOM     18  C   UNL A   1      33.686  17.847  25.146  1.00  0.00     0.085 A 
ATOM     19  C   UNL A   1      32.390  19.014  23.479  1.00  0.00     0.085 A 
ATOM     20  C   UNL A   1      34.090  16.937  24.174  1.00  0.00     0.129 A 
ATOM     21  C   UNL A   1      32.791  18.079  22.530  1.00  0.00     0.129 A 
ATOM     22  F   UNL A   1      34.930  15.948  24.509  1.00  0.00    -0.207 F 
ATOM     23  C   UNL A   1      33.634  17.030  22.867  1.00  0.00     0.078 A 
ATOM     24  F   UNL A   1      32.352  18.191  21.270  1.00  0.00    -0.207 F 
ENDBRANCH  16  17
ENDBRANCH  10  16
ENDBRANCH   4   6
ENDBRANCH   3   4
ENDBRANCH   2   3
ENDBRANCH   1   2
BRANCH   1  25
ATOM     25  O   UNL A   1      37.070  21.454  25.712  1.00  0.00    -0.458 OA
BRANCH  25  26
ATOM     26  C   UNL A   1      38.411  21.298  25.787  1.00  0.00     0.338 C 
ATOM     27  O   UNL A   1      39.073  20.371  25.351  1.00  0.00    -0.246 OA
BRANCH  26  28
ATOM     28  C   UNL A   1      39.014  22.453  26.470  1.00  0.00     0.060 A 
ATOM     29  C   UNL A   1      38.550  23.738  26.196  1.00  0.00     0.016 A 
ATOM     30  C   UNL A   1      40.143  22.268  27.265  1.00  0.00     0.016 A 
ATOM     31  C   UNL A   1      39.295  24.843  26.605  1.00  0.00     0.010 A 
ATOM     32  C   UNL A   1      40.812  23.382  27.782  1.00  0.00     0.010 A 
ATOM     33  C   UNL A   1      40.427  24.686  27.420  1.00  0.00    -0.014 A 
BRANCH  33  34
ATOM     34  C   UNL A   1      41.229  25.865  27.866  1.00  0.00     0.031 A 
ATOM     35  C   UNL A   1      40.603  26.919  28.748  1.00  0.00     0.074 A 
ATOM     36  C   UNL A   1      42.514  26.010  27.483  1.00  0.00     0.049 A 
ATOM     37  N   UNL A   1      41.031  28.121  29.041  1.00  0.00    -0.248 NA
ATOM     38  C   UNL A   1      39.309  26.580  29.360  1.00  0.00     0.031 C 
ATOM     39  C   UNL A   1      43.271  25.059  26.665  1.00  0.00     0.029 A 
ATOM     40  N   UNL A   1      43.418  27.014  27.736  1.00  0.00    -0.354 N 
ATOM     41  C   UNL A   1      40.029  28.709  29.807  1.00  0.00     0.074 A 
ATOM     42  C   UNL A   1      38.972  27.727  29.934  1.00  0.00     0.031 C 
ATOM     43  C   UNL A   1      44.529  25.500  26.523  1.00  0.00     0.029 A 
ATOM     44  C   UNL A   1      44.645  26.812  27.150  1.00  0.00     0.049 A 
ATOM     45  H   UNL A   1      43.206  27.803  28.285  1.00  0.00     0.167 HD
ATOM     46  C   UNL A   1      39.991  29.956  30.344  1.00  0.00     0.034 A 
ATOM     47  C   UNL A   1      45.730  27.608  27.072  1.00  0.00     0.034 A 
ATOM     48  C   UNL A   1      41.079  30.902  30.262  1.00  0.00     0.049 A 
ATOM     49  C   UNL A   1      45.672  28.980  27.680  1.00  0.00     0.074 A 
ATOM     50  C   UNL A   1      41.149  32.188  30.772  1.00  0.00     0.029 A 
ATOM     51  N   UNL A   1      42.299  30.655  29.647  1.00  0.00    -0.354 N 
ATOM     52  N   UNL A   1      44.676  29.563  28.305  1.00  0.00    -0.248 NA
ATOM     53  C   UNL A   1      46.876  29.811  27.553  1.00  0.00     0.031 C 
ATOM     54  C   UNL A   1      42.395  32.731  30.432  1.00  0.00     0.029 A 
ATOM     55  C   UNL A   1      43.124  31.766  29.758  1.00  0.00     0.049 A 
ATOM     56  H   UNL A   1      42.544  29.814  29.198  1.00  0.00     0.167 HD
ATOM     57  C   UNL A   1      45.132  30.834  28.636  1.00  0.00     0.074 A 
ATOM     58  C   UNL A   1      46.502  30.921  28.171  1.00  0.00     0.031 C 
ATOM     59  C   UNL A   1      44.476  31.843  29.262  1.00  0.00     0.034 A 
BRANCH  46  60
ATOM     60  C   UNL A   1      38.704  30.388  31.005  1.00  0.00     0.023 A 
ATOM     61  C   UNL A   1      37.667  31.015  30.294  1.00  0.00     0.031 A 
ATOM     62  C   UNL A   1      38.530  30.196  32.389  1.00  0.00     0.131 A 
ATOM     63  C   UNL A   1      36.536  31.490  30.979  1.00  0.00     0.055 A 
ATOM     64  C   UNL A   1      37.372  30.604  33.052  1.00  0.00     0.041 A 
ATOM     65  F   UNL A   1      39.494  29.620  33.124  1.00  0.00    -0.206 F 
ATOM     66  C   UNL A   1      36.372  31.268  32.349  1.00  0.00     0.022 A 
BRANCH  63  67
ATOM     67  S   UNL A   1      35.346  32.521  30.080  1.00  0.00     0.124 S 
ATOM     68  O   UNL A   1      34.920  31.618  29.013  1.00  0.00    -0.237 OA
ATOM     69  O   UNL A   1      34.349  32.817  31.103  1.00  0.00    -0.237 OA
ATOM     70  O   UNL A   1      36.145  33.663  29.639  1.00  0.00    -0.744 OA
ENDBRANCH  63  67
ENDBRANCH  46  60
BRANCH  47  71
ATOM     71  C   UNL A   1      46.932  27.157  26.317  1.00  0.00     0.023 A 
ATOM     72  C   UNL A   1      47.152  27.563  24.992  1.00  0.00     0.031 A 
ATOM     73  C   UNL A   1      47.877  26.303  26.916  1.00  0.00     0.131 A 
ATOM     74  C   UNL A   1      48.280  27.096  24.300  1.00  0.00     0.055 A 
ATOM     75  C   UNL A   1      49.020  25.879  26.238  1.00  0.00     0.041 A 
ATOM     76  F   UNL A   1      47.711  25.891  28.183  1.00  0.00    -0.206 F 
ATOM     77  C   UNL A   1      49.222  26.270  24.918  1.00  0.00     0.022 A 
BRANCH  74  78
ATOM     78  S   UNL A   1      48.477  27.544  22.554  1.00  0.00     0.124 S 
ATOM     79  O   UNL A   1      48.637  26.237  21.926  1.00  0.00    -0.237 OA
ATOM     80  O   UNL A   1      47.224  28.240  22.275  1.00  0.00    -0.237 OA
ATOM     81  O   UNL A   1      49.668  28.389  22.550  1.00  0.00    -0.744 OA
ENDBRANCH  74  78
ENDBRANCH  47  71
BRANCH  59  82
ATOM     82  C   UNL A   1      45.254  33.113  29.486  1.00  0.00     0.023 A 
ATOM     83  C   UNL A   1      45.337  34.104  28.493  1.00  0.00     0.031 A 
ATOM     84  C   UNL A   1      45.949  33.314  30.690  1.00  0.00     0.131 A 
ATOM     85  C   UNL A   1      46.140  35.233  28.704  1.00  0.00     0.055 A 
ATOM     86  C   UNL A   1      46.712  34.460  30.911  1.00  0.00     0.041 A 
ATOM     87  F   UNL A   1      45.902  32.394  31.667  1.00  0.00    -0.206 F 
ATOM     88  C   UNL A   1      46.820  35.422  29.910  1.00  0.00     0.022 A 
BRANCH  85  89
ATOM     89  S   UNL A   1      46.348  36.420  27.348  1.00  0.00     0.124 S 
ATOM     90  O   UNL A   1      46.216  37.699  28.039  1.00  0.00    -0.237 OA
ATOM     91  O   UNL A   1      47.683  36.098  26.851  1.00  0.00    -0.237 OA
ATOM     92  O   UNL A   1      45.254  36.094  26.435  1.00  0.00    -0.744 OA
ENDBRANCH  85  89
ENDBRANCH  59  82
ENDBRANCH  33  34
ENDBRANCH  26  28
ENDBRANCH  25  26
ENDBRANCH   1  25
TORSDOF 17
ENDMDL
MODEL 3
REMARK VINA RESULT:     -11.8      5.398     10.067
REMARK SMILES C[NH2+][C@@]1(C(=O)OCCOC(=O)c2ccc(-c3c4nc(c(-c5cc(S(=O)(=O)[O-])ccc5F)c5ccc([nH]5)c(-c5cc(S(=O)(=O)[O-])ccc5F)c5nc(c(-c6cc(S(=O)(=O)[O-])ccc6F)c6ccc3[nH]6)C=C5)C=C4)cc2)CCC[C@@H](Oc2cc(F)cc(F)c2)C1
REMARK SMILES IDX 8 1 7 2 6 3 4 4 5 5 3 6 75 7 88 8 76 9 78 10 77 11 2 12 1 13
REMARK SMILES IDX 79 16 80 17 81 18 87 19 82 20 85 21 83 22 84 23 86 24 9 25
REMARK SMILES IDX 10 26 11 27 12 28 13 29 74 30 14 31 73 32 15 33 16 34 17 35
REMARK SMILES IDX 67 36 18 37 72 38 66 39 68 40 19 41 71 42 65 43 64 44 20 46
REMARK SMILES IDX 52 47 32 48 51 49 33 50 36 51 50 52 69 53 34 54 35 55 49 57
REMARK SMILES IDX 70 58 37 59 21 60 22 61 30 62 23 63 29 64 31 65 28 66 24 67
REMARK SMILES IDX 25 68 26 69 27 70 53 71 54 72 62 73 55 74 61 75 63 76 60 77
REMARK SMILES IDX 56 78 57 79 58 80 59 81 38 82 39 83 47 84 40 85 46 86 48 87
REMARK SMILES IDX 45 88 41 89 42 90 43 91 44 92
REMARK H PARENT 2 14 2 15 68 45 36 56
REMARK Flexibility Score: inf
ROOT
ATOM      1  C   UNL A   1      36.953  20.439  24.993  1.00  0.00     0.275 C 
ENDROOT
BRANCH   1   2
ATOM      2  C   UNL A   1      35.478  20.745  25.231  1.00  0.00     0.274 C 
BRANCH   2   3
ATOM      3  O   UNL A   1      34.999  21.712  24.273  1.00  0.00    -0.457 OA
BRANCH   3   4
ATOM      4  C   UNL A   1      34.503  22.871  24.788  1.00  0.00     0.368 C 
ATOM      5  O   UNL A   1      35.189  23.687  25.398  1.00  0.00    -0.245 OA
BRANCH   4   6
ATOM      6  C   UNL A   1      32.957  23.040  24.553  1.00  0.00     0.197 C 
ATOM      7  C   UNL A   1      32.697  22.544  23.110  1.00  0.00     0.081 C 
ATOM      8  C   UNL A   1      32.449  24.485  24.743  1.00  0.00     0.126 C 
ATOM      9  C   UNL A   1      33.230  23.518  22.058  1.00  0.00     0.011 C 
ATOM     10  C   UNL A   1      32.812  25.467  23.618  1.00  0.00     0.180 C 
ATOM     11  C   UNL A   1      32.578  24.887  22.217  1.00  0.00     0.046 C 
BRANCH   6  12
ATOM     12  N   UNL A   1      32.305  22.158  25.567  1.00  0.00    -0.334 N 
ATOM     13  C   UNL A   1      32.141  22.664  26.922  1.00  0.00     0.331 C 
ATOM     14  H   UNL A   1      31.376  21.929  25.216  1.00  0.00     0.347 HD
ATOM     15  H   UNL A   1      32.951  21.374  25.669  1.00  0.00     0.347 HD
ENDBRANCH   6  12
BRANCH  10  16
ATOM     16  O   UNL A   1      32.218  26.777  23.807  1.00  0.00    -0.490 OA
BRANCH  16  17
ATOM     17  C   UNL A   1      32.502  27.402  24.990  1.00  0.00     0.125 A 
ATOM     18  C   UNL A   1      31.483  27.561  25.928  1.00  0.00     0.085 A 
ATOM     19  C   UNL A   1      33.755  27.965  25.222  1.00  0.00     0.085 A 
ATOM     20  C   UNL A   1      31.758  28.201  27.132  1.00  0.00     0.129 A 
ATOM     21  C   UNL A   1      34.012  28.582  26.443  1.00  0.00     0.129 A 
ATOM     22  F   UNL A   1      30.785  28.334  28.043  1.00  0.00    -0.207 F 
ATOM     23  C   UNL A   1      33.024  28.699  27.410  1.00  0.00     0.078 A 
ATOM     24  F   UNL A   1      35.234  29.068  26.690  1.00  0.00    -0.207 F 
ENDBRANCH  16  17
ENDBRANCH  10  16
ENDBRANCH   4   6
ENDBRANCH   3   4
ENDBRANCH   2   3
ENDBRANCH   1   2
BRANCH   1  25
ATOM     25  O   UNL A   1      37.748  21.592  25.313  1.00  0.00    -0.458 OA
BRANCH  25  26
ATOM     26  C   UNL A   1      38.930  21.330  25.915  1.00  0.00     0.338 C 
ATOM     27  O   UNL A   1      39.530  20.268  25.933  1.00  0.00    -0.246 OA
BRANCH  26  28
ATOM     28  C   UNL A   1      39.448  22.546  26.558  1.00  0.00     0.060 A 
ATOM     29  C   UNL A   1      38.994  23.796  26.142  1.00  0.00     0.016 A 
ATOM     30  C   UNL A   1      40.500  22.449  27.468  1.00  0.00     0.016 A 
ATOM     31  C   UNL A   1      39.681  24.946  26.530  1.00  0.00     0.010 A 
ATOM     32  C   UNL A   1      41.100  23.613  27.955  1.00  0.00     0.010 A 
ATOM     33  C   UNL A   1      40.732  24.877  27.457  1.00  0.00    -0.014 A 
BRANCH  33  34
ATOM     34  C   UNL A   1      41.470  26.104  27.882  1.00  0.00     0.031 A 
ATOM     35  C   UNL A   1      40.785  27.146  28.733  1.00  0.00     0.074 A 
ATOM     36  C   UNL A   1      42.751  26.304  27.506  1.00  0.00     0.049 A 
ATOM     37  N   UNL A   1      41.151  28.375  29.001  1.00  0.00    -0.248 NA
ATOM     38  C   UNL A   1      39.503  26.759  29.341  1.00  0.00     0.031 C 
ATOM     39  C   UNL A   1      43.561  25.373  26.718  1.00  0.00     0.029 A 
ATOM     40  N   UNL A   1      43.601  27.356  27.743  1.00  0.00    -0.354 N 
ATOM     41  C   UNL A   1      40.113  28.931  29.744  1.00  0.00     0.074 A 
ATOM     42  C   UNL A   1      39.104  27.901  29.885  1.00  0.00     0.031 C 
ATOM     43  C   UNL A   1      44.798  25.872  26.576  1.00  0.00     0.029 A 
ATOM     44  C   UNL A   1      44.843  27.201  27.172  1.00  0.00     0.049 A 
ATOM     45  H   UNL A   1      43.346  28.147  28.271  1.00  0.00     0.167 HD
ATOM     46  C   UNL A   1      40.008  30.186  30.250  1.00  0.00     0.034 A 
ATOM     47  C   UNL A   1      45.888  28.048  27.085  1.00  0.00     0.034 A 
ATOM     48  C   UNL A   1      41.050  31.182  30.156  1.00  0.00     0.049 A 
ATOM     49  C   UNL A   1      45.757  29.430  27.660  1.00  0.00     0.074 A 
ATOM     50  C   UNL A   1      41.051  32.482  30.635  1.00  0.00     0.029 A 
ATOM     51  N   UNL A   1      42.286  30.982  29.557  1.00  0.00    -0.354 N 
ATOM     52  N   UNL A   1      44.727  29.977  28.262  1.00  0.00    -0.248 NA
ATOM     53  C   UNL A   1      46.920  30.315  27.523  1.00  0.00     0.031 C 
ATOM     54  C   UNL A   1      42.272  33.078  30.293  1.00  0.00     0.029 A 
ATOM     55  C   UNL A   1      43.055  32.134  29.648  1.00  0.00     0.049 A 
ATOM     56  H   UNL A   1      42.577  30.144  29.130  1.00  0.00     0.167 HD
ATOM     57  C   UNL A   1      45.117  31.277  28.566  1.00  0.00     0.074 A 
ATOM     58  C   UNL A   1      46.486  31.420  28.111  1.00  0.00     0.031 C 
ATOM     59  C   UNL A   1      44.406  32.267  29.162  1.00  0.00     0.034 A 
BRANCH  46  60
ATOM     60  C   UNL A   1      38.695  30.569  30.890  1.00  0.00     0.023 A 
ATOM     61  C   UNL A   1      37.647  31.156  30.162  1.00  0.00     0.031 A 
ATOM     62  C   UNL A   1      38.506  30.371  32.271  1.00  0.00     0.131 A 
ATOM     63  C   UNL A   1      36.488  31.588  30.828  1.00  0.00     0.055 A 
ATOM     64  C   UNL A   1      37.322  30.736  32.915  1.00  0.00     0.041 A 
ATOM     65  F   UNL A   1      39.480  29.832  33.022  1.00  0.00    -0.206 F 
ATOM     66  C   UNL A   1      36.310  31.361  32.194  1.00  0.00     0.022 A 
BRANCH  63  67
ATOM     67  S   UNL A   1      35.275  32.574  29.908  1.00  0.00     0.124 S 
ATOM     68  O   UNL A   1      36.025  33.802  29.653  1.00  0.00    -0.237 OA
ATOM     69  O   UNL A   1      35.004  31.737  28.746  1.00  0.00    -0.237 OA
ATOM     70  O   UNL A   1      34.164  32.715  30.849  1.00  0.00    -0.744 OA
ENDBRANCH  63  67
ENDBRANCH  46  60
BRANCH  47  71
ATOM     71  C   UNL A   1      47.118  27.640  26.351  1.00  0.00     0.023 A 
ATOM     72  C   UNL A   1      47.242  27.847  24.969  1.00  0.00     0.031 A 
ATOM     73  C   UNL A   1      48.188  27.027  27.030  1.00  0.00     0.131 A 
ATOM     74  C   UNL A   1      48.403  27.423  24.304  1.00  0.00     0.055 A 
ATOM     75  C   UNL A   1      49.358  26.650  26.371  1.00  0.00     0.041 A 
ATOM     76  F   UNL A   1      48.117  26.810  28.353  1.00  0.00    -0.206 F 
ATOM     77  C   UNL A   1      49.466  26.840  24.998  1.00  0.00     0.022 A 
BRANCH  74  78
ATOM     78  S   UNL A   1      48.486  27.599  22.501  1.00  0.00     0.124 S 
ATOM     79  O   UNL A   1      49.724  28.351  22.331  1.00  0.00    -0.237 OA
ATOM     80  O   UNL A   1      48.515  26.208  22.061  1.00  0.00    -0.237 OA
ATOM     81  O   UNL A   1      47.263  28.327  22.173  1.00  0.00    -0.744 OA
ENDBRANCH  74  78
ENDBRANCH  47  71
BRANCH  59  82
ATOM     82  C   UNL A   1      45.118  33.578  29.363  1.00  0.00     0.023 A 
ATOM     83  C   UNL A   1      45.016  34.616  28.421  1.00  0.00     0.031 A 
ATOM     84  C   UNL A   1      45.936  33.774  30.488  1.00  0.00     0.131 A 
ATOM     85  C   UNL A   1      45.762  35.790  28.598  1.00  0.00     0.055 A 
ATOM     86  C   UNL A   1      46.642  34.962  30.680  1.00  0.00     0.041 A 
ATOM     87  F   UNL A   1      46.067  32.810  31.413  1.00  0.00    -0.206 F 
ATOM     88  C   UNL A   1      46.566  35.973  29.726  1.00  0.00     0.022 A 
BRANCH  85  89
ATOM     89  S   UNL A   1      45.728  37.049  27.292  1.00  0.00     0.124 S 
ATOM     90  O   UNL A   1      46.568  36.445  26.263  1.00  0.00    -0.237 OA
ATOM     91  O   UNL A   1      44.304  37.140  26.981  1.00  0.00    -0.237 OA
ATOM     92  O   UNL A   1      46.295  38.230  27.940  1.00  0.00    -0.744 OA
ENDBRANCH  85  89
ENDBRANCH  59  82
ENDBRANCH  33  34
ENDBRANCH  26  28
ENDBRANCH  25  26
ENDBRANCH   1  25
TORSDOF 17
ENDMDL
