MODEL 1
REMARK VINA RESULT:     -11.1      0.000      0.000
REMARK SMILES C[C@H]1C[C@H](C)CN(S(=O)(=O)N[C@@H](CCC(N)=O)C(=O)OCCOC(=O)c2ccc(-c3c4nc(c(-c5cc(S(=O)(=O)[O-])ccc5F)c5ccc([nH]5)c(-c5cc(S(=O)(=O)[O-])ccc5F)c5nc(c(-c6cc(S(=O)(=O)[O-])ccc6F)c6ccc3[nH]6)C=C5)C=C4)cc2)C1
REMARK SMILES IDX 21 1 20 2 18 3 19 4 12 5 11 6 8 8 9 9 10 10 7 11 1 12 2 13
REMARK SMILES IDX 3 14 89 15 4 16 5 17 6 18 13 19 14 20 15 21 16 22 17 23
REMARK SMILES IDX 22 26 23 27 24 28 25 29 26 30 27 31 88 32 28 33 87 34 29 35
REMARK SMILES IDX 30 36 31 37 81 38 32 39 86 40 80 41 82 42 33 43 85 44 79 45
REMARK SMILES IDX 78 46 34 48 66 49 46 50 65 51 47 52 50 53 64 54 83 55 48 56
REMARK SMILES IDX 49 57 63 59 84 60 51 61 35 62 36 63 44 64 37 65 43 66 45 67
REMARK SMILES IDX 42 68 38 69 39 70 40 71 41 72 67 73 68 74 76 75 69 76 75 77
REMARK SMILES IDX 77 78 74 79 70 80 71 81 72 82 73 83 52 84 53 85 61 86 54 87
REMARK SMILES IDX 60 88 62 89 59 90 55 91 56 92 57 93 58 94
REMARK H PARENT 11 7 16 24 16 25 82 47 50 58
REMARK Flexibility Score: inf
ROOT
ATOM      1  C   UNL A   1      35.498  20.589  25.438  1.00  0.00     0.274 C 
ENDROOT
BRANCH   1   2
ATOM      2  O   UNL A   1      34.334  20.306  24.631  1.00  0.00    -0.461 OA
BRANCH   2   3
ATOM      3  C   UNL A   1      33.165  20.849  25.062  1.00  0.00     0.324 C 
ATOM      4  O   UNL A   1      32.097  20.245  25.123  1.00  0.00    -0.250 OA
BRANCH   3   5
ATOM      5  C   UNL A   1      33.270  22.338  25.385  1.00  0.00     0.181 C 
BRANCH   5   6
ATOM      6  N   UNL A   1      32.854  23.239  24.291  1.00  0.00    -0.188 NA
ATOM      7  H   UNL A   1      32.658  22.631  23.496  1.00  0.00     0.143 HD
BRANCH   6   8
ATOM      8  S   UNL A   1      33.774  24.482  23.684  1.00  0.00     0.280 S 
ATOM      9  O   UNL A   1      33.763  24.399  22.242  1.00  0.00    -0.195 OA
ATOM     10  O   UNL A   1      35.027  24.445  24.397  1.00  0.00    -0.195 OA
BRANCH   8  11
ATOM     11  N   UNL A   1      32.978  25.926  24.124  1.00  0.00    -0.188 NA
ATOM     12  C   UNL A   1      33.806  28.528  26.893  1.00  0.00     0.009 C 
ATOM     13  C   UNL A   1      32.984  27.838  25.804  1.00  0.00     0.001 C 
ATOM     14  C   UNL A   1      32.729  28.818  24.655  1.00  0.00     0.009 C 
ATOM     15  C   UNL A   1      33.679  26.566  25.300  1.00  0.00     0.106 C 
ATOM     16  C   UNL A   1      31.956  28.141  23.529  1.00  0.00     0.001 C 
ATOM     17  C   UNL A   1      30.512  27.846  23.948  1.00  0.00     0.009 C 
ATOM     18  C   UNL A   1      32.709  26.898  23.047  1.00  0.00     0.106 C 
ENDBRANCH   8  11
ENDBRANCH   6   8
ENDBRANCH   5   6
BRANCH   5  19
ATOM     19  C   UNL A   1      32.647  22.585  26.765  1.00  0.00     0.042 C 
BRANCH  19  20
ATOM     20  C   UNL A   1      31.949  23.928  26.975  1.00  0.00     0.102 C 
BRANCH  20  21
ATOM     21  C   UNL A   1      30.489  23.943  26.583  1.00  0.00     0.217 C 
ATOM     22  N   UNL A   1      30.196  24.514  25.382  1.00  0.00    -0.370 N 
ATOM     23  O   UNL A   1      29.601  23.450  27.270  1.00  0.00    -0.275 OA
ATOM     24  H   UNL A   1      30.915  24.908  24.836  1.00  0.00     0.159 HD
ATOM     25  H   UNL A   1      29.265  24.533  25.060  1.00  0.00     0.159 HD
ENDBRANCH  20  21
ENDBRANCH  19  20
ENDBRANCH   5  19
ENDBRANCH   3   5
ENDBRANCH   2   3
ENDBRANCH   1   2
BRANCH   1  26
ATOM     26  C   UNL A   1      36.786  20.569  24.613  1.00  0.00     0.275 C 
BRANCH  26  27
ATOM     27  O   UNL A   1      37.664  21.643  24.988  1.00  0.00    -0.458 OA
BRANCH  27  28
ATOM     28  C   UNL A   1      38.724  21.249  25.732  1.00  0.00     0.338 C 
ATOM     29  O   UNL A   1      39.261  20.155  25.733  1.00  0.00    -0.246 OA
BRANCH  28  30
ATOM     30  C   UNL A   1      39.256  22.398  26.470  1.00  0.00     0.060 A 
ATOM     31  C   UNL A   1      38.763  23.659  26.148  1.00  0.00     0.016 A 
ATOM     32  C   UNL A   1      40.325  22.256  27.351  1.00  0.00     0.016 A 
ATOM     33  C   UNL A   1      39.388  24.795  26.647  1.00  0.00     0.010 A 
ATOM     34  C   UNL A   1      40.930  23.403  27.878  1.00  0.00     0.010 A 
ATOM     35  C   UNL A   1      40.500  24.685  27.491  1.00  0.00    -0.014 A 
BRANCH  35  36
ATOM     36  C   UNL A   1      41.266  25.902  27.882  1.00  0.00     0.031 A 
ATOM     37  C   UNL A   1      40.595  26.981  28.696  1.00  0.00     0.074 A 
ATOM     38  C   UNL A   1      42.564  26.033  27.546  1.00  0.00     0.049 A 
ATOM     39  N   UNL A   1      41.003  28.196  28.964  1.00  0.00    -0.248 NA
ATOM     40  C   UNL A   1      39.283  26.650  29.273  1.00  0.00     0.031 C 
ATOM     41  C   UNL A   1      43.361  25.027  26.841  1.00  0.00     0.029 A 
ATOM     42  N   UNL A   1      43.445  27.066  27.750  1.00  0.00    -0.354 N 
ATOM     43  C   UNL A   1      39.976  28.793  29.692  1.00  0.00     0.074 A 
ATOM     44  C   UNL A   1      38.923  27.806  29.812  1.00  0.00     0.031 C 
ATOM     45  C   UNL A   1      44.613  25.484  26.689  1.00  0.00     0.029 A 
ATOM     46  C   UNL A   1      44.681  26.852  27.187  1.00  0.00     0.049 A 
ATOM     47  H   UNL A   1      43.213  27.882  28.251  1.00  0.00     0.167 HD
ATOM     48  C   UNL A   1      39.921  30.048  30.204  1.00  0.00     0.034 A 
ATOM     49  C   UNL A   1      45.732  27.682  27.028  1.00  0.00     0.034 A 
ATOM     50  C   UNL A   1      41.003  31.001  30.103  1.00  0.00     0.049 A 
ATOM     51  C   UNL A   1      45.620  29.098  27.531  1.00  0.00     0.074 A 
ATOM     52  C   UNL A   1      41.061  32.296  30.590  1.00  0.00     0.029 A 
ATOM     53  N   UNL A   1      42.221  30.760  29.478  1.00  0.00    -0.354 N 
ATOM     54  N   UNL A   1      44.616  29.678  28.147  1.00  0.00    -0.248 NA
ATOM     55  C   UNL A   1      46.779  29.971  27.310  1.00  0.00     0.031 C 
ATOM     56  C   UNL A   1      42.280  32.860  30.198  1.00  0.00     0.029 A 
ATOM     57  C   UNL A   1      43.023  31.890  29.544  1.00  0.00     0.049 A 
ATOM     58  H   UNL A   1      42.478  29.912  29.052  1.00  0.00     0.167 HD
ATOM     59  C   UNL A   1      45.037  30.978  28.414  1.00  0.00     0.074 A 
ATOM     60  C   UNL A   1      46.388  31.090  27.903  1.00  0.00     0.031 C 
ATOM     61  C   UNL A   1      44.368  31.988  29.026  1.00  0.00     0.034 A 
BRANCH  48  62
ATOM     62  C   UNL A   1      38.629  30.488  30.857  1.00  0.00     0.023 A 
ATOM     63  C   UNL A   1      37.594  31.108  30.137  1.00  0.00     0.031 A 
ATOM     64  C   UNL A   1      38.440  30.292  32.238  1.00  0.00     0.131 A 
ATOM     65  C   UNL A   1      36.450  31.568  30.809  1.00  0.00     0.055 A 
ATOM     66  C   UNL A   1      37.265  30.678  32.886  1.00  0.00     0.041 A 
ATOM     67  F   UNL A   1      39.400  29.725  32.986  1.00  0.00    -0.206 F 
ATOM     68  C   UNL A   1      36.267  31.334  32.174  1.00  0.00     0.022 A 
BRANCH  65  69
ATOM     69  S   UNL A   1      35.267  32.603  29.903  1.00  0.00     0.124 S 
ATOM     70  O   UNL A   1      36.121  33.699  29.453  1.00  0.00    -0.237 OA
ATOM     71  O   UNL A   1      34.788  31.698  28.866  1.00  0.00    -0.237 OA
ATOM     72  O   UNL A   1      34.281  32.968  30.919  1.00  0.00    -0.744 OA
ENDBRANCH  65  69
ENDBRANCH  48  62
BRANCH  49  73
ATOM     73  C   UNL A   1      46.949  27.223  26.298  1.00  0.00     0.023 A 
ATOM     74  C   UNL A   1      48.019  26.622  26.976  1.00  0.00     0.031 A 
ATOM     75  C   UNL A   1      47.076  27.415  24.908  1.00  0.00     0.131 A 
ATOM     76  C   UNL A   1      49.182  26.271  26.275  1.00  0.00     0.055 A 
ATOM     77  C   UNL A   1      48.209  27.006  24.205  1.00  0.00     0.041 A 
ATOM     78  F   UNL A   1      46.085  27.990  24.208  1.00  0.00    -0.206 F 
ATOM     79  C   UNL A   1      49.278  26.441  24.892  1.00  0.00     0.022 A 
BRANCH  76  80
ATOM     80  S   UNL A   1      50.612  25.669  27.215  1.00  0.00     0.124 S 
ATOM     81  O   UNL A   1      50.619  26.577  28.356  1.00  0.00    -0.237 OA
ATOM     82  O   UNL A   1      50.231  24.289  27.494  1.00  0.00    -0.237 OA
ATOM     83  O   UNL A   1      51.724  25.831  26.282  1.00  0.00    -0.744 OA
ENDBRANCH  76  80
ENDBRANCH  49  73
BRANCH  61  84
ATOM     84  C   UNL A   1      45.120  33.281  29.234  1.00  0.00     0.023 A 
ATOM     85  C   UNL A   1      45.197  34.266  28.233  1.00  0.00     0.031 A 
ATOM     86  C   UNL A   1      45.784  33.520  30.450  1.00  0.00     0.131 A 
ATOM     87  C   UNL A   1      45.970  35.417  28.445  1.00  0.00     0.055 A 
ATOM     88  C   UNL A   1      46.497  34.697  30.679  1.00  0.00     0.041 A 
ATOM     89  F   UNL A   1      45.748  32.612  31.439  1.00  0.00    -0.206 F 
ATOM     90  C   UNL A   1      46.605  35.647  29.669  1.00  0.00     0.022 A 
BRANCH  87  91
ATOM     91  S   UNL A   1      46.219  36.566  27.064  1.00  0.00     0.124 S 
ATOM     92  O   UNL A   1      46.067  35.688  25.909  1.00  0.00    -0.237 OA
ATOM     93  O   UNL A   1      45.151  37.538  27.271  1.00  0.00    -0.237 OA
ATOM     94  O   UNL A   1      47.572  37.076  27.282  1.00  0.00    -0.744 OA
ENDBRANCH  87  91
ENDBRANCH  61  84
ENDBRANCH  35  36
ENDBRANCH  28  30
ENDBRANCH  27  28
ENDBRANCH  26  27
ENDBRANCH   1  26
TORSDOF 20
ENDMDL
MODEL 2
REMARK VINA RESULT:     -10.8      4.572      9.834
REMARK SMILES C[C@H]1C[C@H](C)CN(S(=O)(=O)N[C@@H](CCC(N)=O)C(=O)OCCOC(=O)c2ccc(-c3c4nc(c(-c5cc(S(=O)(=O)[O-])ccc5F)c5ccc([nH]5)c(-c5cc(S(=O)(=O)[O-])ccc5F)c5nc(c(-c6cc(S(=O)(=O)[O-])ccc6F)c6ccc3[nH]6)C=C5)C=C4)cc2)C1
REMARK SMILES IDX 21 1 20 2 18 3 19 4 12 5 11 6 8 8 9 9 10 10 7 11 1 12 2 13
REMARK SMILES IDX 3 14 89 15 4 16 5 17 6 18 13 19 14 20 15 21 16 22 17 23
REMARK SMILES IDX 22 26 23 27 24 28 25 29 26 30 27 31 88 32 28 33 87 34 29 35
REMARK SMILES IDX 30 36 31 37 81 38 32 39 86 40 80 41 82 42 33 43 85 44 79 45
REMARK SMILES IDX 78 46 34 48 66 49 46 50 65 51 47 52 50 53 64 54 83 55 48 56
REMARK SMILES IDX 49 57 63 59 84 60 51 61 35 62 36 63 44 64 37 65 43 66 45 67
REMARK SMILES IDX 42 68 38 69 39 70 40 71 41 72 67 73 68 74 76 75 69 76 75 77
REMARK SMILES IDX 77 78 74 79 70 80 71 81 72 82 73 83 52 84 53 85 61 86 54 87
REMARK SMILES IDX 60 88 62 89 59 90 55 91 56 92 57 93 58 94
REMARK H PARENT 11 7 16 24 16 25 82 47 50 58
REMARK Flexibility Score: inf
ROOT
ATOM      1  C   UNL A   1      32.417  29.298  24.708  1.00  0.00     0.274 C 
ENDROOT
BRANCH   1   2
ATOM      2  O   UNL A   1      31.485  28.402  24.066  1.00  0.00    -0.461 OA
BRANCH   2   3
ATOM      3  C   UNL A   1      32.033  27.410  23.315  1.00  0.00     0.324 C 
ATOM      4  O   UNL A   1      32.751  27.594  22.337  1.00  0.00    -0.250 OA
BRANCH   3   5
ATOM      5  C   UNL A   1      31.593  26.011  23.742  1.00  0.00     0.181 C 
BRANCH   5   6
ATOM      6  N   UNL A   1      32.287  24.906  23.049  1.00  0.00    -0.188 NA
ATOM      7  H   UNL A   1      31.663  24.103  23.124  1.00  0.00     0.143 HD
BRANCH   6   8
ATOM      8  S   UNL A   1      33.795  24.335  23.448  1.00  0.00     0.280 S 
ATOM      9  O   UNL A   1      34.527  25.391  24.106  1.00  0.00    -0.195 OA
ATOM     10  O   UNL A   1      34.328  23.728  22.253  1.00  0.00    -0.195 OA
BRANCH   8  11
ATOM     11  N   UNL A   1      33.549  23.089  24.588  1.00  0.00    -0.188 NA
ATOM     12  C   UNL A   1      32.613  19.348  24.086  1.00  0.00     0.009 C 
ATOM     13  C   UNL A   1      32.855  20.654  24.844  1.00  0.00     0.001 C 
ATOM     14  C   UNL A   1      33.992  20.459  25.852  1.00  0.00     0.009 C 
ATOM     15  C   UNL A   1      33.162  21.810  23.882  1.00  0.00     0.106 C 
ATOM     16  C   UNL A   1      34.291  21.761  26.586  1.00  0.00     0.001 C 
ATOM     17  C   UNL A   1      33.153  22.133  27.542  1.00  0.00     0.009 C 
ATOM     18  C   UNL A   1      34.619  22.869  25.581  1.00  0.00     0.106 C 
ENDBRANCH   8  11
ENDBRANCH   6   8
ENDBRANCH   5   6
BRANCH   5  19
ATOM     19  C   UNL A   1      31.554  25.958  25.275  1.00  0.00     0.042 C 
BRANCH  19  20
ATOM     20  C   UNL A   1      30.227  25.552  25.915  1.00  0.00     0.102 C 
BRANCH  20  21
ATOM     21  C   UNL A   1      30.136  24.091  26.293  1.00  0.00     0.217 C 
ATOM     22  N   UNL A   1      30.456  23.197  25.318  1.00  0.00    -0.370 N 
ATOM     23  O   UNL A   1      29.825  23.702  27.414  1.00  0.00    -0.275 OA
ATOM     24  H   UNL A   1      30.705  23.517  24.420  1.00  0.00     0.159 HD
ATOM     25  H   UNL A   1      30.440  22.231  25.509  1.00  0.00     0.159 HD
ENDBRANCH  20  21
ENDBRANCH  19  20
ENDBRANCH   5  19
ENDBRANCH   3   5
ENDBRANCH   2   3
ENDBRANCH   1   2
BRANCH   1  26
ATOM     26  C   UNL A   1      31.751  30.132  25.802  1.00  0.00     0.275 C 
BRANCH  26  27
ATOM     27  O   UNL A   1      32.549  30.165  26.997  1.00  0.00    -0.458 OA
BRANCH  27  28
ATOM     28  C   UNL A   1      33.156  31.354  27.218  1.00  0.00     0.338 C 
ATOM     29  O   UNL A   1      32.644  32.460  27.201  1.00  0.00    -0.246 OA
BRANCH  28  30
ATOM     30  C   UNL A   1      34.542  31.125  27.636  1.00  0.00     0.060 A 
ATOM     31  C   UNL A   1      34.933  29.813  27.890  1.00  0.00     0.016 A 
ATOM     32  C   UNL A   1      35.394  32.189  27.920  1.00  0.00     0.016 A 
ATOM     33  C   UNL A   1      36.153  29.561  28.503  1.00  0.00     0.010 A 
ATOM     34  C   UNL A   1      36.637  31.927  28.508  1.00  0.00     0.010 A 
ATOM     35  C   UNL A   1      37.008  30.615  28.852  1.00  0.00    -0.014 A 
BRANCH  35  36
ATOM     36  C   UNL A   1      38.232  30.350  29.660  1.00  0.00     0.031 A 
ATOM     37  C   UNL A   1      39.311  29.447  29.114  1.00  0.00     0.074 A 
ATOM     38  C   UNL A   1      38.401  30.937  30.861  1.00  0.00     0.049 A 
ATOM     39  N   UNL A   1      40.343  28.923  29.723  1.00  0.00    -0.248 NA
ATOM     40  C   UNL A   1      39.202  29.077  27.694  1.00  0.00     0.031 C 
ATOM     41  C   UNL A   1      37.482  31.902  31.468  1.00  0.00     0.029 A 
ATOM     42  N   UNL A   1      39.404  30.810  31.790  1.00  0.00    -0.354 N 
ATOM     43  C   UNL A   1      40.976  28.117  28.780  1.00  0.00     0.074 A 
ATOM     44  C   UNL A   1      40.201  28.216  27.560  1.00  0.00     0.031 C 
ATOM     45  C   UNL A   1      37.972  32.291  32.654  1.00  0.00     0.029 A 
ATOM     46  C   UNL A   1      39.180  31.527  32.941  1.00  0.00     0.049 A 
ATOM     47  H   UNL A   1      40.206  30.257  31.644  1.00  0.00     0.167 HD
ATOM     48  C   UNL A   1      42.095  27.362  28.924  1.00  0.00     0.034 A 
ATOM     49  C   UNL A   1      39.833  31.525  34.121  1.00  0.00     0.034 A 
ATOM     50  C   UNL A   1      42.872  27.312  30.141  1.00  0.00     0.049 A 
ATOM     51  C   UNL A   1      41.024  30.619  34.288  1.00  0.00     0.074 A 
ATOM     52  C   UNL A   1      44.026  26.590  30.399  1.00  0.00     0.029 A 
ATOM     53  N   UNL A   1      42.581  28.016  31.303  1.00  0.00    -0.354 N 
ATOM     54  N   UNL A   1      41.568  29.800  33.417  1.00  0.00    -0.248 NA
ATOM     55  C   UNL A   1      41.684  30.631  35.600  1.00  0.00     0.031 C 
ATOM     56  C   UNL A   1      44.388  26.801  31.734  1.00  0.00     0.029 A 
ATOM     57  C   UNL A   1      43.516  27.724  32.286  1.00  0.00     0.049 A 
ATOM     58  H   UNL A   1      41.822  28.633  31.413  1.00  0.00     0.167 HD
ATOM     59  C   UNL A   1      42.654  29.222  34.069  1.00  0.00     0.074 A 
ATOM     60  C   UNL A   1      42.694  29.796  35.398  1.00  0.00     0.031 C 
ATOM     61  C   UNL A   1      43.539  28.301  33.610  1.00  0.00     0.034 A 
BRANCH  48  62
ATOM     62  C   UNL A   1      42.506  26.481  27.766  1.00  0.00     0.023 A 
ATOM     63  C   UNL A   1      42.019  25.172  27.605  1.00  0.00     0.031 A 
ATOM     64  C   UNL A   1      43.421  26.961  26.810  1.00  0.00     0.131 A 
ATOM     65  C   UNL A   1      42.497  24.370  26.556  1.00  0.00     0.055 A 
ATOM     66  C   UNL A   1      43.829  26.187  25.722  1.00  0.00     0.041 A 
ATOM     67  F   UNL A   1      43.939  28.195  26.919  1.00  0.00    -0.206 F 
ATOM     68  C   UNL A   1      43.379  24.877  25.598  1.00  0.00     0.022 A 
BRANCH  65  69
ATOM     69  S   UNL A   1      42.060  22.610  26.540  1.00  0.00     0.124 S 
ATOM     70  O   UNL A   1      42.906  22.088  27.609  1.00  0.00    -0.237 OA
ATOM     71  O   UNL A   1      40.628  22.639  26.814  1.00  0.00    -0.237 OA
ATOM     72  O   UNL A   1      42.430  22.176  25.194  1.00  0.00    -0.744 OA
ENDBRANCH  65  69
ENDBRANCH  48  62
BRANCH  49  73
ATOM     73  C   UNL A   1      39.331  32.348  35.259  1.00  0.00     0.023 A 
ATOM     74  C   UNL A   1      39.780  33.662  35.458  1.00  0.00     0.031 A 
ATOM     75  C   UNL A   1      38.419  31.817  36.192  1.00  0.00     0.131 A 
ATOM     76  C   UNL A   1      39.349  34.386  36.580  1.00  0.00     0.055 A 
ATOM     77  C   UNL A   1      37.945  32.563  37.271  1.00  0.00     0.041 A 
ATOM     78  F   UNL A   1      37.959  30.563  36.055  1.00  0.00    -0.206 F 
ATOM     79  C   UNL A   1      38.422  33.853  37.478  1.00  0.00     0.022 A 
BRANCH  76  80
ATOM     80  S   UNL A   1      40.093  36.008  36.902  1.00  0.00     0.124 S 
ATOM     81  O   UNL A   1      41.494  35.657  37.104  1.00  0.00    -0.237 OA
ATOM     82  O   UNL A   1      39.783  36.732  35.674  1.00  0.00    -0.237 OA
ATOM     83  O   UNL A   1      39.388  36.474  38.094  1.00  0.00    -0.744 OA
ENDBRANCH  76  80
ENDBRANCH  49  73
BRANCH  61  84
ATOM     84  C   UNL A   1      44.665  27.911  34.538  1.00  0.00     0.023 A 
ATOM     85  C   UNL A   1      44.553  26.831  35.430  1.00  0.00     0.031 A 
ATOM     86  C   UNL A   1      45.863  28.648  34.537  1.00  0.00     0.131 A 
ATOM     87  C   UNL A   1      45.597  26.554  36.325  1.00  0.00     0.055 A 
ATOM     88  C   UNL A   1      46.924  28.326  35.385  1.00  0.00     0.041 A 
ATOM     89  F   UNL A   1      46.023  29.693  33.709  1.00  0.00    -0.206 F 
ATOM     90  C   UNL A   1      46.788  27.283  36.295  1.00  0.00     0.022 A 
BRANCH  87  91
ATOM     91  S   UNL A   1      45.339  25.290  37.601  1.00  0.00     0.124 S 
ATOM     92  O   UNL A   1      44.392  25.950  38.493  1.00  0.00    -0.237 OA
ATOM     93  O   UNL A   1      44.813  24.170  36.829  1.00  0.00    -0.237 OA
ATOM     94  O   UNL A   1      46.675  25.086  38.157  1.00  0.00    -0.744 OA
ENDBRANCH  87  91
ENDBRANCH  61  84
ENDBRANCH  35  36
ENDBRANCH  28  30
ENDBRANCH  27  28
ENDBRANCH  26  27
ENDBRANCH   1  26
TORSDOF 20
ENDMDL
MODEL 3
REMARK VINA RESULT:     -10.5      5.010      9.898
REMARK SMILES C[C@H]1C[C@H](C)CN(S(=O)(=O)N[C@@H](CCC(N)=O)C(=O)OCCOC(=O)c2ccc(-c3c4nc(c(-c5cc(S(=O)(=O)[O-])ccc5F)c5ccc([nH]5)c(-c5cc(S(=O)(=O)[O-])ccc5F)c5nc(c(-c6cc(S(=O)(=O)[O-])ccc6F)c6ccc3[nH]6)C=C5)C=C4)cc2)C1
REMARK SMILES IDX 21 1 20 2 18 3 19 4 12 5 11 6 8 8 9 9 10 10 7 11 1 12 2 13
REMARK SMILES IDX 3 14 89 15 4 16 5 17 6 18 13 19 14 20 15 21 16 22 17 23
REMARK SMILES IDX 22 26 23 27 24 28 25 29 26 30 27 31 88 32 28 33 87 34 29 35
REMARK SMILES IDX 30 36 31 37 81 38 32 39 86 40 80 41 82 42 33 43 85 44 79 45
REMARK SMILES IDX 78 46 34 48 66 49 46 50 65 51 47 52 50 53 64 54 83 55 48 56
REMARK SMILES IDX 49 57 63 59 84 60 51 61 35 62 36 63 44 64 37 65 43 66 45 67
REMARK SMILES IDX 42 68 38 69 39 70 40 71 41 72 67 73 68 74 76 75 69 76 75 77
REMARK SMILES IDX 77 78 74 79 70 80 71 81 72 82 73 83 52 84 53 85 61 86 54 87
REMARK SMILES IDX 60 88 62 89 59 90 55 91 56 92 57 93 58 94
REMARK H PARENT 11 7 16 24 16 25 82 47 50 58
REMARK Flexibility Score: inf
ROOT
ATOM      1  C   UNL A   1      31.513  29.976  25.362  1.00  0.00     0.274 C 
ENDROOT
BRANCH   1   2
ATOM      2  O   UNL A   1      32.024  28.673  25.004  1.00  0.00    -0.461 OA
BRANCH   2   3
ATOM      3  C   UNL A   1      32.566  28.568  23.762  1.00  0.00     0.324 C 
ATOM      4  O   UNL A   1      33.585  29.147  23.395  1.00  0.00    -0.250 OA
BRANCH   3   5
ATOM      5  C   UNL A   1      31.730  27.721  22.805  1.00  0.00     0.181 C 
BRANCH   5   6
ATOM      6  N   UNL A   1      31.725  26.274  23.102  1.00  0.00    -0.188 NA
ATOM      7  H   UNL A   1      31.844  26.202  24.112  1.00  0.00     0.143 HD
BRANCH   6   8
ATOM      8  S   UNL A   1      32.779  25.168  22.450  1.00  0.00     0.280 S 
ATOM      9  O   UNL A   1      33.806  25.883  21.728  1.00  0.00    -0.195 OA
ATOM     10  O   UNL A   1      31.970  24.188  21.768  1.00  0.00    -0.195 OA
BRANCH   8  11
ATOM     11  N   UNL A   1      33.526  24.384  23.770  1.00  0.00    -0.188 NA
ATOM     12  C   UNL A   1      36.886  22.438  23.985  1.00  0.00     0.009 C 
ATOM     13  C   UNL A   1      35.518  22.950  24.439  1.00  0.00     0.001 C 
ATOM     14  C   UNL A   1      35.683  23.807  25.699  1.00  0.00     0.009 C 
ATOM     15  C   UNL A   1      34.816  23.737  23.324  1.00  0.00     0.106 C 
ATOM     16  C   UNL A   1      34.341  24.374  26.145  1.00  0.00     0.001 C 
ATOM     17  C   UNL A   1      33.428  23.273  26.695  1.00  0.00     0.009 C 
ATOM     18  C   UNL A   1      33.702  25.173  25.005  1.00  0.00     0.106 C 
ENDBRANCH   8  11
ENDBRANCH   6   8
ENDBRANCH   5   6
BRANCH   5  19
ATOM     19  C   UNL A   1      30.366  28.399  22.617  1.00  0.00     0.042 C 
BRANCH  19  20
ATOM     20  C   UNL A   1      30.345  29.686  21.794  1.00  0.00     0.102 C 
BRANCH  20  21
ATOM     21  C   UNL A   1      29.022  30.418  21.810  1.00  0.00     0.217 C 
ATOM     22  N   UNL A   1      29.010  31.622  22.444  1.00  0.00    -0.370 N 
ATOM     23  O   UNL A   1      28.010  29.992  21.265  1.00  0.00    -0.275 OA
ATOM     24  H   UNL A   1      29.827  31.957  22.880  1.00  0.00     0.159 HD
ATOM     25  H   UNL A   1      28.184  32.158  22.468  1.00  0.00     0.159 HD
ENDBRANCH  20  21
ENDBRANCH  19  20
ENDBRANCH   5  19
ENDBRANCH   3   5
ENDBRANCH   2   3
ENDBRANCH   1   2
BRANCH   1  26
ATOM     26  C   UNL A   1      31.819  30.332  26.817  1.00  0.00     0.275 C 
BRANCH  26  27
ATOM     27  O   UNL A   1      33.217  30.171  27.113  1.00  0.00    -0.458 OA
BRANCH  27  28
ATOM     28  C   UNL A   1      33.844  31.326  27.435  1.00  0.00     0.338 C 
ATOM     29  O   UNL A   1      33.346  32.432  27.550  1.00  0.00    -0.246 OA
BRANCH  28  30
ATOM     30  C   UNL A   1      35.240  31.042  27.781  1.00  0.00     0.060 A 
ATOM     31  C   UNL A   1      35.641  29.710  27.817  1.00  0.00     0.016 A 
ATOM     32  C   UNL A   1      36.096  32.054  28.208  1.00  0.00     0.016 A 
ATOM     33  C   UNL A   1      36.875  29.372  28.355  1.00  0.00     0.010 A 
ATOM     34  C   UNL A   1      37.354  31.711  28.719  1.00  0.00     0.010 A 
ATOM     35  C   UNL A   1      37.736  30.363  28.845  1.00  0.00    -0.014 A 
BRANCH  35  36
ATOM     36  C   UNL A   1      38.979  29.982  29.573  1.00  0.00     0.031 A 
ATOM     37  C   UNL A   1      39.929  28.982  28.963  1.00  0.00     0.074 A 
ATOM     38  C   UNL A   1      39.281  30.551  30.757  1.00  0.00     0.049 A 
ATOM     39  N   UNL A   1      40.945  28.361  29.507  1.00  0.00    -0.248 NA
ATOM     40  C   UNL A   1      39.694  28.625  27.556  1.00  0.00     0.031 C 
ATOM     41  C   UNL A   1      38.499  31.599  31.417  1.00  0.00     0.029 A 
ATOM     42  N   UNL A   1      40.326  30.328  31.620  1.00  0.00    -0.354 N 
ATOM     43  C   UNL A   1      41.435  27.499  28.529  1.00  0.00     0.074 A 
ATOM     44  C   UNL A   1      40.595  27.672  27.362  1.00  0.00     0.031 C 
ATOM     45  C   UNL A   1      39.101  31.939  32.567  1.00  0.00     0.029 A 
ATOM     46  C   UNL A   1      40.246  31.063  32.779  1.00  0.00     0.049 A 
ATOM     47  H   UNL A   1      41.061  29.701  31.426  1.00  0.00     0.167 HD
ATOM     48  C   UNL A   1      42.485  26.642  28.605  1.00  0.00     0.034 A 
ATOM     49  C   UNL A   1      40.972  30.998  33.914  1.00  0.00     0.034 A 
ATOM     50  C   UNL A   1      43.332  26.517  29.770  1.00  0.00     0.049 A 
ATOM     51  C   UNL A   1      42.080  29.982  34.009  1.00  0.00     0.074 A 
ATOM     52  C   UNL A   1      44.426  25.688  29.956  1.00  0.00     0.029 A 
ATOM     53  N   UNL A   1      43.184  27.245  30.944  1.00  0.00    -0.354 N 
ATOM     54  N   UNL A   1      42.486  29.116  33.109  1.00  0.00    -0.248 NA
ATOM     55  C   UNL A   1      42.822  29.931  35.275  1.00  0.00     0.031 C 
ATOM     56  C   UNL A   1      44.893  25.863  31.263  1.00  0.00     0.029 A 
ATOM     57  C   UNL A   1      44.149  26.865  31.866  1.00  0.00     0.049 A 
ATOM     58  H   UNL A   1      42.497  27.931  31.100  1.00  0.00     0.167 HD
ATOM     59  C   UNL A   1      43.552  28.437  33.692  1.00  0.00     0.074 A 
ATOM     60  C   UNL A   1      43.733  29.004  35.013  1.00  0.00     0.031 C 
ATOM     61  C   UNL A   1      44.314  27.437  33.182  1.00  0.00     0.034 A 
BRANCH  48  62
ATOM     62  C   UNL A   1      42.734  25.726  27.428  1.00  0.00     0.023 A 
ATOM     63  C   UNL A   1      42.167  24.443  27.338  1.00  0.00     0.031 A 
ATOM     64  C   UNL A   1      43.574  26.145  26.378  1.00  0.00     0.131 A 
ATOM     65  C   UNL A   1      42.497  23.604  26.261  1.00  0.00     0.055 A 
ATOM     66  C   UNL A   1      43.833  25.338  25.269  1.00  0.00     0.041 A 
ATOM     67  F   UNL A   1      44.163  27.351  26.415  1.00  0.00    -0.206 F 
ATOM     68  C   UNL A   1      43.305  24.052  25.213  1.00  0.00     0.022 A 
BRANCH  65  69
ATOM     69  S   UNL A   1      41.970  21.869  26.318  1.00  0.00     0.124 S 
ATOM     70  O   UNL A   1      40.524  21.996  26.160  1.00  0.00    -0.237 OA
ATOM     71  O   UNL A   1      42.689  21.285  25.192  1.00  0.00    -0.237 OA
ATOM     72  O   UNL A   1      42.409  21.422  27.639  1.00  0.00    -0.744 OA
ENDBRANCH  65  69
ENDBRANCH  48  62
BRANCH  49  73
ATOM     73  C   UNL A   1      40.625  31.865  35.078  1.00  0.00     0.023 A 
ATOM     74  C   UNL A   1      39.569  31.535  35.939  1.00  0.00     0.031 A 
ATOM     75  C   UNL A   1      41.325  33.062  35.324  1.00  0.00     0.131 A 
ATOM     76  C   UNL A   1      39.217  32.407  36.980  1.00  0.00     0.055 A 
ATOM     77  C   UNL A   1      41.011  33.894  36.399  1.00  0.00     0.041 A 
ATOM     78  F   UNL A   1      42.342  33.431  34.529  1.00  0.00    -0.206 F 
ATOM     79  C   UNL A   1      39.941  33.575  37.227  1.00  0.00     0.022 A 
BRANCH  76  80
ATOM     80  S   UNL A   1      37.732  32.039  37.955  1.00  0.00     0.124 S 
ATOM     81  O   UNL A   1      36.809  33.067  37.487  1.00  0.00    -0.237 OA
ATOM     82  O   UNL A   1      37.433  30.671  37.544  1.00  0.00    -0.237 OA
ATOM     83  O   UNL A   1      38.186  32.189  39.335  1.00  0.00    -0.744 OA
ENDBRANCH  76  80
ENDBRANCH  49  73
BRANCH  61  84
ATOM     84  C   UNL A   1      45.456  26.941  34.037  1.00  0.00     0.023 A 
ATOM     85  C   UNL A   1      45.311  25.848  34.909  1.00  0.00     0.031 A 
ATOM     86  C   UNL A   1      46.704  27.588  33.987  1.00  0.00     0.131 A 
ATOM     87  C   UNL A   1      46.378  25.471  35.738  1.00  0.00     0.055 A 
ATOM     88  C   UNL A   1      47.781  27.167  34.767  1.00  0.00     0.041 A 
ATOM     89  F   UNL A   1      46.896  28.640  33.175  1.00  0.00    -0.206 F 
ATOM     90  C   UNL A   1      47.618  26.112  35.659  1.00  0.00     0.022 A 
BRANCH  87  91
ATOM     91  S   UNL A   1      46.096  24.196  36.998  1.00  0.00     0.124 S 
ATOM     92  O   UNL A   1      44.801  23.656  36.596  1.00  0.00    -0.237 OA
ATOM     93  O   UNL A   1      47.242  23.313  36.809  1.00  0.00    -0.237 OA
ATOM     94  O   UNL A   1      46.092  24.947  38.252  1.00  0.00    -0.744 OA
ENDBRANCH  87  91
ENDBRANCH  61  84
ENDBRANCH  35  36
ENDBRANCH  28  30
ENDBRANCH  27  28
ENDBRANCH  26  27
ENDBRANCH   1  26
TORSDOF 20
ENDMDL
