MODEL 1
REMARK VINA RESULT:     -11.7      0.000      0.000
REMARK SMILES CC(C)[NH2+][C@]1(C(=O)OCCOC(=O)c2ccc(-c3c4nc(c(-c5cc(S(=O)(=O)[O-])ccc5F)c5ccc([nH]5)c(-c5cc(S(=O)(=O)[O-])ccc5F)c5nc(c(-c6cc(S(=O)(=O)[O-])ccc6F)c6ccc3[nH]6)C=C5)C=C4)cc2)CCC[C@H]([N@H+](C)C2CCCCC2)C1
REMARK SMILES IDX 10 1 9 2 8 3 6 4 7 5 5 6 77 7 89 8 78 9 80 10 79 11 4 12
REMARK SMILES IDX 2 15 1 16 3 17 81 18 82 19 83 21 84 22 88 23 85 24 87 25
REMARK SMILES IDX 86 26 11 27 12 28 13 29 14 30 15 31 76 32 16 33 75 34 17 35
REMARK SMILES IDX 18 36 19 37 69 38 20 39 74 40 68 41 70 42 21 43 73 44 67 45
REMARK SMILES IDX 66 46 22 48 54 49 34 50 53 51 35 52 38 53 52 54 71 55 36 56
REMARK SMILES IDX 37 57 51 59 72 60 39 61 23 62 24 63 32 64 25 65 31 66 33 67
REMARK SMILES IDX 30 68 26 69 27 70 28 71 29 72 55 73 56 74 64 75 57 76 63 77
REMARK SMILES IDX 65 78 62 79 58 80 59 81 60 82 61 83 40 84 41 85 49 86 42 87
REMARK SMILES IDX 48 88 50 89 47 90 43 91 44 92 45 93 46 94
REMARK H PARENT 4 13 4 14 81 20 70 47 38 58
REMARK Flexibility Score: inf
ROOT
ATOM      1  C   UNL A   1      36.060  21.052  24.600  1.00  0.00     0.275 C 
ENDROOT
BRANCH   1   2
ATOM      2  C   UNL A   1      34.897  20.208  25.152  1.00  0.00     0.274 C 
BRANCH   2   3
ATOM      3  O   UNL A   1      33.927  21.041  25.832  1.00  0.00    -0.457 OA
BRANCH   3   4
ATOM      4  C   UNL A   1      32.678  21.328  25.269  1.00  0.00     0.368 C 
ATOM      5  O   UNL A   1      31.759  20.530  25.159  1.00  0.00    -0.245 OA
BRANCH   4   6
ATOM      6  C   UNL A   1      32.675  22.913  25.011  1.00  0.00     0.200 C 
ATOM      7  C   UNL A   1      33.612  23.448  26.116  1.00  0.00     0.081 C 
ATOM      8  C   UNL A   1      33.149  23.484  23.634  1.00  0.00     0.146 C 
ATOM      9  C   UNL A   1      34.172  24.865  26.041  1.00  0.00     0.013 C 
ATOM     10  C   UNL A   1      33.477  25.082  23.516  1.00  0.00     0.190 C 
ATOM     11  C   UNL A   1      34.298  25.591  24.706  1.00  0.00     0.065 C 
BRANCH   6  12
ATOM     12  N   UNL A   1      31.229  23.098  25.177  1.00  0.00    -0.330 N 
ATOM     13  H   UNL A   1      30.900  23.637  24.377  1.00  0.00     0.347 HD
ATOM     14  H   UNL A   1      30.864  22.149  25.261  1.00  0.00     0.347 HD
BRANCH  12  15
ATOM     15  C   UNL A   1      30.762  23.751  26.340  1.00  0.00     0.176 C 
ATOM     16  C   UNL A   1      30.265  25.149  25.947  1.00  0.00     0.075 C 
ATOM     17  C   UNL A   1      29.781  22.821  27.058  1.00  0.00     0.075 C 
ENDBRANCH  12  15
ENDBRANCH   6  12
BRANCH  10  18
ATOM     18  N   UNL A   1      32.593  26.123  22.711  1.00  0.00    -0.332 N 
ATOM     19  C   UNL A   1      33.563  27.005  22.001  1.00  0.00     0.333 C 
ATOM     20  H   UNL A   1      31.982  25.498  22.186  1.00  0.00     0.348 HD
BRANCH  18  21
ATOM     21  C   UNL A   1      31.509  27.058  23.357  1.00  0.00     0.184 C 
ATOM     22  C   UNL A   1      32.060  28.438  23.926  1.00  0.00     0.065 C 
ATOM     23  C   UNL A   1      30.414  27.630  22.426  1.00  0.00     0.065 C 
ATOM     24  C   UNL A   1      31.027  29.482  24.441  1.00  0.00     0.006 C 
ATOM     25  C   UNL A   1      29.272  28.343  23.141  1.00  0.00     0.006 C 
ATOM     26  C   UNL A   1      29.775  29.681  23.596  1.00  0.00     0.000 C 
ENDBRANCH  18  21
ENDBRANCH  10  18
ENDBRANCH   4   6
ENDBRANCH   3   4
ENDBRANCH   2   3
ENDBRANCH   1   2
BRANCH   1  27
ATOM     27  O   UNL A   1      36.787  21.572  25.719  1.00  0.00    -0.458 OA
BRANCH  27  28
ATOM     28  C   UNL A   1      38.114  21.335  25.744  1.00  0.00     0.338 C 
ATOM     29  O   UNL A   1      38.688  20.357  25.258  1.00  0.00    -0.246 OA
BRANCH  28  30
ATOM     30  C   UNL A   1      38.797  22.468  26.410  1.00  0.00     0.060 A 
ATOM     31  C   UNL A   1      38.318  23.768  26.215  1.00  0.00     0.016 A 
ATOM     32  C   UNL A   1      40.003  22.277  27.086  1.00  0.00     0.016 A 
ATOM     33  C   UNL A   1      39.089  24.864  26.595  1.00  0.00     0.010 A 
ATOM     34  C   UNL A   1      40.703  23.385  27.589  1.00  0.00     0.010 A 
ATOM     35  C   UNL A   1      40.278  24.700  27.318  1.00  0.00    -0.014 A 
BRANCH  35  36
ATOM     36  C   UNL A   1      41.086  25.894  27.736  1.00  0.00     0.031 A 
ATOM     37  C   UNL A   1      40.484  26.957  28.626  1.00  0.00     0.074 A 
ATOM     38  C   UNL A   1      42.371  26.028  27.342  1.00  0.00     0.049 A 
ATOM     39  N   UNL A   1      40.936  28.154  28.917  1.00  0.00    -0.248 NA
ATOM     40  C   UNL A   1      39.190  26.647  29.249  1.00  0.00     0.031 C 
ATOM     41  C   UNL A   1      43.115  25.073  26.519  1.00  0.00     0.029 A 
ATOM     42  N   UNL A   1      43.292  27.019  27.599  1.00  0.00    -0.354 N 
ATOM     43  C   UNL A   1      39.950  28.763  29.688  1.00  0.00     0.074 A 
ATOM     44  C   UNL A   1      38.870  27.804  29.809  1.00  0.00     0.031 C 
ATOM     45  C   UNL A   1      44.386  25.483  26.398  1.00  0.00     0.029 A 
ATOM     46  C   UNL A   1      44.523  26.791  27.024  1.00  0.00     0.049 A 
ATOM     47  H   UNL A   1      43.089  27.815  28.141  1.00  0.00     0.167 HD
ATOM     48  C   UNL A   1      39.944  30.003  30.241  1.00  0.00     0.034 A 
ATOM     49  C   UNL A   1      45.627  27.561  26.956  1.00  0.00     0.034 A 
ATOM     50  C   UNL A   1      41.062  30.919  30.181  1.00  0.00     0.049 A 
ATOM     51  C   UNL A   1      45.597  28.934  27.569  1.00  0.00     0.074 A 
ATOM     52  C   UNL A   1      41.168  32.189  30.727  1.00  0.00     0.029 A 
ATOM     53  N   UNL A   1      42.276  30.659  29.557  1.00  0.00    -0.354 N 
ATOM     54  N   UNL A   1      44.621  29.532  28.210  1.00  0.00    -0.248 NA
ATOM     55  C   UNL A   1      46.815  29.742  27.432  1.00  0.00     0.031 C 
ATOM     56  C   UNL A   1      42.422  32.714  30.389  1.00  0.00     0.029 A 
ATOM     57  C   UNL A   1      43.128  31.748  29.692  1.00  0.00     0.049 A 
ATOM     58  H   UNL A   1      42.501  29.823  29.088  1.00  0.00     0.167 HD
ATOM     59  C   UNL A   1      45.111  30.788  28.556  1.00  0.00     0.074 A 
ATOM     60  C   UNL A   1      46.480  30.843  28.085  1.00  0.00     0.031 C 
ATOM     61  C   UNL A   1      44.482  31.805  29.197  1.00  0.00     0.034 A 
BRANCH  48  62
ATOM     62  C   UNL A   1      38.669  30.468  30.911  1.00  0.00     0.023 A 
ATOM     63  C   UNL A   1      37.615  31.066  30.200  1.00  0.00     0.031 A 
ATOM     64  C   UNL A   1      38.517  30.320  32.304  1.00  0.00     0.131 A 
ATOM     65  C   UNL A   1      36.494  31.559  30.889  1.00  0.00     0.055 A 
ATOM     66  C   UNL A   1      37.365  30.737  32.972  1.00  0.00     0.041 A 
ATOM     67  F   UNL A   1      39.494  29.771  33.043  1.00  0.00    -0.206 F 
ATOM     68  C   UNL A   1      36.350  31.375  32.266  1.00  0.00     0.022 A 
BRANCH  65  69
ATOM     69  S   UNL A   1      35.287  32.566  29.982  1.00  0.00     0.124 S 
ATOM     70  O   UNL A   1      36.103  33.705  29.568  1.00  0.00    -0.237 OA
ATOM     71  O   UNL A   1      34.860  31.666  28.918  1.00  0.00    -0.237 OA
ATOM     72  O   UNL A   1      34.270  32.872  30.987  1.00  0.00    -0.744 OA
ENDBRANCH  65  69
ENDBRANCH  48  62
BRANCH  49  73
ATOM     73  C   UNL A   1      46.831  27.085  26.212  1.00  0.00     0.023 A 
ATOM     74  C   UNL A   1      47.897  26.460  26.879  1.00  0.00     0.031 A 
ATOM     75  C   UNL A   1      46.946  27.280  24.823  1.00  0.00     0.131 A 
ATOM     76  C   UNL A   1      49.043  26.081  26.162  1.00  0.00     0.055 A 
ATOM     77  C   UNL A   1      48.061  26.846  24.106  1.00  0.00     0.041 A 
ATOM     78  F   UNL A   1      45.960  27.879  24.137  1.00  0.00    -0.206 F 
ATOM     79  C   UNL A   1      49.123  26.252  24.778  1.00  0.00     0.022 A 
BRANCH  76  80
ATOM     80  S   UNL A   1      50.467  25.429  27.079  1.00  0.00     0.124 S 
ATOM     81  O   UNL A   1      49.896  24.247  27.715  1.00  0.00    -0.237 OA
ATOM     82  O   UNL A   1      51.429  25.182  26.011  1.00  0.00    -0.237 OA
ATOM     83  O   UNL A   1      50.814  26.520  27.987  1.00  0.00    -0.744 OA
ENDBRANCH  76  80
ENDBRANCH  49  73
BRANCH  61  84
ATOM     84  C   UNL A   1      45.299  33.050  29.448  1.00  0.00     0.023 A 
ATOM     85  C   UNL A   1      45.343  34.102  28.514  1.00  0.00     0.031 A 
ATOM     86  C   UNL A   1      46.090  33.159  30.605  1.00  0.00     0.131 A 
ATOM     87  C   UNL A   1      46.216  35.182  28.719  1.00  0.00     0.055 A 
ATOM     88  C   UNL A   1      46.909  34.266  30.833  1.00  0.00     0.041 A 
ATOM     89  F   UNL A   1      46.090  32.183  31.527  1.00  0.00    -0.206 F 
ATOM     90  C   UNL A   1      46.989  35.276  29.878  1.00  0.00     0.022 A 
BRANCH  87  91
ATOM     91  S   UNL A   1      46.420  36.400  27.389  1.00  0.00     0.124 S 
ATOM     92  O   UNL A   1      45.806  37.590  27.969  1.00  0.00    -0.237 OA
ATOM     93  O   UNL A   1      47.870  36.444  27.228  1.00  0.00    -0.237 OA
ATOM     94  O   UNL A   1      45.690  35.809  26.268  1.00  0.00    -0.744 OA
ENDBRANCH  87  91
ENDBRANCH  61  84
ENDBRANCH  35  36
ENDBRANCH  28  30
ENDBRANCH  27  28
ENDBRANCH   1  27
TORSDOF 18
ENDMDL
MODEL 2
REMARK VINA RESULT:     -11.7      1.341      1.597
REMARK SMILES CC(C)[NH2+][C@]1(C(=O)OCCOC(=O)c2ccc(-c3c4nc(c(-c5cc(S(=O)(=O)[O-])ccc5F)c5ccc([nH]5)c(-c5cc(S(=O)(=O)[O-])ccc5F)c5nc(c(-c6cc(S(=O)(=O)[O-])ccc6F)c6ccc3[nH]6)C=C5)C=C4)cc2)CCC[C@H]([N@H+](C)C2CCCCC2)C1
REMARK SMILES IDX 10 1 9 2 8 3 6 4 7 5 5 6 77 7 89 8 78 9 80 10 79 11 4 12
REMARK SMILES IDX 2 15 1 16 3 17 81 18 82 19 83 21 84 22 88 23 85 24 87 25
REMARK SMILES IDX 86 26 11 27 12 28 13 29 14 30 15 31 76 32 16 33 75 34 17 35
REMARK SMILES IDX 18 36 19 37 69 38 20 39 74 40 68 41 70 42 21 43 73 44 67 45
REMARK SMILES IDX 66 46 22 48 54 49 34 50 53 51 35 52 38 53 52 54 71 55 36 56
REMARK SMILES IDX 37 57 51 59 72 60 39 61 23 62 24 63 32 64 25 65 31 66 33 67
REMARK SMILES IDX 30 68 26 69 27 70 28 71 29 72 55 73 56 74 64 75 57 76 63 77
REMARK SMILES IDX 65 78 62 79 58 80 59 81 60 82 61 83 40 84 41 85 49 86 42 87
REMARK SMILES IDX 48 88 50 89 47 90 43 91 44 92 45 93 46 94
REMARK H PARENT 4 13 4 14 81 20 70 47 38 58
REMARK Flexibility Score: inf
ROOT
ATOM      1  C   UNL A   1      36.135  21.145  24.623  1.00  0.00     0.275 C 
ENDROOT
BRANCH   1   2
ATOM      2  C   UNL A   1      34.955  20.254  25.053  1.00  0.00     0.274 C 
BRANCH   2   3
ATOM      3  O   UNL A   1      33.967  21.018  25.784  1.00  0.00    -0.457 OA
BRANCH   3   4
ATOM      4  C   UNL A   1      32.705  21.297  25.247  1.00  0.00     0.368 C 
ATOM      5  O   UNL A   1      31.787  20.495  25.160  1.00  0.00    -0.245 OA
BRANCH   4   6
ATOM      6  C   UNL A   1      32.688  22.881  24.981  1.00  0.00     0.200 C 
ATOM      7  C   UNL A   1      33.637  23.427  26.072  1.00  0.00     0.081 C 
ATOM      8  C   UNL A   1      33.141  23.448  23.596  1.00  0.00     0.146 C 
ATOM      9  C   UNL A   1      34.187  24.846  25.982  1.00  0.00     0.013 C 
ATOM     10  C   UNL A   1      33.458  25.048  23.466  1.00  0.00     0.190 C 
ATOM     11  C   UNL A   1      34.292  25.567  24.643  1.00  0.00     0.065 C 
BRANCH   6  12
ATOM     12  N   UNL A   1      31.244  23.059  25.166  1.00  0.00    -0.330 N 
ATOM     13  H   UNL A   1      30.902  23.596  24.370  1.00  0.00     0.347 HD
ATOM     14  H   UNL A   1      30.885  22.108  25.253  1.00  0.00     0.347 HD
BRANCH  12  15
ATOM     15  C   UNL A   1      30.788  23.708  26.335  1.00  0.00     0.176 C 
ATOM     16  C   UNL A   1      30.304  25.113  25.954  1.00  0.00     0.075 C 
ATOM     17  C   UNL A   1      29.800  22.782  27.051  1.00  0.00     0.075 C 
ENDBRANCH  12  15
ENDBRANCH   6  12
BRANCH  10  18
ATOM     18  N   UNL A   1      32.557  26.080  22.667  1.00  0.00    -0.332 N 
ATOM     19  C   UNL A   1      33.512  26.945  21.918  1.00  0.00     0.333 C 
ATOM     20  H   UNL A   1      31.930  25.449  22.170  1.00  0.00     0.348 HD
BRANCH  18  21
ATOM     21  C   UNL A   1      31.495  27.030  23.327  1.00  0.00     0.184 C 
ATOM     22  C   UNL A   1      32.087  28.356  23.978  1.00  0.00     0.065 C 
ATOM     23  C   UNL A   1      30.454  27.694  22.394  1.00  0.00     0.065 C 
ATOM     24  C   UNL A   1      31.084  29.419  24.512  1.00  0.00     0.006 C 
ATOM     25  C   UNL A   1      29.323  28.421  23.109  1.00  0.00     0.006 C 
ATOM     26  C   UNL A   1      29.869  29.713  23.643  1.00  0.00     0.000 C 
ENDBRANCH  18  21
ENDBRANCH  10  18
ENDBRANCH   4   6
ENDBRANCH   3   4
ENDBRANCH   2   3
ENDBRANCH   1   2
BRANCH   1  27
ATOM     27  O   UNL A   1      36.873  21.486  25.802  1.00  0.00    -0.458 OA
BRANCH  27  28
ATOM     28  C   UNL A   1      38.209  21.313  25.754  1.00  0.00     0.338 C 
ATOM     29  O   UNL A   1      38.802  20.375  25.214  1.00  0.00    -0.246 OA
BRANCH  28  30
ATOM     30  C   UNL A   1      38.871  22.461  26.414  1.00  0.00     0.060 A 
ATOM     31  C   UNL A   1      38.425  23.760  26.143  1.00  0.00     0.016 A 
ATOM     32  C   UNL A   1      40.034  22.280  27.164  1.00  0.00     0.016 A 
ATOM     33  C   UNL A   1      39.190  24.858  26.524  1.00  0.00     0.010 A 
ATOM     34  C   UNL A   1      40.723  23.398  27.663  1.00  0.00     0.010 A 
ATOM     35  C   UNL A   1      40.335  24.706  27.318  1.00  0.00    -0.014 A 
BRANCH  35  36
ATOM     36  C   UNL A   1      41.136  25.904  27.735  1.00  0.00     0.031 A 
ATOM     37  C   UNL A   1      40.536  26.957  28.640  1.00  0.00     0.074 A 
ATOM     38  C   UNL A   1      42.416  26.053  27.328  1.00  0.00     0.049 A 
ATOM     39  N   UNL A   1      40.981  28.155  28.933  1.00  0.00    -0.248 NA
ATOM     40  C   UNL A   1      39.251  26.630  29.274  1.00  0.00     0.031 C 
ATOM     41  C   UNL A   1      43.159  25.109  26.490  1.00  0.00     0.029 A 
ATOM     42  N   UNL A   1      43.332  27.049  27.581  1.00  0.00    -0.354 N 
ATOM     43  C   UNL A   1      39.998  28.750  29.719  1.00  0.00     0.074 A 
ATOM     44  C   UNL A   1      38.928  27.781  29.846  1.00  0.00     0.031 C 
ATOM     45  C   UNL A   1      44.425  25.532  26.358  1.00  0.00     0.029 A 
ATOM     46  C   UNL A   1      44.558  26.837  26.992  1.00  0.00     0.049 A 
ATOM     47  H   UNL A   1      43.128  27.840  28.131  1.00  0.00     0.167 HD
ATOM     48  C   UNL A   1      39.988  29.987  30.282  1.00  0.00     0.034 A 
ATOM     49  C   UNL A   1      45.655  27.616  26.915  1.00  0.00     0.034 A 
ATOM     50  C   UNL A   1      41.097  30.912  30.215  1.00  0.00     0.049 A 
ATOM     51  C   UNL A   1      45.619  28.984  27.539  1.00  0.00     0.074 A 
ATOM     52  C   UNL A   1      41.199  32.179  30.769  1.00  0.00     0.029 A 
ATOM     53  N   UNL A   1      42.306  30.667  29.576  1.00  0.00    -0.354 N 
ATOM     54  N   UNL A   1      44.645  29.570  28.194  1.00  0.00    -0.248 NA
ATOM     55  C   UNL A   1      46.829  29.804  27.394  1.00  0.00     0.031 C 
ATOM     56  C   UNL A   1      42.443  32.718  30.420  1.00  0.00     0.029 A 
ATOM     57  C   UNL A   1      43.150  31.763  29.709  1.00  0.00     0.049 A 
ATOM     58  H   UNL A   1      42.533  29.837  29.099  1.00  0.00     0.167 HD
ATOM     59  C   UNL A   1      45.128  30.827  28.544  1.00  0.00     0.074 A 
ATOM     60  C   UNL A   1      46.492  30.898  28.058  1.00  0.00     0.031 C 
ATOM     61  C   UNL A   1      44.498  31.835  29.199  1.00  0.00     0.034 A 
BRANCH  48  62
ATOM     62  C   UNL A   1      38.716  30.436  30.969  1.00  0.00     0.023 A 
ATOM     63  C   UNL A   1      37.676  31.088  30.286  1.00  0.00     0.031 A 
ATOM     64  C   UNL A   1      38.554  30.216  32.351  1.00  0.00     0.131 A 
ATOM     65  C   UNL A   1      36.559  31.561  30.994  1.00  0.00     0.055 A 
ATOM     66  C   UNL A   1      37.404  30.615  33.035  1.00  0.00     0.041 A 
ATOM     67  F   UNL A   1      39.517  29.613  33.064  1.00  0.00    -0.206 F 
ATOM     68  C   UNL A   1      36.404  31.307  32.359  1.00  0.00     0.022 A 
BRANCH  65  69
ATOM     69  S   UNL A   1      35.374  32.635  30.137  1.00  0.00     0.124 S 
ATOM     70  O   UNL A   1      35.174  31.914  28.881  1.00  0.00    -0.237 OA
ATOM     71  O   UNL A   1      34.240  32.650  31.052  1.00  0.00    -0.237 OA
ATOM     72  O   UNL A   1      36.089  33.904  30.009  1.00  0.00    -0.744 OA
ENDBRANCH  65  69
ENDBRANCH  48  62
BRANCH  49  73
ATOM     73  C   UNL A   1      46.854  27.156  26.156  1.00  0.00     0.023 A 
ATOM     74  C   UNL A   1      47.100  27.601  24.847  1.00  0.00     0.031 A 
ATOM     75  C   UNL A   1      47.756  26.235  26.719  1.00  0.00     0.131 A 
ATOM     76  C   UNL A   1      48.201  27.101  24.135  1.00  0.00     0.055 A 
ATOM     77  C   UNL A   1      48.884  25.789  26.029  1.00  0.00     0.041 A 
ATOM     78  F   UNL A   1      47.565  25.771  27.965  1.00  0.00    -0.206 F 
ATOM     79  C   UNL A   1      49.104  26.213  24.724  1.00  0.00     0.022 A 
BRANCH  76  80
ATOM     80  S   UNL A   1      48.395  27.567  22.392  1.00  0.00     0.124 S 
ATOM     81  O   UNL A   1      49.617  28.362  22.431  1.00  0.00    -0.237 OA
ATOM     82  O   UNL A   1      48.497  26.266  21.739  1.00  0.00    -0.237 OA
ATOM     83  O   UNL A   1      47.173  28.314  22.102  1.00  0.00    -0.744 OA
ENDBRANCH  76  80
ENDBRANCH  49  73
BRANCH  61  84
ATOM     84  C   UNL A   1      45.307  33.086  29.449  1.00  0.00     0.023 A 
ATOM     85  C   UNL A   1      45.422  34.095  28.475  1.00  0.00     0.031 A 
ATOM     86  C   UNL A   1      46.020  33.241  30.651  1.00  0.00     0.131 A 
ATOM     87  C   UNL A   1      46.288  35.178  28.690  1.00  0.00     0.055 A 
ATOM     88  C   UNL A   1      46.831  34.352  30.884  1.00  0.00     0.041 A 
ATOM     89  F   UNL A   1      45.950  32.307  31.613  1.00  0.00    -0.206 F 
ATOM     90  C   UNL A   1      46.983  35.319  29.894  1.00  0.00     0.022 A 
BRANCH  87  91
ATOM     91  S   UNL A   1      46.591  36.334  27.325  1.00  0.00     0.124 S 
ATOM     92  O   UNL A   1      45.337  36.262  26.581  1.00  0.00    -0.237 OA
ATOM     93  O   UNL A   1      46.843  37.588  28.030  1.00  0.00    -0.237 OA
ATOM     94  O   UNL A   1      47.750  35.763  26.643  1.00  0.00    -0.744 OA
ENDBRANCH  87  91
ENDBRANCH  61  84
ENDBRANCH  35  36
ENDBRANCH  28  30
ENDBRANCH  27  28
ENDBRANCH   1  27
TORSDOF 18
ENDMDL
MODEL 3
REMARK VINA RESULT:     -11.6      4.593      9.836
REMARK SMILES CC(C)[NH2+][C@]1(C(=O)OCCOC(=O)c2ccc(-c3c4nc(c(-c5cc(S(=O)(=O)[O-])ccc5F)c5ccc([nH]5)c(-c5cc(S(=O)(=O)[O-])ccc5F)c5nc(c(-c6cc(S(=O)(=O)[O-])ccc6F)c6ccc3[nH]6)C=C5)C=C4)cc2)CCC[C@H]([N@H+](C)C2CCCCC2)C1
REMARK SMILES IDX 10 1 9 2 8 3 6 4 7 5 5 6 77 7 89 8 78 9 80 10 79 11 4 12
REMARK SMILES IDX 2 15 1 16 3 17 81 18 82 19 83 21 84 22 88 23 85 24 87 25
REMARK SMILES IDX 86 26 11 27 12 28 13 29 14 30 15 31 76 32 16 33 75 34 17 35
REMARK SMILES IDX 18 36 19 37 69 38 20 39 74 40 68 41 70 42 21 43 73 44 67 45
REMARK SMILES IDX 66 46 22 48 54 49 34 50 53 51 35 52 38 53 52 54 71 55 36 56
REMARK SMILES IDX 37 57 51 59 72 60 39 61 23 62 24 63 32 64 25 65 31 66 33 67
REMARK SMILES IDX 30 68 26 69 27 70 28 71 29 72 55 73 56 74 64 75 57 76 63 77
REMARK SMILES IDX 65 78 62 79 58 80 59 81 60 82 61 83 40 84 41 85 49 86 42 87
REMARK SMILES IDX 48 88 50 89 47 90 43 91 44 92 45 93 46 94
REMARK H PARENT 4 13 4 14 81 20 70 47 38 58
REMARK Flexibility Score: inf
ROOT
ATOM      1  C   UNL A   1      31.189  30.302  25.706  1.00  0.00     0.275 C 
ENDROOT
BRANCH   1   2
ATOM      2  C   UNL A   1      31.126  29.657  24.310  1.00  0.00     0.274 C 
BRANCH   2   3
ATOM      3  O   UNL A   1      30.622  28.302  24.385  1.00  0.00    -0.457 OA
BRANCH   3   4
ATOM      4  C   UNL A   1      30.768  27.401  23.324  1.00  0.00     0.368 C 
ATOM      5  O   UNL A   1      30.599  27.674  22.145  1.00  0.00    -0.245 OA
BRANCH   4   6
ATOM      6  C   UNL A   1      31.376  26.064  23.973  1.00  0.00     0.200 C 
ATOM      7  C   UNL A   1      30.822  26.094  25.415  1.00  0.00     0.081 C 
ATOM      8  C   UNL A   1      31.054  24.669  23.343  1.00  0.00     0.146 C 
ATOM      9  C   UNL A   1      30.862  24.844  26.289  1.00  0.00     0.013 C 
ATOM     10  C   UNL A   1      31.375  23.320  24.210  1.00  0.00     0.190 C 
ATOM     11  C   UNL A   1      30.923  23.453  25.669  1.00  0.00     0.065 C 
BRANCH   6  12
ATOM     12  N   UNL A   1      32.786  26.412  23.765  1.00  0.00    -0.330 N 
ATOM     13  H   UNL A   1      33.266  25.563  23.471  1.00  0.00     0.347 HD
ATOM     14  H   UNL A   1      32.757  27.171  23.084  1.00  0.00     0.347 HD
BRANCH  12  15
ATOM     15  C   UNL A   1      33.516  26.949  24.850  1.00  0.00     0.176 C 
ATOM     16  C   UNL A   1      34.318  25.817  25.505  1.00  0.00     0.075 C 
ATOM     17  C   UNL A   1      34.286  28.177  24.357  1.00  0.00     0.075 C 
ENDBRANCH  12  15
ENDBRANCH   6  12
BRANCH  10  18
ATOM     18  N   UNL A   1      32.529  22.287  23.869  1.00  0.00    -0.332 N 
ATOM     19  C   UNL A   1      32.045  20.970  24.374  1.00  0.00     0.333 C 
ATOM     20  H   UNL A   1      32.646  22.447  22.870  1.00  0.00     0.348 HD
BRANCH  18  21
ATOM     21  C   UNL A   1      34.022  22.437  24.331  1.00  0.00     0.184 C 
ATOM     22  C   UNL A   1      34.726  21.086  24.791  1.00  0.00     0.065 C 
ATOM     23  C   UNL A   1      35.058  22.868  23.266  1.00  0.00     0.065 C 
ATOM     24  C   UNL A   1      36.248  21.127  25.114  1.00  0.00     0.006 C 
ATOM     25  C   UNL A   1      36.438  23.211  23.815  1.00  0.00     0.006 C 
ATOM     26  C   UNL A   1      37.129  21.925  24.162  1.00  0.00     0.000 C 
ENDBRANCH  18  21
ENDBRANCH  10  18
ENDBRANCH   4   6
ENDBRANCH   3   4
ENDBRANCH   2   3
ENDBRANCH   1   2
BRANCH   1  27
ATOM     27  O   UNL A   1      32.565  30.342  26.104  1.00  0.00    -0.458 OA
BRANCH  27  28
ATOM     28  C   UNL A   1      32.935  31.358  26.909  1.00  0.00     0.338 C 
ATOM     29  O   UNL A   1      32.247  32.337  27.209  1.00  0.00    -0.246 OA
BRANCH  28  30
ATOM     30  C   UNL A   1      34.296  31.094  27.429  1.00  0.00     0.060 A 
ATOM     31  C   UNL A   1      34.682  29.776  27.703  1.00  0.00     0.016 A 
ATOM     32  C   UNL A   1      35.133  32.144  27.807  1.00  0.00     0.016 A 
ATOM     33  C   UNL A   1      35.835  29.523  28.441  1.00  0.00     0.010 A 
ATOM     34  C   UNL A   1      36.362  31.868  28.427  1.00  0.00     0.010 A 
ATOM     35  C   UNL A   1      36.717  30.555  28.790  1.00  0.00    -0.014 A 
BRANCH  35  36
ATOM     36  C   UNL A   1      37.964  30.259  29.570  1.00  0.00     0.031 A 
ATOM     37  C   UNL A   1      39.063  29.411  28.972  1.00  0.00     0.074 A 
ATOM     38  C   UNL A   1      38.138  30.766  30.810  1.00  0.00     0.049 A 
ATOM     39  N   UNL A   1      40.106  28.868  29.553  1.00  0.00    -0.248 NA
ATOM     40  C   UNL A   1      38.960  29.107  27.538  1.00  0.00     0.031 C 
ATOM     41  C   UNL A   1      37.196  31.637  31.515  1.00  0.00     0.029 A 
ATOM     42  N   UNL A   1      39.182  30.635  31.698  1.00  0.00    -0.354 N 
ATOM     43  C   UNL A   1      40.736  28.099  28.577  1.00  0.00     0.074 A 
ATOM     44  C   UNL A   1      39.948  28.240  27.369  1.00  0.00     0.031 C 
ATOM     45  C   UNL A   1      37.731  32.018  32.685  1.00  0.00     0.029 A 
ATOM     46  C   UNL A   1      38.995  31.321  32.877  1.00  0.00     0.049 A 
ATOM     47  H   UNL A   1      39.986  30.100  31.507  1.00  0.00     0.167 HD
ATOM     48  C   UNL A   1      41.863  27.348  28.679  1.00  0.00     0.034 A 
ATOM     49  C   UNL A   1      39.722  31.354  34.011  1.00  0.00     0.034 A 
ATOM     50  C   UNL A   1      42.684  27.282  29.867  1.00  0.00     0.049 A 
ATOM     51  C   UNL A   1      40.963  30.509  34.105  1.00  0.00     0.074 A 
ATOM     52  C   UNL A   1      43.856  26.570  30.068  1.00  0.00     0.029 A 
ATOM     53  N   UNL A   1      42.435  27.967  31.051  1.00  0.00    -0.354 N 
ATOM     54  N   UNL A   1      41.490  29.711  33.206  1.00  0.00    -0.248 NA
ATOM     55  C   UNL A   1      41.695  30.555  35.377  1.00  0.00     0.031 C 
ATOM     56  C   UNL A   1      44.285  26.782  31.384  1.00  0.00     0.029 A 
ATOM     57  C   UNL A   1      43.422  27.682  31.987  1.00  0.00     0.049 A 
ATOM     58  H   UNL A   1      41.671  28.568  31.203  1.00  0.00     0.167 HD
ATOM     59  C   UNL A   1      42.621  29.164  33.805  1.00  0.00     0.074 A 
ATOM     60  C   UNL A   1      42.717  29.752  35.126  1.00  0.00     0.031 C 
ATOM     61  C   UNL A   1      43.496  28.252  33.311  1.00  0.00     0.034 A 
BRANCH  48  62
ATOM     62  C   UNL A   1      42.244  26.489  27.492  1.00  0.00     0.023 A 
ATOM     63  C   UNL A   1      41.847  25.147  27.370  1.00  0.00     0.031 A 
ATOM     64  C   UNL A   1      43.042  27.031  26.466  1.00  0.00     0.131 A 
ATOM     65  C   UNL A   1      42.307  24.374  26.290  1.00  0.00     0.055 A 
ATOM     66  C   UNL A   1      43.427  26.282  25.353  1.00  0.00     0.041 A 
ATOM     67  F   UNL A   1      43.468  28.302  26.530  1.00  0.00    -0.206 F 
ATOM     68  C   UNL A   1      43.072  24.939  25.268  1.00  0.00     0.022 A 
BRANCH  65  69
ATOM     69  S   UNL A   1      42.006  22.585  26.309  1.00  0.00     0.124 S 
ATOM     70  O   UNL A   1      40.546  22.530  26.340  1.00  0.00    -0.237 OA
ATOM     71  O   UNL A   1      42.635  22.145  25.070  1.00  0.00    -0.237 OA
ATOM     72  O   UNL A   1      42.664  22.138  27.536  1.00  0.00    -0.744 OA
ENDBRANCH  65  69
ENDBRANCH  48  62
BRANCH  49  73
ATOM     73  C   UNL A   1      39.257  32.156  35.181  1.00  0.00     0.023 A 
ATOM     74  C   UNL A   1      39.706  33.470  35.386  1.00  0.00     0.031 A 
ATOM     75  C   UNL A   1      38.377  31.604  36.131  1.00  0.00     0.131 A 
ATOM     76  C   UNL A   1      39.300  34.176  36.530  1.00  0.00     0.055 A 
ATOM     77  C   UNL A   1      37.928  32.332  37.233  1.00  0.00     0.041 A 
ATOM     78  F   UNL A   1      37.922  30.349  35.987  1.00  0.00    -0.206 F 
ATOM     79  C   UNL A   1      38.400  33.622  37.443  1.00  0.00     0.022 A 
BRANCH  76  80
ATOM     80  S   UNL A   1      40.029  35.806  36.850  1.00  0.00     0.124 S 
ATOM     81  O   UNL A   1      39.374  36.185  38.097  1.00  0.00    -0.237 OA
ATOM     82  O   UNL A   1      41.451  35.490  36.943  1.00  0.00    -0.237 OA
ATOM     83  O   UNL A   1      39.642  36.588  35.678  1.00  0.00    -0.744 OA
ENDBRANCH  76  80
ENDBRANCH  49  73
BRANCH  61  84
ATOM     84  C   UNL A   1      44.649  27.868  34.207  1.00  0.00     0.023 A 
ATOM     85  C   UNL A   1      44.564  26.773  35.086  1.00  0.00     0.031 A 
ATOM     86  C   UNL A   1      45.821  28.644  34.226  1.00  0.00     0.131 A 
ATOM     87  C   UNL A   1      45.602  26.528  35.999  1.00  0.00     0.055 A 
ATOM     88  C   UNL A   1      46.877  28.357  35.093  1.00  0.00     0.041 A 
ATOM     89  F   UNL A   1      45.954  29.703  33.412  1.00  0.00    -0.206 F 
ATOM     90  C   UNL A   1      46.763  27.305  35.998  1.00  0.00     0.022 A 
BRANCH  87  91
ATOM     91  S   UNL A   1      45.360  25.257  37.271  1.00  0.00     0.124 S 
ATOM     92  O   UNL A   1      43.910  25.090  37.263  1.00  0.00    -0.237 OA
ATOM     93  O   UNL A   1      46.134  24.137  36.743  1.00  0.00    -0.237 OA
ATOM     94  O   UNL A   1      45.907  25.873  38.479  1.00  0.00    -0.744 OA
ENDBRANCH  87  91
ENDBRANCH  61  84
ENDBRANCH  35  36
ENDBRANCH  28  30
ENDBRANCH  27  28
ENDBRANCH   1  27
TORSDOF 18
ENDMDL
