MODEL 1
REMARK VINA RESULT:      -9.1      0.000      0.000
REMARK SMILES CN(C)S(=O)(=O)c1ccc(-n2c(CCC(=O)OCCOC(=O)c3ccc(-c4c5nc(c(-c6cc(S(=O)(=O)[O-])ccc6F)c6ccc([nH]6)c(-c6cc(S(=O)(=O)[O-])ccc6F)c6nc(c(-c7cc(S(=O)(=O)[O-])ccc7F)c7ccc4[nH]7)C=C6)C=C5)cc3)ccc2-c2ccc(F)cc2)cc1
REMARK SMILES IDX 18 1 17 2 15 3 16 4 14 5 13 6 12 7 11 8 88 9 86 10 87 11
REMARK SMILES IDX 10 12 7 13 8 14 97 15 9 16 96 17 4 18 5 19 6 20 2 21 1 22
REMARK SMILES IDX 3 23 89 24 90 25 95 26 91 27 94 28 92 29 93 30 19 31 20 32
REMARK SMILES IDX 21 33 22 34 23 35 24 36 85 37 25 38 84 39 26 40 27 41 28 42
REMARK SMILES IDX 78 43 29 44 83 45 77 46 79 47 30 48 82 49 76 50 75 51 31 53
REMARK SMILES IDX 63 54 43 55 62 56 44 57 47 58 61 59 80 60 45 61 46 62 60 64
REMARK SMILES IDX 81 65 48 66 32 67 33 68 41 69 34 70 40 71 42 72 39 73 35 74
REMARK SMILES IDX 36 75 37 76 38 77 64 78 65 79 73 80 66 81 72 82 74 83 71 84
REMARK SMILES IDX 67 85 68 86 69 87 70 88 49 89 50 90 58 91 51 92 57 93 59 94
REMARK SMILES IDX 56 95 52 96 53 97 54 98 55 99
REMARK H PARENT 79 52 47 63
REMARK Flexibility Score: inf
ROOT
ATOM      1  C   UNL A   1      39.031  31.560  36.381  1.00  0.00     0.274 C 
ENDROOT
BRANCH   1   2
ATOM      2  O   UNL A   1      37.960  31.144  35.490  1.00  0.00    -0.462 OA
BRANCH   2   3
ATOM      3  C   UNL A   1      37.467  32.098  34.650  1.00  0.00     0.306 C 
ATOM      4  O   UNL A   1      36.452  32.745  34.883  1.00  0.00    -0.252 OA
BRANCH   3   5
ATOM      5  C   UNL A   1      38.306  32.330  33.396  1.00  0.00     0.129 C 
BRANCH   5   6
ATOM      6  C   UNL A   1      39.353  31.287  32.973  1.00  0.00     0.066 C 
BRANCH   6   7
ATOM      7  C   UNL A   1      38.971  30.558  31.733  1.00  0.00     0.024 A 
ATOM      8  N   UNL A   1      39.620  30.632  30.503  1.00  0.00    -0.314 N 
ATOM      9  C   UNL A   1      39.172  29.528  29.753  1.00  0.00     0.053 A 
ATOM     10  C   UNL A   1      37.903  29.689  31.600  1.00  0.00     0.024 A 
ATOM     11  C   UNL A   1      38.026  29.047  30.361  1.00  0.00     0.029 A 
BRANCH   8  12
ATOM     12  C   UNL A   1      40.652  31.542  30.101  1.00  0.00     0.046 A 
ATOM     13  C   UNL A   1      43.033  34.010  28.941  1.00  0.00     0.082 A 
ATOM     14  C   UNL A   1      41.470  34.534  29.636  1.00  0.00     0.024 A 
ATOM     15  C   UNL A   1      43.448  32.267  28.821  1.00  0.00     0.024 A 
ATOM     16  C   UNL A   1      40.281  33.322  30.227  1.00  0.00     0.028 A 
ATOM     17  C   UNL A   1      42.295  31.024  29.461  1.00  0.00     0.028 A 
BRANCH  13  18
ATOM     18  S   UNL A   1      44.114  35.178  28.186  1.00  0.00     0.242 S 
ATOM     19  O   UNL A   1      43.827  36.460  28.795  1.00  0.00    -0.207 OA
ATOM     20  O   UNL A   1      44.019  34.973  26.758  1.00  0.00    -0.207 OA
BRANCH  18  21
ATOM     21  N   UNL A   1      45.686  34.722  28.698  1.00  0.00    -0.204 NA
ATOM     22  C   UNL A   1      46.744  35.598  28.136  1.00  0.00     0.124 C 
ATOM     23  C   UNL A   1      45.870  34.555  30.159  1.00  0.00     0.124 C 
ENDBRANCH  18  21
ENDBRANCH  13  18
ENDBRANCH   8  12
BRANCH   9  24
ATOM     24  C   UNL A   1      39.878  28.875  28.645  1.00  0.00    -0.001 A 
ATOM     25  C   UNL A   1      39.825  29.397  27.344  1.00  0.00     0.013 A 
ATOM     26  C   UNL A   1      40.595  27.690  28.880  1.00  0.00     0.013 A 
ATOM     27  C   UNL A   1      40.527  28.774  26.309  1.00  0.00     0.040 A 
ATOM     28  C   UNL A   1      41.295  27.069  27.846  1.00  0.00     0.040 A 
ATOM     29  C   UNL A   1      41.258  27.620  26.571  1.00  0.00     0.123 A 
ATOM     30  F   UNL A   1      41.935  27.024  25.580  1.00  0.00    -0.207 F 
ENDBRANCH   9  24
ENDBRANCH   6   7
ENDBRANCH   5   6
ENDBRANCH   3   5
ENDBRANCH   2   3
ENDBRANCH   1   2
BRANCH   1  31
ATOM     31  C   UNL A   1      40.410  30.593  36.466  1.00  0.00     0.275 C 
BRANCH  31  32
ATOM     32  O   UNL A   1      40.723  28.769  35.643  1.00  0.00    -0.458 OA
BRANCH  32  33
ATOM     33  C   UNL A   1      41.375  27.758  34.911  1.00  0.00     0.338 C 
ATOM     34  O   UNL A   1      41.084  26.566  34.813  1.00  0.00    -0.246 OA
BRANCH  33  35
ATOM     35  C   UNL A   1      42.430  28.244  34.041  1.00  0.00     0.060 A 
ATOM     36  C   UNL A   1      41.987  28.930  32.901  1.00  0.00     0.016 A 
ATOM     37  C   UNL A   1      43.657  27.587  34.108  1.00  0.00     0.016 A 
ATOM     38  C   UNL A   1      42.723  28.819  31.744  1.00  0.00     0.010 A 
ATOM     39  C   UNL A   1      44.387  27.471  32.946  1.00  0.00     0.010 A 
ATOM     40  C   UNL A   1      43.874  28.026  31.762  1.00  0.00    -0.014 A 
BRANCH  40  41
ATOM     41  C   UNL A   1      44.569  27.805  30.491  1.00  0.00     0.031 A 
ATOM     42  C   UNL A   1      45.391  29.036  30.101  1.00  0.00     0.074 A 
ATOM     43  C   UNL A   1      44.327  26.595  29.898  1.00  0.00     0.049 A 
ATOM     44  N   UNL A   1      45.747  29.476  28.934  1.00  0.00    -0.248 NA
ATOM     45  C   UNL A   1      45.789  29.993  31.176  1.00  0.00     0.031 C 
ATOM     46  C   UNL A   1      43.443  25.530  30.444  1.00  0.00     0.029 A 
ATOM     47  N   UNL A   1      44.759  26.003  28.732  1.00  0.00    -0.354 N 
ATOM     48  C   UNL A   1      46.612  30.570  29.153  1.00  0.00     0.074 A 
ATOM     49  C   UNL A   1      46.452  30.945  30.522  1.00  0.00     0.031 C 
ATOM     50  C   UNL A   1      43.361  24.477  29.596  1.00  0.00     0.029 A 
ATOM     51  C   UNL A   1      44.191  24.732  28.437  1.00  0.00     0.049 A 
ATOM     52  H   UNL A   1      45.418  26.433  28.141  1.00  0.00     0.167 HD
ATOM     53  C   UNL A   1      47.540  30.985  28.243  1.00  0.00     0.034 A 
ATOM     54  C   UNL A   1      44.352  23.963  27.315  1.00  0.00     0.034 A 
ATOM     55  C   UNL A   1      47.430  30.214  27.049  1.00  0.00     0.049 A 
ATOM     56  C   UNL A   1      45.350  24.697  26.518  1.00  0.00     0.074 A 
ATOM     57  C   UNL A   1      46.532  30.186  26.017  1.00  0.00     0.029 A 
ATOM     58  N   UNL A   1      48.254  29.117  26.945  1.00  0.00    -0.354 N 
ATOM     59  N   UNL A   1      46.621  24.750  26.775  1.00  0.00    -0.248 NA
ATOM     60  C   UNL A   1      44.877  25.514  25.394  1.00  0.00     0.031 C 
ATOM     61  C   UNL A   1      46.575  28.850  25.559  1.00  0.00     0.029 A 
ATOM     62  C   UNL A   1      47.556  28.147  26.269  1.00  0.00     0.049 A 
ATOM     63  H   UNL A   1      49.171  29.042  27.292  1.00  0.00     0.167 HD
ATOM     64  C   UNL A   1      47.040  25.826  26.032  1.00  0.00     0.074 A 
ATOM     65  C   UNL A   1      46.041  26.027  25.007  1.00  0.00     0.031 C 
ATOM     66  C   UNL A   1      47.855  26.762  26.581  1.00  0.00     0.034 A 
BRANCH  53  67
ATOM     67  C   UNL A   1      48.752  31.878  28.372  1.00  0.00     0.023 A 
ATOM     68  C   UNL A   1      48.988  32.760  27.287  1.00  0.00     0.031 A 
ATOM     69  C   UNL A   1      49.808  31.722  29.279  1.00  0.00     0.131 A 
ATOM     70  C   UNL A   1      50.248  33.321  27.055  1.00  0.00     0.055 A 
ATOM     71  C   UNL A   1      51.050  32.349  29.087  1.00  0.00     0.041 A 
ATOM     72  F   UNL A   1      49.726  30.901  30.333  1.00  0.00    -0.206 F 
ATOM     73  C   UNL A   1      51.289  33.119  27.952  1.00  0.00     0.022 A 
BRANCH  70  74
ATOM     74  S   UNL A   1      50.532  34.147  25.464  1.00  0.00     0.124 S 
ATOM     75  O   UNL A   1      49.193  34.597  25.105  1.00  0.00    -0.237 OA
ATOM     76  O   UNL A   1      51.480  35.194  25.832  1.00  0.00    -0.237 OA
ATOM     77  O   UNL A   1      51.079  33.083  24.623  1.00  0.00    -0.744 OA
ENDBRANCH  70  74
ENDBRANCH  53  67
BRANCH  54  78
ATOM     78  C   UNL A   1      43.777  22.706  26.675  1.00  0.00     0.023 A 
ATOM     79  C   UNL A   1      44.495  21.688  26.019  1.00  0.00     0.031 A 
ATOM     80  C   UNL A   1      42.367  22.473  26.755  1.00  0.00     0.131 A 
ATOM     81  C   UNL A   1      43.823  20.518  25.555  1.00  0.00     0.055 A 
ATOM     82  C   UNL A   1      41.728  21.295  26.369  1.00  0.00     0.041 A 
ATOM     83  F   UNL A   1      41.514  23.394  27.224  1.00  0.00    -0.206 F 
ATOM     84  C   UNL A   1      42.460  20.299  25.775  1.00  0.00     0.022 A 
BRANCH  81  85
ATOM     85  S   UNL A   1      44.693  19.202  24.649  1.00  0.00     0.124 S 
ATOM     86  O   UNL A   1      44.058  17.999  25.179  1.00  0.00    -0.237 OA
ATOM     87  O   UNL A   1      44.409  19.514  23.252  1.00  0.00    -0.237 OA
ATOM     88  O   UNL A   1      46.088  19.394  25.048  1.00  0.00    -0.744 OA
ENDBRANCH  81  85
ENDBRANCH  54  78
BRANCH  66  89
ATOM     89  C   UNL A   1      48.655  26.268  27.783  1.00  0.00     0.023 A 
ATOM     90  C   UNL A   1      48.133  26.368  29.083  1.00  0.00     0.031 A 
ATOM     91  C   UNL A   1      49.980  25.805  27.684  1.00  0.00     0.131 A 
ATOM     92  C   UNL A   1      48.921  26.026  30.203  1.00  0.00     0.055 A 
ATOM     93  C   UNL A   1      50.761  25.453  28.789  1.00  0.00     0.041 A 
ATOM     94  F   UNL A   1      50.570  25.690  26.497  1.00  0.00    -0.206 F 
ATOM     95  C   UNL A   1      50.231  25.566  30.063  1.00  0.00     0.022 A 
BRANCH  92  96
ATOM     96  S   UNL A   1      48.210  26.161  31.867  1.00  0.00     0.124 S 
ATOM     97  O   UNL A   1      49.189  25.460  32.690  1.00  0.00    -0.237 OA
ATOM     98  O   UNL A   1      48.130  27.606  32.061  1.00  0.00    -0.237 OA
ATOM     99  O   UNL A   1      46.916  25.489  31.742  1.00  0.00    -0.744 OA
ENDBRANCH  92  96
ENDBRANCH  66  89
ENDBRANCH  40  41
ENDBRANCH  33  35
ENDBRANCH  32  33
ENDBRANCH  31  32
ENDBRANCH   1  31
TORSDOF 20
ENDMDL
MODEL 2
REMARK VINA RESULT:      -8.8      4.147      7.939
REMARK SMILES CN(C)S(=O)(=O)c1ccc(-n2c(CCC(=O)OCCOC(=O)c3ccc(-c4c5nc(c(-c6cc(S(=O)(=O)[O-])ccc6F)c6ccc([nH]6)c(-c6cc(S(=O)(=O)[O-])ccc6F)c6nc(c(-c7cc(S(=O)(=O)[O-])ccc7F)c7ccc4[nH]7)C=C6)C=C5)cc3)ccc2-c2ccc(F)cc2)cc1
REMARK SMILES IDX 18 1 17 2 15 3 16 4 14 5 13 6 12 7 11 8 88 9 86 10 87 11
REMARK SMILES IDX 10 12 7 13 8 14 97 15 9 16 96 17 4 18 5 19 6 20 2 21 1 22
REMARK SMILES IDX 3 23 89 24 90 25 95 26 91 27 94 28 92 29 93 30 19 31 20 32
REMARK SMILES IDX 21 33 22 34 23 35 24 36 85 37 25 38 84 39 26 40 27 41 28 42
REMARK SMILES IDX 78 43 29 44 83 45 77 46 79 47 30 48 82 49 76 50 75 51 31 53
REMARK SMILES IDX 63 54 43 55 62 56 44 57 47 58 61 59 80 60 45 61 46 62 60 64
REMARK SMILES IDX 81 65 48 66 32 67 33 68 41 69 34 70 40 71 42 72 39 73 35 74
REMARK SMILES IDX 36 75 37 76 38 77 64 78 65 79 73 80 66 81 72 82 74 83 71 84
REMARK SMILES IDX 67 85 68 86 69 87 70 88 49 89 50 90 58 91 51 92 57 93 59 94
REMARK SMILES IDX 56 95 52 96 53 97 54 98 55 99
REMARK H PARENT 79 52 47 63
REMARK Flexibility Score: inf
ROOT
ATOM      1  C   UNL A   1      39.202  25.080  26.690  1.00  0.00     0.274 C 
ENDROOT
BRANCH   1   2
ATOM      2  O   UNL A   1      39.396  25.633  28.021  1.00  0.00    -0.462 OA
BRANCH   2   3
ATOM      3  C   UNL A   1      39.749  26.949  28.084  1.00  0.00     0.306 C 
ATOM      4  O   UNL A   1      40.476  27.494  27.260  1.00  0.00    -0.252 OA
BRANCH   3   5
ATOM      5  C   UNL A   1      39.131  27.713  29.252  1.00  0.00     0.129 C 
BRANCH   5   6
ATOM      6  C   UNL A   1      39.075  29.250  29.216  1.00  0.00     0.066 C 
BRANCH   6   7
ATOM      7  C   UNL A   1      37.695  29.772  29.033  1.00  0.00     0.024 A 
ATOM      8  N   UNL A   1      37.109  30.813  29.748  1.00  0.00    -0.314 N 
ATOM      9  C   UNL A   1      35.976  31.210  29.012  1.00  0.00     0.053 A 
ATOM     10  C   UNL A   1      36.764  29.303  28.124  1.00  0.00     0.024 A 
ATOM     11  C   UNL A   1      35.687  30.199  28.112  1.00  0.00     0.029 A 
BRANCH   8  12
ATOM     12  C   UNL A   1      37.609  31.475  30.917  1.00  0.00     0.046 A 
ATOM     13  C   UNL A   1      38.571  33.169  33.969  1.00  0.00     0.082 A 
ATOM     14  C   UNL A   1      37.355  31.857  34.020  1.00  0.00     0.024 A 
ATOM     15  C   UNL A   1      39.336  33.653  32.419  1.00  0.00     0.024 A 
ATOM     16  C   UNL A   1      36.874  30.999  32.516  1.00  0.00     0.028 A 
ATOM     17  C   UNL A   1      38.915  32.767  30.895  1.00  0.00     0.028 A 
BRANCH  13  18
ATOM     18  S   UNL A   1      38.901  34.140  35.401  1.00  0.00     0.242 S 
ATOM     19  O   UNL A   1      37.997  33.676  36.432  1.00  0.00    -0.207 OA
ATOM     20  O   UNL A   1      38.927  35.520  34.972  1.00  0.00    -0.207 OA
BRANCH  18  21
ATOM     21  N   UNL A   1      40.484  33.690  35.885  1.00  0.00    -0.204 NA
ATOM     22  C   UNL A   1      41.488  34.745  35.598  1.00  0.00     0.124 C 
ATOM     23  C   UNL A   1      40.624  33.205  37.277  1.00  0.00     0.124 C 
ENDBRANCH  18  21
ENDBRANCH  13  18
ENDBRANCH   8  12
BRANCH   9  24
ATOM     24  C   UNL A   1      35.325  32.524  29.042  1.00  0.00    -0.001 A 
ATOM     25  C   UNL A   1      35.350  33.371  27.924  1.00  0.00     0.013 A 
ATOM     26  C   UNL A   1      34.691  32.960  30.217  1.00  0.00     0.013 A 
ATOM     27  C   UNL A   1      34.700  34.608  27.965  1.00  0.00     0.040 A 
ATOM     28  C   UNL A   1      34.043  34.194  30.258  1.00  0.00     0.040 A 
ATOM     29  C   UNL A   1      34.050  35.004  29.130  1.00  0.00     0.123 A 
ATOM     30  F   UNL A   1      33.423  36.187  29.169  1.00  0.00    -0.207 F 
ENDBRANCH   9  24
ENDBRANCH   6   7
ENDBRANCH   5   6
ENDBRANCH   3   5
ENDBRANCH   2   3
ENDBRANCH   1   2
BRANCH   1  31
ATOM     31  C   UNL A   1      38.887  23.429  26.558  1.00  0.00     0.275 C 
BRANCH  31  32
ATOM     32  O   UNL A   1      40.207  21.906  26.348  1.00  0.00    -0.458 OA
BRANCH  32  33
ATOM     33  C   UNL A   1      41.402  21.250  25.996  1.00  0.00     0.338 C 
ATOM     34  O   UNL A   1      41.577  20.064  25.713  1.00  0.00    -0.246 OA
BRANCH  33  35
ATOM     35  C   UNL A   1      42.529  22.140  25.793  1.00  0.00     0.060 A 
ATOM     36  C   UNL A   1      43.789  21.546  25.960  1.00  0.00     0.016 A 
ATOM     37  C   UNL A   1      42.298  23.502  25.968  1.00  0.00     0.016 A 
ATOM     38  C   UNL A   1      44.811  22.312  26.472  1.00  0.00     0.010 A 
ATOM     39  C   UNL A   1      43.321  24.264  26.490  1.00  0.00     0.010 A 
ATOM     40  C   UNL A   1      44.540  23.643  26.804  1.00  0.00    -0.014 A 
BRANCH  40  41
ATOM     41  C   UNL A   1      45.597  24.405  27.477  1.00  0.00     0.031 A 
ATOM     42  C   UNL A   1      46.732  24.734  26.504  1.00  0.00     0.074 A 
ATOM     43  C   UNL A   1      45.389  24.634  28.810  1.00  0.00     0.049 A 
ATOM     44  N   UNL A   1      47.994  24.938  26.720  1.00  0.00    -0.248 NA
ATOM     45  C   UNL A   1      46.435  24.729  25.040  1.00  0.00     0.031 C 
ATOM     46  C   UNL A   1      44.203  24.182  29.587  1.00  0.00     0.029 A 
ATOM     47  N   UNL A   1      46.110  25.282  29.788  1.00  0.00    -0.354 N 
ATOM     48  C   UNL A   1      48.562  25.341  25.492  1.00  0.00     0.074 A 
ATOM     49  C   UNL A   1      47.608  25.019  24.480  1.00  0.00     0.031 C 
ATOM     50  C   UNL A   1      44.320  24.510  30.896  1.00  0.00     0.029 A 
ATOM     51  C   UNL A   1      45.564  25.223  31.101  1.00  0.00     0.049 A 
ATOM     52  H   UNL A   1      46.949  25.757  29.590  1.00  0.00     0.167 HD
ATOM     53  C   UNL A   1      49.706  26.079  25.403  1.00  0.00     0.034 A 
ATOM     54  C   UNL A   1      46.103  25.682  32.273  1.00  0.00     0.034 A 
ATOM     55  C   UNL A   1      50.254  26.289  26.703  1.00  0.00     0.049 A 
ATOM     56  C   UNL A   1      47.339  26.367  31.855  1.00  0.00     0.074 A 
ATOM     57  C   UNL A   1      50.921  25.490  27.591  1.00  0.00     0.029 A 
ATOM     58  N   UNL A   1      49.902  27.456  27.339  1.00  0.00    -0.354 N 
ATOM     59  N   UNL A   1      47.392  27.524  31.271  1.00  0.00    -0.248 NA
ATOM     60  C   UNL A   1      48.615  25.659  32.019  1.00  0.00     0.031 C 
ATOM     61  C   UNL A   1      50.587  26.027  28.854  1.00  0.00     0.029 A 
ATOM     62  C   UNL A   1      49.808  27.177  28.680  1.00  0.00     0.049 A 
ATOM     63  H   UNL A   1      49.747  28.329  26.912  1.00  0.00     0.167 HD
ATOM     64  C   UNL A   1      48.659  27.544  30.743  1.00  0.00     0.074 A 
ATOM     65  C   UNL A   1      49.426  26.568  31.484  1.00  0.00     0.031 C 
ATOM     66  C   UNL A   1      48.862  27.949  29.463  1.00  0.00     0.034 A 
BRANCH  53  67
ATOM     67  C   UNL A   1      50.305  26.881  24.271  1.00  0.00     0.023 A 
ATOM     68  C   UNL A   1      49.556  26.905  23.068  1.00  0.00     0.031 A 
ATOM     69  C   UNL A   1      51.626  27.341  24.184  1.00  0.00     0.131 A 
ATOM     70  C   UNL A   1      50.146  27.224  21.839  1.00  0.00     0.055 A 
ATOM     71  C   UNL A   1      52.195  27.736  22.962  1.00  0.00     0.041 A 
ATOM     72  F   UNL A   1      52.448  27.348  25.240  1.00  0.00    -0.206 F 
ATOM     73  C   UNL A   1      51.470  27.641  21.777  1.00  0.00     0.022 A 
BRANCH  70  74
ATOM     74  S   UNL A   1      49.199  26.891  20.328  1.00  0.00     0.124 S 
ATOM     75  O   UNL A   1      47.900  27.475  20.641  1.00  0.00    -0.237 OA
ATOM     76  O   UNL A   1      49.987  27.589  19.317  1.00  0.00    -0.237 OA
ATOM     77  O   UNL A   1      49.219  25.432  20.231  1.00  0.00    -0.744 OA
ENDBRANCH  70  74
ENDBRANCH  53  67
BRANCH  54  78
ATOM     78  C   UNL A   1      45.848  25.620  33.774  1.00  0.00     0.023 A 
ATOM     79  C   UNL A   1      46.030  24.507  34.616  1.00  0.00     0.031 A 
ATOM     80  C   UNL A   1      45.410  26.804  34.449  1.00  0.00     0.131 A 
ATOM     81  C   UNL A   1      45.842  24.632  36.025  1.00  0.00     0.055 A 
ATOM     82  C   UNL A   1      45.302  26.940  35.832  1.00  0.00     0.041 A 
ATOM     83  F   UNL A   1      45.057  27.916  33.791  1.00  0.00    -0.206 F 
ATOM     84  C   UNL A   1      45.531  25.851  36.634  1.00  0.00     0.022 A 
BRANCH  81  85
ATOM     85  S   UNL A   1      46.005  23.211  37.149  1.00  0.00     0.124 S 
ATOM     86  O   UNL A   1      47.449  22.996  37.155  1.00  0.00    -0.237 OA
ATOM     87  O   UNL A   1      45.425  23.702  38.395  1.00  0.00    -0.237 OA
ATOM     88  O   UNL A   1      45.227  22.169  36.479  1.00  0.00    -0.744 OA
ENDBRANCH  81  85
ENDBRANCH  54  78
BRANCH  66  89
ATOM     89  C   UNL A   1      47.756  28.841  28.907  1.00  0.00     0.023 A 
ATOM     90  C   UNL A   1      46.707  28.296  28.148  1.00  0.00     0.031 A 
ATOM     91  C   UNL A   1      47.778  30.244  29.010  1.00  0.00     0.131 A 
ATOM     92  C   UNL A   1      45.754  29.134  27.531  1.00  0.00     0.055 A 
ATOM     93  C   UNL A   1      46.830  31.079  28.411  1.00  0.00     0.041 A 
ATOM     94  F   UNL A   1      48.741  30.858  29.693  1.00  0.00    -0.206 F 
ATOM     95  C   UNL A   1      45.809  30.523  27.660  1.00  0.00     0.022 A 
BRANCH  92  96
ATOM     96  S   UNL A   1      44.409  28.393  26.565  1.00  0.00     0.124 S 
ATOM     97  O   UNL A   1      45.107  27.869  25.396  1.00  0.00    -0.237 OA
ATOM     98  O   UNL A   1      43.868  27.397  27.485  1.00  0.00    -0.237 OA
ATOM     99  O   UNL A   1      43.519  29.523  26.295  1.00  0.00    -0.744 OA
ENDBRANCH  92  96
ENDBRANCH  66  89
ENDBRANCH  40  41
ENDBRANCH  33  35
ENDBRANCH  32  33
ENDBRANCH  31  32
ENDBRANCH   1  31
TORSDOF 20
ENDMDL
MODEL 3
REMARK VINA RESULT:      -8.8      5.387     10.845
REMARK SMILES CN(C)S(=O)(=O)c1ccc(-n2c(CCC(=O)OCCOC(=O)c3ccc(-c4c5nc(c(-c6cc(S(=O)(=O)[O-])ccc6F)c6ccc([nH]6)c(-c6cc(S(=O)(=O)[O-])ccc6F)c6nc(c(-c7cc(S(=O)(=O)[O-])ccc7F)c7ccc4[nH]7)C=C6)C=C5)cc3)ccc2-c2ccc(F)cc2)cc1
REMARK SMILES IDX 18 1 17 2 15 3 16 4 14 5 13 6 12 7 11 8 88 9 86 10 87 11
REMARK SMILES IDX 10 12 7 13 8 14 97 15 9 16 96 17 4 18 5 19 6 20 2 21 1 22
REMARK SMILES IDX 3 23 89 24 90 25 95 26 91 27 94 28 92 29 93 30 19 31 20 32
REMARK SMILES IDX 21 33 22 34 23 35 24 36 85 37 25 38 84 39 26 40 27 41 28 42
REMARK SMILES IDX 78 43 29 44 83 45 77 46 79 47 30 48 82 49 76 50 75 51 31 53
REMARK SMILES IDX 63 54 43 55 62 56 44 57 47 58 61 59 80 60 45 61 46 62 60 64
REMARK SMILES IDX 81 65 48 66 32 67 33 68 41 69 34 70 40 71 42 72 39 73 35 74
REMARK SMILES IDX 36 75 37 76 38 77 64 78 65 79 73 80 66 81 72 82 74 83 71 84
REMARK SMILES IDX 67 85 68 86 69 87 70 88 49 89 50 90 58 91 51 92 57 93 59 94
REMARK SMILES IDX 56 95 52 96 53 97 54 98 55 99
REMARK H PARENT 79 52 47 63
REMARK Flexibility Score: inf
ROOT
ATOM      1  C   UNL A   1      48.462  24.987  39.466  1.00  0.00     0.274 C 
ENDROOT
BRANCH   1   2
ATOM      2  O   UNL A   1      48.796  23.656  38.984  1.00  0.00    -0.462 OA
BRANCH   2   3
ATOM      3  C   UNL A   1      50.114  23.308  39.030  1.00  0.00     0.306 C 
ATOM      4  O   UNL A   1      50.802  23.399  40.041  1.00  0.00    -0.252 OA
BRANCH   3   5
ATOM      5  C   UNL A   1      50.667  22.753  37.720  1.00  0.00     0.129 C 
BRANCH   5   6
ATOM      6  C   UNL A   1      49.914  21.630  36.987  1.00  0.00     0.066 C 
BRANCH   6   7
ATOM      7  C   UNL A   1      48.928  22.147  36.000  1.00  0.00     0.024 A 
ATOM      8  N   UNL A   1      47.585  21.789  35.915  1.00  0.00    -0.314 N 
ATOM      9  C   UNL A   1      46.965  22.770  35.117  1.00  0.00     0.053 A 
ATOM     10  C   UNL A   1      49.189  23.066  34.999  1.00  0.00     0.024 A 
ATOM     11  C   UNL A   1      47.962  23.454  34.444  1.00  0.00     0.029 A 
BRANCH   8  12
ATOM     12  C   UNL A   1      46.905  20.735  36.607  1.00  0.00     0.046 A 
ATOM     13  C   UNL A   1      45.457  18.020  38.515  1.00  0.00     0.082 A 
ATOM     14  C   UNL A   1      46.470  19.247  39.334  1.00  0.00     0.024 A 
ATOM     15  C   UNL A   1      45.134  18.122  36.752  1.00  0.00     0.024 A 
ATOM     16  C   UNL A   1      47.188  20.607  38.404  1.00  0.00     0.028 A 
ATOM     17  C   UNL A   1      45.796  19.514  35.798  1.00  0.00     0.028 A 
BRANCH  13  18
ATOM     18  S   UNL A   1      44.915  16.585  39.381  1.00  0.00     0.242 S 
ATOM     19  O   UNL A   1      46.051  16.107  40.141  1.00  0.00    -0.207 OA
ATOM     20  O   UNL A   1      44.234  15.749  38.418  1.00  0.00    -0.207 OA
BRANCH  18  21
ATOM     21  N   UNL A   1      43.762  17.161  40.514  1.00  0.00    -0.204 NA
ATOM     22  C   UNL A   1      42.732  16.145  40.842  1.00  0.00     0.124 C 
ATOM     23  C   UNL A   1      44.312  17.763  41.750  1.00  0.00     0.124 C 
ENDBRANCH  18  21
ENDBRANCH  13  18
ENDBRANCH   8  12
BRANCH   9  24
ATOM     24  C   UNL A   1      45.546  23.142  35.128  1.00  0.00    -0.001 A 
ATOM     25  C   UNL A   1      44.763  23.044  33.968  1.00  0.00     0.013 A 
ATOM     26  C   UNL A   1      44.965  23.633  36.309  1.00  0.00     0.013 A 
ATOM     27  C   UNL A   1      43.406  23.379  34.008  1.00  0.00     0.040 A 
ATOM     28  C   UNL A   1      43.612  23.967  36.347  1.00  0.00     0.040 A 
ATOM     29  C   UNL A   1      42.844  23.832  35.197  1.00  0.00     0.123 A 
ATOM     30  F   UNL A   1      41.543  24.149  35.237  1.00  0.00    -0.207 F 
ENDBRANCH   9  24
ENDBRANCH   6   7
ENDBRANCH   5   6
ENDBRANCH   3   5
ENDBRANCH   2   3
ENDBRANCH   1   2
BRANCH   1  31
ATOM     31  C   UNL A   1      48.808  26.300  38.466  1.00  0.00     0.275 C 
BRANCH  31  32
ATOM     32  O   UNL A   1      47.517  27.486  37.451  1.00  0.00    -0.458 OA
BRANCH  32  33
ATOM     33  C   UNL A   1      47.015  28.271  36.395  1.00  0.00     0.338 C 
ATOM     34  O   UNL A   1      47.194  29.469  36.172  1.00  0.00    -0.246 OA
BRANCH  33  35
ATOM     35  C   UNL A   1      46.335  27.512  35.364  1.00  0.00     0.060 A 
ATOM     36  C   UNL A   1      46.799  27.738  34.059  1.00  0.00     0.016 A 
ATOM     37  C   UNL A   1      45.043  27.074  35.649  1.00  0.00     0.016 A 
ATOM     38  C   UNL A   1      45.895  27.679  33.024  1.00  0.00     0.010 A 
ATOM     39  C   UNL A   1      44.139  27.024  34.611  1.00  0.00     0.010 A 
ATOM     40  C   UNL A   1      44.559  27.398  33.324  1.00  0.00    -0.014 A 
BRANCH  40  41
ATOM     41  C   UNL A   1      43.585  27.475  32.231  1.00  0.00     0.031 A 
ATOM     42  C   UNL A   1      42.577  28.599  32.481  1.00  0.00     0.074 A 
ATOM     43  C   UNL A   1      43.737  26.532  31.250  1.00  0.00     0.049 A 
ATOM     44  N   UNL A   1      41.346  28.729  32.092  1.00  0.00    -0.248 NA
ATOM     45  C   UNL A   1      42.964  29.707  33.404  1.00  0.00     0.031 C 
ATOM     46  C   UNL A   1      44.789  25.481  31.221  1.00  0.00     0.029 A 
ATOM     47  N   UNL A   1      43.056  26.252  30.086  1.00  0.00    -0.354 N 
ATOM     48  C   UNL A   1      40.926  30.018  32.483  1.00  0.00     0.074 A 
ATOM     49  C   UNL A   1      41.886  30.488  33.429  1.00  0.00     0.031 C 
ATOM     50  C   UNL A   1      44.637  24.663  30.152  1.00  0.00     0.029 A 
ATOM     51  C   UNL A   1      43.500  25.105  29.371  1.00  0.00     0.049 A 
ATOM     52  H   UNL A   1      42.311  26.811  29.770  1.00  0.00     0.167 HD
ATOM     53  C   UNL A   1      39.911  30.693  31.869  1.00  0.00     0.034 A 
ATOM     54  C   UNL A   1      42.959  24.533  28.250  1.00  0.00     0.034 A 
ATOM     55  C   UNL A   1      39.316  29.872  30.866  1.00  0.00     0.049 A 
ATOM     56  C   UNL A   1      41.868  25.447  27.873  1.00  0.00     0.074 A 
ATOM     57  C   UNL A   1      38.483  28.788  30.899  1.00  0.00     0.029 A 
ATOM     58  N   UNL A   1      39.794  30.022  29.585  1.00  0.00    -0.354 N 
ATOM     59  N   UNL A   1      42.024  26.609  27.315  1.00  0.00    -0.248 NA
ATOM     60  C   UNL A   1      40.493  25.075  28.231  1.00  0.00     0.031 C 
ATOM     61  C   UNL A   1      38.808  28.068  29.729  1.00  0.00     0.029 A 
ATOM     62  C   UNL A   1      39.758  28.784  28.991  1.00  0.00     0.049 A 
ATOM     63  H   UNL A   1      40.103  30.858  29.171  1.00  0.00     0.167 HD
ATOM     64  C   UNL A   1      40.811  27.216  27.527  1.00  0.00     0.074 A 
ATOM     65  C   UNL A   1      39.862  26.156  27.781  1.00  0.00     0.031 C 
ATOM     66  C   UNL A   1      40.754  28.496  27.976  1.00  0.00     0.034 A 
BRANCH  53  67
ATOM     67  C   UNL A   1      39.512  32.150  31.885  1.00  0.00     0.023 A 
ATOM     68  C   UNL A   1      38.412  32.480  32.716  1.00  0.00     0.031 A 
ATOM     69  C   UNL A   1      39.905  33.132  30.966  1.00  0.00     0.131 A 
ATOM     70  C   UNL A   1      37.670  33.651  32.525  1.00  0.00     0.055 A 
ATOM     71  C   UNL A   1      39.207  34.342  30.828  1.00  0.00     0.041 A 
ATOM     72  F   UNL A   1      40.913  32.939  30.106  1.00  0.00    -0.206 F 
ATOM     73  C   UNL A   1      38.060  34.591  31.579  1.00  0.00     0.022 A 
BRANCH  70  74
ATOM     74  S   UNL A   1      36.089  33.810  33.403  1.00  0.00     0.124 S 
ATOM     75  O   UNL A   1      36.190  35.144  33.983  1.00  0.00    -0.237 OA
ATOM     76  O   UNL A   1      35.124  33.657  32.319  1.00  0.00    -0.237 OA
ATOM     77  O   UNL A   1      36.124  32.708  34.364  1.00  0.00    -0.744 OA
ENDBRANCH  70  74
ENDBRANCH  53  67
BRANCH  54  78
ATOM     78  C   UNL A   1      43.104  23.277  27.400  1.00  0.00     0.023 A 
ATOM     79  C   UNL A   1      43.993  23.082  26.326  1.00  0.00     0.031 A 
ATOM     80  C   UNL A   1      42.297  22.136  27.711  1.00  0.00     0.131 A 
ATOM     81  C   UNL A   1      44.082  21.809  25.688  1.00  0.00     0.055 A 
ATOM     82  C   UNL A   1      42.442  20.875  27.134  1.00  0.00     0.041 A 
ATOM     83  F   UNL A   1      41.305  22.183  28.610  1.00  0.00    -0.206 F 
ATOM     84  C   UNL A   1      43.350  20.700  26.122  1.00  0.00     0.022 A 
BRANCH  81  85
ATOM     85  S   UNL A   1      45.170  21.521  24.258  1.00  0.00     0.124 S 
ATOM     86  O   UNL A   1      45.028  22.770  23.515  1.00  0.00    -0.237 OA
ATOM     87  O   UNL A   1      46.472  21.285  24.872  1.00  0.00    -0.237 OA
ATOM     88  O   UNL A   1      44.571  20.349  23.620  1.00  0.00    -0.744 OA
ENDBRANCH  81  85
ENDBRANCH  54  78
BRANCH  66  89
ATOM     89  C   UNL A   1      42.013  29.312  27.700  1.00  0.00     0.023 A 
ATOM     90  C   UNL A   1      42.731  29.903  28.753  1.00  0.00     0.031 A 
ATOM     91  C   UNL A   1      42.457  29.621  26.401  1.00  0.00     0.131 A 
ATOM     92  C   UNL A   1      43.822  30.759  28.488  1.00  0.00     0.055 A 
ATOM     93  C   UNL A   1      43.544  30.458  26.133  1.00  0.00     0.041 A 
ATOM     94  F   UNL A   1      41.832  29.124  25.336  1.00  0.00    -0.206 F 
ATOM     95  C   UNL A   1      44.234  31.038  27.184  1.00  0.00     0.022 A 
BRANCH  92  96
ATOM     96  S   UNL A   1      44.729  31.498  29.874  1.00  0.00     0.124 S 
ATOM     97  O   UNL A   1      45.654  30.435  30.253  1.00  0.00    -0.237 OA
ATOM     98  O   UNL A   1      45.330  32.681  29.266  1.00  0.00    -0.237 OA
ATOM     99  O   UNL A   1      43.682  31.782  30.856  1.00  0.00    -0.744 OA
ENDBRANCH  92  96
ENDBRANCH  66  89
ENDBRANCH  40  41
ENDBRANCH  33  35
ENDBRANCH  32  33
ENDBRANCH  31  32
ENDBRANCH   1  31
TORSDOF 20
ENDMDL
