MODEL 1
REMARK VINA RESULT:      -9.3      0.000      0.000
REMARK SMILES O=C(COCCNc1nncs1)OCCOC(=O)c1ccc(-c2c3nc(c(-c4cc(S(=O)(=O)[O-])ccc4F)c4ccc([nH]4)c(-c4cc(S(=O)(=O)[O-])ccc4F)c4nc(c(-c5cc(S(=O)(=O)[O-])ccc5F)c5ccc2[nH]5)C=C4)C=C3)cc1
REMARK SMILES IDX 14 1 13 2 2 3 1 4 3 5 4 6 5 7 6 8 7 9 8 11 9 12 12 13 10 14
REMARK SMILES IDX 11 15 15 16 16 17 17 18 18 19 19 20 20 21 81 22 21 23 80 24
REMARK SMILES IDX 22 25 23 26 24 27 74 28 25 29 79 30 73 31 75 32 26 33 78 34
REMARK SMILES IDX 72 35 71 36 27 38 59 39 39 40 58 41 40 42 43 43 57 44 76 45
REMARK SMILES IDX 41 46 42 47 56 49 77 50 44 51 28 52 29 53 37 54 30 55 36 56
REMARK SMILES IDX 38 57 35 58 31 59 32 60 33 61 34 62 60 63 61 64 69 65 62 66
REMARK SMILES IDX 68 67 70 68 67 69 63 70 64 71 65 72 66 73 45 74 46 75 54 76
REMARK SMILES IDX 47 77 53 78 55 79 52 80 48 81 49 82 50 83 51 84
REMARK H PARENT 7 10 75 37 43 48
REMARK Flexibility Score: inf
ROOT
ATOM      1  C   UNL A   1      41.953  20.270  26.664  1.00  0.00     0.274 C 
ENDROOT
BRANCH   1   2
ATOM      2  O   UNL A   1      42.794  19.923  25.545  1.00  0.00    -0.460 OA
BRANCH   2   3
ATOM      3  C   UNL A   1      43.518  18.787  25.408  1.00  0.00     0.332 C 
ATOM      4  O   UNL A   1      43.003  17.711  25.709  1.00  0.00    -0.250 OA
BRANCH   3   5
ATOM      5  C   UNL A   1      44.969  18.870  24.912  1.00  0.00     0.282 C 
BRANCH   5   6
ATOM      6  O   UNL A   1      45.799  19.882  25.464  1.00  0.00    -0.368 OA
BRANCH   6   7
ATOM      7  C   UNL A   1      46.358  20.817  24.530  1.00  0.00     0.182 C 
BRANCH   7   8
ATOM      8  C   UNL A   1      45.733  22.221  24.599  1.00  0.00     0.143 C 
BRANCH   8   9
ATOM      9  N   UNL A   1      44.793  22.344  25.693  1.00  0.00    -0.358 N 
ATOM     10  H   UNL A   1      43.921  21.901  25.583  1.00  0.00     0.163 HD
BRANCH   9  11
ATOM     11  C   UNL A   1      44.998  23.011  26.851  1.00  0.00     0.205 A 
ATOM     12  N   UNL A   1      44.141  22.947  27.850  1.00  0.00    -0.121 NA
ATOM     13  S   UNL A   1      46.326  24.061  27.183  1.00  0.00    -0.083 S 
ATOM     14  N   UNL A   1      44.478  23.752  28.918  1.00  0.00    -0.145 NA
ATOM     15  C   UNL A   1      45.579  24.424  28.678  1.00  0.00     0.204 A 
ENDBRANCH   9  11
ENDBRANCH   8   9
ENDBRANCH   7   8
ENDBRANCH   6   7
ENDBRANCH   5   6
ENDBRANCH   3   5
ENDBRANCH   2   3
ENDBRANCH   1   2
BRANCH   1  16
ATOM     16  C   UNL A   1      40.543  20.631  26.202  1.00  0.00     0.275 C 
BRANCH  16  17
ATOM     17  O   UNL A   1      39.949  21.596  27.087  1.00  0.00    -0.458 OA
BRANCH  17  18
ATOM     18  C   UNL A   1      39.077  22.466  26.510  1.00  0.00     0.338 C 
ATOM     19  O   UNL A   1      38.111  22.171  25.827  1.00  0.00    -0.246 OA
BRANCH  18  20
ATOM     20  C   UNL A   1      39.396  23.844  26.949  1.00  0.00     0.060 A 
ATOM     21  C   UNL A   1      39.875  24.751  25.997  1.00  0.00     0.016 A 
ATOM     22  C   UNL A   1      39.220  24.254  28.276  1.00  0.00     0.016 A 
ATOM     23  C   UNL A   1      40.175  26.065  26.368  1.00  0.00     0.010 A 
ATOM     24  C   UNL A   1      39.528  25.568  28.645  1.00  0.00     0.010 A 
ATOM     25  C   UNL A   1      40.014  26.481  27.695  1.00  0.00    -0.014 A 
BRANCH  25  26
ATOM     26  C   UNL A   1      40.467  27.827  28.120  1.00  0.00     0.031 A 
ATOM     27  C   UNL A   1      41.936  28.142  28.092  1.00  0.00     0.074 A 
ATOM     28  C   UNL A   1      39.588  28.754  28.545  1.00  0.00     0.049 A 
ATOM     29  N   UNL A   1      42.557  29.236  28.449  1.00  0.00    -0.248 NA
ATOM     30  C   UNL A   1      42.819  27.073  27.603  1.00  0.00     0.031 C 
ATOM     31  C   UNL A   1      38.138  28.583  28.596  1.00  0.00     0.029 A 
ATOM     32  N   UNL A   1      39.792  30.024  29.024  1.00  0.00    -0.354 N 
ATOM     33  C   UNL A   1      43.905  29.001  28.203  1.00  0.00     0.074 A 
ATOM     34  C   UNL A   1      44.011  27.639  27.717  1.00  0.00     0.031 C 
ATOM     35  C   UNL A   1      37.584  29.701  29.095  1.00  0.00     0.029 A 
ATOM     36  C   UNL A   1      38.640  30.657  29.425  1.00  0.00     0.049 A 
ATOM     37  H   UNL A   1      40.683  30.443  29.076  1.00  0.00     0.167 HD
ATOM     38  C   UNL A   1      44.956  29.843  28.356  1.00  0.00     0.034 A 
ATOM     39  C   UNL A   1      38.461  31.859  30.011  1.00  0.00     0.034 A 
ATOM     40  C   UNL A   1      44.850  31.180  28.883  1.00  0.00     0.049 A 
ATOM     41  C   UNL A   1      39.661  32.736  30.285  1.00  0.00     0.074 A 
ATOM     42  C   UNL A   1      45.853  32.115  29.074  1.00  0.00     0.029 A 
ATOM     43  N   UNL A   1      43.673  31.768  29.329  1.00  0.00    -0.354 N 
ATOM     44  N   UNL A   1      40.927  32.513  30.019  1.00  0.00    -0.248 NA
ATOM     45  C   UNL A   1      39.404  34.029  30.935  1.00  0.00     0.031 C 
ATOM     46  C   UNL A   1      45.297  33.237  29.698  1.00  0.00     0.029 A 
ATOM     47  C   UNL A   1      43.932  33.035  29.831  1.00  0.00     0.049 A 
ATOM     48  H   UNL A   1      42.784  31.346  29.293  1.00  0.00     0.167 HD
ATOM     49  C   UNL A   1      41.610  33.654  30.435  1.00  0.00     0.074 A 
ATOM     50  C   UNL A   1      40.616  34.562  30.968  1.00  0.00     0.031 C 
ATOM     51  C   UNL A   1      42.937  33.931  30.371  1.00  0.00     0.034 A 
BRANCH  38  52
ATOM     52  C   UNL A   1      46.316  29.308  27.989  1.00  0.00     0.023 A 
ATOM     53  C   UNL A   1      46.647  28.995  26.658  1.00  0.00     0.031 A 
ATOM     54  C   UNL A   1      47.280  29.068  28.983  1.00  0.00     0.131 A 
ATOM     55  C   UNL A   1      47.880  28.395  26.368  1.00  0.00     0.055 A 
ATOM     56  C   UNL A   1      48.534  28.539  28.678  1.00  0.00     0.041 A 
ATOM     57  F   UNL A   1      47.009  29.326  30.273  1.00  0.00    -0.206 F 
ATOM     58  C   UNL A   1      48.835  28.186  27.365  1.00  0.00     0.022 A 
BRANCH  55  59
ATOM     59  S   UNL A   1      48.165  27.764  24.691  1.00  0.00     0.124 S 
ATOM     60  O   UNL A   1      47.168  28.506  23.924  1.00  0.00    -0.237 OA
ATOM     61  O   UNL A   1      49.557  28.124  24.451  1.00  0.00    -0.237 OA
ATOM     62  O   UNL A   1      47.903  26.331  24.815  1.00  0.00    -0.744 OA
ENDBRANCH  55  59
ENDBRANCH  38  52
BRANCH  39  63
ATOM     63  C   UNL A   1      37.101  32.303  30.428  1.00  0.00     0.023 A 
ATOM     64  C   UNL A   1      36.218  32.893  29.511  1.00  0.00     0.031 A 
ATOM     65  C   UNL A   1      36.696  32.213  31.772  1.00  0.00     0.131 A 
ATOM     66  C   UNL A   1      34.995  33.418  29.958  1.00  0.00     0.055 A 
ATOM     67  C   UNL A   1      35.459  32.694  32.203  1.00  0.00     0.041 A 
ATOM     68  F   UNL A   1      37.504  31.657  32.688  1.00  0.00    -0.206 F 
ATOM     69  C   UNL A   1      34.605  33.314  31.295  1.00  0.00     0.022 A 
BRANCH  66  70
ATOM     70  S   UNL A   1      33.952  34.320  28.778  1.00  0.00     0.124 S 
ATOM     71  O   UNL A   1      33.751  33.321  27.735  1.00  0.00    -0.237 OA
ATOM     72  O   UNL A   1      32.786  34.642  29.593  1.00  0.00    -0.237 OA
ATOM     73  O   UNL A   1      34.779  35.463  28.399  1.00  0.00    -0.744 OA
ENDBRANCH  66  70
ENDBRANCH  39  63
BRANCH  51  74
ATOM     74  C   UNL A   1      43.384  35.293  30.844  1.00  0.00     0.023 A 
ATOM     75  C   UNL A   1      43.457  36.397  29.976  1.00  0.00     0.031 A 
ATOM     76  C   UNL A   1      43.739  35.487  32.192  1.00  0.00     0.131 A 
ATOM     77  C   UNL A   1      43.916  37.634  30.456  1.00  0.00     0.055 A 
ATOM     78  C   UNL A   1      44.145  36.733  32.674  1.00  0.00     0.041 A 
ATOM     79  F   UNL A   1      43.689  34.469  33.065  1.00  0.00    -0.206 F 
ATOM     80  C   UNL A   1      44.245  37.812  31.802  1.00  0.00     0.022 A 
BRANCH  77  81
ATOM     81  S   UNL A   1      44.145  38.997  29.280  1.00  0.00     0.124 S 
ATOM     82  O   UNL A   1      42.867  39.696  29.371  1.00  0.00    -0.237 OA
ATOM     83  O   UNL A   1      45.296  39.701  29.837  1.00  0.00    -0.237 OA
ATOM     84  O   UNL A   1      44.391  38.318  28.009  1.00  0.00    -0.744 OA
ENDBRANCH  77  81
ENDBRANCH  51  74
ENDBRANCH  25  26
ENDBRANCH  18  20
ENDBRANCH  17  18
ENDBRANCH  16  17
ENDBRANCH   1  16
TORSDOF 19
ENDMDL
MODEL 2
REMARK VINA RESULT:      -9.1      4.522     12.407
REMARK SMILES O=C(COCCNc1nncs1)OCCOC(=O)c1ccc(-c2c3nc(c(-c4cc(S(=O)(=O)[O-])ccc4F)c4ccc([nH]4)c(-c4cc(S(=O)(=O)[O-])ccc4F)c4nc(c(-c5cc(S(=O)(=O)[O-])ccc5F)c5ccc2[nH]5)C=C4)C=C3)cc1
REMARK SMILES IDX 14 1 13 2 2 3 1 4 3 5 4 6 5 7 6 8 7 9 8 11 9 12 12 13 10 14
REMARK SMILES IDX 11 15 15 16 16 17 17 18 18 19 19 20 20 21 81 22 21 23 80 24
REMARK SMILES IDX 22 25 23 26 24 27 74 28 25 29 79 30 73 31 75 32 26 33 78 34
REMARK SMILES IDX 72 35 71 36 27 38 59 39 39 40 58 41 40 42 43 43 57 44 76 45
REMARK SMILES IDX 41 46 42 47 56 49 77 50 44 51 28 52 29 53 37 54 30 55 36 56
REMARK SMILES IDX 38 57 35 58 31 59 32 60 33 61 34 62 60 63 61 64 69 65 62 66
REMARK SMILES IDX 68 67 70 68 67 69 63 70 64 71 65 72 66 73 45 74 46 75 54 76
REMARK SMILES IDX 47 77 53 78 55 79 52 80 48 81 49 82 50 83 51 84
REMARK H PARENT 7 10 75 37 43 48
REMARK Flexibility Score: inf
ROOT
ATOM      1  C   UNL A   1      34.702  34.545  28.990  1.00  0.00     0.274 C 
ENDROOT
BRANCH   1   2
ATOM      2  O   UNL A   1      33.676  35.427  28.493  1.00  0.00    -0.460 OA
BRANCH   2   3
ATOM      3  C   UNL A   1      33.209  36.541  29.106  1.00  0.00     0.332 C 
ATOM      4  O   UNL A   1      33.270  37.617  28.514  1.00  0.00    -0.250 OA
BRANCH   3   5
ATOM      5  C   UNL A   1      32.645  36.439  30.531  1.00  0.00     0.282 C 
BRANCH   5   6
ATOM      6  O   UNL A   1      32.882  37.526  31.415  1.00  0.00    -0.368 OA
BRANCH   6   7
ATOM      7  C   UNL A   1      33.729  37.250  32.539  1.00  0.00     0.182 C 
BRANCH   7   8
ATOM      8  C   UNL A   1      34.142  35.773  32.665  1.00  0.00     0.143 C 
BRANCH   8   9
ATOM      9  N   UNL A   1      35.576  35.600  32.563  1.00  0.00    -0.358 N 
ATOM     10  H   UNL A   1      36.065  36.254  32.015  1.00  0.00     0.163 HD
BRANCH   9  11
ATOM     11  C   UNL A   1      36.307  34.625  33.150  1.00  0.00     0.205 A 
ATOM     12  N   UNL A   1      37.608  34.742  33.324  1.00  0.00    -0.121 NA
ATOM     13  S   UNL A   1      35.699  33.103  33.691  1.00  0.00    -0.083 S 
ATOM     14  N   UNL A   1      38.194  33.619  33.867  1.00  0.00    -0.145 NA
ATOM     15  C   UNL A   1      37.311  32.669  34.065  1.00  0.00     0.204 A 
ENDBRANCH   9  11
ENDBRANCH   8   9
ENDBRANCH   7   8
ENDBRANCH   6   7
ENDBRANCH   5   6
ENDBRANCH   3   5
ENDBRANCH   2   3
ENDBRANCH   1   2
BRANCH   1  16
ATOM     16  C   UNL A   1      34.248  33.089  28.941  1.00  0.00     0.275 C 
BRANCH  16  17
ATOM     17  O   UNL A   1      34.718  32.448  27.743  1.00  0.00    -0.458 OA
BRANCH  17  18
ATOM     18  C   UNL A   1      34.658  31.089  27.738  1.00  0.00     0.338 C 
ATOM     19  O   UNL A   1      33.782  30.409  27.234  1.00  0.00    -0.246 OA
BRANCH  18  20
ATOM     20  C   UNL A   1      35.903  30.541  28.326  1.00  0.00     0.060 A 
ATOM     21  C   UNL A   1      37.128  30.949  27.787  1.00  0.00     0.016 A 
ATOM     22  C   UNL A   1      35.877  29.645  29.402  1.00  0.00     0.016 A 
ATOM     23  C   UNL A   1      38.326  30.465  28.323  1.00  0.00     0.010 A 
ATOM     24  C   UNL A   1      37.077  29.158  29.930  1.00  0.00     0.010 A 
ATOM     25  C   UNL A   1      38.310  29.559  29.390  1.00  0.00    -0.014 A 
BRANCH  25  26
ATOM     26  C   UNL A   1      39.569  28.935  29.863  1.00  0.00     0.031 A 
ATOM     27  C   UNL A   1      40.253  29.505  31.072  1.00  0.00     0.074 A 
ATOM     28  C   UNL A   1      40.110  27.885  29.216  1.00  0.00     0.049 A 
ATOM     29  N   UNL A   1      41.374  29.143  31.640  1.00  0.00    -0.248 NA
ATOM     30  C   UNL A   1      39.583  30.642  31.720  1.00  0.00     0.031 C 
ATOM     31  C   UNL A   1      39.533  27.223  28.048  1.00  0.00     0.029 A 
ATOM     32  N   UNL A   1      41.275  27.198  29.448  1.00  0.00    -0.354 N 
ATOM     33  C   UNL A   1      41.535  29.989  32.731  1.00  0.00     0.074 A 
ATOM     34  C   UNL A   1      40.421  30.917  32.709  1.00  0.00     0.031 C 
ATOM     35  C   UNL A   1      40.355  26.236  27.655  1.00  0.00     0.029 A 
ATOM     36  C   UNL A   1      41.530  26.212  28.526  1.00  0.00     0.049 A 
ATOM     37  H   UNL A   1      41.874  27.395  30.205  1.00  0.00     0.167 HD
ATOM     38  C   UNL A   1      42.512  29.989  33.670  1.00  0.00     0.034 A 
ATOM     39  C   UNL A   1      42.598  25.399  28.387  1.00  0.00     0.034 A 
ATOM     40  C   UNL A   1      43.642  29.094  33.660  1.00  0.00     0.049 A 
ATOM     41  C   UNL A   1      43.736  25.495  29.376  1.00  0.00     0.074 A 
ATOM     42  C   UNL A   1      44.684  29.008  34.567  1.00  0.00     0.029 A 
ATOM     43  N   UNL A   1      43.894  28.143  32.680  1.00  0.00    -0.354 N 
ATOM     44  N   UNL A   1      43.860  26.281  30.421  1.00  0.00    -0.248 NA
ATOM     45  C   UNL A   1      44.876  24.592  29.166  1.00  0.00     0.031 C 
ATOM     46  C   UNL A   1      45.599  28.059  34.100  1.00  0.00     0.029 A 
ATOM     47  C   UNL A   1      45.094  27.497  32.938  1.00  0.00     0.049 A 
ATOM     48  H   UNL A   1      43.306  27.955  31.912  1.00  0.00     0.167 HD
ATOM     49  C   UNL A   1      45.074  25.936  31.012  1.00  0.00     0.074 A 
ATOM     50  C   UNL A   1      45.642  24.874  30.210  1.00  0.00     0.031 C 
ATOM     51  C   UNL A   1      45.659  26.445  32.126  1.00  0.00     0.034 A 
BRANCH  38  52
ATOM     52  C   UNL A   1      42.413  31.028  34.756  1.00  0.00     0.023 A 
ATOM     53  C   UNL A   1      42.925  32.326  34.578  1.00  0.00     0.031 A 
ATOM     54  C   UNL A   1      41.840  30.709  35.999  1.00  0.00     0.131 A 
ATOM     55  C   UNL A   1      42.917  33.233  35.647  1.00  0.00     0.055 A 
ATOM     56  C   UNL A   1      41.768  31.640  37.035  1.00  0.00     0.041 A 
ATOM     57  F   UNL A   1      41.357  29.478  36.232  1.00  0.00    -0.206 F 
ATOM     58  C   UNL A   1      42.322  32.907  36.868  1.00  0.00     0.022 A 
BRANCH  55  59
ATOM     59  S   UNL A   1      43.820  34.796  35.466  1.00  0.00     0.124 S 
ATOM     60  O   UNL A   1      45.080  34.489  36.137  1.00  0.00    -0.237 OA
ATOM     61  O   UNL A   1      43.886  34.956  34.019  1.00  0.00    -0.237 OA
ATOM     62  O   UNL A   1      42.973  35.763  36.163  1.00  0.00    -0.744 OA
ENDBRANCH  55  59
ENDBRANCH  38  52
BRANCH  39  63
ATOM     63  C   UNL A   1      42.680  24.445  27.245  1.00  0.00     0.023 A 
ATOM     64  C   UNL A   1      42.161  23.145  27.347  1.00  0.00     0.031 A 
ATOM     65  C   UNL A   1      43.350  24.798  26.060  1.00  0.00     0.131 A 
ATOM     66  C   UNL A   1      42.366  22.227  26.304  1.00  0.00     0.055 A 
ATOM     67  C   UNL A   1      43.510  23.897  25.006  1.00  0.00     0.041 A 
ATOM     68  F   UNL A   1      43.864  26.029  25.912  1.00  0.00    -0.206 F 
ATOM     69  C   UNL A   1      43.028  22.597  25.131  1.00  0.00     0.022 A 
BRANCH  66  70
ATOM     70  S   UNL A   1      41.828  20.511  26.538  1.00  0.00     0.124 S 
ATOM     71  O   UNL A   1      40.457  20.559  26.044  1.00  0.00    -0.237 OA
ATOM     72  O   UNL A   1      42.784  19.781  25.712  1.00  0.00    -0.237 OA
ATOM     73  O   UNL A   1      41.967  20.304  27.977  1.00  0.00    -0.744 OA
ENDBRANCH  66  70
ENDBRANCH  39  63
BRANCH  51  74
ATOM     74  C   UNL A   1      46.961  25.821  32.570  1.00  0.00     0.023 A 
ATOM     75  C   UNL A   1      47.006  24.794  33.530  1.00  0.00     0.031 A 
ATOM     76  C   UNL A   1      48.177  26.264  32.018  1.00  0.00     0.131 A 
ATOM     77  C   UNL A   1      48.244  24.274  33.938  1.00  0.00     0.055 A 
ATOM     78  C   UNL A   1      49.402  25.706  32.390  1.00  0.00     0.041 A 
ATOM     79  F   UNL A   1      48.194  27.243  31.099  1.00  0.00    -0.206 F 
ATOM     80  C   UNL A   1      49.440  24.712  33.363  1.00  0.00     0.022 A 
BRANCH  77  81
ATOM     81  S   UNL A   1      48.280  23.059  35.285  1.00  0.00     0.124 S 
ATOM     82  O   UNL A   1      49.536  23.383  35.955  1.00  0.00    -0.237 OA
ATOM     83  O   UNL A   1      47.064  23.376  36.026  1.00  0.00    -0.237 OA
ATOM     84  O   UNL A   1      48.264  21.773  34.590  1.00  0.00    -0.744 OA
ENDBRANCH  77  81
ENDBRANCH  51  74
ENDBRANCH  25  26
ENDBRANCH  18  20
ENDBRANCH  17  18
ENDBRANCH  16  17
ENDBRANCH   1  16
TORSDOF 19
ENDMDL
MODEL 3
REMARK VINA RESULT:      -9.0      2.395      2.773
REMARK SMILES O=C(COCCNc1nncs1)OCCOC(=O)c1ccc(-c2c3nc(c(-c4cc(S(=O)(=O)[O-])ccc4F)c4ccc([nH]4)c(-c4cc(S(=O)(=O)[O-])ccc4F)c4nc(c(-c5cc(S(=O)(=O)[O-])ccc5F)c5ccc2[nH]5)C=C4)C=C3)cc1
REMARK SMILES IDX 14 1 13 2 2 3 1 4 3 5 4 6 5 7 6 8 7 9 8 11 9 12 12 13 10 14
REMARK SMILES IDX 11 15 15 16 16 17 17 18 18 19 19 20 20 21 81 22 21 23 80 24
REMARK SMILES IDX 22 25 23 26 24 27 74 28 25 29 79 30 73 31 75 32 26 33 78 34
REMARK SMILES IDX 72 35 71 36 27 38 59 39 39 40 58 41 40 42 43 43 57 44 76 45
REMARK SMILES IDX 41 46 42 47 56 49 77 50 44 51 28 52 29 53 37 54 30 55 36 56
REMARK SMILES IDX 38 57 35 58 31 59 32 60 33 61 34 62 60 63 61 64 69 65 62 66
REMARK SMILES IDX 68 67 70 68 67 69 63 70 64 71 65 72 66 73 45 74 46 75 54 76
REMARK SMILES IDX 47 77 53 78 55 79 52 80 48 81 49 82 50 83 51 84
REMARK H PARENT 7 10 75 37 43 48
REMARK Flexibility Score: inf
ROOT
ATOM      1  C   UNL A   1      42.457  18.971  26.773  1.00  0.00     0.274 C 
ENDROOT
BRANCH   1   2
ATOM      2  O   UNL A   1      42.956  19.047  25.422  1.00  0.00    -0.460 OA
BRANCH   2   3
ATOM      3  C   UNL A   1      44.256  19.124  25.051  1.00  0.00     0.332 C 
ATOM      4  O   UNL A   1      44.979  18.140  25.206  1.00  0.00    -0.250 OA
BRANCH   3   5
ATOM      5  C   UNL A   1      44.802  20.438  24.476  1.00  0.00     0.282 C 
BRANCH   5   6
ATOM      6  O   UNL A   1      44.937  21.542  25.360  1.00  0.00    -0.368 OA
BRANCH   6   7
ATOM      7  C   UNL A   1      45.305  22.790  24.759  1.00  0.00     0.182 C 
BRANCH   7   8
ATOM      8  C   UNL A   1      46.378  23.570  25.538  1.00  0.00     0.143 C 
BRANCH   8   9
ATOM      9  N   UNL A   1      46.097  24.989  25.576  1.00  0.00    -0.358 N 
ATOM     10  H   UNL A   1      45.336  25.278  26.128  1.00  0.00     0.163 HD
BRANCH   9  11
ATOM     11  C   UNL A   1      46.782  25.957  24.925  1.00  0.00     0.205 A 
ATOM     12  N   UNL A   1      46.189  27.045  24.476  1.00  0.00    -0.121 NA
ATOM     13  S   UNL A   1      48.462  25.907  24.532  1.00  0.00    -0.083 S 
ATOM     14  N   UNL A   1      47.030  27.880  23.772  1.00  0.00    -0.145 NA
ATOM     15  C   UNL A   1      48.240  27.378  23.689  1.00  0.00     0.204 A 
ENDBRANCH   9  11
ENDBRANCH   8   9
ENDBRANCH   7   8
ENDBRANCH   6   7
ENDBRANCH   5   6
ENDBRANCH   3   5
ENDBRANCH   2   3
ENDBRANCH   1   2
BRANCH   1  16
ATOM     16  C   UNL A   1      41.133  19.719  26.914  1.00  0.00     0.275 C 
BRANCH  16  17
ATOM     17  O   UNL A   1      41.358  21.136  27.021  1.00  0.00    -0.458 OA
BRANCH  17  18
ATOM     18  C   UNL A   1      40.327  21.927  26.620  1.00  0.00     0.338 C 
ATOM     19  O   UNL A   1      39.311  21.557  26.058  1.00  0.00    -0.246 OA
BRANCH  18  20
ATOM     20  C   UNL A   1      40.558  23.312  27.094  1.00  0.00     0.060 A 
ATOM     21  C   UNL A   1      40.001  24.367  26.363  1.00  0.00     0.016 A 
ATOM     22  C   UNL A   1      41.302  23.580  28.250  1.00  0.00     0.016 A 
ATOM     23  C   UNL A   1      40.186  25.687  26.785  1.00  0.00     0.010 A 
ATOM     24  C   UNL A   1      41.490  24.902  28.665  1.00  0.00     0.010 A 
ATOM     25  C   UNL A   1      40.939  25.965  27.932  1.00  0.00    -0.014 A 
BRANCH  25  26
ATOM     26  C   UNL A   1      41.256  27.367  28.299  1.00  0.00     0.031 A 
ATOM     27  C   UNL A   1      42.691  27.812  28.292  1.00  0.00     0.074 A 
ATOM     28  C   UNL A   1      40.285  28.229  28.652  1.00  0.00     0.049 A 
ATOM     29  N   UNL A   1      43.200  28.975  28.609  1.00  0.00    -0.248 NA
ATOM     30  C   UNL A   1      43.680  26.806  27.881  1.00  0.00     0.031 C 
ATOM     31  C   UNL A   1      38.855  27.929  28.675  1.00  0.00     0.029 A 
ATOM     32  N   UNL A   1      40.360  29.534  29.071  1.00  0.00    -0.354 N 
ATOM     33  C   UNL A   1      44.570  28.852  28.409  1.00  0.00     0.074 A 
ATOM     34  C   UNL A   1      44.813  27.484  27.997  1.00  0.00     0.031 C 
ATOM     35  C   UNL A   1      38.188  29.015  29.102  1.00  0.00     0.029 A 
ATOM     36  C   UNL A   1      39.144  30.078  29.410  1.00  0.00     0.049 A 
ATOM     37  H   UNL A   1      41.207  30.035  29.125  1.00  0.00     0.167 HD
ATOM     38  C   UNL A   1      45.536  29.793  28.545  1.00  0.00     0.034 A 
ATOM     39  C   UNL A   1      38.840  31.286  29.929  1.00  0.00     0.034 A 
ATOM     40  C   UNL A   1      45.295  31.139  29.001  1.00  0.00     0.049 A 
ATOM     41  C   UNL A   1      39.947  32.281  30.188  1.00  0.00     0.074 A 
ATOM     42  C   UNL A   1      46.203  32.170  29.169  1.00  0.00     0.029 A 
ATOM     43  N   UNL A   1      44.057  31.638  29.385  1.00  0.00    -0.354 N 
ATOM     44  N   UNL A   1      41.236  32.161  29.966  1.00  0.00    -0.248 NA
ATOM     45  C   UNL A   1      39.556  33.575  30.764  1.00  0.00     0.031 C 
ATOM     46  C   UNL A   1      45.530  33.265  29.720  1.00  0.00     0.029 A 
ATOM     47  C   UNL A   1      44.186  32.946  29.828  1.00  0.00     0.049 A 
ATOM     48  H   UNL A   1      43.211  31.136  29.349  1.00  0.00     0.167 HD
ATOM     49  C   UNL A   1      41.800  33.380  30.341  1.00  0.00     0.074 A 
ATOM     50  C   UNL A   1      40.713  34.218  30.801  1.00  0.00     0.031 C 
ATOM     51  C   UNL A   1      43.098  33.772  30.296  1.00  0.00     0.034 A 
BRANCH  38  52
ATOM     52  C   UNL A   1      46.949  29.367  28.241  1.00  0.00     0.023 A 
ATOM     53  C   UNL A   1      47.742  28.715  29.203  1.00  0.00     0.031 A 
ATOM     54  C   UNL A   1      47.527  29.653  26.993  1.00  0.00     0.131 A 
ATOM     55  C   UNL A   1      49.087  28.434  28.925  1.00  0.00     0.055 A 
ATOM     56  C   UNL A   1      48.845  29.304  26.696  1.00  0.00     0.041 A 
ATOM     57  F   UNL A   1      46.824  30.295  26.046  1.00  0.00    -0.206 F 
ATOM     58  C   UNL A   1      49.638  28.703  27.670  1.00  0.00     0.022 A 
BRANCH  55  59
ATOM     59  S   UNL A   1      50.145  27.838  30.273  1.00  0.00     0.124 S 
ATOM     60  O   UNL A   1      51.131  27.044  29.544  1.00  0.00    -0.237 OA
ATOM     61  O   UNL A   1      50.631  29.078  30.865  1.00  0.00    -0.237 OA
ATOM     62  O   UNL A   1      49.230  27.063  31.109  1.00  0.00    -0.744 OA
ENDBRANCH  55  59
ENDBRANCH  38  52
BRANCH  39  63
ATOM     63  C   UNL A   1      37.434  31.623  30.288  1.00  0.00     0.023 A 
ATOM     64  C   UNL A   1      36.538  32.116  29.326  1.00  0.00     0.031 A 
ATOM     65  C   UNL A   1      36.989  31.530  31.619  1.00  0.00     0.131 A 
ATOM     66  C   UNL A   1      35.260  32.547  29.717  1.00  0.00     0.055 A 
ATOM     67  C   UNL A   1      35.701  31.916  31.995  1.00  0.00     0.041 A 
ATOM     68  F   UNL A   1      37.807  31.065  32.576  1.00  0.00    -0.206 F 
ATOM     69  C   UNL A   1      34.833  32.441  31.043  1.00  0.00     0.022 A 
BRANCH  66  70
ATOM     70  S   UNL A   1      34.189  33.331  28.480  1.00  0.00     0.124 S 
ATOM     71  O   UNL A   1      33.556  32.173  27.859  1.00  0.00    -0.237 OA
ATOM     72  O   UNL A   1      33.329  34.165  29.312  1.00  0.00    -0.237 OA
ATOM     73  O   UNL A   1      35.128  34.060  27.631  1.00  0.00    -0.744 OA
ENDBRANCH  66  70
ENDBRANCH  39  63
BRANCH  51  74
ATOM     74  C   UNL A   1      43.406  35.192  30.711  1.00  0.00     0.023 A 
ATOM     75  C   UNL A   1      43.567  35.556  32.059  1.00  0.00     0.031 A 
ATOM     76  C   UNL A   1      43.544  36.194  29.734  1.00  0.00     0.131 A 
ATOM     77  C   UNL A   1      43.815  36.896  32.395  1.00  0.00     0.055 A 
ATOM     78  C   UNL A   1      43.842  37.516  30.071  1.00  0.00     0.041 A 
ATOM     79  F   UNL A   1      43.400  35.904  28.431  1.00  0.00    -0.206 F 
ATOM     80  C   UNL A   1      43.969  37.875  31.410  1.00  0.00     0.022 A 
BRANCH  77  81
ATOM     81  S   UNL A   1      43.866  37.362  34.148  1.00  0.00     0.124 S 
ATOM     82  O   UNL A   1      43.795  36.064  34.812  1.00  0.00    -0.237 OA
ATOM     83  O   UNL A   1      45.143  38.061  34.250  1.00  0.00    -0.237 OA
ATOM     84  O   UNL A   1      42.684  38.208  34.315  1.00  0.00    -0.744 OA
ENDBRANCH  77  81
ENDBRANCH  51  74
ENDBRANCH  25  26
ENDBRANCH  18  20
ENDBRANCH  17  18
ENDBRANCH  16  17
ENDBRANCH   1  16
TORSDOF 19
ENDMDL
