MODEL 1
REMARK VINA RESULT:     -11.8      0.000      0.000
REMARK SMILES C[C@H](NC(=O)c1ccncc1/C=C/C(=O)OCCOC(=O)c1ccc(-c2c3nc(c(-c4cc(S(=O)(=O)[O-])ccc4F)c4ccc([nH]4)c(-c4cc(S(=O)(=O)[O-])ccc4F)c4nc(c(-c5cc(S(=O)(=O)[O-])ccc5F)c5ccc2[nH]5)C=C4)C=C3)cc1)c1ccco1
REMARK SMILES IDX 17 1 16 2 14 3 15 4 13 5 12 6 11 7 6 8 7 9 8 10 10 11 9 12
REMARK SMILES IDX 4 13 3 14 5 16 2 17 1 18 85 19 86 20 89 21 87 22 88 23 18 24
REMARK SMILES IDX 19 25 20 26 21 27 22 28 23 29 84 30 24 31 83 32 25 33 26 34
REMARK SMILES IDX 27 35 77 36 28 37 82 38 76 39 78 40 29 41 81 42 75 43 74 44
REMARK SMILES IDX 30 46 62 47 42 48 61 49 43 50 46 51 60 52 79 53 44 54 45 55
REMARK SMILES IDX 59 57 80 58 47 59 31 60 32 61 40 62 33 63 39 64 41 65 38 66
REMARK SMILES IDX 34 67 35 68 36 69 37 70 63 71 64 72 72 73 65 74 71 75 73 76
REMARK SMILES IDX 70 77 66 78 67 79 68 80 69 81 48 82 49 83 57 84 50 85 56 86
REMARK SMILES IDX 58 87 55 88 51 89 52 90 53 91 54 92
REMARK H PARENT 3 15 78 45 46 56
REMARK Flexibility Score: inf
ROOT
ATOM      1  C   UNL A   1      35.368  21.456  25.651  1.00  0.00     0.275 C 
ENDROOT
BRANCH   1   2
ATOM      2  O   UNL A   1      35.522  22.820  25.211  1.00  0.00    -0.459 OA
BRANCH   2   3
ATOM      3  C   UNL A   1      34.406  23.392  24.707  1.00  0.00     0.330 C 
ATOM      4  O   UNL A   1      33.752  22.981  23.757  1.00  0.00    -0.247 OA
BRANCH   3   5
ATOM      5  C   UNL A   1      33.977  24.593  25.452  1.00  0.00     0.094 C 
ATOM      6  C   UNL A   1      33.459  25.724  24.943  1.00  0.00     0.018 C 
BRANCH   6   7
ATOM      7  C   UNL A   1      33.114  26.863  25.816  1.00  0.00     0.006 A 
ATOM      8  C   UNL A   1      31.816  27.161  26.254  1.00  0.00     0.050 A 
ATOM      9  C   UNL A   1      31.587  28.195  27.171  1.00  0.00     0.034 A 
ATOM     10  C   UNL A   1      32.654  28.986  27.539  1.00  0.00     0.112 A 
ATOM     11  C   UNL A   1      34.100  27.759  26.230  1.00  0.00     0.119 A 
ATOM     12  N   UNL A   1      33.899  28.806  27.068  1.00  0.00    -0.264 NA
BRANCH   8  13
ATOM     13  C   UNL A   1      30.645  26.414  25.757  1.00  0.00     0.252 C 
ATOM     14  N   UNL A   1      30.086  26.764  24.550  1.00  0.00    -0.342 N 
ATOM     15  H   UNL A   1      29.282  26.259  24.294  1.00  0.00     0.164 HD
ATOM     16  O   UNL A   1      30.179  25.484  26.407  1.00  0.00    -0.269 OA
BRANCH  14  17
ATOM     17  C   UNL A   1      30.520  27.783  23.591  1.00  0.00     0.145 C 
ATOM     18  C   UNL A   1      30.947  27.162  22.262  1.00  0.00     0.039 C 
BRANCH  17  19
ATOM     19  C   UNL A   1      29.432  28.794  23.377  1.00  0.00     0.125 A 
ATOM     20  C   UNL A   1      28.132  28.766  22.906  1.00  0.00     0.048 A 
ATOM     21  O   UNL A   1      29.758  30.078  23.724  1.00  0.00    -0.467 OA
ATOM     22  C   UNL A   1      27.655  30.100  22.948  1.00  0.00     0.042 A 
ATOM     23  C   UNL A   1      28.685  30.859  23.448  1.00  0.00     0.195 A 
ENDBRANCH  17  19
ENDBRANCH  14  17
ENDBRANCH   8  13
ENDBRANCH   6   7
ENDBRANCH   3   5
ENDBRANCH   2   3
ENDBRANCH   1   2
BRANCH   1  24
ATOM     24  C   UNL A   1      36.490  20.559  25.117  1.00  0.00     0.275 C 
BRANCH  24  25
ATOM     25  O   UNL A   1      37.708  21.288  24.878  1.00  0.00    -0.458 OA
BRANCH  25  26
ATOM     26  C   UNL A   1      38.742  20.951  25.689  1.00  0.00     0.338 C 
ATOM     27  O   UNL A   1      39.161  19.827  25.909  1.00  0.00    -0.246 OA
BRANCH  26  28
ATOM     28  C   UNL A   1      39.402  22.168  26.200  1.00  0.00     0.060 A 
ATOM     29  C   UNL A   1      38.775  23.396  25.967  1.00  0.00     0.016 A 
ATOM     30  C   UNL A   1      40.647  22.119  26.832  1.00  0.00     0.016 A 
ATOM     31  C   UNL A   1      39.395  24.582  26.355  1.00  0.00     0.010 A 
ATOM     32  C   UNL A   1      41.268  23.312  27.221  1.00  0.00     0.010 A 
ATOM     33  C   UNL A   1      40.652  24.551  26.974  1.00  0.00    -0.014 A 
BRANCH  33  34
ATOM     34  C   UNL A   1      41.336  25.825  27.316  1.00  0.00     0.031 A 
ATOM     35  C   UNL A   1      40.631  26.851  28.159  1.00  0.00     0.074 A 
ATOM     36  C   UNL A   1      42.594  26.046  26.892  1.00  0.00     0.049 A 
ATOM     37  N   UNL A   1      41.043  28.031  28.547  1.00  0.00    -0.248 NA
ATOM     38  C   UNL A   1      39.282  26.499  28.624  1.00  0.00     0.031 C 
ATOM     39  C   UNL A   1      43.392  25.110  26.101  1.00  0.00     0.029 A 
ATOM     40  N   UNL A   1      43.423  27.125  27.069  1.00  0.00    -0.354 N 
ATOM     41  C   UNL A   1      40.002  28.570  29.296  1.00  0.00     0.074 A 
ATOM     42  C   UNL A   1      38.927  27.598  29.275  1.00  0.00     0.031 C 
ATOM     43  C   UNL A   1      44.598  25.651  25.869  1.00  0.00     0.029 A 
ATOM     44  C   UNL A   1      44.646  26.989  26.454  1.00  0.00     0.049 A 
ATOM     45  H   UNL A   1      43.168  27.922  27.589  1.00  0.00     0.167 HD
ATOM     46  C   UNL A   1      39.951  29.761  29.945  1.00  0.00     0.034 A 
ATOM     47  C   UNL A   1      45.676  27.852  26.353  1.00  0.00     0.034 A 
ATOM     48  C   UNL A   1      41.029  30.722  29.948  1.00  0.00     0.049 A 
ATOM     49  C   UNL A   1      45.562  29.206  27.010  1.00  0.00     0.074 A 
ATOM     50  C   UNL A   1      41.093  31.946  30.593  1.00  0.00     0.029 A 
ATOM     51  N   UNL A   1      42.229  30.577  29.262  1.00  0.00    -0.354 N 
ATOM     52  N   UNL A   1      44.576  29.699  27.724  1.00  0.00    -0.248 NA
ATOM     53  C   UNL A   1      46.702  30.117  26.847  1.00  0.00     0.031 C 
ATOM     54  C   UNL A   1      42.296  32.569  30.239  1.00  0.00     0.029 A 
ATOM     55  C   UNL A   1      43.020  31.704  29.435  1.00  0.00     0.049 A 
ATOM     56  H   UNL A   1      42.482  29.788  28.730  1.00  0.00     0.167 HD
ATOM     57  C   UNL A   1      44.991  30.968  28.120  1.00  0.00     0.074 A 
ATOM     58  C   UNL A   1      46.321  31.156  27.575  1.00  0.00     0.031 C 
ATOM     59  C   UNL A   1      44.337  31.889  28.872  1.00  0.00     0.034 A 
BRANCH  46  60
ATOM     60  C   UNL A   1      38.661  30.110  30.652  1.00  0.00     0.023 A 
ATOM     61  C   UNL A   1      37.634  30.827  30.014  1.00  0.00     0.031 A 
ATOM     62  C   UNL A   1      38.474  29.750  31.998  1.00  0.00     0.131 A 
ATOM     63  C   UNL A   1      36.502  31.226  30.742  1.00  0.00     0.055 A 
ATOM     64  C   UNL A   1      37.310  30.080  32.694  1.00  0.00     0.041 A 
ATOM     65  F   UNL A   1      39.427  29.083  32.666  1.00  0.00    -0.206 F 
ATOM     66  C   UNL A   1      36.322  30.837  32.071  1.00  0.00     0.022 A 
BRANCH  63  67
ATOM     67  S   UNL A   1      35.340  32.388  29.973  1.00  0.00     0.124 S 
ATOM     68  O   UNL A   1      36.224  33.488  29.599  1.00  0.00    -0.237 OA
ATOM     69  O   UNL A   1      34.792  31.604  28.872  1.00  0.00    -0.237 OA
ATOM     70  O   UNL A   1      34.398  32.694  31.050  1.00  0.00    -0.744 OA
ENDBRANCH  63  67
ENDBRANCH  46  60
BRANCH  47  71
ATOM     71  C   UNL A   1      46.892  27.489  25.572  1.00  0.00     0.023 A 
ATOM     72  C   UNL A   1      47.024  27.853  24.222  1.00  0.00     0.031 A 
ATOM     73  C   UNL A   1      47.921  26.725  26.152  1.00  0.00     0.131 A 
ATOM     74  C   UNL A   1      48.138  27.419  23.487  1.00  0.00     0.055 A 
ATOM     75  C   UNL A   1      49.052  26.342  25.431  1.00  0.00     0.041 A 
ATOM     76  F   UNL A   1      47.843  26.347  27.438  1.00  0.00    -0.206 F 
ATOM     77  C   UNL A   1      49.159  26.678  24.086  1.00  0.00     0.022 A 
BRANCH  74  78
ATOM     78  S   UNL A   1      48.194  27.770  21.707  1.00  0.00     0.124 S 
ATOM     79  O   UNL A   1      48.354  26.433  21.146  1.00  0.00    -0.237 OA
ATOM     80  O   UNL A   1      46.904  28.412  21.483  1.00  0.00    -0.237 OA
ATOM     81  O   UNL A   1      49.356  28.647  21.571  1.00  0.00    -0.744 OA
ENDBRANCH  74  78
ENDBRANCH  47  71
BRANCH  59  82
ATOM     82  C   UNL A   1      45.078  33.169  29.181  1.00  0.00     0.023 A 
ATOM     83  C   UNL A   1      44.977  34.303  28.357  1.00  0.00     0.031 A 
ATOM     84  C   UNL A   1      45.915  33.244  30.310  1.00  0.00     0.131 A 
ATOM     85  C   UNL A   1      45.742  35.445  28.643  1.00  0.00     0.055 A 
ATOM     86  C   UNL A   1      46.628  34.402  30.620  1.00  0.00     0.041 A 
ATOM     87  F   UNL A   1      46.052  32.190  31.131  1.00  0.00    -0.206 F 
ATOM     88  C   UNL A   1      46.555  35.507  29.777  1.00  0.00     0.022 A 
BRANCH  85  89
ATOM     89  S   UNL A   1      45.730  36.822  27.460  1.00  0.00     0.124 S 
ATOM     90  O   UNL A   1      46.482  36.265  26.339  1.00  0.00    -0.237 OA
ATOM     91  O   UNL A   1      44.304  37.027  27.232  1.00  0.00    -0.237 OA
ATOM     92  O   UNL A   1      46.403  37.900  28.183  1.00  0.00    -0.744 OA
ENDBRANCH  85  89
ENDBRANCH  59  82
ENDBRANCH  33  34
ENDBRANCH  26  28
ENDBRANCH  25  26
ENDBRANCH  24  25
ENDBRANCH   1  24
TORSDOF 18
ENDMDL
MODEL 2
REMARK VINA RESULT:     -11.6      4.827     10.231
REMARK SMILES C[C@H](NC(=O)c1ccncc1/C=C/C(=O)OCCOC(=O)c1ccc(-c2c3nc(c(-c4cc(S(=O)(=O)[O-])ccc4F)c4ccc([nH]4)c(-c4cc(S(=O)(=O)[O-])ccc4F)c4nc(c(-c5cc(S(=O)(=O)[O-])ccc5F)c5ccc2[nH]5)C=C4)C=C3)cc1)c1ccco1
REMARK SMILES IDX 17 1 16 2 14 3 15 4 13 5 12 6 11 7 6 8 7 9 8 10 10 11 9 12
REMARK SMILES IDX 4 13 3 14 5 16 2 17 1 18 85 19 86 20 89 21 87 22 88 23 18 24
REMARK SMILES IDX 19 25 20 26 21 27 22 28 23 29 84 30 24 31 83 32 25 33 26 34
REMARK SMILES IDX 27 35 77 36 28 37 82 38 76 39 78 40 29 41 81 42 75 43 74 44
REMARK SMILES IDX 30 46 62 47 42 48 61 49 43 50 46 51 60 52 79 53 44 54 45 55
REMARK SMILES IDX 59 57 80 58 47 59 31 60 32 61 40 62 33 63 39 64 41 65 38 66
REMARK SMILES IDX 34 67 35 68 36 69 37 70 63 71 64 72 72 73 65 74 71 75 73 76
REMARK SMILES IDX 70 77 66 78 67 79 68 80 69 81 48 82 49 83 57 84 50 85 56 86
REMARK SMILES IDX 58 87 55 88 51 89 52 90 53 91 54 92
REMARK H PARENT 3 15 78 45 46 56
REMARK Flexibility Score: inf
ROOT
ATOM      1  C   UNL A   1      31.483  28.370  25.419  1.00  0.00     0.275 C 
ENDROOT
BRANCH   1   2
ATOM      2  O   UNL A   1      32.581  27.438  25.405  1.00  0.00    -0.459 OA
BRANCH   2   3
ATOM      3  C   UNL A   1      32.367  26.284  26.076  1.00  0.00     0.330 C 
ATOM      4  O   UNL A   1      31.384  26.018  26.755  1.00  0.00    -0.247 OA
BRANCH   3   5
ATOM      5  C   UNL A   1      33.440  25.289  25.885  1.00  0.00     0.094 C 
ATOM      6  C   UNL A   1      34.431  25.325  24.977  1.00  0.00     0.018 C 
BRANCH   6   7
ATOM      7  C   UNL A   1      35.414  24.228  24.879  1.00  0.00     0.006 A 
ATOM      8  C   UNL A   1      35.318  23.155  23.982  1.00  0.00     0.050 A 
ATOM      9  C   UNL A   1      36.350  22.214  23.875  1.00  0.00     0.034 A 
ATOM     10  C   UNL A   1      37.405  22.302  24.757  1.00  0.00     0.112 A 
ATOM     11  C   UNL A   1      36.511  24.184  25.741  1.00  0.00     0.119 A 
ATOM     12  N   UNL A   1      37.494  23.251  25.703  1.00  0.00    -0.264 NA
BRANCH   8  13
ATOM     13  C   UNL A   1      34.127  22.967  23.132  1.00  0.00     0.252 C 
ATOM     14  N   UNL A   1      33.077  22.214  23.603  1.00  0.00    -0.342 N 
ATOM     15  H   UNL A   1      32.331  22.088  22.974  1.00  0.00     0.164 HD
ATOM     16  O   UNL A   1      34.069  23.482  22.020  1.00  0.00    -0.269 OA
BRANCH  14  17
ATOM     17  C   UNL A   1      32.910  21.575  24.911  1.00  0.00     0.145 C 
ATOM     18  C   UNL A   1      31.518  21.822  25.487  1.00  0.00     0.039 C 
BRANCH  17  19
ATOM     19  C   UNL A   1      33.188  20.104  24.810  1.00  0.00     0.125 A 
ATOM     20  C   UNL A   1      34.302  19.320  24.574  1.00  0.00     0.048 A 
ATOM     21  O   UNL A   1      32.098  19.295  24.991  1.00  0.00    -0.467 OA
ATOM     22  C   UNL A   1      33.863  17.972  24.592  1.00  0.00     0.042 A 
ATOM     23  C   UNL A   1      32.514  18.013  24.844  1.00  0.00     0.195 A 
ENDBRANCH  17  19
ENDBRANCH  14  17
ENDBRANCH   8  13
ENDBRANCH   6   7
ENDBRANCH   3   5
ENDBRANCH   2   3
ENDBRANCH   1   2
BRANCH   1  24
ATOM     24  C   UNL A   1      31.726  29.518  26.405  1.00  0.00     0.275 C 
BRANCH  24  25
ATOM     25  O   UNL A   1      32.917  30.264  26.095  1.00  0.00    -0.458 OA
BRANCH  25  26
ATOM     26  C   UNL A   1      33.218  31.251  26.975  1.00  0.00     0.338 C 
ATOM     27  O   UNL A   1      32.514  32.201  27.273  1.00  0.00    -0.246 OA
BRANCH  26  28
ATOM     28  C   UNL A   1      34.500  30.961  27.644  1.00  0.00     0.060 A 
ATOM     29  C   UNL A   1      34.765  29.633  27.996  1.00  0.00     0.016 A 
ATOM     30  C   UNL A   1      35.396  31.976  27.990  1.00  0.00     0.016 A 
ATOM     31  C   UNL A   1      35.923  29.316  28.703  1.00  0.00     0.010 A 
ATOM     32  C   UNL A   1      36.558  31.654  28.701  1.00  0.00     0.010 A 
ATOM     33  C   UNL A   1      36.823  30.325  29.072  1.00  0.00    -0.014 A 
BRANCH  33  34
ATOM     34  C   UNL A   1      38.016  29.983  29.890  1.00  0.00     0.031 A 
ATOM     35  C   UNL A   1      39.051  29.038  29.348  1.00  0.00     0.074 A 
ATOM     36  C   UNL A   1      38.179  30.542  31.104  1.00  0.00     0.049 A 
ATOM     37  N   UNL A   1      40.146  28.595  29.911  1.00  0.00    -0.248 NA
ATOM     38  C   UNL A   1      38.816  28.521  27.992  1.00  0.00     0.031 C 
ATOM     39  C   UNL A   1      37.262  31.502  31.718  1.00  0.00     0.029 A 
ATOM     40  N   UNL A   1      39.175  30.388  32.035  1.00  0.00    -0.354 N 
ATOM     41  C   UNL A   1      40.732  27.740  28.983  1.00  0.00     0.074 A 
ATOM     42  C   UNL A   1      39.847  27.702  27.836  1.00  0.00     0.031 C 
ATOM     43  C   UNL A   1      37.743  31.858  32.920  1.00  0.00     0.029 A 
ATOM     44  C   UNL A   1      38.975  31.119  33.183  1.00  0.00     0.049 A 
ATOM     45  H   UNL A   1      39.959  29.808  31.896  1.00  0.00     0.167 HD
ATOM     46  C   UNL A   1      41.901  27.057  29.077  1.00  0.00     0.034 A 
ATOM     47  C   UNL A   1      39.692  31.170  34.324  1.00  0.00     0.034 A 
ATOM     48  C   UNL A   1      42.767  27.100  30.232  1.00  0.00     0.049 A 
ATOM     49  C   UNL A   1      40.942  30.334  34.439  1.00  0.00     0.074 A 
ATOM     50  C   UNL A   1      43.985  26.470  30.424  1.00  0.00     0.029 A 
ATOM     51  N   UNL A   1      42.502  27.803  31.402  1.00  0.00    -0.354 N 
ATOM     52  N   UNL A   1      41.491  29.537  33.550  1.00  0.00    -0.248 NA
ATOM     53  C   UNL A   1      41.671  30.407  35.712  1.00  0.00     0.031 C 
ATOM     54  C   UNL A   1      44.418  26.731  31.729  1.00  0.00     0.029 A 
ATOM     55  C   UNL A   1      43.512  27.589  32.329  1.00  0.00     0.049 A 
ATOM     56  H   UNL A   1      41.712  28.372  31.551  1.00  0.00     0.167 HD
ATOM     57  C   UNL A   1      42.645  29.038  34.148  1.00  0.00     0.074 A 
ATOM     58  C   UNL A   1      42.718  29.634  35.467  1.00  0.00     0.031 C 
ATOM     59  C   UNL A   1      43.565  28.173  33.650  1.00  0.00     0.034 A 
BRANCH  46  60
ATOM     60  C   UNL A   1      42.274  26.159  27.920  1.00  0.00     0.023 A 
ATOM     61  C   UNL A   1      41.799  24.839  27.820  1.00  0.00     0.031 A 
ATOM     62  C   UNL A   1      43.148  26.621  26.921  1.00  0.00     0.131 A 
ATOM     63  C   UNL A   1      42.260  24.005  26.790  1.00  0.00     0.055 A 
ATOM     64  C   UNL A   1      43.540  25.811  25.853  1.00  0.00     0.041 A 
ATOM     65  F   UNL A   1      43.651  27.864  26.973  1.00  0.00    -0.206 F 
ATOM     66  C   UNL A   1      43.109  24.490  25.791  1.00  0.00     0.022 A 
BRANCH  63  67
ATOM     67  S   UNL A   1      41.856  22.238  26.856  1.00  0.00     0.124 S 
ATOM     68  O   UNL A   1      42.597  21.808  28.039  1.00  0.00    -0.237 OA
ATOM     69  O   UNL A   1      40.403  22.250  26.980  1.00  0.00    -0.237 OA
ATOM     70  O   UNL A   1      42.370  21.721  25.587  1.00  0.00    -0.744 OA
ENDBRANCH  63  67
ENDBRANCH  46  60
BRANCH  47  71
ATOM     71  C   UNL A   1      39.233  32.009  35.467  1.00  0.00     0.023 A 
ATOM     72  C   UNL A   1      38.541  31.445  36.550  1.00  0.00     0.031 A 
ATOM     73  C   UNL A   1      39.436  33.401  35.467  1.00  0.00     0.131 A 
ATOM     74  C   UNL A   1      38.041  32.272  37.568  1.00  0.00     0.055 A 
ATOM     75  C   UNL A   1      38.984  34.213  36.508  1.00  0.00     0.041 A 
ATOM     76  F   UNL A   1      40.089  33.992  34.454  1.00  0.00    -0.206 F 
ATOM     77  C   UNL A   1      38.270  33.650  37.561  1.00  0.00     0.022 A 
BRANCH  74  78
ATOM     78  S   UNL A   1      37.013  31.530  38.865  1.00  0.00     0.124 S 
ATOM     79  O   UNL A   1      37.863  31.679  40.041  1.00  0.00    -0.237 OA
ATOM     80  O   UNL A   1      35.819  32.368  38.824  1.00  0.00    -0.237 OA
ATOM     81  O   UNL A   1      36.823  30.155  38.403  1.00  0.00    -0.744 OA
ENDBRANCH  74  78
ENDBRANCH  47  71
BRANCH  59  82
ATOM     82  C   UNL A   1      44.752  27.857  34.529  1.00  0.00     0.023 A 
ATOM     83  C   UNL A   1      45.913  28.649  34.521  1.00  0.00     0.031 A 
ATOM     84  C   UNL A   1      44.725  26.732  35.372  1.00  0.00     0.131 A 
ATOM     85  C   UNL A   1      47.020  28.276  35.299  1.00  0.00     0.055 A 
ATOM     86  C   UNL A   1      45.808  26.397  36.186  1.00  0.00     0.041 A 
ATOM     87  F   UNL A   1      43.644  25.937  35.418  1.00  0.00    -0.206 F 
ATOM     88  C   UNL A   1      46.970  27.163  36.143  1.00  0.00     0.022 A 
BRANCH  85  89
ATOM     89  S   UNL A   1      48.565  29.212  35.126  1.00  0.00     0.124 S 
ATOM     90  O   UNL A   1      48.499  30.120  36.267  1.00  0.00    -0.237 OA
ATOM     91  O   UNL A   1      49.577  28.164  35.204  1.00  0.00    -0.237 OA
ATOM     92  O   UNL A   1      48.435  29.851  33.817  1.00  0.00    -0.744 OA
ENDBRANCH  85  89
ENDBRANCH  59  82
ENDBRANCH  33  34
ENDBRANCH  26  28
ENDBRANCH  25  26
ENDBRANCH  24  25
ENDBRANCH   1  24
TORSDOF 18
ENDMDL
MODEL 3
REMARK VINA RESULT:     -11.6      1.114      7.552
REMARK SMILES C[C@H](NC(=O)c1ccncc1/C=C/C(=O)OCCOC(=O)c1ccc(-c2c3nc(c(-c4cc(S(=O)(=O)[O-])ccc4F)c4ccc([nH]4)c(-c4cc(S(=O)(=O)[O-])ccc4F)c4nc(c(-c5cc(S(=O)(=O)[O-])ccc5F)c5ccc2[nH]5)C=C4)C=C3)cc1)c1ccco1
REMARK SMILES IDX 17 1 16 2 14 3 15 4 13 5 12 6 11 7 6 8 7 9 8 10 10 11 9 12
REMARK SMILES IDX 4 13 3 14 5 16 2 17 1 18 85 19 86 20 89 21 87 22 88 23 18 24
REMARK SMILES IDX 19 25 20 26 21 27 22 28 23 29 84 30 24 31 83 32 25 33 26 34
REMARK SMILES IDX 27 35 77 36 28 37 82 38 76 39 78 40 29 41 81 42 75 43 74 44
REMARK SMILES IDX 30 46 62 47 42 48 61 49 43 50 46 51 60 52 79 53 44 54 45 55
REMARK SMILES IDX 59 57 80 58 47 59 31 60 32 61 40 62 33 63 39 64 41 65 38 66
REMARK SMILES IDX 34 67 35 68 36 69 37 70 63 71 64 72 72 73 65 74 71 75 73 76
REMARK SMILES IDX 70 77 66 78 67 79 68 80 69 81 48 82 49 83 57 84 50 85 56 86
REMARK SMILES IDX 58 87 55 88 51 89 52 90 53 91 54 92
REMARK H PARENT 3 15 78 45 46 56
REMARK Flexibility Score: inf
ROOT
ATOM      1  C   UNL A   1      36.683  22.217  24.057  1.00  0.00     0.275 C 
ENDROOT
BRANCH   1   2
ATOM      2  O   UNL A   1      35.955  23.038  24.991  1.00  0.00    -0.459 OA
BRANCH   2   3
ATOM      3  C   UNL A   1      34.673  23.299  24.651  1.00  0.00     0.330 C 
ATOM      4  O   UNL A   1      33.989  22.652  23.869  1.00  0.00    -0.247 OA
BRANCH   3   5
ATOM      5  C   UNL A   1      34.105  24.461  25.363  1.00  0.00     0.094 C 
ATOM      6  C   UNL A   1      33.657  25.607  24.822  1.00  0.00     0.018 C 
BRANCH   6   7
ATOM      7  C   UNL A   1      33.151  26.703  25.672  1.00  0.00     0.006 A 
ATOM      8  C   UNL A   1      31.803  26.886  26.011  1.00  0.00     0.050 A 
ATOM      9  C   UNL A   1      31.418  27.886  26.913  1.00  0.00     0.034 A 
ATOM     10  C   UNL A   1      32.383  28.760  27.366  1.00  0.00     0.112 A 
ATOM     11  C   UNL A   1      34.023  27.674  26.166  1.00  0.00     0.119 A 
ATOM     12  N   UNL A   1      33.671  28.690  26.992  1.00  0.00    -0.264 NA
BRANCH   8  13
ATOM     13  C   UNL A   1      30.741  26.049  25.421  1.00  0.00     0.252 C 
ATOM     14  N   UNL A   1      30.296  26.324  24.149  1.00  0.00    -0.342 N 
ATOM     15  H   UNL A   1      29.557  25.759  23.829  1.00  0.00     0.164 HD
ATOM     16  O   UNL A   1      30.265  25.112  26.054  1.00  0.00    -0.269 OA
BRANCH  14  17
ATOM     17  C   UNL A   1      30.768  27.338  23.203  1.00  0.00     0.145 C 
ATOM     18  C   UNL A   1      31.382  26.704  21.956  1.00  0.00     0.039 C 
BRANCH  17  19
ATOM     19  C   UNL A   1      29.647  28.263  22.829  1.00  0.00     0.125 A 
ATOM     20  C   UNL A   1      28.303  28.364  23.136  1.00  0.00     0.048 A 
ATOM     21  O   UNL A   1      29.993  29.277  21.977  1.00  0.00    -0.467 OA
ATOM     22  C   UNL A   1      27.805  29.480  22.417  1.00  0.00     0.042 A 
ATOM     23  C   UNL A   1      28.873  29.997  21.725  1.00  0.00     0.195 A 
ENDBRANCH  17  19
ENDBRANCH  14  17
ENDBRANCH   8  13
ENDBRANCH   6   7
ENDBRANCH   3   5
ENDBRANCH   2   3
ENDBRANCH   1   2
BRANCH   1  24
ATOM     24  C   UNL A   1      37.498  21.133  24.771  1.00  0.00     0.275 C 
BRANCH  24  25
ATOM     25  O   UNL A   1      37.899  21.533  26.095  1.00  0.00    -0.458 OA
BRANCH  25  26
ATOM     26  C   UNL A   1      39.236  21.491  26.323  1.00  0.00     0.338 C 
ATOM     27  O   UNL A   1      39.992  20.570  26.064  1.00  0.00    -0.246 OA
BRANCH  26  28
ATOM     28  C   UNL A   1      39.704  22.794  26.832  1.00  0.00     0.060 A 
ATOM     29  C   UNL A   1      39.150  23.950  26.272  1.00  0.00     0.016 A 
ATOM     30  C   UNL A   1      40.719  22.889  27.787  1.00  0.00     0.016 A 
ATOM     31  C   UNL A   1      39.615  25.205  26.658  1.00  0.00     0.010 A 
ATOM     32  C   UNL A   1      41.186  24.152  28.173  1.00  0.00     0.010 A 
ATOM     33  C   UNL A   1      40.645  25.317  27.602  1.00  0.00    -0.014 A 
BRANCH  33  34
ATOM     34  C   UNL A   1      41.183  26.658  27.949  1.00  0.00     0.031 A 
ATOM     35  C   UNL A   1      42.598  27.014  27.588  1.00  0.00     0.074 A 
ATOM     36  C   UNL A   1      40.394  27.559  28.563  1.00  0.00     0.049 A 
ATOM     37  N   UNL A   1      43.261  28.118  27.823  1.00  0.00    -0.248 NA
ATOM     38  C   UNL A   1      43.367  25.988  26.870  1.00  0.00     0.031 C 
ATOM     39  C   UNL A   1      38.994  27.340  28.928  1.00  0.00     0.029 A 
ATOM     40  N   UNL A   1      40.653  28.839  28.983  1.00  0.00    -0.354 N 
ATOM     41  C   UNL A   1      44.530  27.919  27.288  1.00  0.00     0.074 A 
ATOM     42  C   UNL A   1      44.550  26.574  26.750  1.00  0.00     0.031 C 
ATOM     43  C   UNL A   1      38.516  28.452  29.510  1.00  0.00     0.029 A 
ATOM     44  C   UNL A   1      39.584  29.445  29.601  1.00  0.00     0.049 A 
ATOM     45  H   UNL A   1      41.522  29.283  28.855  1.00  0.00     0.167 HD
ATOM     46  C   UNL A   1      45.578  28.782  27.245  1.00  0.00     0.034 A 
ATOM     47  C   UNL A   1      39.483  30.652  30.193  1.00  0.00     0.034 A 
ATOM     48  C   UNL A   1      45.543  30.117  27.794  1.00  0.00     0.049 A 
ATOM     49  C   UNL A   1      40.688  31.560  30.209  1.00  0.00     0.074 A 
ATOM     50  C   UNL A   1      46.536  31.083  27.782  1.00  0.00     0.029 A 
ATOM     51  N   UNL A   1      44.462  30.675  28.468  1.00  0.00    -0.354 N 
ATOM     52  N   UNL A   1      41.879  31.364  29.691  1.00  0.00    -0.248 NA
ATOM     53  C   UNL A   1      40.533  32.852  30.889  1.00  0.00     0.031 C 
ATOM     54  C   UNL A   1      46.084  32.191  28.509  1.00  0.00     0.029 A 
ATOM     55  C   UNL A   1      44.780  31.952  28.909  1.00  0.00     0.049 A 
ATOM     56  H   UNL A   1      43.597  30.229  28.611  1.00  0.00     0.167 HD
ATOM     57  C   UNL A   1      42.604  32.523  29.959  1.00  0.00     0.074 A 
ATOM     58  C   UNL A   1      41.712  33.414  30.671  1.00  0.00     0.031 C 
ATOM     59  C   UNL A   1      43.888  32.825  29.637  1.00  0.00     0.034 A 
BRANCH  46  60
ATOM     60  C   UNL A   1      46.865  28.278  26.635  1.00  0.00     0.023 A 
ATOM     61  C   UNL A   1      47.081  28.282  25.246  1.00  0.00     0.031 A 
ATOM     62  C   UNL A   1      47.878  27.752  27.457  1.00  0.00     0.131 A 
ATOM     63  C   UNL A   1      48.244  27.701  24.716  1.00  0.00     0.055 A 
ATOM     64  C   UNL A   1      49.068  27.249  26.928  1.00  0.00     0.041 A 
ATOM     65  F   UNL A   1      47.721  27.702  28.788  1.00  0.00    -0.206 F 
ATOM     66  C   UNL A   1      49.251  27.207  25.549  1.00  0.00     0.022 A 
BRANCH  63  67
ATOM     67  S   UNL A   1      48.357  27.464  22.921  1.00  0.00     0.124 S 
ATOM     68  O   UNL A   1      47.186  28.199  22.451  1.00  0.00    -0.237 OA
ATOM     69  O   UNL A   1      49.652  28.054  22.605  1.00  0.00    -0.237 OA
ATOM     70  O   UNL A   1      48.277  26.012  22.761  1.00  0.00    -0.744 OA
ENDBRANCH  63  67
ENDBRANCH  46  60
BRANCH  47  71
ATOM     71  C   UNL A   1      38.213  31.065  30.854  1.00  0.00     0.023 A 
ATOM     72  C   UNL A   1      37.212  31.745  30.142  1.00  0.00     0.031 A 
ATOM     73  C   UNL A   1      38.003  30.830  32.225  1.00  0.00     0.131 A 
ATOM     74  C   UNL A   1      36.066  32.202  30.811  1.00  0.00     0.055 A 
ATOM     75  C   UNL A   1      36.838  31.240  32.874  1.00  0.00     0.041 A 
ATOM     76  F   UNL A   1      38.931  30.188  32.953  1.00  0.00    -0.206 F 
ATOM     77  C   UNL A   1      35.867  31.943  32.169  1.00  0.00     0.022 A 
BRANCH  74  78
ATOM     78  S   UNL A   1      34.872  33.217  29.896  1.00  0.00     0.124 S 
ATOM     79  O   UNL A   1      34.260  32.232  29.012  1.00  0.00    -0.237 OA
ATOM     80  O   UNL A   1      34.028  33.733  30.968  1.00  0.00    -0.237 OA
ATOM     81  O   UNL A   1      35.712  34.214  29.233  1.00  0.00    -0.744 OA
ENDBRANCH  74  78
ENDBRANCH  47  71
BRANCH  59  82
ATOM     82  C   UNL A   1      44.383  34.200  30.021  1.00  0.00     0.023 A 
ATOM     83  C   UNL A   1      44.200  35.315  29.185  1.00  0.00     0.031 A 
ATOM     84  C   UNL A   1      45.066  34.389  31.236  1.00  0.00     0.131 A 
ATOM     85  C   UNL A   1      44.741  36.558  29.549  1.00  0.00     0.055 A 
ATOM     86  C   UNL A   1      45.553  35.640  31.618  1.00  0.00     0.041 A 
ATOM     87  F   UNL A   1      45.273  33.359  32.072  1.00  0.00    -0.206 F 
ATOM     88  C   UNL A   1      45.403  36.731  30.767  1.00  0.00     0.022 A 
BRANCH  85  89
ATOM     89  S   UNL A   1      44.649  37.931  28.365  1.00  0.00     0.124 S 
ATOM     90  O   UNL A   1      44.097  37.276  27.183  1.00  0.00    -0.237 OA
ATOM     91  O   UNL A   1      43.763  38.871  29.045  1.00  0.00    -0.237 OA
ATOM     92  O   UNL A   1      46.038  38.370  28.239  1.00  0.00    -0.744 OA
ENDBRANCH  85  89
ENDBRANCH  59  82
ENDBRANCH  33  34
ENDBRANCH  26  28
ENDBRANCH  25  26
ENDBRANCH  24  25
ENDBRANCH   1  24
TORSDOF 18
ENDMDL
