MODEL 1
REMARK VINA RESULT:     -12.3      0.000      0.000
REMARK SMILES O=C(Cc1ccc(NC(=O)c2ccc(N3C(=O)c4ccccc4C3=O)cc2)cc1)OCCOC(=O)c1ccc(-c2c3nc(c(-c4cc(S(=O)(=O)[O-])ccc4F)c4ccc([nH]4)c(-c4cc(S(=O)(=O)[O-])ccc4F)c4nc(c(-c5cc(S(=O)(=O)[O-])ccc5F)c5ccc2[nH]5)C=C4)C=C3)cc1
REMARK SMILES IDX 31 1 30 2 2 3 1 4 3 5 4 6 5 7 29 8 6 9 28 10 7 11 8 12 9 13
REMARK SMILES IDX 10 15 11 16 12 17 27 18 13 19 26 20 14 21 15 22 16 23 24 24
REMARK SMILES IDX 17 25 18 26 23 27 25 28 19 29 22 30 20 31 21 32 32 33 33 34
REMARK SMILES IDX 34 35 35 36 36 37 37 38 98 39 38 40 97 41 39 42 40 43 41 44
REMARK SMILES IDX 91 45 42 46 96 47 90 48 92 49 43 50 95 51 89 52 88 53 44 55
REMARK SMILES IDX 76 56 56 57 75 58 57 59 60 60 74 61 93 62 58 63 59 64 73 66
REMARK SMILES IDX 94 67 61 68 45 69 46 70 54 71 47 72 53 73 55 74 52 75 48 76
REMARK SMILES IDX 49 77 50 78 51 79 77 80 78 81 86 82 79 83 85 84 87 85 84 86
REMARK SMILES IDX 80 87 81 88 82 89 83 90 62 91 63 92 71 93 64 94 70 95 72 96
REMARK SMILES IDX 69 97 65 98 66 99 67 100 68 101
REMARK H PARENT 8 14 92 54 60 65
REMARK Flexibility Score: inf
ROOT
ATOM      1  C   UNL A   1      33.102  30.764  27.344  1.00  0.00     0.274 C 
ENDROOT
BRANCH   1   2
ATOM      2  O   UNL A   1      32.734  30.423  25.994  1.00  0.00    -0.462 OA
BRANCH   2   3
ATOM      3  C   UNL A   1      33.250  29.371  25.305  1.00  0.00     0.310 C 
ATOM      4  O   UNL A   1      34.179  28.723  25.784  1.00  0.00    -0.252 OA
BRANCH   3   5
ATOM      5  C   UNL A   1      32.759  29.100  23.899  1.00  0.00     0.158 C 
BRANCH   5   6
ATOM      6  C   UNL A   1      32.455  27.666  23.571  1.00  0.00    -0.037 A 
ATOM      7  C   UNL A   1      33.094  27.074  22.486  1.00  0.00     0.006 A 
ATOM      8  C   UNL A   1      31.558  26.897  24.315  1.00  0.00     0.006 A 
ATOM      9  C   UNL A   1      32.767  25.788  22.085  1.00  0.00     0.026 A 
ATOM     10  C   UNL A   1      31.329  25.552  23.976  1.00  0.00     0.026 A 
ATOM     11  C   UNL A   1      31.950  24.976  22.861  1.00  0.00     0.041 A 
BRANCH  11  12
ATOM     12  N   UNL A   1      31.712  23.613  22.588  1.00  0.00    -0.322 N 
ATOM     13  C   UNL A   1      32.493  22.483  22.757  1.00  0.00     0.255 C 
ATOM     14  H   UNL A   1      30.823  23.431  22.206  1.00  0.00     0.170 HD
ATOM     15  O   UNL A   1      32.142  21.405  22.280  1.00  0.00    -0.269 OA
BRANCH  13  16
ATOM     16  C   UNL A   1      33.765  22.532  23.507  1.00  0.00     0.040 A 
ATOM     17  C   UNL A   1      33.831  21.924  24.760  1.00  0.00     0.016 A 
ATOM     18  C   UNL A   1      34.919  23.063  22.934  1.00  0.00     0.016 A 
ATOM     19  C   UNL A   1      35.077  21.738  25.381  1.00  0.00     0.028 A 
ATOM     20  C   UNL A   1      36.161  22.859  23.558  1.00  0.00     0.028 A 
ATOM     21  C   UNL A   1      36.276  22.156  24.772  1.00  0.00     0.052 A 
BRANCH  21  22
ATOM     22  N   UNL A   1      37.556  21.854  25.346  1.00  0.00    -0.242 N 
ATOM     23  C   UNL A   1      38.189  20.629  25.269  1.00  0.00     0.266 C 
ATOM     24  C   UNL A   1      38.320  22.732  26.098  1.00  0.00     0.266 C 
ATOM     25  O   UNL A   1      37.856  19.565  24.775  1.00  0.00    -0.268 OA
ATOM     26  C   UNL A   1      39.467  20.752  25.958  1.00  0.00     0.053 A 
ATOM     27  C   UNL A   1      39.547  22.027  26.466  1.00  0.00     0.053 A 
ATOM     28  O   UNL A   1      38.127  23.871  26.469  1.00  0.00    -0.268 OA
ATOM     29  C   UNL A   1      40.483  19.829  26.128  1.00  0.00     0.015 A 
ATOM     30  C   UNL A   1      40.649  22.458  27.182  1.00  0.00     0.015 A 
ATOM     31  C   UNL A   1      41.614  20.243  26.839  1.00  0.00     0.001 A 
ATOM     32  C   UNL A   1      41.695  21.548  27.364  1.00  0.00     0.001 A 
ENDBRANCH  21  22
ENDBRANCH  13  16
ENDBRANCH  11  12
ENDBRANCH   5   6
ENDBRANCH   3   5
ENDBRANCH   2   3
ENDBRANCH   1   2
BRANCH   1  33
ATOM     33  C   UNL A   1      33.733  32.154  27.477  1.00  0.00     0.275 C 
BRANCH  33  34
ATOM     34  O   UNL A   1      32.801  33.121  27.983  1.00  0.00    -0.458 OA
BRANCH  34  35
ATOM     35  C   UNL A   1      33.380  34.205  28.568  1.00  0.00     0.338 C 
ATOM     36  O   UNL A   1      32.975  35.353  28.529  1.00  0.00    -0.246 OA
BRANCH  35  37
ATOM     37  C   UNL A   1      34.477  33.748  29.449  1.00  0.00     0.060 A 
ATOM     38  C   UNL A   1      35.773  34.193  29.159  1.00  0.00     0.016 A 
ATOM     39  C   UNL A   1      34.239  32.934  30.560  1.00  0.00     0.016 A 
ATOM     40  C   UNL A   1      36.841  33.806  29.971  1.00  0.00     0.010 A 
ATOM     41  C   UNL A   1      35.313  32.538  31.365  1.00  0.00     0.010 A 
ATOM     42  C   UNL A   1      36.620  32.953  31.061  1.00  0.00    -0.014 A 
BRANCH  42  43
ATOM     43  C   UNL A   1      37.777  32.362  31.779  1.00  0.00     0.031 A 
ATOM     44  C   UNL A   1      38.508  31.215  31.135  1.00  0.00     0.074 A 
ATOM     45  C   UNL A   1      38.183  32.839  32.970  1.00  0.00     0.049 A 
ATOM     46  N   UNL A   1      39.540  30.538  31.568  1.00  0.00    -0.248 NA
ATOM     47  C   UNL A   1      38.000  30.775  29.827  1.00  0.00     0.031 C 
ATOM     48  C   UNL A   1      37.576  33.961  33.683  1.00  0.00     0.029 A 
ATOM     49  N   UNL A   1      39.204  32.430  33.792  1.00  0.00    -0.354 N 
ATOM     50  C   UNL A   1      39.816  29.601  30.580  1.00  0.00     0.074 A 
ATOM     51  C   UNL A   1      38.810  29.765  29.550  1.00  0.00     0.031 C 
ATOM     52  C   UNL A   1      38.234  34.148  34.841  1.00  0.00     0.029 A 
ATOM     53  C   UNL A   1      39.290  33.142  34.965  1.00  0.00     0.049 A 
ATOM     54  H   UNL A   1      39.818  31.695  33.563  1.00  0.00     0.167 HD
ATOM     55  C   UNL A   1      40.825  28.696  30.524  1.00  0.00     0.034 A 
ATOM     56  C   UNL A   1      40.114  32.989  36.022  1.00  0.00     0.034 A 
ATOM     57  C   UNL A   1      41.802  28.516  31.567  1.00  0.00     0.049 A 
ATOM     58  C   UNL A   1      41.165  31.902  35.986  1.00  0.00     0.074 A 
ATOM     59  C   UNL A   1      42.865  27.630  31.610  1.00  0.00     0.029 A 
ATOM     60  N   UNL A   1      41.826  29.220  32.765  1.00  0.00    -0.354 N 
ATOM     61  N   UNL A   1      41.435  31.040  35.032  1.00  0.00    -0.248 NA
ATOM     62  C   UNL A   1      42.029  31.773  37.169  1.00  0.00     0.031 C 
ATOM     63  C   UNL A   1      43.485  27.749  32.859  1.00  0.00     0.029 A 
ATOM     64  C   UNL A   1      42.861  28.764  33.566  1.00  0.00     0.049 A 
ATOM     65  H   UNL A   1      41.199  29.939  33.008  1.00  0.00     0.167 HD
ATOM     66  C   UNL A   1      42.524  30.298  35.485  1.00  0.00     0.074 A 
ATOM     67  C   UNL A   1      42.864  30.816  36.794  1.00  0.00     0.031 C 
ATOM     68  C   UNL A   1      43.190  29.284  34.873  1.00  0.00     0.034 A 
BRANCH  55  69
ATOM     69  C   UNL A   1      40.880  27.806  29.308  1.00  0.00     0.023 A 
ATOM     70  C   UNL A   1      41.785  28.049  28.259  1.00  0.00     0.031 A 
ATOM     71  C   UNL A   1      39.988  26.728  29.173  1.00  0.00     0.131 A 
ATOM     72  C   UNL A   1      41.730  27.272  27.093  1.00  0.00     0.055 A 
ATOM     73  C   UNL A   1      39.992  25.908  28.043  1.00  0.00     0.041 A 
ATOM     74  F   UNL A   1      39.085  26.464  30.129  1.00  0.00    -0.206 F 
ATOM     75  C   UNL A   1      40.856  26.187  26.988  1.00  0.00     0.022 A 
BRANCH  72  76
ATOM     76  S   UNL A   1      42.711  27.791  25.658  1.00  0.00     0.124 S 
ATOM     77  O   UNL A   1      42.100  29.077  25.334  1.00  0.00    -0.237 OA
ATOM     78  O   UNL A   1      44.063  27.844  26.203  1.00  0.00    -0.237 OA
ATOM     79  O   UNL A   1      42.472  26.732  24.679  1.00  0.00    -0.744 OA
ENDBRANCH  72  76
ENDBRANCH  55  69
BRANCH  56  80
ATOM     80  C   UNL A   1      39.976  33.855  37.228  1.00  0.00     0.023 A 
ATOM     81  C   UNL A   1      40.823  34.956  37.434  1.00  0.00     0.031 A 
ATOM     82  C   UNL A   1      39.044  33.543  38.236  1.00  0.00     0.131 A 
ATOM     83  C   UNL A   1      40.759  35.673  38.639  1.00  0.00     0.055 A 
ATOM     84  C   UNL A   1      38.949  34.293  39.409  1.00  0.00     0.041 A 
ATOM     85  F   UNL A   1      38.213  32.499  38.092  1.00  0.00    -0.206 F 
ATOM     86  C   UNL A   1      39.820  35.356  39.623  1.00  0.00     0.022 A 
BRANCH  83  87
ATOM     87  S   UNL A   1      41.990  36.971  38.944  1.00  0.00     0.124 S 
ATOM     88  O   UNL A   1      42.553  37.163  37.613  1.00  0.00    -0.237 OA
ATOM     89  O   UNL A   1      41.162  38.057  39.456  1.00  0.00    -0.237 OA
ATOM     90  O   UNL A   1      42.889  36.363  39.923  1.00  0.00    -0.744 OA
ENDBRANCH  83  87
ENDBRANCH  56  80
BRANCH  68  91
ATOM     91  C   UNL A   1      44.388  28.708  35.589  1.00  0.00     0.023 A 
ATOM     92  C   UNL A   1      44.262  27.704  36.565  1.00  0.00     0.031 A 
ATOM     93  C   UNL A   1      45.681  29.174  35.285  1.00  0.00     0.131 A 
ATOM     94  C   UNL A   1      45.403  27.232  37.235  1.00  0.00     0.055 A 
ATOM     95  C   UNL A   1      46.816  28.661  35.913  1.00  0.00     0.041 A 
ATOM     96  F   UNL A   1      45.861  30.132  34.362  1.00  0.00    -0.206 F 
ATOM     97  C   UNL A   1      46.680  27.693  36.904  1.00  0.00     0.022 A 
BRANCH  94  98
ATOM     98  S   UNL A   1      45.190  26.064  38.607  1.00  0.00     0.124 S 
ATOM     99  O   UNL A   1      45.251  24.776  37.922  1.00  0.00    -0.237 OA
ATOM    100  O   UNL A   1      46.325  26.383  39.467  1.00  0.00    -0.237 OA
ATOM    101  O   UNL A   1      43.881  26.413  39.156  1.00  0.00    -0.744 OA
ENDBRANCH  94  98
ENDBRANCH  68  91
ENDBRANCH  42  43
ENDBRANCH  35  37
ENDBRANCH  34  35
ENDBRANCH  33  34
ENDBRANCH   1  33
TORSDOF 18
ENDMDL
MODEL 2
REMARK VINA RESULT:     -12.2      1.755      2.045
REMARK SMILES O=C(Cc1ccc(NC(=O)c2ccc(N3C(=O)c4ccccc4C3=O)cc2)cc1)OCCOC(=O)c1ccc(-c2c3nc(c(-c4cc(S(=O)(=O)[O-])ccc4F)c4ccc([nH]4)c(-c4cc(S(=O)(=O)[O-])ccc4F)c4nc(c(-c5cc(S(=O)(=O)[O-])ccc5F)c5ccc2[nH]5)C=C4)C=C3)cc1
REMARK SMILES IDX 31 1 30 2 2 3 1 4 3 5 4 6 5 7 29 8 6 9 28 10 7 11 8 12 9 13
REMARK SMILES IDX 10 15 11 16 12 17 27 18 13 19 26 20 14 21 15 22 16 23 24 24
REMARK SMILES IDX 17 25 18 26 23 27 25 28 19 29 22 30 20 31 21 32 32 33 33 34
REMARK SMILES IDX 34 35 35 36 36 37 37 38 98 39 38 40 97 41 39 42 40 43 41 44
REMARK SMILES IDX 91 45 42 46 96 47 90 48 92 49 43 50 95 51 89 52 88 53 44 55
REMARK SMILES IDX 76 56 56 57 75 58 57 59 60 60 74 61 93 62 58 63 59 64 73 66
REMARK SMILES IDX 94 67 61 68 45 69 46 70 54 71 47 72 53 73 55 74 52 75 48 76
REMARK SMILES IDX 49 77 50 78 51 79 77 80 78 81 86 82 79 83 85 84 87 85 84 86
REMARK SMILES IDX 80 87 81 88 82 89 83 90 62 91 63 92 71 93 64 94 70 95 72 96
REMARK SMILES IDX 69 97 65 98 66 99 67 100 68 101
REMARK H PARENT 8 14 92 54 60 65
REMARK Flexibility Score: inf
ROOT
ATOM      1  C   UNL A   1      32.909  30.861  27.288  1.00  0.00     0.274 C 
ENDROOT
BRANCH   1   2
ATOM      2  O   UNL A   1      32.504  30.422  25.977  1.00  0.00    -0.462 OA
BRANCH   2   3
ATOM      3  C   UNL A   1      33.059  29.370  25.319  1.00  0.00     0.310 C 
ATOM      4  O   UNL A   1      33.979  28.741  25.839  1.00  0.00    -0.252 OA
BRANCH   3   5
ATOM      5  C   UNL A   1      32.621  29.075  23.900  1.00  0.00     0.158 C 
BRANCH   5   6
ATOM      6  C   UNL A   1      32.344  27.634  23.581  1.00  0.00    -0.037 A 
ATOM      7  C   UNL A   1      32.987  27.051  22.493  1.00  0.00     0.006 A 
ATOM      8  C   UNL A   1      31.469  26.850  24.334  1.00  0.00     0.006 A 
ATOM      9  C   UNL A   1      32.683  25.757  22.100  1.00  0.00     0.026 A 
ATOM     10  C   UNL A   1      31.265  25.499  24.003  1.00  0.00     0.026 A 
ATOM     11  C   UNL A   1      31.889  24.932  22.886  1.00  0.00     0.041 A 
BRANCH  11  12
ATOM     12  N   UNL A   1      31.677  23.562  22.620  1.00  0.00    -0.322 N 
ATOM     13  C   UNL A   1      32.486  22.450  22.780  1.00  0.00     0.255 C 
ATOM     14  H   UNL A   1      30.787  23.360  22.252  1.00  0.00     0.170 HD
ATOM     15  O   UNL A   1      32.150  21.363  22.311  1.00  0.00    -0.269 OA
BRANCH  13  16
ATOM     16  C   UNL A   1      33.767  22.530  23.510  1.00  0.00     0.040 A 
ATOM     17  C   UNL A   1      33.832  22.033  24.811  1.00  0.00     0.016 A 
ATOM     18  C   UNL A   1      34.928  22.976  22.881  1.00  0.00     0.016 A 
ATOM     19  C   UNL A   1      35.080  21.868  25.433  1.00  0.00     0.028 A 
ATOM     20  C   UNL A   1      36.171  22.793  23.508  1.00  0.00     0.028 A 
ATOM     21  C   UNL A   1      36.283  22.196  24.778  1.00  0.00     0.052 A 
BRANCH  21  22
ATOM     22  N   UNL A   1      37.561  21.910  25.363  1.00  0.00    -0.242 N 
ATOM     23  C   UNL A   1      38.211  20.694  25.290  1.00  0.00     0.266 C 
ATOM     24  C   UNL A   1      38.306  22.797  26.124  1.00  0.00     0.266 C 
ATOM     25  O   UNL A   1      37.897  19.627  24.791  1.00  0.00    -0.268 OA
ATOM     26  C   UNL A   1      39.481  20.832  25.991  1.00  0.00     0.053 A 
ATOM     27  C   UNL A   1      39.539  22.107  26.503  1.00  0.00     0.053 A 
ATOM     28  O   UNL A   1      38.095  23.932  26.496  1.00  0.00    -0.268 OA
ATOM     29  C   UNL A   1      40.507  19.923  26.169  1.00  0.00     0.015 A 
ATOM     30  C   UNL A   1      40.629  22.552  27.230  1.00  0.00     0.015 A 
ATOM     31  C   UNL A   1      41.626  20.350  26.892  1.00  0.00     0.001 A 
ATOM     32  C   UNL A   1      41.685  21.655  27.420  1.00  0.00     0.001 A 
ENDBRANCH  21  22
ENDBRANCH  13  16
ENDBRANCH  11  12
ENDBRANCH   5   6
ENDBRANCH   3   5
ENDBRANCH   2   3
ENDBRANCH   1   2
BRANCH   1  33
ATOM     33  C   UNL A   1      33.486  32.281  27.310  1.00  0.00     0.275 C 
BRANCH  33  34
ATOM     34  O   UNL A   1      32.591  33.214  27.931  1.00  0.00    -0.458 OA
BRANCH  34  35
ATOM     35  C   UNL A   1      33.202  34.309  28.462  1.00  0.00     0.338 C 
ATOM     36  O   UNL A   1      32.823  35.464  28.376  1.00  0.00    -0.246 OA
BRANCH  35  37
ATOM     37  C   UNL A   1      34.298  33.865  29.350  1.00  0.00     0.060 A 
ATOM     38  C   UNL A   1      35.607  34.214  28.992  1.00  0.00     0.016 A 
ATOM     39  C   UNL A   1      34.051  33.158  30.530  1.00  0.00     0.016 A 
ATOM     40  C   UNL A   1      36.676  33.835  29.806  1.00  0.00     0.010 A 
ATOM     41  C   UNL A   1      35.125  32.770  31.337  1.00  0.00     0.010 A 
ATOM     42  C   UNL A   1      36.443  33.087  30.968  1.00  0.00    -0.014 A 
BRANCH  42  43
ATOM     43  C   UNL A   1      37.587  32.493  31.704  1.00  0.00     0.031 A 
ATOM     44  C   UNL A   1      38.320  31.339  31.075  1.00  0.00     0.074 A 
ATOM     45  C   UNL A   1      37.980  32.974  32.897  1.00  0.00     0.049 A 
ATOM     46  N   UNL A   1      39.343  30.659  31.524  1.00  0.00    -0.248 NA
ATOM     47  C   UNL A   1      37.826  30.896  29.762  1.00  0.00     0.031 C 
ATOM     48  C   UNL A   1      37.371  34.104  33.596  1.00  0.00     0.029 A 
ATOM     49  N   UNL A   1      38.989  32.564  33.734  1.00  0.00    -0.354 N 
ATOM     50  C   UNL A   1      39.626  29.715  30.544  1.00  0.00     0.074 A 
ATOM     51  C   UNL A   1      38.634  29.879  29.501  1.00  0.00     0.031 C 
ATOM     52  C   UNL A   1      38.015  34.292  34.762  1.00  0.00     0.029 A 
ATOM     53  C   UNL A   1      39.064  33.281  34.905  1.00  0.00     0.049 A 
ATOM     54  H   UNL A   1      39.602  31.824  33.517  1.00  0.00     0.167 HD
ATOM     55  C   UNL A   1      40.631  28.805  30.505  1.00  0.00     0.034 A 
ATOM     56  C   UNL A   1      39.875  33.130  35.972  1.00  0.00     0.034 A 
ATOM     57  C   UNL A   1      41.594  28.625  31.562  1.00  0.00     0.049 A 
ATOM     58  C   UNL A   1      40.920  32.036  35.955  1.00  0.00     0.074 A 
ATOM     59  C   UNL A   1      42.652  27.734  31.622  1.00  0.00     0.029 A 
ATOM     60  N   UNL A   1      41.607  29.335  32.756  1.00  0.00    -0.354 N 
ATOM     61  N   UNL A   1      41.197  31.168  35.008  1.00  0.00    -0.248 NA
ATOM     62  C   UNL A   1      41.768  31.910  37.149  1.00  0.00     0.031 C 
ATOM     63  C   UNL A   1      43.257  27.856  32.878  1.00  0.00     0.029 A 
ATOM     64  C   UNL A   1      42.629  28.878  33.572  1.00  0.00     0.049 A 
ATOM     65  H   UNL A   1      40.980  30.059  32.988  1.00  0.00     0.167 HD
ATOM     66  C   UNL A   1      42.276  30.423  35.479  1.00  0.00     0.074 A 
ATOM     67  C   UNL A   1      42.603  30.946  36.789  1.00  0.00     0.031 C 
ATOM     68  C   UNL A   1      42.944  29.403  34.880  1.00  0.00     0.034 A 
BRANCH  55  69
ATOM     69  C   UNL A   1      40.697  27.909  29.294  1.00  0.00     0.023 A 
ATOM     70  C   UNL A   1      41.603  28.152  28.247  1.00  0.00     0.031 A 
ATOM     71  C   UNL A   1      39.813  26.823  29.162  1.00  0.00     0.131 A 
ATOM     72  C   UNL A   1      41.558  27.368  27.086  1.00  0.00     0.055 A 
ATOM     73  C   UNL A   1      39.826  25.997  28.037  1.00  0.00     0.041 A 
ATOM     74  F   UNL A   1      38.908  26.559  30.117  1.00  0.00    -0.206 F 
ATOM     75  C   UNL A   1      40.692  26.276  26.983  1.00  0.00     0.022 A 
BRANCH  72  76
ATOM     76  S   UNL A   1      42.539  27.886  25.651  1.00  0.00     0.124 S 
ATOM     77  O   UNL A   1      43.868  28.031  26.241  1.00  0.00    -0.237 OA
ATOM     78  O   UNL A   1      42.367  26.767  24.731  1.00  0.00    -0.237 OA
ATOM     79  O   UNL A   1      41.909  29.138  25.238  1.00  0.00    -0.744 OA
ENDBRANCH  72  76
ENDBRANCH  55  69
BRANCH  56  80
ATOM     80  C   UNL A   1      39.726  34.002  37.172  1.00  0.00     0.023 A 
ATOM     81  C   UNL A   1      39.098  33.534  38.338  1.00  0.00     0.031 A 
ATOM     82  C   UNL A   1      40.138  35.347  37.141  1.00  0.00     0.131 A 
ATOM     83  C   UNL A   1      38.851  34.415  39.402  1.00  0.00     0.055 A 
ATOM     84  C   UNL A   1      39.938  36.205  38.224  1.00  0.00     0.041 A 
ATOM     85  F   UNL A   1      40.739  35.847  36.050  1.00  0.00    -0.206 F 
ATOM     86  C   UNL A   1      39.278  35.744  39.358  1.00  0.00     0.022 A 
BRANCH  83  87
ATOM     87  S   UNL A   1      37.878  33.822  40.814  1.00  0.00     0.124 S 
ATOM     88  O   UNL A   1      36.815  33.078  40.149  1.00  0.00    -0.237 OA
ATOM     89  O   UNL A   1      38.858  33.028  41.545  1.00  0.00    -0.237 OA
ATOM     90  O   UNL A   1      37.458  35.054  41.479  1.00  0.00    -0.744 OA
ENDBRANCH  83  87
ENDBRANCH  56  80
BRANCH  68  91
ATOM     91  C   UNL A   1      44.130  28.824  35.615  1.00  0.00     0.023 A 
ATOM     92  C   UNL A   1      45.439  29.291  35.403  1.00  0.00     0.031 A 
ATOM     93  C   UNL A   1      43.942  27.786  36.546  1.00  0.00     0.131 A 
ATOM     94  C   UNL A   1      46.514  28.689  36.077  1.00  0.00     0.055 A 
ATOM     95  C   UNL A   1      45.008  27.230  37.256  1.00  0.00     0.041 A 
ATOM     96  F   UNL A   1      42.714  27.299  36.788  1.00  0.00    -0.206 F 
ATOM     97  C   UNL A   1      46.305  27.673  37.013  1.00  0.00     0.022 A 
BRANCH  94  98
ATOM     98  S   UNL A   1      48.205  29.195  35.654  1.00  0.00     0.124 S 
ATOM     99  O   UNL A   1      49.002  28.396  36.580  1.00  0.00    -0.237 OA
ATOM    100  O   UNL A   1      48.299  28.822  34.246  1.00  0.00    -0.237 OA
ATOM    101  O   UNL A   1      48.208  30.633  35.915  1.00  0.00    -0.744 OA
ENDBRANCH  94  98
ENDBRANCH  68  91
ENDBRANCH  42  43
ENDBRANCH  35  37
ENDBRANCH  34  35
ENDBRANCH  33  34
ENDBRANCH   1  33
TORSDOF 18
ENDMDL
MODEL 3
REMARK VINA RESULT:     -12.2      4.856      9.180
REMARK SMILES O=C(Cc1ccc(NC(=O)c2ccc(N3C(=O)c4ccccc4C3=O)cc2)cc1)OCCOC(=O)c1ccc(-c2c3nc(c(-c4cc(S(=O)(=O)[O-])ccc4F)c4ccc([nH]4)c(-c4cc(S(=O)(=O)[O-])ccc4F)c4nc(c(-c5cc(S(=O)(=O)[O-])ccc5F)c5ccc2[nH]5)C=C4)C=C3)cc1
REMARK SMILES IDX 31 1 30 2 2 3 1 4 3 5 4 6 5 7 29 8 6 9 28 10 7 11 8 12 9 13
REMARK SMILES IDX 10 15 11 16 12 17 27 18 13 19 26 20 14 21 15 22 16 23 24 24
REMARK SMILES IDX 17 25 18 26 23 27 25 28 19 29 22 30 20 31 21 32 32 33 33 34
REMARK SMILES IDX 34 35 35 36 36 37 37 38 98 39 38 40 97 41 39 42 40 43 41 44
REMARK SMILES IDX 91 45 42 46 96 47 90 48 92 49 43 50 95 51 89 52 88 53 44 55
REMARK SMILES IDX 76 56 56 57 75 58 57 59 60 60 74 61 93 62 58 63 59 64 73 66
REMARK SMILES IDX 94 67 61 68 45 69 46 70 54 71 47 72 53 73 55 74 52 75 48 76
REMARK SMILES IDX 49 77 50 78 51 79 77 80 78 81 86 82 79 83 85 84 87 85 84 86
REMARK SMILES IDX 80 87 81 88 82 89 83 90 62 91 63 92 71 93 64 94 70 95 72 96
REMARK SMILES IDX 69 97 65 98 66 99 67 100 68 101
REMARK H PARENT 8 14 92 54 60 65
REMARK Flexibility Score: inf
ROOT
ATOM      1  C   UNL A   1      37.878  21.653  25.363  1.00  0.00     0.274 C 
ENDROOT
BRANCH   1   2
ATOM      2  O   UNL A   1      36.522  21.342  25.735  1.00  0.00    -0.462 OA
BRANCH   2   3
ATOM      3  C   UNL A   1      35.451  22.125  25.438  1.00  0.00     0.310 C 
ATOM      4  O   UNL A   1      35.311  23.208  26.003  1.00  0.00    -0.252 OA
BRANCH   3   5
ATOM      5  C   UNL A   1      34.379  21.587  24.515  1.00  0.00     0.158 C 
BRANCH   5   6
ATOM      6  C   UNL A   1      33.173  22.460  24.323  1.00  0.00    -0.037 A 
ATOM      7  C   UNL A   1      33.119  23.298  23.214  1.00  0.00     0.006 A 
ATOM      8  C   UNL A   1      32.096  22.464  25.212  1.00  0.00     0.006 A 
ATOM      9  C   UNL A   1      32.074  24.196  23.053  1.00  0.00     0.026 A 
ATOM     10  C   UNL A   1      30.982  23.285  24.971  1.00  0.00     0.026 A 
ATOM     11  C   UNL A   1      30.953  24.151  23.871  1.00  0.00     0.041 A 
BRANCH  11  12
ATOM     12  N   UNL A   1      29.794  24.928  23.657  1.00  0.00    -0.322 N 
ATOM     13  C   UNL A   1      29.468  26.224  24.018  1.00  0.00     0.255 C 
ATOM     14  H   UNL A   1      29.087  24.462  23.157  1.00  0.00     0.170 HD
ATOM     15  O   UNL A   1      28.319  26.640  23.875  1.00  0.00    -0.269 OA
BRANCH  13  16
ATOM     16  C   UNL A   1      30.477  27.143  24.582  1.00  0.00     0.040 A 
ATOM     17  C   UNL A   1      30.807  28.298  23.875  1.00  0.00     0.016 A 
ATOM     18  C   UNL A   1      31.007  26.936  25.856  1.00  0.00     0.016 A 
ATOM     19  C   UNL A   1      31.567  29.303  24.495  1.00  0.00     0.028 A 
ATOM     20  C   UNL A   1      31.755  27.954  26.469  1.00  0.00     0.028 A 
ATOM     21  C   UNL A   1      32.016  29.178  25.824  1.00  0.00     0.052 A 
BRANCH  21  22
ATOM     22  N   UNL A   1      32.683  30.254  26.498  1.00  0.00    -0.242 N 
ATOM     23  C   UNL A   1      33.973  30.203  26.987  1.00  0.00     0.266 C 
ATOM     24  C   UNL A   1      32.114  31.482  26.797  1.00  0.00     0.266 C 
ATOM     25  O   UNL A   1      34.806  29.312  27.011  1.00  0.00    -0.268 OA
ATOM     26  C   UNL A   1      34.271  31.503  27.576  1.00  0.00     0.053 A 
ATOM     27  C   UNL A   1      33.141  32.280  27.466  1.00  0.00     0.053 A 
ATOM     28  O   UNL A   1      31.002  31.932  26.619  1.00  0.00    -0.268 OA
ATOM     29  C   UNL A   1      35.432  31.975  28.160  1.00  0.00     0.015 A 
ATOM     30  C   UNL A   1      33.102  33.580  27.938  1.00  0.00     0.015 A 
ATOM     31  C   UNL A   1      35.423  33.290  28.636  1.00  0.00     0.001 A 
ATOM     32  C   UNL A   1      34.266  34.085  28.527  1.00  0.00     0.001 A 
ENDBRANCH  21  22
ENDBRANCH  13  16
ENDBRANCH  11  12
ENDBRANCH   5   6
ENDBRANCH   3   5
ENDBRANCH   2   3
ENDBRANCH   1   2
BRANCH   1  33
ATOM     33  C   UNL A   1      38.881  20.551  25.720  1.00  0.00     0.275 C 
BRANCH  33  34
ATOM     34  O   UNL A   1      40.202  21.072  25.926  1.00  0.00    -0.458 OA
BRANCH  34  35
ATOM     35  C   UNL A   1      40.583  21.135  27.231  1.00  0.00     0.338 C 
ATOM     36  O   UNL A   1      40.734  20.192  27.989  1.00  0.00    -0.246 OA
BRANCH  35  37
ATOM     37  C   UNL A   1      40.997  22.519  27.546  1.00  0.00     0.060 A 
ATOM     38  C   UNL A   1      40.414  23.557  26.808  1.00  0.00     0.016 A 
ATOM     39  C   UNL A   1      41.907  22.802  28.569  1.00  0.00     0.016 A 
ATOM     40  C   UNL A   1      40.757  24.883  27.078  1.00  0.00     0.010 A 
ATOM     41  C   UNL A   1      42.257  24.131  28.830  1.00  0.00     0.010 A 
ATOM     42  C   UNL A   1      41.702  25.175  28.071  1.00  0.00    -0.014 A 
BRANCH  42  43
ATOM     43  C   UNL A   1      42.232  26.555  28.200  1.00  0.00     0.031 A 
ATOM     44  C   UNL A   1      43.564  26.871  27.574  1.00  0.00     0.074 A 
ATOM     45  C   UNL A   1      41.544  27.515  28.844  1.00  0.00     0.049 A 
ATOM     46  N   UNL A   1      44.229  27.997  27.555  1.00  0.00    -0.248 NA
ATOM     47  C   UNL A   1      44.232  25.761  26.877  1.00  0.00     0.031 C 
ATOM     48  C   UNL A   1      40.233  27.342  29.467  1.00  0.00     0.029 A 
ATOM     49  N   UNL A   1      41.860  28.830  29.084  1.00  0.00    -0.354 N 
ATOM     50  C   UNL A   1      45.388  27.737  26.834  1.00  0.00     0.074 A 
ATOM     51  C   UNL A   1      45.357  26.334  26.477  1.00  0.00     0.031 C 
ATOM     52  C   UNL A   1      39.860  28.507  30.025  1.00  0.00     0.029 A 
ATOM     53  C   UNL A   1      40.915  29.501  29.823  1.00  0.00     0.049 A 
ATOM     54  H   UNL A   1      42.687  29.253  28.757  1.00  0.00     0.167 HD
ATOM     55  C   UNL A   1      46.381  28.592  26.484  1.00  0.00     0.034 A 
ATOM     56  C   UNL A   1      40.910  30.765  30.294  1.00  0.00     0.034 A 
ATOM     57  C   UNL A   1      46.421  29.980  26.871  1.00  0.00     0.049 A 
ATOM     58  C   UNL A   1      42.080  31.673  29.983  1.00  0.00     0.074 A 
ATOM     59  C   UNL A   1      47.379  30.932  26.569  1.00  0.00     0.029 A 
ATOM     60  N   UNL A   1      45.471  30.612  27.664  1.00  0.00    -0.354 N 
ATOM     61  N   UNL A   1      43.158  31.423  29.274  1.00  0.00    -0.248 NA
ATOM     62  C   UNL A   1      42.027  33.036  30.530  1.00  0.00     0.031 C 
ATOM     63  C   UNL A   1      47.047  32.116  27.236  1.00  0.00     0.029 A 
ATOM     64  C   UNL A   1      45.840  31.929  27.890  1.00  0.00     0.049 A 
ATOM     65  H   UNL A   1      44.655  30.186  28.014  1.00  0.00     0.167 HD
ATOM     66  C   UNL A   1      43.887  32.611  29.259  1.00  0.00     0.074 A 
ATOM     67  C   UNL A   1      43.125  33.576  30.023  1.00  0.00     0.031 C 
ATOM     68  C   UNL A   1      45.075  32.883  28.660  1.00  0.00     0.034 A 
BRANCH  55  69
ATOM     69  C   UNL A   1      47.522  28.023  25.679  1.00  0.00     0.023 A 
ATOM     70  C   UNL A   1      47.608  28.212  24.289  1.00  0.00     0.031 A 
ATOM     71  C   UNL A   1      48.514  27.245  26.302  1.00  0.00     0.131 A 
ATOM     72  C   UNL A   1      48.618  27.573  23.556  1.00  0.00     0.055 A 
ATOM     73  C   UNL A   1      49.563  26.676  25.578  1.00  0.00     0.041 A 
ATOM     74  F   UNL A   1      48.469  27.010  27.622  1.00  0.00    -0.206 F 
ATOM     75  C   UNL A   1      49.611  26.826  24.195  1.00  0.00     0.022 A 
BRANCH  72  76
ATOM     76  S   UNL A   1      48.530  27.606  21.745  1.00  0.00     0.124 S 
ATOM     77  O   UNL A   1      49.662  28.467  21.411  1.00  0.00    -0.237 OA
ATOM     78  O   UNL A   1      48.674  26.197  21.397  1.00  0.00    -0.237 OA
ATOM     79  O   UNL A   1      47.216  28.185  21.476  1.00  0.00    -0.744 OA
ENDBRANCH  72  76
ENDBRANCH  55  69
BRANCH  56  80
ATOM     80  C   UNL A   1      39.786  31.259  31.140  1.00  0.00     0.023 A 
ATOM     81  C   UNL A   1      39.843  31.186  32.541  1.00  0.00     0.031 A 
ATOM     82  C   UNL A   1      38.600  31.738  30.553  1.00  0.00     0.131 A 
ATOM     83  C   UNL A   1      38.720  31.533  33.307  1.00  0.00     0.055 A 
ATOM     84  C   UNL A   1      37.504  32.133  31.322  1.00  0.00     0.041 A 
ATOM     85  F   UNL A   1      38.490  31.825  29.218  1.00  0.00    -0.206 F 
ATOM     86  C   UNL A   1      37.554  32.017  32.708  1.00  0.00     0.022 A 
BRANCH  83  87
ATOM     87  S   UNL A   1      38.768  31.253  35.099  1.00  0.00     0.124 S 
ATOM     88  O   UNL A   1      37.447  31.715  35.506  1.00  0.00    -0.237 OA
ATOM     89  O   UNL A   1      38.998  29.814  35.173  1.00  0.00    -0.237 OA
ATOM     90  O   UNL A   1      39.886  32.083  35.542  1.00  0.00    -0.744 OA
ENDBRANCH  83  87
ENDBRANCH  56  80
BRANCH  68  91
ATOM     91  C   UNL A   1      45.596  34.297  28.762  1.00  0.00     0.023 A 
ATOM     92  C   UNL A   1      46.507  34.687  29.758  1.00  0.00     0.031 A 
ATOM     93  C   UNL A   1      45.171  35.271  27.838  1.00  0.00     0.131 A 
ATOM     94  C   UNL A   1      46.927  36.025  29.839  1.00  0.00     0.055 A 
ATOM     95  C   UNL A   1      45.636  36.586  27.888  1.00  0.00     0.041 A 
ATOM     96  F   UNL A   1      44.301  34.956  26.866  1.00  0.00    -0.206 F 
ATOM     97  C   UNL A   1      46.510  36.973  28.900  1.00  0.00     0.022 A 
BRANCH  94  98
ATOM     98  S   UNL A   1      47.964  36.533  31.238  1.00  0.00     0.124 S 
ATOM     99  O   UNL A   1      49.056  37.233  30.567  1.00  0.00    -0.237 OA
ATOM    100  O   UNL A   1      47.054  37.368  32.014  1.00  0.00    -0.237 OA
ATOM    101  O   UNL A   1      48.335  35.268  31.869  1.00  0.00    -0.744 OA
ENDBRANCH  94  98
ENDBRANCH  68  91
ENDBRANCH  42  43
ENDBRANCH  35  37
ENDBRANCH  34  35
ENDBRANCH  33  34
ENDBRANCH   1  33
TORSDOF 18
ENDMDL
