MODEL 1
REMARK VINA RESULT:     -13.2      0.000      0.000
REMARK SMILES C[NH+]1CCC([NH+]2CCC(Oc3ccc4ccccc4c3)(C(=O)OCCOC(=O)c3ccc(-c4c5nc(c(-c6cc(S(=O)(=O)[O-])ccc6F)c6ccc([nH]6)c(-c6cc(S(=O)(=O)[O-])ccc6F)c6nc(c(-c7cc(S(=O)(=O)[O-])ccc7F)c7ccc4[nH]7)C=C6)C=C5)cc3)CC2)CC1
REMARK SMILES IDX 25 1 24 2 23 3 21 4 22 5 9 6 6 7 7 8 93 9 8 11 92 12 5 13
REMARK SMILES IDX 1 14 2 15 3 16 95 17 4 19 94 20 10 21 11 22 12 23 20 24
REMARK SMILES IDX 13 25 19 26 14 27 18 28 15 29 17 30 16 31 26 32 27 33 28 34
REMARK SMILES IDX 29 35 30 36 91 37 31 38 90 39 32 40 33 41 34 42 84 43 35 44
REMARK SMILES IDX 89 45 83 46 85 47 36 48 88 49 82 50 81 51 37 53 69 54 49 55
REMARK SMILES IDX 68 56 50 57 53 58 67 59 86 60 51 61 52 62 66 64 87 65 54 66
REMARK SMILES IDX 38 67 39 68 47 69 40 70 46 71 48 72 45 73 41 74 42 75 43 76
REMARK SMILES IDX 44 77 70 78 71 79 79 80 72 81 78 82 80 83 77 84 73 85 74 86
REMARK SMILES IDX 75 87 76 88 55 89 56 90 64 91 57 92 63 93 65 94 62 95 58 96
REMARK SMILES IDX 59 97 60 98 61 99
REMARK H PARENT 6 10 2 18 85 52 53 63
REMARK Flexibility Score: inf
ROOT
ATOM      1  C   UNL A   1      36.604  21.805  24.135  1.00  0.00     0.275 C 
ENDROOT
BRANCH   1   2
ATOM      2  C   UNL A   1      36.433  23.215  23.579  1.00  0.00     0.274 C 
BRANCH   2   3
ATOM      3  O   UNL A   1      35.400  23.931  24.288  1.00  0.00    -0.459 OA
BRANCH   3   4
ATOM      4  C   UNL A   1      34.299  24.281  23.560  1.00  0.00     0.351 C 
ATOM      5  O   UNL A   1      34.354  24.689  22.403  1.00  0.00    -0.247 OA
BRANCH   4   6
ATOM      6  C   UNL A   1      32.993  24.229  24.379  1.00  0.00     0.216 C 
ATOM      7  N   UNL A   1      32.152  21.433  24.792  1.00  0.00    -0.332 N 
ATOM      8  C   UNL A   1      33.279  21.987  25.551  1.00  0.00     0.267 C 
ATOM      9  C   UNL A   1      32.070  22.047  23.460  1.00  0.00     0.267 C 
ATOM     10  H   UNL A   1      31.315  21.673  25.323  1.00  0.00     0.348 HD
ATOM     11  C   UNL A   1      33.129  23.498  25.722  1.00  0.00     0.122 C 
ATOM     12  C   UNL A   1      31.889  23.564  23.532  1.00  0.00     0.122 C 
BRANCH   7  13
ATOM     13  C   UNL A   1      32.152  19.943  24.699  1.00  0.00     0.195 C 
ATOM     14  C   UNL A   1      33.529  15.869  24.416  1.00  0.00     0.332 C 
ATOM     15  N   UNL A   1      33.474  17.333  24.461  1.00  0.00    -0.337 N 
ATOM     16  C   UNL A   1      32.923  17.772  25.755  1.00  0.00     0.268 C 
ATOM     17  C   UNL A   1      32.642  17.837  23.364  1.00  0.00     0.268 C 
ATOM     18  H   UNL A   1      34.419  17.705  24.359  1.00  0.00     0.347 HD
ATOM     19  C   UNL A   1      32.938  19.302  25.856  1.00  0.00     0.126 C 
ATOM     20  C   UNL A   1      32.631  19.365  23.356  1.00  0.00     0.126 C 
ENDBRANCH   7  13
BRANCH   6  21
ATOM     21  O   UNL A   1      32.858  25.663  24.611  1.00  0.00    -0.475 OA
BRANCH  21  22
ATOM     22  C   UNL A   1      31.685  26.244  24.236  1.00  0.00     0.121 A 
ATOM     23  C   UNL A   1      30.478  25.731  24.693  1.00  0.00     0.047 A 
ATOM     24  C   UNL A   1      31.722  27.424  23.493  1.00  0.00     0.055 A 
ATOM     25  C   UNL A   1      29.285  26.365  24.350  1.00  0.00     0.012 A 
ATOM     26  C   UNL A   1      30.528  28.080  23.149  1.00  0.00    -0.015 A 
ATOM     27  C   UNL A   1      29.294  27.536  23.579  1.00  0.00    -0.018 A 
ATOM     28  C   UNL A   1      30.526  29.262  22.391  1.00  0.00     0.009 A 
ATOM     29  C   UNL A   1      28.098  28.182  23.232  1.00  0.00     0.009 A 
ATOM     30  C   UNL A   1      29.327  29.895  22.058  1.00  0.00     0.001 A 
ATOM     31  C   UNL A   1      28.114  29.355  22.476  1.00  0.00     0.001 A 
ENDBRANCH  21  22
ENDBRANCH   6  21
ENDBRANCH   4   6
ENDBRANCH   3   4
ENDBRANCH   2   3
ENDBRANCH   1   2
BRANCH   1  32
ATOM     32  O   UNL A   1      36.969  21.891  25.519  1.00  0.00    -0.458 OA
BRANCH  32  33
ATOM     33  C   UNL A   1      38.246  21.566  25.819  1.00  0.00     0.338 C 
ATOM     34  O   UNL A   1      38.786  20.490  25.597  1.00  0.00    -0.246 OA
BRANCH  33  35
ATOM     35  C   UNL A   1      38.947  22.728  26.421  1.00  0.00     0.060 A 
ATOM     36  C   UNL A   1      38.531  24.040  26.175  1.00  0.00     0.016 A 
ATOM     37  C   UNL A   1      40.119  22.510  27.150  1.00  0.00     0.016 A 
ATOM     38  C   UNL A   1      39.331  25.117  26.556  1.00  0.00     0.010 A 
ATOM     39  C   UNL A   1      40.865  23.596  27.624  1.00  0.00     0.010 A 
ATOM     40  C   UNL A   1      40.492  24.915  27.312  1.00  0.00    -0.014 A 
BRANCH  40  41
ATOM     41  C   UNL A   1      41.307  26.065  27.801  1.00  0.00     0.031 A 
ATOM     42  C   UNL A   1      40.682  27.142  28.650  1.00  0.00     0.074 A 
ATOM     43  C   UNL A   1      42.605  26.170  27.451  1.00  0.00     0.049 A 
ATOM     44  N   UNL A   1      41.123  28.340  28.930  1.00  0.00    -0.248 NA
ATOM     45  C   UNL A   1      39.376  26.829  29.247  1.00  0.00     0.031 C 
ATOM     46  C   UNL A   1      43.359  25.182  26.677  1.00  0.00     0.029 A 
ATOM     47  N   UNL A   1      43.518  27.168  27.690  1.00  0.00    -0.354 N 
ATOM     48  C   UNL A   1      40.124  28.950  29.684  1.00  0.00     0.074 A 
ATOM     49  C   UNL A   1      39.054  27.982  29.818  1.00  0.00     0.031 C 
ATOM     50  C   UNL A   1      44.621  25.608  26.526  1.00  0.00     0.029 A 
ATOM     51  C   UNL A   1      44.735  26.948  27.088  1.00  0.00     0.049 A 
ATOM     52  H   UNL A   1      43.322  27.962  28.238  1.00  0.00     0.167 HD
ATOM     53  C   UNL A   1      40.103  30.205  30.203  1.00  0.00     0.034 A 
ATOM     54  C   UNL A   1      45.804  27.752  26.934  1.00  0.00     0.034 A 
ATOM     55  C   UNL A   1      41.203  31.136  30.099  1.00  0.00     0.049 A 
ATOM     56  C   UNL A   1      45.745  29.152  27.473  1.00  0.00     0.074 A 
ATOM     57  C   UNL A   1      41.301  32.420  30.611  1.00  0.00     0.029 A 
ATOM     58  N   UNL A   1      42.403  30.882  29.446  1.00  0.00    -0.354 N 
ATOM     59  N   UNL A   1      44.760  29.752  28.099  1.00  0.00    -0.248 NA
ATOM     60  C   UNL A   1      46.931  29.989  27.262  1.00  0.00     0.031 C 
ATOM     61  C   UNL A   1      42.533  32.960  30.222  1.00  0.00     0.029 A 
ATOM     62  C   UNL A   1      43.234  31.991  29.521  1.00  0.00     0.049 A 
ATOM     63  H   UNL A   1      42.631  30.038  28.994  1.00  0.00     0.167 HD
ATOM     64  C   UNL A   1      45.210  31.042  28.359  1.00  0.00     0.074 A 
ATOM     65  C   UNL A   1      46.562  31.122  27.840  1.00  0.00     0.031 C 
ATOM     66  C   UNL A   1      44.565  32.068  28.968  1.00  0.00     0.034 A 
BRANCH  53  67
ATOM     67  C   UNL A   1      38.831  30.668  30.873  1.00  0.00     0.023 A 
ATOM     68  C   UNL A   1      37.757  31.216  30.153  1.00  0.00     0.031 A 
ATOM     69  C   UNL A   1      38.699  30.560  32.271  1.00  0.00     0.131 A 
ATOM     70  C   UNL A   1      36.623  31.684  30.837  1.00  0.00     0.055 A 
ATOM     71  C   UNL A   1      37.540  30.961  32.937  1.00  0.00     0.041 A 
ATOM     72  F   UNL A   1      39.702  30.064  33.015  1.00  0.00    -0.206 F 
ATOM     73  C   UNL A   1      36.497  31.538  32.222  1.00  0.00     0.022 A 
BRANCH  70  74
ATOM     74  S   UNL A   1      35.364  32.604  29.909  1.00  0.00     0.124 S 
ATOM     75  O   UNL A   1      35.008  31.646  28.865  1.00  0.00    -0.237 OA
ATOM     76  O   UNL A   1      34.346  32.853  30.923  1.00  0.00    -0.237 OA
ATOM     77  O   UNL A   1      36.081  33.787  29.438  1.00  0.00    -0.744 OA
ENDBRANCH  70  74
ENDBRANCH  53  67
BRANCH  54  78
ATOM     78  C   UNL A   1      46.979  27.278  26.152  1.00  0.00     0.023 A 
ATOM     79  C   UNL A   1      47.163  27.661  24.816  1.00  0.00     0.031 A 
ATOM     80  C   UNL A   1      47.941  26.437  26.742  1.00  0.00     0.131 A 
ATOM     81  C   UNL A   1      48.280  27.192  24.107  1.00  0.00     0.055 A 
ATOM     82  C   UNL A   1      49.073  26.013  26.047  1.00  0.00     0.041 A 
ATOM     83  F   UNL A   1      47.809  26.047  28.020  1.00  0.00    -0.206 F 
ATOM     84  C   UNL A   1      49.244  26.385  24.719  1.00  0.00     0.022 A 
BRANCH  81  85
ATOM     85  S   UNL A   1      48.434  27.617  22.352  1.00  0.00     0.124 S 
ATOM     86  O   UNL A   1      48.639  26.306  21.746  1.00  0.00    -0.237 OA
ATOM     87  O   UNL A   1      47.151  28.256  22.080  1.00  0.00    -0.237 OA
ATOM     88  O   UNL A   1      49.591  28.508  22.317  1.00  0.00    -0.744 OA
ENDBRANCH  81  85
ENDBRANCH  54  78
BRANCH  66  89
ATOM     89  C   UNL A   1      45.339  33.350  29.121  1.00  0.00     0.023 A 
ATOM     90  C   UNL A   1      45.303  34.348  28.131  1.00  0.00     0.031 A 
ATOM     91  C   UNL A   1      46.158  33.554  30.244  1.00  0.00     0.131 A 
ATOM     92  C   UNL A   1      46.116  35.484  28.259  1.00  0.00     0.055 A 
ATOM     93  C   UNL A   1      46.928  34.709  30.389  1.00  0.00     0.041 A 
ATOM     94  F   UNL A   1      46.230  32.628  31.214  1.00  0.00    -0.206 F 
ATOM     95  C   UNL A   1      46.920  35.676  29.388  1.00  0.00     0.022 A 
BRANCH  92  96
ATOM     96  S   UNL A   1      46.180  36.668  26.886  1.00  0.00     0.124 S 
ATOM     97  O   UNL A   1      44.866  37.298  26.966  1.00  0.00    -0.237 OA
ATOM     98  O   UNL A   1      47.315  37.510  27.253  1.00  0.00    -0.237 OA
ATOM     99  O   UNL A   1      46.392  35.821  25.713  1.00  0.00    -0.744 OA
ENDBRANCH  92  96
ENDBRANCH  66  89
ENDBRANCH  40  41
ENDBRANCH  33  35
ENDBRANCH  32  33
ENDBRANCH   1  32
TORSDOF 17
ENDMDL
MODEL 2
REMARK VINA RESULT:     -13.1      4.966     10.271
REMARK SMILES C[NH+]1CCC([NH+]2CCC(Oc3ccc4ccccc4c3)(C(=O)OCCOC(=O)c3ccc(-c4c5nc(c(-c6cc(S(=O)(=O)[O-])ccc6F)c6ccc([nH]6)c(-c6cc(S(=O)(=O)[O-])ccc6F)c6nc(c(-c7cc(S(=O)(=O)[O-])ccc7F)c7ccc4[nH]7)C=C6)C=C5)cc3)CC2)CC1
REMARK SMILES IDX 25 1 24 2 23 3 21 4 22 5 9 6 6 7 7 8 93 9 8 11 92 12 5 13
REMARK SMILES IDX 1 14 2 15 3 16 95 17 4 19 94 20 10 21 11 22 12 23 20 24
REMARK SMILES IDX 13 25 19 26 14 27 18 28 15 29 17 30 16 31 26 32 27 33 28 34
REMARK SMILES IDX 29 35 30 36 91 37 31 38 90 39 32 40 33 41 34 42 84 43 35 44
REMARK SMILES IDX 89 45 83 46 85 47 36 48 88 49 82 50 81 51 37 53 69 54 49 55
REMARK SMILES IDX 68 56 50 57 53 58 67 59 86 60 51 61 52 62 66 64 87 65 54 66
REMARK SMILES IDX 38 67 39 68 47 69 40 70 46 71 48 72 45 73 41 74 42 75 43 76
REMARK SMILES IDX 44 77 70 78 71 79 79 80 72 81 78 82 80 83 77 84 73 85 74 86
REMARK SMILES IDX 75 87 76 88 55 89 56 90 64 91 57 92 63 93 65 94 62 95 58 96
REMARK SMILES IDX 59 97 60 98 61 99
REMARK H PARENT 6 10 2 18 85 52 53 63
REMARK Flexibility Score: inf
ROOT
ATOM      1  C   UNL A   1      31.744  29.138  26.311  1.00  0.00     0.275 C 
ENDROOT
BRANCH   1   2
ATOM      2  C   UNL A   1      31.916  27.912  27.203  1.00  0.00     0.274 C 
BRANCH   2   3
ATOM      3  O   UNL A   1      32.679  26.887  26.534  1.00  0.00    -0.459 OA
BRANCH   3   4
ATOM      4  C   UNL A   1      32.031  25.709  26.296  1.00  0.00     0.351 C 
ATOM      5  O   UNL A   1      31.432  25.078  27.163  1.00  0.00    -0.247 OA
BRANCH   4   6
ATOM      6  C   UNL A   1      32.231  25.191  24.857  1.00  0.00     0.216 C 
ATOM      7  N   UNL A   1      30.753  26.880  22.944  1.00  0.00    -0.332 N 
ATOM      8  C   UNL A   1      31.997  27.366  23.553  1.00  0.00     0.267 C 
ATOM      9  C   UNL A   1      30.032  25.995  23.868  1.00  0.00     0.267 C 
ATOM     10  H   UNL A   1      31.036  26.346  22.122  1.00  0.00     0.348 HD
ATOM     11  C   UNL A   1      32.913  26.199  23.921  1.00  0.00     0.122 C 
ATOM     12  C   UNL A   1      30.865  24.778  24.272  1.00  0.00     0.122 C 
BRANCH   7  13
ATOM     13  C   UNL A   1      29.863  27.962  22.430  1.00  0.00     0.195 C 
ATOM     14  C   UNL A   1      27.651  31.652  22.169  1.00  0.00     0.332 C 
ATOM     15  N   UNL A   1      28.478  30.542  22.649  1.00  0.00    -0.337 N 
ATOM     16  C   UNL A   1      29.678  30.411  21.803  1.00  0.00     0.268 C 
ATOM     17  C   UNL A   1      27.707  29.295  22.622  1.00  0.00     0.268 C 
ATOM     18  H   UNL A   1      28.768  30.732  23.608  1.00  0.00     0.347 HD
ATOM     19  C   UNL A   1      30.600  29.310  22.341  1.00  0.00     0.126 C 
ATOM     20  C   UNL A   1      28.534  28.139  23.186  1.00  0.00     0.126 C 
ENDBRANCH   7  13
BRANCH   6  21
ATOM     21  O   UNL A   1      33.157  24.109  25.172  1.00  0.00    -0.475 OA
BRANCH  21  22
ATOM     22  C   UNL A   1      32.895  22.890  24.625  1.00  0.00     0.121 A 
ATOM     23  C   UNL A   1      32.636  22.779  23.266  1.00  0.00     0.047 A 
ATOM     24  C   UNL A   1      33.010  21.751  25.423  1.00  0.00     0.055 A 
ATOM     25  C   UNL A   1      32.424  21.522  22.703  1.00  0.00     0.012 A 
ATOM     26  C   UNL A   1      32.810  20.476  24.868  1.00  0.00    -0.015 A 
ATOM     27  C   UNL A   1      32.505  20.363  23.491  1.00  0.00    -0.018 A 
ATOM     28  C   UNL A   1      32.905  19.309  25.644  1.00  0.00     0.009 A 
ATOM     29  C   UNL A   1      32.297  19.093  22.932  1.00  0.00     0.009 A 
ATOM     30  C   UNL A   1      32.700  18.052  25.072  1.00  0.00     0.001 A 
ATOM     31  C   UNL A   1      32.393  17.944  23.718  1.00  0.00     0.001 A 
ENDBRANCH  21  22
ENDBRANCH   6  21
ENDBRANCH   4   6
ENDBRANCH   3   4
ENDBRANCH   2   3
ENDBRANCH   1   2
BRANCH   1  32
ATOM     32  O   UNL A   1      33.018  29.774  26.143  1.00  0.00    -0.458 OA
BRANCH  32  33
ATOM     33  C   UNL A   1      33.222  30.898  26.865  1.00  0.00     0.338 C 
ATOM     34  O   UNL A   1      32.496  31.883  26.884  1.00  0.00    -0.246 OA
BRANCH  33  35
ATOM     35  C   UNL A   1      34.445  30.762  27.697  1.00  0.00     0.060 A 
ATOM     36  C   UNL A   1      35.314  31.838  27.898  1.00  0.00     0.016 A 
ATOM     37  C   UNL A   1      34.794  29.501  28.188  1.00  0.00     0.016 A 
ATOM     38  C   UNL A   1      36.563  31.635  28.484  1.00  0.00     0.010 A 
ATOM     39  C   UNL A   1      36.003  29.324  28.871  1.00  0.00     0.010 A 
ATOM     40  C   UNL A   1      36.915  30.384  29.007  1.00  0.00    -0.014 A 
BRANCH  40  41
ATOM     41  C   UNL A   1      38.212  30.179  29.714  1.00  0.00     0.031 A 
ATOM     42  C   UNL A   1      39.283  29.305  29.114  1.00  0.00     0.074 A 
ATOM     43  C   UNL A   1      38.421  30.746  30.920  1.00  0.00     0.049 A 
ATOM     44  N   UNL A   1      40.337  28.776  29.679  1.00  0.00    -0.248 NA
ATOM     45  C   UNL A   1      39.133  28.970  27.691  1.00  0.00     0.031 C 
ATOM     46  C   UNL A   1      37.499  31.657  31.602  1.00  0.00     0.029 A 
ATOM     47  N   UNL A   1      39.473  30.628  31.794  1.00  0.00    -0.354 N 
ATOM     48  C   UNL A   1      40.944  27.994  28.700  1.00  0.00     0.074 A 
ATOM     49  C   UNL A   1      40.137  28.124  27.503  1.00  0.00     0.031 C 
ATOM     50  C   UNL A   1      38.033  32.032  32.772  1.00  0.00     0.029 A 
ATOM     51  C   UNL A   1      39.278  31.302  32.977  1.00  0.00     0.049 A 
ATOM     52  H   UNL A   1      40.288  30.112  31.595  1.00  0.00     0.167 HD
ATOM     53  C   UNL A   1      42.064  27.232  28.801  1.00  0.00     0.034 A 
ATOM     54  C   UNL A   1      39.972  31.285  34.131  1.00  0.00     0.034 A 
ATOM     55  C   UNL A   1      42.881  27.157  29.991  1.00  0.00     0.049 A 
ATOM     56  C   UNL A   1      41.180  30.400  34.239  1.00  0.00     0.074 A 
ATOM     57  C   UNL A   1      44.050  26.441  30.194  1.00  0.00     0.029 A 
ATOM     58  N   UNL A   1      42.621  27.828  31.179  1.00  0.00    -0.354 N 
ATOM     59  N   UNL A   1      41.691  29.591  33.342  1.00  0.00    -0.248 NA
ATOM     60  C   UNL A   1      41.888  30.409  35.524  1.00  0.00     0.031 C 
ATOM     61  C   UNL A   1      44.464  26.636  31.517  1.00  0.00     0.029 A 
ATOM     62  C   UNL A   1      43.592  27.525  32.124  1.00  0.00     0.049 A 
ATOM     63  H   UNL A   1      41.858  28.431  31.330  1.00  0.00     0.167 HD
ATOM     64  C   UNL A   1      42.786  28.993  33.955  1.00  0.00     0.074 A 
ATOM     65  C   UNL A   1      42.872  29.552  35.290  1.00  0.00     0.031 C 
ATOM     66  C   UNL A   1      43.642  28.063  33.462  1.00  0.00     0.034 A 
BRANCH  53  67
ATOM     67  C   UNL A   1      42.437  26.370  27.618  1.00  0.00     0.023 A 
ATOM     68  C   UNL A   1      41.988  25.046  27.479  1.00  0.00     0.031 A 
ATOM     69  C   UNL A   1      43.269  26.891  26.609  1.00  0.00     0.131 A 
ATOM     70  C   UNL A   1      42.416  24.273  26.387  1.00  0.00     0.055 A 
ATOM     71  C   UNL A   1      43.633  26.141  25.490  1.00  0.00     0.041 A 
ATOM     72  F   UNL A   1      43.748  28.143  26.698  1.00  0.00    -0.206 F 
ATOM     73  C   UNL A   1      43.215  24.819  25.379  1.00  0.00     0.022 A 
BRANCH  70  74
ATOM     74  S   UNL A   1      42.017  22.504  26.364  1.00  0.00     0.124 S 
ATOM     75  O   UNL A   1      40.556  22.529  26.357  1.00  0.00    -0.237 OA
ATOM     76  O   UNL A   1      42.655  22.054  25.132  1.00  0.00    -0.237 OA
ATOM     77  O   UNL A   1      42.617  22.000  27.598  1.00  0.00    -0.744 OA
ENDBRANCH  70  74
ENDBRANCH  53  67
BRANCH  54  78
ATOM     78  C   UNL A   1      39.478  32.060  35.302  1.00  0.00     0.023 A 
ATOM     79  C   UNL A   1      39.881  33.385  35.517  1.00  0.00     0.031 A 
ATOM     80  C   UNL A   1      38.583  31.479  36.219  1.00  0.00     0.131 A 
ATOM     81  C   UNL A   1      39.399  34.085  36.634  1.00  0.00     0.055 A 
ATOM     82  C   UNL A   1      38.070  32.195  37.302  1.00  0.00     0.041 A 
ATOM     83  F   UNL A   1      38.166  30.214  36.053  1.00  0.00    -0.206 F 
ATOM     84  C   UNL A   1      38.484  33.504  37.517  1.00  0.00     0.022 A 
BRANCH  81  85
ATOM     85  S   UNL A   1      40.022  35.759  36.944  1.00  0.00     0.124 S 
ATOM     86  O   UNL A   1      39.654  36.447  35.712  1.00  0.00    -0.237 OA
ATOM     87  O   UNL A   1      39.277  36.142  38.140  1.00  0.00    -0.237 OA
ATOM     88  O   UNL A   1      41.455  35.558  37.143  1.00  0.00    -0.744 OA
ENDBRANCH  81  85
ENDBRANCH  54  78
BRANCH  66  89
ATOM     89  C   UNL A   1      44.755  27.625  34.376  1.00  0.00     0.023 A 
ATOM     90  C   UNL A   1      44.606  26.516  35.229  1.00  0.00     0.031 A 
ATOM     91  C   UNL A   1      45.956  28.350  34.429  1.00  0.00     0.131 A 
ATOM     92  C   UNL A   1      45.625  26.199  36.141  1.00  0.00     0.055 A 
ATOM     93  C   UNL A   1      46.986  27.999  35.304  1.00  0.00     0.041 A 
ATOM     94  F   UNL A   1      46.145  29.418  33.637  1.00  0.00    -0.206 F 
ATOM     95  C   UNL A   1      46.818  26.927  36.175  1.00  0.00     0.022 A 
BRANCH  92  96
ATOM     96  S   UNL A   1      45.332  24.876  37.347  1.00  0.00     0.124 S 
ATOM     97  O   UNL A   1      45.036  23.737  36.483  1.00  0.00    -0.237 OA
ATOM     98  O   UNL A   1      46.602  24.820  38.063  1.00  0.00    -0.237 OA
ATOM     99  O   UNL A   1      44.201  25.371  38.131  1.00  0.00    -0.744 OA
ENDBRANCH  92  96
ENDBRANCH  66  89
ENDBRANCH  40  41
ENDBRANCH  33  35
ENDBRANCH  32  33
ENDBRANCH   1  32
TORSDOF 17
ENDMDL
MODEL 3
REMARK VINA RESULT:     -13.0      5.055     10.412
REMARK SMILES C[NH+]1CCC([NH+]2CCC(Oc3ccc4ccccc4c3)(C(=O)OCCOC(=O)c3ccc(-c4c5nc(c(-c6cc(S(=O)(=O)[O-])ccc6F)c6ccc([nH]6)c(-c6cc(S(=O)(=O)[O-])ccc6F)c6nc(c(-c7cc(S(=O)(=O)[O-])ccc7F)c7ccc4[nH]7)C=C6)C=C5)cc3)CC2)CC1
REMARK SMILES IDX 25 1 24 2 23 3 21 4 22 5 9 6 6 7 7 8 93 9 8 11 92 12 5 13
REMARK SMILES IDX 1 14 2 15 3 16 95 17 4 19 94 20 10 21 11 22 12 23 20 24
REMARK SMILES IDX 13 25 19 26 14 27 18 28 15 29 17 30 16 31 26 32 27 33 28 34
REMARK SMILES IDX 29 35 30 36 91 37 31 38 90 39 32 40 33 41 34 42 84 43 35 44
REMARK SMILES IDX 89 45 83 46 85 47 36 48 88 49 82 50 81 51 37 53 69 54 49 55
REMARK SMILES IDX 68 56 50 57 53 58 67 59 86 60 51 61 52 62 66 64 87 65 54 66
REMARK SMILES IDX 38 67 39 68 47 69 40 70 46 71 48 72 45 73 41 74 42 75 43 76
REMARK SMILES IDX 44 77 70 78 71 79 79 80 72 81 78 82 80 83 77 84 73 85 74 86
REMARK SMILES IDX 75 87 76 88 55 89 56 90 64 91 57 92 63 93 65 94 62 95 58 96
REMARK SMILES IDX 59 97 60 98 61 99
REMARK H PARENT 6 10 2 18 85 52 53 63
REMARK Flexibility Score: inf
ROOT
ATOM      1  C   UNL A   1      31.736  29.345  26.495  1.00  0.00     0.275 C 
ENDROOT
BRANCH   1   2
ATOM      2  C   UNL A   1      31.987  28.020  27.208  1.00  0.00     0.274 C 
BRANCH   2   3
ATOM      3  O   UNL A   1      32.725  27.110  26.366  1.00  0.00    -0.459 OA
BRANCH   3   4
ATOM      4  C   UNL A   1      32.170  25.876  26.177  1.00  0.00     0.351 C 
ATOM      5  O   UNL A   1      31.679  25.209  27.084  1.00  0.00    -0.247 OA
BRANCH   4   6
ATOM      6  C   UNL A   1      32.334  25.357  24.735  1.00  0.00     0.216 C 
ATOM      7  N   UNL A   1      30.767  27.013  22.865  1.00  0.00    -0.332 N 
ATOM      8  C   UNL A   1      32.020  27.523  23.432  1.00  0.00     0.267 C 
ATOM      9  C   UNL A   1      30.091  26.120  23.813  1.00  0.00     0.267 C 
ATOM     10  H   UNL A   1      31.033  26.481  22.035  1.00  0.00     0.348 HD
ATOM     11  C   UNL A   1      32.968  26.373  23.774  1.00  0.00     0.122 C 
ATOM     12  C   UNL A   1      30.957  24.918  24.194  1.00  0.00     0.122 C 
BRANCH   7  13
ATOM     13  C   UNL A   1      29.841  28.078  22.375  1.00  0.00     0.195 C 
ATOM     14  C   UNL A   1      27.653  31.782  22.111  1.00  0.00     0.332 C 
ATOM     15  N   UNL A   1      28.512  30.688  22.574  1.00  0.00    -0.337 N 
ATOM     16  C   UNL A   1      29.622  30.489  21.626  1.00  0.00     0.268 C 
ATOM     17  C   UNL A   1      27.729  29.454  22.695  1.00  0.00     0.268 C 
ATOM     18  H   UNL A   1      28.895  30.928  23.489  1.00  0.00     0.347 HD
ATOM     19  C   UNL A   1      30.580  29.407  22.137  1.00  0.00     0.126 C 
ATOM     20  C   UNL A   1      28.595  28.320  23.244  1.00  0.00     0.126 C 
ENDBRANCH   7  13
BRANCH   6  21
ATOM     21  O   UNL A   1      33.287  24.292  25.024  1.00  0.00    -0.475 OA
BRANCH  21  22
ATOM     22  C   UNL A   1      32.997  23.052  24.541  1.00  0.00     0.121 A 
ATOM     23  C   UNL A   1      32.748  22.874  23.187  1.00  0.00     0.047 A 
ATOM     24  C   UNL A   1      33.074  21.956  25.401  1.00  0.00     0.055 A 
ATOM     25  C   UNL A   1      32.507  21.594  22.692  1.00  0.00     0.012 A 
ATOM     26  C   UNL A   1      32.845  20.658  24.914  1.00  0.00    -0.015 A 
ATOM     27  C   UNL A   1      32.550  20.478  23.542  1.00  0.00    -0.018 A 
ATOM     28  C   UNL A   1      32.902  19.534  25.753  1.00  0.00     0.009 A 
ATOM     29  C   UNL A   1      32.312  19.186  23.051  1.00  0.00     0.009 A 
ATOM     30  C   UNL A   1      32.667  18.253  25.248  1.00  0.00     0.001 A 
ATOM     31  C   UNL A   1      32.370  18.080  23.899  1.00  0.00     0.001 A 
ENDBRANCH  21  22
ENDBRANCH   6  21
ENDBRANCH   4   6
ENDBRANCH   3   4
ENDBRANCH   2   3
ENDBRANCH   1   2
BRANCH   1  32
ATOM     32  O   UNL A   1      32.997  29.965  26.208  1.00  0.00    -0.458 OA
BRANCH  32  33
ATOM     33  C   UNL A   1      33.351  30.994  27.010  1.00  0.00     0.338 C 
ATOM     34  O   UNL A   1      32.666  31.977  27.264  1.00  0.00    -0.246 OA
BRANCH  33  35
ATOM     35  C   UNL A   1      34.689  30.749  27.604  1.00  0.00     0.060 A 
ATOM     36  C   UNL A   1      35.097  29.467  27.982  1.00  0.00     0.016 A 
ATOM     37  C   UNL A   1      35.510  31.841  27.901  1.00  0.00     0.016 A 
ATOM     38  C   UNL A   1      36.253  29.289  28.742  1.00  0.00     0.010 A 
ATOM     39  C   UNL A   1      36.723  31.647  28.571  1.00  0.00     0.010 A 
ATOM     40  C   UNL A   1      37.099  30.370  29.022  1.00  0.00    -0.014 A 
BRANCH  40  41
ATOM     41  C   UNL A   1      38.383  30.176  29.757  1.00  0.00     0.031 A 
ATOM     42  C   UNL A   1      39.448  29.261  29.212  1.00  0.00     0.074 A 
ATOM     43  C   UNL A   1      38.582  30.792  30.940  1.00  0.00     0.049 A 
ATOM     44  N   UNL A   1      40.485  28.740  29.816  1.00  0.00    -0.248 NA
ATOM     45  C   UNL A   1      39.314  28.867  27.803  1.00  0.00     0.031 C 
ATOM     46  C   UNL A   1      37.664  31.745  31.568  1.00  0.00     0.029 A 
ATOM     47  N   UNL A   1      39.619  30.696  31.835  1.00  0.00    -0.354 N 
ATOM     48  C   UNL A   1      41.094  27.907  28.881  1.00  0.00     0.074 A 
ATOM     49  C   UNL A   1      40.308  27.998  27.668  1.00  0.00     0.031 C 
ATOM     50  C   UNL A   1      38.187  32.163  32.729  1.00  0.00     0.029 A 
ATOM     51  C   UNL A   1      39.417  31.424  32.985  1.00  0.00     0.049 A 
ATOM     52  H   UNL A   1      40.429  30.160  31.671  1.00  0.00     0.167 HD
ATOM     53  C   UNL A   1      42.201  27.134  29.033  1.00  0.00     0.034 A 
ATOM     54  C   UNL A   1      40.094  31.446  34.148  1.00  0.00     0.034 A 
ATOM     55  C   UNL A   1      42.998  27.098  30.237  1.00  0.00     0.049 A 
ATOM     56  C   UNL A   1      41.286  30.549  34.314  1.00  0.00     0.074 A 
ATOM     57  C   UNL A   1      44.153  26.375  30.488  1.00  0.00     0.029 A 
ATOM     58  N   UNL A   1      42.732  27.825  31.391  1.00  0.00    -0.354 N 
ATOM     59  N   UNL A   1      41.798  29.694  33.460  1.00  0.00    -0.248 NA
ATOM     60  C   UNL A   1      41.975  30.603  35.608  1.00  0.00     0.031 C 
ATOM     61  C   UNL A   1      44.551  26.621  31.809  1.00  0.00     0.029 A 
ATOM     62  C   UNL A   1      43.683  27.548  32.363  1.00  0.00     0.049 A 
ATOM     63  H   UNL A   1      41.976  28.446  31.504  1.00  0.00     0.167 HD
ATOM     64  C   UNL A   1      42.874  29.107  34.116  1.00  0.00     0.074 A 
ATOM     65  C   UNL A   1      42.949  29.723  35.426  1.00  0.00     0.031 C 
ATOM     66  C   UNL A   1      43.723  28.143  33.676  1.00  0.00     0.034 A 
BRANCH  53  67
ATOM     67  C   UNL A   1      42.578  26.216  27.894  1.00  0.00     0.023 A 
ATOM     68  C   UNL A   1      42.016  24.938  27.739  1.00  0.00     0.031 A 
ATOM     69  C   UNL A   1      43.529  26.635  26.944  1.00  0.00     0.131 A 
ATOM     70  C   UNL A   1      42.449  24.105  26.694  1.00  0.00     0.055 A 
ATOM     71  C   UNL A   1      43.903  25.831  25.867  1.00  0.00     0.041 A 
ATOM     72  F   UNL A   1      44.117  27.838  27.052  1.00  0.00    -0.206 F 
ATOM     73  C   UNL A   1      43.370  24.552  25.743  1.00  0.00     0.022 A 
BRANCH  70  74
ATOM     74  S   UNL A   1      41.887  22.381  26.666  1.00  0.00     0.124 S 
ATOM     75  O   UNL A   1      42.572  21.826  27.832  1.00  0.00    -0.237 OA
ATOM     76  O   UNL A   1      40.440  22.520  26.780  1.00  0.00    -0.237 OA
ATOM     77  O   UNL A   1      42.368  21.884  25.378  1.00  0.00    -0.744 OA
ENDBRANCH  70  74
ENDBRANCH  53  67
BRANCH  54  78
ATOM     78  C   UNL A   1      39.595  32.279  35.277  1.00  0.00     0.023 A 
ATOM     79  C   UNL A   1      38.816  31.723  36.300  1.00  0.00     0.031 A 
ATOM     80  C   UNL A   1      39.906  33.650  35.347  1.00  0.00     0.131 A 
ATOM     81  C   UNL A   1      38.359  32.538  37.347  1.00  0.00     0.055 A 
ATOM     82  C   UNL A   1      39.489  34.446  36.415  1.00  0.00     0.041 A 
ATOM     83  F   UNL A   1      40.653  34.227  34.393  1.00  0.00    -0.206 F 
ATOM     84  C   UNL A   1      38.705  33.891  37.420  1.00  0.00     0.022 A 
BRANCH  81  85
ATOM     85  S   UNL A   1      37.264  31.814  38.597  1.00  0.00     0.124 S 
ATOM     86  O   UNL A   1      38.081  31.909  39.800  1.00  0.00    -0.237 OA
ATOM     87  O   UNL A   1      36.106  32.701  38.535  1.00  0.00    -0.237 OA
ATOM     88  O   UNL A   1      37.033  30.458  38.104  1.00  0.00    -0.744 OA
ENDBRANCH  81  85
ENDBRANCH  54  78
BRANCH  66  89
ATOM     89  C   UNL A   1      44.814  27.729  34.626  1.00  0.00     0.023 A 
ATOM     90  C   UNL A   1      44.614  26.703  35.567  1.00  0.00     0.031 A 
ATOM     91  C   UNL A   1      46.050  28.397  34.622  1.00  0.00     0.131 A 
ATOM     92  C   UNL A   1      45.618  26.413  36.504  1.00  0.00     0.055 A 
ATOM     93  C   UNL A   1      47.063  28.070  35.524  1.00  0.00     0.041 A 
ATOM     94  F   UNL A   1      46.288  29.386  33.745  1.00  0.00    -0.206 F 
ATOM     95  C   UNL A   1      46.845  27.083  36.481  1.00  0.00     0.022 A 
BRANCH  92  96
ATOM     96  S   UNL A   1      45.264  25.209  37.814  1.00  0.00     0.124 S 
ATOM     97  O   UNL A   1      43.888  24.828  37.514  1.00  0.00    -0.237 OA
ATOM     98  O   UNL A   1      46.276  24.184  37.578  1.00  0.00    -0.237 OA
ATOM     99  O   UNL A   1      45.441  25.980  39.044  1.00  0.00    -0.744 OA
ENDBRANCH  92  96
ENDBRANCH  66  89
ENDBRANCH  40  41
ENDBRANCH  33  35
ENDBRANCH  32  33
ENDBRANCH   1  32
TORSDOF 17
ENDMDL
