MODEL 1
REMARK VINA RESULT:     -11.6      0.000      0.000
REMARK SMILES O=C(OCCOC(=O)[C@H]1CCCC[N@H+]1Cc1ccc([N+](=O)[O-])o1)c1ccc(-c2c3nc(c(-c4cc(S(=O)(=O)[O-])ccc4F)c4ccc([nH]4)c(-c4cc(S(=O)(=O)[O-])ccc4F)c4nc(c(-c5cc(S(=O)(=O)[O-])ccc5F)c5ccc2[nH]5)C=C4)C=C3)cc1
REMARK SMILES IDX 4 1 3 2 2 3 1 4 24 5 25 6 86 7 26 8 85 9 27 10 28 11 29 12
REMARK SMILES IDX 79 13 30 14 84 15 78 16 80 17 31 18 83 19 77 20 76 21 32 23
REMARK SMILES IDX 64 24 44 25 63 26 45 27 48 28 62 29 81 30 46 31 47 32 61 34
REMARK SMILES IDX 82 35 49 36 33 37 34 38 42 39 35 40 41 41 43 42 40 43 36 44
REMARK SMILES IDX 37 45 38 46 39 47 65 48 66 49 74 50 67 51 73 52 75 53 72 54
REMARK SMILES IDX 68 55 69 56 70 57 71 58 50 59 51 60 59 61 52 62 58 63 60 64
REMARK SMILES IDX 57 65 53 66 54 67 55 68 56 69 5 70 6 71 7 72 8 73 9 74 10 75
REMARK SMILES IDX 14 76 11 77 13 78 12 80 15 81 16 82 17 83 23 84 18 85 19 86
REMARK SMILES IDX 20 87 21 88 22 89
REMARK H PARENT 80 22 48 33 14 79
REMARK Flexibility Score: inf
ROOT
ATOM      1  C   UNL A   1      32.261  32.376  27.284  1.00  0.00     0.275 C 
ENDROOT
BRANCH   1   2
ATOM      2  O   UNL A   1      33.686  32.202  27.532  1.00  0.00    -0.458 OA
BRANCH   2   3
ATOM      3  C   UNL A   1      34.256  32.330  28.788  1.00  0.00     0.338 C 
ATOM      4  O   UNL A   1      33.737  32.988  29.678  1.00  0.00    -0.246 OA
BRANCH   3   5
ATOM      5  C   UNL A   1      35.732  32.039  28.802  1.00  0.00     0.060 A 
ATOM      6  C   UNL A   1      36.386  32.276  30.307  1.00  0.00     0.016 A 
ATOM      7  C   UNL A   1      36.313  30.789  27.741  1.00  0.00     0.016 A 
ATOM      8  C   UNL A   1      37.605  31.188  30.890  1.00  0.00     0.010 A 
ATOM      9  C   UNL A   1      37.569  29.649  28.151  1.00  0.00     0.010 A 
ATOM     10  C   UNL A   1      38.346  29.760  29.759  1.00  0.00    -0.014 A 
BRANCH  10  11
ATOM     11  C   UNL A   1      39.878  29.184  29.389  1.00  0.00     0.031 A 
ATOM     12  C   UNL A   1      40.133  27.704  28.823  1.00  0.00     0.074 A 
ATOM     13  C   UNL A   1      40.988  29.948  29.464  1.00  0.00     0.049 A 
ATOM     14  N   UNL A   1      41.073  27.281  27.989  1.00  0.00    -0.248 NA
ATOM     15  C   UNL A   1      39.241  26.590  29.204  1.00  0.00     0.031 C 
ATOM     16  C   UNL A   1      41.043  31.252  30.094  1.00  0.00     0.029 A 
ATOM     17  N   UNL A   1      42.230  29.810  28.872  1.00  0.00    -0.354 N 
ATOM     18  C   UNL A   1      40.800  25.926  27.710  1.00  0.00     0.074 A 
ATOM     19  C   UNL A   1      39.606  25.589  28.424  1.00  0.00     0.031 C 
ATOM     20  C   UNL A   1      42.131  31.899  29.654  1.00  0.00     0.029 A 
ATOM     21  C   UNL A   1      42.955  30.990  28.852  1.00  0.00     0.049 A 
ATOM     22  H   UNL A   1      42.565  28.960  28.503  1.00  0.00     0.167 HD
ATOM     23  C   UNL A   1      41.485  24.980  27.016  1.00  0.00     0.034 A 
ATOM     24  C   UNL A   1      44.134  31.318  28.269  1.00  0.00     0.034 A 
ATOM     25  C   UNL A   1      42.813  25.175  26.506  1.00  0.00     0.049 A 
ATOM     26  C   UNL A   1      44.913  30.242  27.542  1.00  0.00     0.074 A 
ATOM     27  C   UNL A   1      43.645  24.254  25.891  1.00  0.00     0.029 A 
ATOM     28  N   UNL A   1      43.538  26.344  26.647  1.00  0.00    -0.354 N 
ATOM     29  N   UNL A   1      44.543  29.026  27.209  1.00  0.00    -0.248 NA
ATOM     30  C   UNL A   1      46.296  30.569  27.162  1.00  0.00     0.031 C 
ATOM     31  C   UNL A   1      44.910  24.832  25.767  1.00  0.00     0.029 A 
ATOM     32  C   UNL A   1      44.834  26.145  26.204  1.00  0.00     0.049 A 
ATOM     33  H   UNL A   1      43.186  27.190  27.007  1.00  0.00     0.167 HD
ATOM     34  C   UNL A   1      45.667  28.434  26.631  1.00  0.00     0.074 A 
ATOM     35  C   UNL A   1      46.694  29.451  26.576  1.00  0.00     0.031 C 
ATOM     36  C   UNL A   1      45.858  27.155  26.217  1.00  0.00     0.034 A 
BRANCH  23  37
ATOM     37  C   UNL A   1      40.899  23.576  26.918  1.00  0.00     0.023 A 
ATOM     38  C   UNL A   1      39.747  23.288  26.161  1.00  0.00     0.031 A 
ATOM     39  C   UNL A   1      41.531  22.504  27.580  1.00  0.00     0.131 A 
ATOM     40  C   UNL A   1      39.263  21.967  26.094  1.00  0.00     0.055 A 
ATOM     41  C   UNL A   1      41.073  21.189  27.471  1.00  0.00     0.041 A 
ATOM     42  F   UNL A   1      42.614  22.720  28.343  1.00  0.00    -0.206 F 
ATOM     43  C   UNL A   1      39.931  20.914  26.727  1.00  0.00     0.022 A 
BRANCH  40  44
ATOM     44  S   UNL A   1      37.701  21.633  25.225  1.00  0.00     0.124 S 
ATOM     45  O   UNL A   1      36.728  21.728  26.311  1.00  0.00    -0.237 OA
ATOM     46  O   UNL A   1      37.657  22.698  24.231  1.00  0.00    -0.237 OA
ATOM     47  O   UNL A   1      37.887  20.286  24.685  1.00  0.00    -0.744 OA
ENDBRANCH  40  44
ENDBRANCH  23  37
BRANCH  24  48
ATOM     48  C   UNL A   1      44.722  32.697  28.426  1.00  0.00     0.023 A 
ATOM     49  C   UNL A   1      45.417  33.090  29.588  1.00  0.00     0.031 A 
ATOM     50  C   UNL A   1      44.528  33.680  27.436  1.00  0.00     0.131 A 
ATOM     51  C   UNL A   1      45.859  34.421  29.729  1.00  0.00     0.055 A 
ATOM     52  C   UNL A   1      45.065  34.963  27.534  1.00  0.00     0.041 A 
ATOM     53  F   UNL A   1      43.810  33.407  26.334  1.00  0.00    -0.206 F 
ATOM     54  C   UNL A   1      45.725  35.344  28.692  1.00  0.00     0.022 A 
BRANCH  51  55
ATOM     55  S   UNL A   1      46.458  34.990  31.349  1.00  0.00     0.124 S 
ATOM     56  O   UNL A   1      45.305  34.725  32.202  1.00  0.00    -0.237 OA
ATOM     57  O   UNL A   1      47.624  34.139  31.559  1.00  0.00    -0.237 OA
ATOM     58  O   UNL A   1      46.751  36.405  31.123  1.00  0.00    -0.744 OA
ENDBRANCH  51  55
ENDBRANCH  24  48
BRANCH  36  59
ATOM     59  C   UNL A   1      47.237  26.779  25.739  1.00  0.00     0.023 A 
ATOM     60  C   UNL A   1      48.151  26.151  26.605  1.00  0.00     0.031 A 
ATOM     61  C   UNL A   1      47.643  27.041  24.422  1.00  0.00     0.131 A 
ATOM     62  C   UNL A   1      49.449  25.869  26.162  1.00  0.00     0.055 A 
ATOM     63  C   UNL A   1      48.917  26.697  23.966  1.00  0.00     0.041 A 
ATOM     64  F   UNL A   1      46.807  27.630  23.551  1.00  0.00    -0.206 F 
ATOM     65  C   UNL A   1      49.834  26.121  24.843  1.00  0.00     0.022 A 
BRANCH  62  66
ATOM     66  S   UNL A   1      50.661  25.258  27.365  1.00  0.00     0.124 S 
ATOM     67  O   UNL A   1      49.912  24.202  28.037  1.00  0.00    -0.237 OA
ATOM     68  O   UNL A   1      51.757  24.817  26.510  1.00  0.00    -0.237 OA
ATOM     69  O   UNL A   1      50.950  26.432  28.187  1.00  0.00    -0.744 OA
ENDBRANCH  62  66
ENDBRANCH  36  59
ENDBRANCH  10  11
ENDBRANCH   3   5
ENDBRANCH   2   3
ENDBRANCH   1   2
BRANCH   1  70
ATOM     70  C   UNL A   1      31.534  31.170  26.581  1.00  0.00     0.274 C 
BRANCH  70  71
ATOM     71  O   UNL A   1      32.001  29.830  26.903  1.00  0.00    -0.458 OA
BRANCH  71  72
ATOM     72  C   UNL A   1      31.696  28.800  26.056  1.00  0.00     0.365 C 
ATOM     73  O   UNL A   1      31.235  27.732  26.458  1.00  0.00    -0.245 OA
BRANCH  72  74
ATOM     74  C   UNL A   1      31.734  29.184  24.515  1.00  0.00     0.295 C 
ATOM     75  C   UNL A   1      33.508  28.728  24.128  1.00  0.00     0.078 C 
ATOM     76  N   UNL A   1      30.514  28.685  23.545  1.00  0.00    -0.317 N 
ATOM     77  C   UNL A   1      33.909  27.074  22.713  1.00  0.00     0.013 C 
ATOM     78  C   UNL A   1      30.613  27.516  22.259  1.00  0.00     0.263 C 
ATOM     79  H   UNL A   1      31.262  28.346  22.939  1.00  0.00     0.349 HD
ATOM     80  C   UNL A   1      32.216  26.520  21.780  1.00  0.00     0.062 C 
BRANCH  76  81
ATOM     81  C   UNL A   1      29.213  29.280  23.862  1.00  0.00     0.339 C 
BRANCH  81  82
ATOM     82  C   UNL A   1      29.089  30.694  23.372  1.00  0.00     0.165 A 
ATOM     83  C   UNL A   1      29.318  31.937  23.952  1.00  0.00     0.059 A 
ATOM     84  O   UNL A   1      28.559  30.862  22.122  1.00  0.00    -0.400 OA
ATOM     85  C   UNL A   1      28.775  32.909  23.069  1.00  0.00     0.134 A 
ATOM     86  C   UNL A   1      28.371  32.197  21.967  1.00  0.00     0.433 A 
BRANCH  86  87
ATOM     87  N   UNL A   1      27.718  32.599  20.769  1.00  0.00     0.102 N 
ATOM     88  O   UNL A   1      27.543  31.741  19.895  1.00  0.00    -0.256 OA
ATOM     89  O   UNL A   1      27.406  33.795  20.688  1.00  0.00    -0.256 OA
ENDBRANCH  86  87
ENDBRANCH  81  82
ENDBRANCH  76  81
ENDBRANCH  72  74
ENDBRANCH  71  72
ENDBRANCH  70  71
ENDBRANCH   1  70
TORSDOF 17
ENDMDL
MODEL 2
REMARK VINA RESULT:     -11.6      5.553     11.399
REMARK SMILES O=C(OCCOC(=O)[C@H]1CCCC[N@H+]1Cc1ccc([N+](=O)[O-])o1)c1ccc(-c2c3nc(c(-c4cc(S(=O)(=O)[O-])ccc4F)c4ccc([nH]4)c(-c4cc(S(=O)(=O)[O-])ccc4F)c4nc(c(-c5cc(S(=O)(=O)[O-])ccc5F)c5ccc2[nH]5)C=C4)C=C3)cc1
REMARK SMILES IDX 4 1 3 2 2 3 1 4 24 5 25 6 86 7 26 8 85 9 27 10 28 11 29 12
REMARK SMILES IDX 79 13 30 14 84 15 78 16 80 17 31 18 83 19 77 20 76 21 32 23
REMARK SMILES IDX 64 24 44 25 63 26 45 27 48 28 62 29 81 30 46 31 47 32 61 34
REMARK SMILES IDX 82 35 49 36 33 37 34 38 42 39 35 40 41 41 43 42 40 43 36 44
REMARK SMILES IDX 37 45 38 46 39 47 65 48 66 49 74 50 67 51 73 52 75 53 72 54
REMARK SMILES IDX 68 55 69 56 70 57 71 58 50 59 51 60 59 61 52 62 58 63 60 64
REMARK SMILES IDX 57 65 53 66 54 67 55 68 56 69 5 70 6 71 7 72 8 73 9 74 10 75
REMARK SMILES IDX 14 76 11 77 13 78 12 80 15 81 16 82 17 83 23 84 18 85 19 86
REMARK SMILES IDX 20 87 21 88 22 89
REMARK H PARENT 80 22 48 33 14 79
REMARK Flexibility Score: inf
ROOT
ATOM      1  C   UNL A   1      38.479  20.992  24.937  1.00  0.00     0.275 C 
ENDROOT
BRANCH   1   2
ATOM      2  O   UNL A   1      39.290  21.202  26.129  1.00  0.00    -0.458 OA
BRANCH   2   3
ATOM      3  C   UNL A   1      40.598  21.657  26.083  1.00  0.00     0.338 C 
ATOM      4  O   UNL A   1      41.507  20.989  25.612  1.00  0.00    -0.246 OA
BRANCH   3   5
ATOM      5  C   UNL A   1      40.878  22.757  27.070  1.00  0.00     0.060 A 
ATOM      6  C   UNL A   1      42.367  23.440  26.815  1.00  0.00     0.016 A 
ATOM      7  C   UNL A   1      39.525  23.698  27.627  1.00  0.00     0.016 A 
ATOM      8  C   UNL A   1      42.563  25.153  27.001  1.00  0.00     0.010 A 
ATOM      9  C   UNL A   1      39.570  25.419  27.917  1.00  0.00     0.010 A 
ATOM     10  C   UNL A   1      41.103  26.300  27.650  1.00  0.00    -0.014 A 
BRANCH  10  11
ATOM     11  C   UNL A   1      40.943  27.525  28.785  1.00  0.00     0.031 A 
ATOM     12  C   UNL A   1      39.711  28.553  28.782  1.00  0.00     0.074 A 
ATOM     13  C   UNL A   1      41.790  27.680  29.824  1.00  0.00     0.049 A 
ATOM     14  N   UNL A   1      39.121  29.152  29.807  1.00  0.00    -0.248 NA
ATOM     15  C   UNL A   1      39.056  28.937  27.514  1.00  0.00     0.031 C 
ATOM     16  C   UNL A   1      43.057  26.989  29.957  1.00  0.00     0.029 A 
ATOM     17  N   UNL A   1      41.641  28.340  31.031  1.00  0.00    -0.354 N 
ATOM     18  C   UNL A   1      38.018  29.864  29.292  1.00  0.00     0.074 A 
ATOM     19  C   UNL A   1      37.986  29.616  27.883  1.00  0.00     0.031 C 
ATOM     20  C   UNL A   1      43.446  27.041  31.239  1.00  0.00     0.029 A 
ATOM     21  C   UNL A   1      42.554  27.928  31.989  1.00  0.00     0.049 A 
ATOM     22  H   UNL A   1      40.958  29.031  31.192  1.00  0.00     0.167 HD
ATOM     23  C   UNL A   1      37.141  30.730  29.865  1.00  0.00     0.034 A 
ATOM     24  C   UNL A   1      42.672  28.217  33.308  1.00  0.00     0.034 A 
ATOM     25  C   UNL A   1      37.279  31.230  31.204  1.00  0.00     0.049 A 
ATOM     26  C   UNL A   1      41.720  29.222  33.924  1.00  0.00     0.074 A 
ATOM     27  C   UNL A   1      36.519  32.193  31.847  1.00  0.00     0.029 A 
ATOM     28  N   UNL A   1      38.302  30.881  32.065  1.00  0.00    -0.354 N 
ATOM     29  N   UNL A   1      40.632  29.758  33.419  1.00  0.00    -0.248 NA
ATOM     30  C   UNL A   1      42.050  29.705  35.274  1.00  0.00     0.031 C 
ATOM     31  C   UNL A   1      37.155  32.509  33.051  1.00  0.00     0.029 A 
ATOM     32  C   UNL A   1      38.244  31.666  33.203  1.00  0.00     0.049 A 
ATOM     33  H   UNL A   1      38.972  30.179  31.895  1.00  0.00     0.167 HD
ATOM     34  C   UNL A   1      40.185  30.675  34.371  1.00  0.00     0.074 A 
ATOM     35  C   UNL A   1      41.064  30.554  35.513  1.00  0.00     0.031 C 
ATOM     36  C   UNL A   1      39.167  31.571  34.301  1.00  0.00     0.034 A 
BRANCH  23  37
ATOM     37  C   UNL A   1      36.049  31.347  28.999  1.00  0.00     0.023 A 
ATOM     38  C   UNL A   1      34.978  30.593  28.480  1.00  0.00     0.031 A 
ATOM     39  C   UNL A   1      36.076  32.726  28.713  1.00  0.00     0.131 A 
ATOM     40  C   UNL A   1      33.989  31.223  27.699  1.00  0.00     0.055 A 
ATOM     41  C   UNL A   1      35.067  33.353  27.978  1.00  0.00     0.041 A 
ATOM     42  F   UNL A   1      37.088  33.492  29.152  1.00  0.00    -0.206 F 
ATOM     43  C   UNL A   1      34.016  32.601  27.465  1.00  0.00     0.022 A 
BRANCH  40  44
ATOM     44  S   UNL A   1      32.688  30.216  26.926  1.00  0.00     0.124 S 
ATOM     45  O   UNL A   1      31.492  31.010  27.201  1.00  0.00    -0.237 OA
ATOM     46  O   UNL A   1      33.114  30.161  25.533  1.00  0.00    -0.237 OA
ATOM     47  O   UNL A   1      32.760  28.945  27.648  1.00  0.00    -0.744 OA
ENDBRANCH  40  44
ENDBRANCH  23  37
BRANCH  24  48
ATOM     48  C   UNL A   1      43.793  27.640  34.133  1.00  0.00     0.023 A 
ATOM     49  C   UNL A   1      43.672  26.412  34.815  1.00  0.00     0.031 A 
ATOM     50  C   UNL A   1      44.993  28.356  34.319  1.00  0.00     0.131 A 
ATOM     51  C   UNL A   1      44.711  25.966  35.655  1.00  0.00     0.055 A 
ATOM     52  C   UNL A   1      46.061  27.855  35.062  1.00  0.00     0.041 A 
ATOM     53  F   UNL A   1      45.156  29.569  33.767  1.00  0.00    -0.206 F 
ATOM     54  C   UNL A   1      45.918  26.658  35.748  1.00  0.00     0.022 A 
BRANCH  51  55
ATOM     55  S   UNL A   1      44.410  24.560  36.768  1.00  0.00     0.124 S 
ATOM     56  O   UNL A   1      43.459  25.129  37.716  1.00  0.00    -0.237 OA
ATOM     57  O   UNL A   1      43.883  23.554  35.853  1.00  0.00    -0.237 OA
ATOM     58  O   UNL A   1      45.735  24.272  37.316  1.00  0.00    -0.744 OA
ENDBRANCH  51  55
ENDBRANCH  24  48
BRANCH  36  59
ATOM     59  C   UNL A   1      39.001  32.523  35.457  1.00  0.00     0.023 A 
ATOM     60  C   UNL A   1      39.568  33.810  35.416  1.00  0.00     0.031 A 
ATOM     61  C   UNL A   1      38.277  32.153  36.601  1.00  0.00     0.131 A 
ATOM     62  C   UNL A   1      39.458  34.657  36.526  1.00  0.00     0.055 A 
ATOM     63  C   UNL A   1      38.115  33.026  37.679  1.00  0.00     0.041 A 
ATOM     64  F   UNL A   1      37.709  30.940  36.690  1.00  0.00    -0.206 F 
ATOM     65  C   UNL A   1      38.720  34.280  37.651  1.00  0.00     0.022 A 
BRANCH  62  66
ATOM     66  S   UNL A   1      40.378  36.219  36.518  1.00  0.00     0.124 S 
ATOM     67  O   UNL A   1      41.761  35.755  36.525  1.00  0.00    -0.237 OA
ATOM     68  O   UNL A   1      39.921  36.846  35.283  1.00  0.00    -0.237 OA
ATOM     69  O   UNL A   1      39.940  36.880  37.746  1.00  0.00    -0.744 OA
ENDBRANCH  62  66
ENDBRANCH  36  59
ENDBRANCH  10  11
ENDBRANCH   3   5
ENDBRANCH   2   3
ENDBRANCH   1   2
BRANCH   1  70
ATOM     70  C   UNL A   1      37.016  20.465  25.185  1.00  0.00     0.274 C 
BRANCH  70  71
ATOM     71  O   UNL A   1      35.926  21.410  24.995  1.00  0.00    -0.458 OA
BRANCH  71  72
ATOM     72  C   UNL A   1      34.991  21.551  25.983  1.00  0.00     0.365 C 
ATOM     73  O   UNL A   1      35.282  21.491  27.177  1.00  0.00    -0.245 OA
BRANCH  72  74
ATOM     74  C   UNL A   1      33.571  22.053  25.477  1.00  0.00     0.295 C 
ATOM     75  C   UNL A   1      33.993  23.837  25.099  1.00  0.00     0.078 C 
ATOM     76  N   UNL A   1      32.751  21.142  24.393  1.00  0.00    -0.317 N 
ATOM     77  C   UNL A   1      33.890  24.545  23.004  1.00  0.00     0.013 C 
ATOM     78  C   UNL A   1      32.403  21.548  22.736  1.00  0.00     0.263 C 
ATOM     79  H   UNL A   1      32.659  22.015  23.872  1.00  0.00     0.349 HD
ATOM     80  C   UNL A   1      33.003  23.168  21.838  1.00  0.00     0.062 C 
BRANCH  76  81
ATOM     81  C   UNL A   1      32.325  19.837  24.905  1.00  0.00     0.339 C 
BRANCH  81  82
ATOM     82  C   UNL A   1      33.111  18.700  24.316  1.00  0.00     0.165 A 
ATOM     83  C   UNL A   1      33.235  18.180  23.033  1.00  0.00     0.059 A 
ATOM     84  O   UNL A   1      33.804  17.918  25.198  1.00  0.00    -0.400 OA
ATOM     85  C   UNL A   1      33.925  16.944  23.155  1.00  0.00     0.134 A 
ATOM     86  C   UNL A   1      34.275  16.866  24.481  1.00  0.00     0.433 A 
BRANCH  86  87
ATOM     87  N   UNL A   1      34.942  15.853  25.225  1.00  0.00     0.102 N 
ATOM     88  O   UNL A   1      36.064  16.115  25.674  1.00  0.00    -0.256 OA
ATOM     89  O   UNL A   1      34.348  14.771  25.334  1.00  0.00    -0.256 OA
ENDBRANCH  86  87
ENDBRANCH  81  82
ENDBRANCH  76  81
ENDBRANCH  72  74
ENDBRANCH  71  72
ENDBRANCH  70  71
ENDBRANCH   1  70
TORSDOF 17
ENDMDL
MODEL 3
REMARK VINA RESULT:     -11.2      6.131      9.606
REMARK SMILES O=C(OCCOC(=O)[C@H]1CCCC[N@H+]1Cc1ccc([N+](=O)[O-])o1)c1ccc(-c2c3nc(c(-c4cc(S(=O)(=O)[O-])ccc4F)c4ccc([nH]4)c(-c4cc(S(=O)(=O)[O-])ccc4F)c4nc(c(-c5cc(S(=O)(=O)[O-])ccc5F)c5ccc2[nH]5)C=C4)C=C3)cc1
REMARK SMILES IDX 4 1 3 2 2 3 1 4 24 5 25 6 86 7 26 8 85 9 27 10 28 11 29 12
REMARK SMILES IDX 79 13 30 14 84 15 78 16 80 17 31 18 83 19 77 20 76 21 32 23
REMARK SMILES IDX 64 24 44 25 63 26 45 27 48 28 62 29 81 30 46 31 47 32 61 34
REMARK SMILES IDX 82 35 49 36 33 37 34 38 42 39 35 40 41 41 43 42 40 43 36 44
REMARK SMILES IDX 37 45 38 46 39 47 65 48 66 49 74 50 67 51 73 52 75 53 72 54
REMARK SMILES IDX 68 55 69 56 70 57 71 58 50 59 51 60 59 61 52 62 58 63 60 64
REMARK SMILES IDX 57 65 53 66 54 67 55 68 56 69 5 70 6 71 7 72 8 73 9 74 10 75
REMARK SMILES IDX 14 76 11 77 13 78 12 80 15 81 16 82 17 83 23 84 18 85 19 86
REMARK SMILES IDX 20 87 21 88 22 89
REMARK H PARENT 80 22 48 33 14 79
REMARK Flexibility Score: inf
ROOT
ATOM      1  C   UNL A   1      33.453  29.300  25.926  1.00  0.00     0.275 C 
ENDROOT
BRANCH   1   2
ATOM      2  O   UNL A   1      34.124  29.942  27.048  1.00  0.00    -0.458 OA
BRANCH   2   3
ATOM      3  C   UNL A   1      33.677  31.121  27.622  1.00  0.00     0.338 C 
ATOM      4  O   UNL A   1      32.584  31.602  27.361  1.00  0.00    -0.246 OA
BRANCH   3   5
ATOM      5  C   UNL A   1      34.790  31.977  28.163  1.00  0.00     0.060 A 
ATOM      6  C   UNL A   1      34.272  33.520  28.482  1.00  0.00     0.016 A 
ATOM      7  C   UNL A   1      35.996  31.197  29.144  1.00  0.00     0.016 A 
ATOM      8  C   UNL A   1      34.862  34.344  29.889  1.00  0.00     0.010 A 
ATOM      9  C   UNL A   1      36.731  31.910  30.558  1.00  0.00     0.010 A 
ATOM     10  C   UNL A   1      36.245  33.560  31.047  1.00  0.00    -0.014 A 
BRANCH  10  11
ATOM     11  C   UNL A   1      37.669  34.091  31.758  1.00  0.00     0.031 A 
ATOM     12  C   UNL A   1      37.925  34.022  33.340  1.00  0.00     0.074 A 
ATOM     13  C   UNL A   1      38.726  34.534  31.045  1.00  0.00     0.049 A 
ATOM     14  N   UNL A   1      39.064  33.843  33.994  1.00  0.00    -0.248 NA
ATOM     15  C   UNL A   1      36.799  34.143  34.289  1.00  0.00     0.031 C 
ATOM     16  C   UNL A   1      38.686  34.841  29.629  1.00  0.00     0.029 A 
ATOM     17  N   UNL A   1      40.064  34.650  31.375  1.00  0.00    -0.354 N 
ATOM     18  C   UNL A   1      38.745  33.742  35.364  1.00  0.00     0.074 A 
ATOM     19  C   UNL A   1      37.321  33.848  35.466  1.00  0.00     0.031 C 
ATOM     20  C   UNL A   1      39.940  34.856  29.154  1.00  0.00     0.029 A 
ATOM     21  C   UNL A   1      40.889  34.745  30.265  1.00  0.00     0.049 A 
ATOM     22  H   UNL A   1      40.396  34.663  32.301  1.00  0.00     0.167 HD
ATOM     23  C   UNL A   1      39.518  33.665  36.479  1.00  0.00     0.034 A 
ATOM     24  C   UNL A   1      42.238  34.745  30.139  1.00  0.00     0.034 A 
ATOM     25  C   UNL A   1      40.944  33.825  36.470  1.00  0.00     0.049 A 
ATOM     26  C   UNL A   1      43.089  34.710  31.393  1.00  0.00     0.074 A 
ATOM     27  C   UNL A   1      41.813  33.880  37.547  1.00  0.00     0.029 A 
ATOM     28  N   UNL A   1      41.695  34.060  35.333  1.00  0.00    -0.354 N 
ATOM     29  N   UNL A   1      42.730  34.489  32.637  1.00  0.00    -0.248 NA
ATOM     30  C   UNL A   1      44.525  34.981  31.225  1.00  0.00     0.031 C 
ATOM     31  C   UNL A   1      43.068  34.264  37.068  1.00  0.00     0.029 A 
ATOM     32  C   UNL A   1      43.003  34.340  35.686  1.00  0.00     0.049 A 
ATOM     33  H   UNL A   1      41.351  34.032  34.410  1.00  0.00     0.167 HD
ATOM     34  C   UNL A   1      43.889  34.650  33.398  1.00  0.00     0.074 A 
ATOM     35  C   UNL A   1      44.970  34.893  32.469  1.00  0.00     0.031 C 
ATOM     36  C   UNL A   1      44.049  34.641  34.747  1.00  0.00     0.034 A 
BRANCH  23  37
ATOM     37  C   UNL A   1      38.834  33.579  37.839  1.00  0.00     0.023 A 
ATOM     38  C   UNL A   1      38.247  32.391  38.317  1.00  0.00     0.031 A 
ATOM     39  C   UNL A   1      38.797  34.710  38.678  1.00  0.00     0.131 A 
ATOM     40  C   UNL A   1      37.644  32.369  39.591  1.00  0.00     0.055 A 
ATOM     41  C   UNL A   1      38.240  34.668  39.958  1.00  0.00     0.041 A 
ATOM     42  F   UNL A   1      39.311  35.880  38.265  1.00  0.00    -0.206 F 
ATOM     43  C   UNL A   1      37.657  33.494  40.421  1.00  0.00     0.022 A 
BRANCH  40  44
ATOM     44  S   UNL A   1      36.774  30.870  40.139  1.00  0.00     0.124 S 
ATOM     45  O   UNL A   1      35.518  31.420  40.642  1.00  0.00    -0.237 OA
ATOM     46  O   UNL A   1      36.685  30.088  38.913  1.00  0.00    -0.237 OA
ATOM     47  O   UNL A   1      37.656  30.315  41.167  1.00  0.00    -0.744 OA
ENDBRANCH  40  44
ENDBRANCH  23  37
BRANCH  24  48
ATOM     48  C   UNL A   1      42.893  34.888  28.790  1.00  0.00     0.023 A 
ATOM     49  C   UNL A   1      43.314  33.774  28.035  1.00  0.00     0.031 A 
ATOM     50  C   UNL A   1      43.184  36.161  28.262  1.00  0.00     0.131 A 
ATOM     51  C   UNL A   1      44.013  33.963  26.827  1.00  0.00     0.055 A 
ATOM     52  C   UNL A   1      43.777  36.340  27.013  1.00  0.00     0.041 A 
ATOM     53  F   UNL A   1      42.887  37.272  28.956  1.00  0.00    -0.206 F 
ATOM     54  C   UNL A   1      44.208  35.237  26.293  1.00  0.00     0.022 A 
BRANCH  51  55
ATOM     55  S   UNL A   1      44.824  32.539  26.039  1.00  0.00     0.124 S 
ATOM     56  O   UNL A   1      46.165  32.607  26.610  1.00  0.00    -0.237 OA
ATOM     57  O   UNL A   1      43.990  31.428  26.483  1.00  0.00    -0.237 OA
ATOM     58  O   UNL A   1      44.742  32.850  24.612  1.00  0.00    -0.744 OA
ENDBRANCH  51  55
ENDBRANCH  24  48
BRANCH  36  59
ATOM     59  C   UNL A   1      45.418  34.967  35.284  1.00  0.00     0.023 A 
ATOM     60  C   UNL A   1      46.361  33.948  35.515  1.00  0.00     0.031 A 
ATOM     61  C   UNL A   1      45.790  36.291  35.565  1.00  0.00     0.131 A 
ATOM     62  C   UNL A   1      47.605  34.263  36.076  1.00  0.00     0.055 A 
ATOM     63  C   UNL A   1      47.056  36.606  36.063  1.00  0.00     0.041 A 
ATOM     64  F   UNL A   1      44.932  37.303  35.355  1.00  0.00    -0.206 F 
ATOM     65  C   UNL A   1      47.966  35.588  36.336  1.00  0.00     0.022 A 
BRANCH  62  66
ATOM     66  S   UNL A   1      48.708  32.906  36.556  1.00  0.00     0.124 S 
ATOM     67  O   UNL A   1      50.006  33.570  36.590  1.00  0.00    -0.237 OA
ATOM     68  O   UNL A   1      48.164  32.501  37.847  1.00  0.00    -0.237 OA
ATOM     69  O   UNL A   1      48.539  31.932  35.480  1.00  0.00    -0.744 OA
ENDBRANCH  62  66
ENDBRANCH  36  59
ENDBRANCH  10  11
ENDBRANCH   3   5
ENDBRANCH   2   3
ENDBRANCH   1   2
BRANCH   1  70
ATOM     70  C   UNL A   1      33.814  27.787  25.683  1.00  0.00     0.274 C 
BRANCH  70  71
ATOM     71  O   UNL A   1      34.058  27.372  24.310  1.00  0.00    -0.458 OA
BRANCH  71  72
ATOM     72  C   UNL A   1      33.615  28.168  23.289  1.00  0.00     0.365 C 
ATOM     73  O   UNL A   1      34.341  28.995  22.738  1.00  0.00    -0.245 OA
BRANCH  72  74
ATOM     74  C   UNL A   1      32.195  27.759  22.707  1.00  0.00     0.295 C 
ATOM     75  C   UNL A   1      32.633  26.096  21.966  1.00  0.00     0.078 C 
ATOM     76  N   UNL A   1      30.873  27.926  23.658  1.00  0.00    -0.317 N 
ATOM     77  C   UNL A   1      31.714  24.268  22.809  1.00  0.00     0.013 C 
ATOM     78  C   UNL A   1      29.890  26.649  24.315  1.00  0.00     0.263 C 
ATOM     79  H   UNL A   1      30.675  26.962  23.388  1.00  0.00     0.349 HD
ATOM     80  C   UNL A   1      30.237  24.746  24.087  1.00  0.00     0.062 C 
BRANCH  76  81
ATOM     81  C   UNL A   1      30.551  29.313  24.000  1.00  0.00     0.339 C 
BRANCH  81  82
ATOM     82  C   UNL A   1      29.474  29.890  23.127  1.00  0.00     0.165 A 
ATOM     83  C   UNL A   1      28.623  29.353  22.167  1.00  0.00     0.059 A 
ATOM     84  O   UNL A   1      29.307  31.247  23.180  1.00  0.00    -0.400 OA
ATOM     85  C   UNL A   1      28.005  30.449  21.506  1.00  0.00     0.134 A 
ATOM     86  C   UNL A   1      28.429  31.559  22.193  1.00  0.00     0.433 A 
BRANCH  86  87
ATOM     87  N   UNL A   1      28.190  32.946  21.989  1.00  0.00     0.102 N 
ATOM     88  O   UNL A   1      27.627  33.284  20.941  1.00  0.00    -0.256 OA
ATOM     89  O   UNL A   1      28.598  33.711  22.875  1.00  0.00    -0.256 OA
ENDBRANCH  86  87
ENDBRANCH  81  82
ENDBRANCH  76  81
ENDBRANCH  72  74
ENDBRANCH  71  72
ENDBRANCH  70  71
ENDBRANCH   1  70
TORSDOF 17
ENDMDL
