MODEL 1
REMARK VINA RESULT:     -10.1      0.000      0.000
REMARK SMILES COc1ccc2cc([C@H](C)C(=O)OCCOC(=O)c3ccc(-c4c5nc(c(-c6cc(S(=O)(=O)[O-])ccc6F)c6ccc([nH]6)c(-c6cc(S(=O)(=O)[O-])ccc6F)c6nc(c(-c7cc(S(=O)(=O)[O-])ccc7F)c7ccc4[nH]7)C=C6)C=C5)cc3)ccc2c1
REMARK SMILES IDX 15 1 14 2 13 3 11 4 12 5 9 6 10 7 8 8 3 9 4 10 85 11 5 12
REMARK SMILES IDX 84 13 6 14 83 15 7 16 82 17 2 18 1 19 16 20 17 21 18 22
REMARK SMILES IDX 19 23 20 24 81 25 21 26 80 27 22 28 23 29 24 30 74 31 25 32
REMARK SMILES IDX 79 33 73 34 75 35 26 36 78 37 72 38 71 39 27 41 59 42 39 43
REMARK SMILES IDX 58 44 40 45 43 46 57 47 76 48 41 49 42 50 56 52 77 53 44 54
REMARK SMILES IDX 28 55 29 56 37 57 30 58 36 59 38 60 35 61 31 62 32 63 33 64
REMARK SMILES IDX 34 65 60 66 61 67 69 68 62 69 68 70 70 71 67 72 63 73 64 74
REMARK SMILES IDX 65 75 66 76 45 77 46 78 54 79 47 80 53 81 55 82 52 83 48 84
REMARK SMILES IDX 49 85 50 86 51 87
REMARK H PARENT 75 40 43 51
REMARK Flexibility Score: inf
ROOT
ATOM      1  C   UNL A   1      33.530  34.000  28.419  1.00  0.00     0.275 C 
ENDROOT
BRANCH   1   2
ATOM      2  C   UNL A   1      34.275  34.553  29.639  1.00  0.00     0.274 C 
BRANCH   2   3
ATOM      3  O   UNL A   1      33.901  33.868  30.850  1.00  0.00    -0.462 OA
BRANCH   3   4
ATOM      4  C   UNL A   1      34.926  33.391  31.606  1.00  0.00     0.313 C 
ATOM      5  O   UNL A   1      35.359  32.246  31.532  1.00  0.00    -0.252 OA
BRANCH   4   6
ATOM      6  C   UNL A   1      35.476  34.421  32.590  1.00  0.00     0.126 C 
ATOM      7  C   UNL A   1      34.936  34.315  34.016  1.00  0.00     0.025 C 
BRANCH   6   8
ATOM      8  C   UNL A   1      36.991  34.463  32.524  1.00  0.00    -0.033 A 
ATOM      9  C   UNL A   1      41.815  34.519  30.955  1.00  0.00     0.119 A 
ATOM     10  C   UNL A   1      41.038  34.502  29.799  1.00  0.00     0.047 A 
ATOM     11  C   UNL A   1      41.202  34.475  32.209  1.00  0.00     0.055 A 
ATOM     12  C   UNL A   1      39.646  34.484  29.899  1.00  0.00     0.012 A 
ATOM     13  C   UNL A   1      39.804  34.468  32.326  1.00  0.00    -0.015 A 
ATOM     14  C   UNL A   1      39.017  34.476  31.155  1.00  0.00    -0.018 A 
ATOM     15  C   UNL A   1      39.171  34.453  33.580  1.00  0.00     0.009 A 
ATOM     16  C   UNL A   1      37.622  34.468  31.268  1.00  0.00     0.013 A 
ATOM     17  C   UNL A   1      37.779  34.449  33.679  1.00  0.00     0.005 A 
BRANCH   9  18
ATOM     18  O   UNL A   1      43.184  34.530  30.958  1.00  0.00    -0.497 OA
ATOM     19  C   UNL A   1      43.746  35.590  30.189  1.00  0.00     0.278 C 
ENDBRANCH   9  18
ENDBRANCH   6   8
ENDBRANCH   4   6
ENDBRANCH   3   4
ENDBRANCH   2   3
ENDBRANCH   1   2
BRANCH   1  20
ATOM     20  O   UNL A   1      34.380  33.200  27.577  1.00  0.00    -0.458 OA
BRANCH  20  21
ATOM     21  C   UNL A   1      34.234  31.862  27.732  1.00  0.00     0.338 C 
ATOM     22  O   UNL A   1      33.234  31.205  27.500  1.00  0.00    -0.246 OA
BRANCH  21  23
ATOM     23  C   UNL A   1      35.519  31.251  28.103  1.00  0.00     0.060 A 
ATOM     24  C   UNL A   1      35.515  29.913  28.506  1.00  0.00     0.016 A 
ATOM     25  C   UNL A   1      36.690  32.004  28.164  1.00  0.00     0.016 A 
ATOM     26  C   UNL A   1      36.673  29.322  28.994  1.00  0.00     0.010 A 
ATOM     27  C   UNL A   1      37.860  31.407  28.650  1.00  0.00     0.010 A 
ATOM     28  C   UNL A   1      37.852  30.070  29.085  1.00  0.00    -0.014 A 
BRANCH  28  29
ATOM     29  C   UNL A   1      39.047  29.464  29.719  1.00  0.00     0.031 A 
ATOM     30  C   UNL A   1      39.485  29.942  31.073  1.00  0.00     0.074 A 
ATOM     31  C   UNL A   1      39.702  28.463  29.104  1.00  0.00     0.049 A 
ATOM     32  N   UNL A   1      40.547  29.618  31.766  1.00  0.00    -0.248 NA
ATOM     33  C   UNL A   1      38.609  30.922  31.733  1.00  0.00     0.031 C 
ATOM     34  C   UNL A   1      39.321  27.870  27.821  1.00  0.00     0.029 A 
ATOM     35  N   UNL A   1      40.821  27.765  29.477  1.00  0.00    -0.354 N 
ATOM     36  C   UNL A   1      40.479  30.366  32.936  1.00  0.00     0.074 A 
ATOM     37  C   UNL A   1      39.284  31.180  32.845  1.00  0.00     0.031 C 
ATOM     38  C   UNL A   1      40.192  26.894  27.516  1.00  0.00     0.029 A 
ATOM     39  C   UNL A   1      41.222  26.831  28.549  1.00  0.00     0.049 A 
ATOM     40  H   UNL A   1      41.294  27.917  30.327  1.00  0.00     0.167 HD
ATOM     41  C   UNL A   1      41.336  30.371  33.988  1.00  0.00     0.034 A 
ATOM     42  C   UNL A   1      42.312  26.042  28.522  1.00  0.00     0.034 A 
ATOM     43  C   UNL A   1      42.521  29.551  34.058  1.00  0.00     0.049 A 
ATOM     44  C   UNL A   1      43.295  26.124  29.663  1.00  0.00     0.074 A 
ATOM     45  C   UNL A   1      43.470  29.484  35.063  1.00  0.00     0.029 A 
ATOM     46  N   UNL A   1      42.923  28.653  33.075  1.00  0.00    -0.354 N 
ATOM     47  N   UNL A   1      43.249  26.871  30.742  1.00  0.00    -0.248 NA
ATOM     48  C   UNL A   1      44.478  25.257  29.579  1.00  0.00     0.031 C 
ATOM     49  C   UNL A   1      44.472  28.590  34.664  1.00  0.00     0.029 A 
ATOM     50  C   UNL A   1      44.116  28.045  33.441  1.00  0.00     0.049 A 
ATOM     51  H   UNL A   1      42.433  28.472  32.241  1.00  0.00     0.167 HD
ATOM     52  C   UNL A   1      44.385  26.546  31.478  1.00  0.00     0.074 A 
ATOM     53  C   UNL A   1      45.088  25.527  30.725  1.00  0.00     0.031 C 
ATOM     54  C   UNL A   1      44.808  27.041  32.669  1.00  0.00     0.034 A 
BRANCH  41  55
ATOM     55  C   UNL A   1      41.046  31.343  35.107  1.00  0.00     0.023 A 
ATOM     56  C   UNL A   1      39.939  31.188  35.958  1.00  0.00     0.031 A 
ATOM     57  C   UNL A   1      41.865  32.472  35.290  1.00  0.00     0.131 A 
ATOM     58  C   UNL A   1      39.637  32.182  36.902  1.00  0.00     0.055 A 
ATOM     59  C   UNL A   1      41.604  33.418  36.283  1.00  0.00     0.041 A 
ATOM     60  F   UNL A   1      42.923  32.686  34.492  1.00  0.00    -0.206 F 
ATOM     61  C   UNL A   1      40.475  33.284  37.086  1.00  0.00     0.022 A 
BRANCH  58  62
ATOM     62  S   UNL A   1      38.055  32.090  37.785  1.00  0.00     0.124 S 
ATOM     63  O   UNL A   1      37.328  33.218  37.206  1.00  0.00    -0.237 OA
ATOM     64  O   UNL A   1      37.569  30.763  37.426  1.00  0.00    -0.237 OA
ATOM     65  O   UNL A   1      38.434  32.257  39.187  1.00  0.00    -0.744 OA
ENDBRANCH  58  62
ENDBRANCH  41  55
BRANCH  42  66
ATOM     66  C   UNL A   1      42.568  25.149  27.357  1.00  0.00     0.023 A 
ATOM     67  C   UNL A   1      42.099  23.826  27.340  1.00  0.00     0.031 A 
ATOM     68  C   UNL A   1      43.324  25.596  26.259  1.00  0.00     0.131 A 
ATOM     69  C   UNL A   1      42.420  22.986  26.262  1.00  0.00     0.055 A 
ATOM     70  C   UNL A   1      43.600  24.772  25.168  1.00  0.00     0.041 A 
ATOM     71  F   UNL A   1      43.798  26.852  26.228  1.00  0.00    -0.206 F 
ATOM     72  C   UNL A   1      43.157  23.454  25.170  1.00  0.00     0.022 A 
BRANCH  69  73
ATOM     73  S   UNL A   1      41.923  21.243  26.341  1.00  0.00     0.124 S 
ATOM     74  O   UNL A   1      42.813  20.635  25.358  1.00  0.00    -0.237 OA
ATOM     75  O   UNL A   1      42.188  20.914  27.737  1.00  0.00    -0.237 OA
ATOM     76  O   UNL A   1      40.511  21.275  25.968  1.00  0.00    -0.744 OA
ENDBRANCH  69  73
ENDBRANCH  42  66
BRANCH  54  77
ATOM     77  C   UNL A   1      46.067  26.442  33.243  1.00  0.00     0.023 A 
ATOM     78  C   UNL A   1      47.331  27.010  33.004  1.00  0.00     0.031 A 
ATOM     79  C   UNL A   1      45.999  25.273  34.021  1.00  0.00     0.131 A 
ATOM     80  C   UNL A   1      48.483  26.376  33.495  1.00  0.00     0.055 A 
ATOM     81  C   UNL A   1      47.145  24.677  34.551  1.00  0.00     0.041 A 
ATOM     82  F   UNL A   1      44.818  24.690  34.277  1.00  0.00    -0.206 F 
ATOM     83  C   UNL A   1      48.396  25.222  34.278  1.00  0.00     0.022 A 
BRANCH  80  84
ATOM     84  S   UNL A   1      50.107  27.033  33.024  1.00  0.00     0.124 S 
ATOM     85  O   UNL A   1      50.037  27.003  31.567  1.00  0.00    -0.237 OA
ATOM     86  O   UNL A   1      50.097  28.358  33.636  1.00  0.00    -0.237 OA
ATOM     87  O   UNL A   1      51.047  26.085  33.619  1.00  0.00    -0.744 OA
ENDBRANCH  80  84
ENDBRANCH  54  77
ENDBRANCH  28  29
ENDBRANCH  21  23
ENDBRANCH  20  21
ENDBRANCH   1  20
TORSDOF 16
ENDMDL
MODEL 2
REMARK VINA RESULT:     -10.1      3.814     11.487
REMARK SMILES COc1ccc2cc([C@H](C)C(=O)OCCOC(=O)c3ccc(-c4c5nc(c(-c6cc(S(=O)(=O)[O-])ccc6F)c6ccc([nH]6)c(-c6cc(S(=O)(=O)[O-])ccc6F)c6nc(c(-c7cc(S(=O)(=O)[O-])ccc7F)c7ccc4[nH]7)C=C6)C=C5)cc3)ccc2c1
REMARK SMILES IDX 15 1 14 2 13 3 11 4 12 5 9 6 10 7 8 8 3 9 4 10 85 11 5 12
REMARK SMILES IDX 84 13 6 14 83 15 7 16 82 17 2 18 1 19 16 20 17 21 18 22
REMARK SMILES IDX 19 23 20 24 81 25 21 26 80 27 22 28 23 29 24 30 74 31 25 32
REMARK SMILES IDX 79 33 73 34 75 35 26 36 78 37 72 38 71 39 27 41 59 42 39 43
REMARK SMILES IDX 58 44 40 45 43 46 57 47 76 48 41 49 42 50 56 52 77 53 44 54
REMARK SMILES IDX 28 55 29 56 37 57 30 58 36 59 38 60 35 61 31 62 32 63 33 64
REMARK SMILES IDX 34 65 60 66 61 67 69 68 62 69 68 70 70 71 67 72 63 73 64 74
REMARK SMILES IDX 65 75 66 76 45 77 46 78 54 79 47 80 53 81 55 82 52 83 48 84
REMARK SMILES IDX 49 85 50 86 51 87
REMARK H PARENT 75 40 43 51
REMARK Flexibility Score: inf
ROOT
ATOM      1  C   UNL A   1      40.893  19.829  26.148  1.00  0.00     0.275 C 
ENDROOT
BRANCH   1   2
ATOM      2  C   UNL A   1      42.385  19.903  25.807  1.00  0.00     0.274 C 
BRANCH   2   3
ATOM      3  O   UNL A   1      43.029  21.015  26.459  1.00  0.00    -0.462 OA
BRANCH   3   4
ATOM      4  C   UNL A   1      43.492  21.998  25.640  1.00  0.00     0.313 C 
ATOM      5  O   UNL A   1      42.772  22.729  24.968  1.00  0.00    -0.252 OA
BRANCH   4   6
ATOM      6  C   UNL A   1      45.016  22.090  25.614  1.00  0.00     0.126 C 
ATOM      7  C   UNL A   1      45.630  22.362  24.242  1.00  0.00     0.025 C 
BRANCH   6   8
ATOM      8  C   UNL A   1      45.510  23.036  26.691  1.00  0.00    -0.033 A 
ATOM      9  C   UNL A   1      46.013  25.793  30.920  1.00  0.00     0.119 A 
ATOM     10  C   UNL A   1      44.862  25.028  31.098  1.00  0.00     0.047 A 
ATOM     11  C   UNL A   1      46.726  25.713  29.723  1.00  0.00     0.055 A 
ATOM     12  C   UNL A   1      44.449  24.152  30.092  1.00  0.00     0.012 A 
ATOM     13  C   UNL A   1      46.330  24.829  28.707  1.00  0.00    -0.015 A 
ATOM     14  C   UNL A   1      45.178  24.037  28.898  1.00  0.00    -0.018 A 
ATOM     15  C   UNL A   1      47.052  24.716  27.508  1.00  0.00     0.009 A 
ATOM     16  C   UNL A   1      44.780  23.155  27.887  1.00  0.00     0.013 A 
ATOM     17  C   UNL A   1      46.646  23.830  26.509  1.00  0.00     0.005 A 
BRANCH   9  18
ATOM     18  O   UNL A   1      46.492  26.682  31.844  1.00  0.00    -0.497 OA
ATOM     19  C   UNL A   1      45.534  27.657  32.247  1.00  0.00     0.278 C 
ENDBRANCH   9  18
ENDBRANCH   6   8
ENDBRANCH   4   6
ENDBRANCH   3   4
ENDBRANCH   2   3
ENDBRANCH   1   2
BRANCH   1  20
ATOM     20  O   UNL A   1      40.490  20.868  27.059  1.00  0.00    -0.458 OA
BRANCH  20  21
ATOM     21  C   UNL A   1      39.648  21.789  26.533  1.00  0.00     0.338 C 
ATOM     22  O   UNL A   1      38.694  21.576  25.806  1.00  0.00    -0.246 OA
BRANCH  21  23
ATOM     23  C   UNL A   1      39.955  23.123  27.072  1.00  0.00     0.060 A 
ATOM     24  C   UNL A   1      39.320  24.224  26.492  1.00  0.00     0.016 A 
ATOM     25  C   UNL A   1      40.930  23.304  28.051  1.00  0.00     0.016 A 
ATOM     26  C   UNL A   1      39.669  25.515  26.867  1.00  0.00     0.010 A 
ATOM     27  C   UNL A   1      41.278  24.604  28.435  1.00  0.00     0.010 A 
ATOM     28  C   UNL A   1      40.663  25.716  27.831  1.00  0.00    -0.014 A 
BRANCH  28  29
ATOM     29  C   UNL A   1      41.110  27.096  28.135  1.00  0.00     0.031 A 
ATOM     30  C   UNL A   1      42.522  27.500  27.818  1.00  0.00     0.074 A 
ATOM     31  C   UNL A   1      40.243  27.989  28.645  1.00  0.00     0.049 A 
ATOM     32  N   UNL A   1      43.145  28.620  28.082  1.00  0.00    -0.248 NA
ATOM     33  C   UNL A   1      43.341  26.505  27.111  1.00  0.00     0.031 C 
ATOM     34  C   UNL A   1      38.830  27.727  28.924  1.00  0.00     0.029 A 
ATOM     35  N   UNL A   1      40.420  29.297  29.016  1.00  0.00    -0.354 N 
ATOM     36  C   UNL A   1      44.436  28.459  27.592  1.00  0.00     0.074 A 
ATOM     37  C   UNL A   1      44.511  27.123  27.038  1.00  0.00     0.031 C 
ATOM     38  C   UNL A   1      38.269  28.842  29.418  1.00  0.00     0.029 A 
ATOM     39  C   UNL A   1      39.292  29.877  29.546  1.00  0.00     0.049 A 
ATOM     40  H   UNL A   1      41.275  29.776  28.912  1.00  0.00     0.167 HD
ATOM     41  C   UNL A   1      45.462  29.348  27.604  1.00  0.00     0.034 A 
ATOM     42  C   UNL A   1      39.114  31.090  30.101  1.00  0.00     0.034 A 
ATOM     43  C   UNL A   1      45.364  30.675  28.161  1.00  0.00     0.049 A 
ATOM     44  C   UNL A   1      40.289  32.031  30.178  1.00  0.00     0.074 A 
ATOM     45  C   UNL A   1      46.339  31.654  28.244  1.00  0.00     0.029 A 
ATOM     46  N   UNL A   1      44.217  31.211  28.737  1.00  0.00    -0.354 N 
ATOM     47  N   UNL A   1      41.520  31.853  29.757  1.00  0.00    -0.248 NA
ATOM     48  C   UNL A   1      40.050  33.336  30.808  1.00  0.00     0.031 C 
ATOM     49  C   UNL A   1      45.799  32.757  28.918  1.00  0.00     0.029 A 
ATOM     50  C   UNL A   1      44.467  32.497  29.195  1.00  0.00     0.049 A 
ATOM     51  H   UNL A   1      43.352  30.748  28.807  1.00  0.00     0.167 HD
ATOM     52  C   UNL A   1      42.197  33.033  30.051  1.00  0.00     0.074 A 
ATOM     53  C   UNL A   1      41.233  33.919  30.671  1.00  0.00     0.031 C 
ATOM     54  C   UNL A   1      43.495  33.359  29.824  1.00  0.00     0.034 A 
BRANCH  41  55
ATOM     55  C   UNL A   1      46.787  28.876  27.055  1.00  0.00     0.023 A 
ATOM     56  C   UNL A   1      46.944  28.503  25.709  1.00  0.00     0.031 A 
ATOM     57  C   UNL A   1      47.898  28.748  27.908  1.00  0.00     0.131 A 
ATOM     58  C   UNL A   1      48.159  27.952  25.273  1.00  0.00     0.055 A 
ATOM     59  C   UNL A   1      49.128  28.270  27.450  1.00  0.00     0.041 A 
ATOM     60  F   UNL A   1      47.802  29.065  29.209  1.00  0.00    -0.206 F 
ATOM     61  C   UNL A   1      49.259  27.854  26.129  1.00  0.00     0.022 A 
BRANCH  58  62
ATOM     62  S   UNL A   1      48.237  27.226  23.612  1.00  0.00     0.124 S 
ATOM     63  O   UNL A   1      49.676  27.231  23.356  1.00  0.00    -0.237 OA
ATOM     64  O   UNL A   1      47.628  25.915  23.811  1.00  0.00    -0.237 OA
ATOM     65  O   UNL A   1      47.462  28.156  22.793  1.00  0.00    -0.744 OA
ENDBRANCH  58  62
ENDBRANCH  41  55
BRANCH  42  66
ATOM     66  C   UNL A   1      37.793  31.469  30.677  1.00  0.00     0.023 A 
ATOM     67  C   UNL A   1      36.855  32.196  29.928  1.00  0.00     0.031 A 
ATOM     68  C   UNL A   1      37.468  31.144  32.006  1.00  0.00     0.131 A 
ATOM     69  C   UNL A   1      35.651  32.604  30.524  1.00  0.00     0.055 A 
ATOM     70  C   UNL A   1      36.249  31.510  32.579  1.00  0.00     0.041 A 
ATOM     71  F   UNL A   1      38.332  30.452  32.767  1.00  0.00    -0.206 F 
ATOM     72  C   UNL A   1      35.337  32.255  31.840  1.00  0.00     0.022 A 
BRANCH  69  73
ATOM     73  S   UNL A   1      34.528  33.665  29.574  1.00  0.00     0.124 S 
ATOM     74  O   UNL A   1      33.972  32.723  28.609  1.00  0.00    -0.237 OA
ATOM     75  O   UNL A   1      33.613  34.141  30.607  1.00  0.00    -0.237 OA
ATOM     76  O   UNL A   1      35.414  34.683  29.013  1.00  0.00    -0.744 OA
ENDBRANCH  69  73
ENDBRANCH  42  66
BRANCH  54  77
ATOM     77  C   UNL A   1      43.923  34.752  30.213  1.00  0.00     0.023 A 
ATOM     78  C   UNL A   1      43.826  35.831  29.317  1.00  0.00     0.031 A 
ATOM     79  C   UNL A   1      44.455  34.993  31.491  1.00  0.00     0.131 A 
ATOM     80  C   UNL A   1      44.306  37.095  29.695  1.00  0.00     0.055 A 
ATOM     81  C   UNL A   1      44.881  36.264  31.880  1.00  0.00     0.041 A 
ATOM     82  F   UNL A   1      44.570  33.997  32.383  1.00  0.00    -0.206 F 
ATOM     83  C   UNL A   1      44.819  37.320  30.975  1.00  0.00     0.022 A 
BRANCH  80  84
ATOM     84  S   UNL A   1      44.329  38.424  28.461  1.00  0.00     0.124 S 
ATOM     85  O   UNL A   1      45.707  38.897  28.550  1.00  0.00    -0.237 OA
ATOM     86  O   UNL A   1      43.976  37.717  27.234  1.00  0.00    -0.237 OA
ATOM     87  O   UNL A   1      43.319  39.362  28.947  1.00  0.00    -0.744 OA
ENDBRANCH  80  84
ENDBRANCH  54  77
ENDBRANCH  28  29
ENDBRANCH  21  23
ENDBRANCH  20  21
ENDBRANCH   1  20
TORSDOF 16
ENDMDL
MODEL 3
REMARK VINA RESULT:      -9.9      4.794     11.494
REMARK SMILES COc1ccc2cc([C@H](C)C(=O)OCCOC(=O)c3ccc(-c4c5nc(c(-c6cc(S(=O)(=O)[O-])ccc6F)c6ccc([nH]6)c(-c6cc(S(=O)(=O)[O-])ccc6F)c6nc(c(-c7cc(S(=O)(=O)[O-])ccc7F)c7ccc4[nH]7)C=C6)C=C5)cc3)ccc2c1
REMARK SMILES IDX 15 1 14 2 13 3 11 4 12 5 9 6 10 7 8 8 3 9 4 10 85 11 5 12
REMARK SMILES IDX 84 13 6 14 83 15 7 16 82 17 2 18 1 19 16 20 17 21 18 22
REMARK SMILES IDX 19 23 20 24 81 25 21 26 80 27 22 28 23 29 24 30 74 31 25 32
REMARK SMILES IDX 79 33 73 34 75 35 26 36 78 37 72 38 71 39 27 41 59 42 39 43
REMARK SMILES IDX 58 44 40 45 43 46 57 47 76 48 41 49 42 50 56 52 77 53 44 54
REMARK SMILES IDX 28 55 29 56 37 57 30 58 36 59 38 60 35 61 31 62 32 63 33 64
REMARK SMILES IDX 34 65 60 66 61 67 69 68 62 69 68 70 70 71 67 72 63 73 64 74
REMARK SMILES IDX 65 75 66 76 45 77 46 78 54 79 47 80 53 81 55 82 52 83 48 84
REMARK SMILES IDX 49 85 50 86 51 87
REMARK H PARENT 75 40 43 51
REMARK Flexibility Score: inf
ROOT
ATOM      1  C   UNL A   1      37.820  19.805  24.962  1.00  0.00     0.275 C 
ENDROOT
BRANCH   1   2
ATOM      2  C   UNL A   1      36.292  19.908  25.023  1.00  0.00     0.274 C 
BRANCH   2   3
ATOM      3  O   UNL A   1      35.863  21.113  25.686  1.00  0.00    -0.462 OA
BRANCH   3   4
ATOM      4  C   UNL A   1      35.032  21.921  24.974  1.00  0.00     0.313 C 
ATOM      5  O   UNL A   1      33.840  21.694  24.794  1.00  0.00    -0.252 OA
BRANCH   4   6
ATOM      6  C   UNL A   1      35.739  23.140  24.385  1.00  0.00     0.126 C 
ATOM      7  C   UNL A   1      36.558  22.873  23.123  1.00  0.00     0.025 C 
BRANCH   6   8
ATOM      8  C   UNL A   1      34.770  24.297  24.238  1.00  0.00    -0.033 A 
ATOM      9  C   UNL A   1      31.876  28.383  25.055  1.00  0.00     0.119 A 
ATOM     10  C   UNL A   1      32.595  28.183  26.232  1.00  0.00     0.047 A 
ATOM     11  C   UNL A   1      32.024  27.496  23.987  1.00  0.00     0.055 A 
ATOM     12  C   UNL A   1      33.493  27.118  26.323  1.00  0.00     0.012 A 
ATOM     13  C   UNL A   1      32.931  26.428  24.060  1.00  0.00    -0.015 A 
ATOM     14  C   UNL A   1      33.677  26.241  25.243  1.00  0.00    -0.018 A 
ATOM     15  C   UNL A   1      33.114  25.543  22.984  1.00  0.00     0.009 A 
ATOM     16  C   UNL A   1      34.583  25.176  25.320  1.00  0.00     0.013 A 
ATOM     17  C   UNL A   1      34.022  24.488  23.072  1.00  0.00     0.005 A 
BRANCH   9  18
ATOM     18  O   UNL A   1      30.970  29.392  24.873  1.00  0.00    -0.497 OA
ATOM     19  C   UNL A   1      30.464  29.470  23.543  1.00  0.00     0.278 C 
ENDBRANCH   9  18
ENDBRANCH   6   8
ENDBRANCH   4   6
ENDBRANCH   3   4
ENDBRANCH   2   3
ENDBRANCH   1   2
BRANCH   1  20
ATOM     20  O   UNL A   1      38.465  21.034  25.344  1.00  0.00    -0.458 OA
BRANCH  20  21
ATOM     21  C   UNL A   1      39.504  20.887  26.200  1.00  0.00     0.338 C 
ATOM     22  O   UNL A   1      40.105  19.856  26.449  1.00  0.00    -0.246 OA
BRANCH  21  23
ATOM     23  C   UNL A   1      39.924  22.197  26.718  1.00  0.00     0.060 A 
ATOM     24  C   UNL A   1      39.316  23.337  26.185  1.00  0.00     0.016 A 
ATOM     25  C   UNL A   1      40.975  22.316  27.626  1.00  0.00     0.016 A 
ATOM     26  C   UNL A   1      39.764  24.603  26.538  1.00  0.00     0.010 A 
ATOM     27  C   UNL A   1      41.424  23.593  27.986  1.00  0.00     0.010 A 
ATOM     28  C   UNL A   1      40.833  24.741  27.430  1.00  0.00    -0.014 A 
BRANCH  28  29
ATOM     29  C   UNL A   1      41.380  26.092  27.703  1.00  0.00     0.031 A 
ATOM     30  C   UNL A   1      42.751  26.447  27.204  1.00  0.00     0.074 A 
ATOM     31  C   UNL A   1      40.632  27.003  28.351  1.00  0.00     0.049 A 
ATOM     32  N   UNL A   1      43.454  27.531  27.407  1.00  0.00    -0.248 NA
ATOM     33  C   UNL A   1      43.420  25.441  26.365  1.00  0.00     0.031 C 
ATOM     34  C   UNL A   1      39.260  26.791  28.816  1.00  0.00     0.029 A 
ATOM     35  N   UNL A   1      40.917  28.290  28.726  1.00  0.00    -0.354 N 
ATOM     36  C   UNL A   1      44.657  27.333  26.739  1.00  0.00     0.074 A 
ATOM     37  C   UNL A   1      44.595  26.013  26.146  1.00  0.00     0.031 C 
ATOM     38  C   UNL A   1      38.823  27.911  29.412  1.00  0.00     0.029 A 
ATOM     39  C   UNL A   1      39.899  28.899  29.422  1.00  0.00     0.049 A 
ATOM     40  H   UNL A   1      41.770  28.737  28.518  1.00  0.00     0.167 HD
ATOM     41  C   UNL A   1      45.714  28.178  26.631  1.00  0.00     0.034 A 
ATOM     42  C   UNL A   1      39.854  30.101  30.027  1.00  0.00     0.034 A 
ATOM     43  C   UNL A   1      45.753  29.490  27.230  1.00  0.00     0.049 A 
ATOM     44  C   UNL A   1      41.071  30.990  29.964  1.00  0.00     0.074 A 
ATOM     45  C   UNL A   1      46.774  30.425  27.201  1.00  0.00     0.029 A 
ATOM     46  N   UNL A   1      44.722  30.055  27.972  1.00  0.00    -0.354 N 
ATOM     47  N   UNL A   1      42.223  30.774  29.373  1.00  0.00    -0.248 NA
ATOM     48  C   UNL A   1      40.980  32.283  30.655  1.00  0.00     0.031 C 
ATOM     49  C   UNL A   1      46.382  31.527  27.971  1.00  0.00     0.029 A 
ATOM     50  C   UNL A   1      45.090  31.314  28.424  1.00  0.00     0.049 A 
ATOM     51  H   UNL A   1      43.855  29.625  28.150  1.00  0.00     0.167 HD
ATOM     52  C   UNL A   1      42.986  31.916  29.599  1.00  0.00     0.074 A 
ATOM     53  C   UNL A   1      42.157  32.821  30.370  1.00  0.00     0.031 C 
ATOM     54  C   UNL A   1      44.254  32.195  29.203  1.00  0.00     0.034 A 
BRANCH  41  55
ATOM     55  C   UNL A   1      46.928  27.669  25.892  1.00  0.00     0.023 A 
ATOM     56  C   UNL A   1      47.176  28.002  24.549  1.00  0.00     0.031 A 
ATOM     57  C   UNL A   1      47.826  26.794  26.530  1.00  0.00     0.131 A 
ATOM     58  C   UNL A   1      48.247  27.406  23.866  1.00  0.00     0.055 A 
ATOM     59  C   UNL A   1      48.935  26.264  25.867  1.00  0.00     0.041 A 
ATOM     60  F   UNL A   1      47.629  26.420  27.804  1.00  0.00    -0.206 F 
ATOM     61  C   UNL A   1      49.142  26.557  24.522  1.00  0.00     0.022 A 
BRANCH  58  62
ATOM     62  S   UNL A   1      48.370  27.637  22.071  1.00  0.00     0.124 S 
ATOM     63  O   UNL A   1      47.063  28.210  21.757  1.00  0.00    -0.237 OA
ATOM     64  O   UNL A   1      49.510  28.538  21.945  1.00  0.00    -0.237 OA
ATOM     65  O   UNL A   1      48.586  26.283  21.564  1.00  0.00    -0.744 OA
ENDBRANCH  58  62
ENDBRANCH  41  55
BRANCH  42  66
ATOM     66  C   UNL A   1      38.644  30.516  30.791  1.00  0.00     0.023 A 
ATOM     67  C   UNL A   1      37.579  31.179  30.161  1.00  0.00     0.031 A 
ATOM     68  C   UNL A   1      38.554  30.291  32.176  1.00  0.00     0.131 A 
ATOM     69  C   UNL A   1      36.487  31.625  30.921  1.00  0.00     0.055 A 
ATOM     70  C   UNL A   1      37.444  30.692  32.919  1.00  0.00     0.041 A 
ATOM     71  F   UNL A   1      39.547  29.663  32.827  1.00  0.00    -0.206 F 
ATOM     72  C   UNL A   1      36.406  31.374  32.293  1.00  0.00     0.022 A 
BRANCH  69  73
ATOM     73  S   UNL A   1      35.200  32.605  30.101  1.00  0.00     0.124 S 
ATOM     74  O   UNL A   1      34.267  32.848  31.195  1.00  0.00    -0.237 OA
ATOM     75  O   UNL A   1      35.953  33.763  29.630  1.00  0.00    -0.237 OA
ATOM     76  O   UNL A   1      34.711  31.715  29.051  1.00  0.00    -0.744 OA
ENDBRANCH  69  73
ENDBRANCH  42  66
BRANCH  54  77
ATOM     77  C   UNL A   1      44.793  33.556  29.564  1.00  0.00     0.023 A 
ATOM     78  C   UNL A   1      44.659  34.657  28.700  1.00  0.00     0.031 A 
ATOM     79  C   UNL A   1      45.471  33.744  30.781  1.00  0.00     0.131 A 
ATOM     80  C   UNL A   1      45.242  35.887  29.043  1.00  0.00     0.055 A 
ATOM     81  C   UNL A   1      46.002  34.984  31.140  1.00  0.00     0.041 A 
ATOM     82  F   UNL A   1      45.628  32.726  31.641  1.00  0.00    -0.206 F 
ATOM     83  C   UNL A   1      45.900  36.060  30.263  1.00  0.00     0.022 A 
BRANCH  80  84
ATOM     84  S   UNL A   1      45.204  37.237  27.833  1.00  0.00     0.124 S 
ATOM     85  O   UNL A   1      43.803  37.238  27.422  1.00  0.00    -0.237 OA
ATOM     86  O   UNL A   1      45.634  38.382  28.629  1.00  0.00    -0.237 OA
ATOM     87  O   UNL A   1      46.151  36.806  26.807  1.00  0.00    -0.744 OA
ENDBRANCH  80  84
ENDBRANCH  54  77
ENDBRANCH  28  29
ENDBRANCH  21  23
ENDBRANCH  20  21
ENDBRANCH   1  20
TORSDOF 16
ENDMDL
