MODEL 1
REMARK VINA RESULT:     -12.1      0.000      0.000
REMARK SMILES O=C(OCCOC(=O)[C@H](CCc1ccccn1)c1ccccc1Br)c1ccc(-c2c3nc(c(-c4cc(S(=O)(=O)[O-])ccc4F)c4ccc([nH]4)c(-c4cc(S(=O)(=O)[O-])ccc4F)c4nc(c(-c5cc(S(=O)(=O)[O-])ccc5F)c5ccc2[nH]5)C=C4)C=C3)cc1
REMARK SMILES IDX 4 1 3 2 2 3 1 4 25 5 26 6 87 7 27 8 86 9 28 10 29 11 30 12
REMARK SMILES IDX 80 13 31 14 85 15 79 16 81 17 32 18 84 19 78 20 77 21 33 23
REMARK SMILES IDX 65 24 45 25 64 26 46 27 49 28 63 29 82 30 47 31 48 32 62 34
REMARK SMILES IDX 83 35 50 36 34 37 35 38 43 39 36 40 42 41 44 42 41 43 37 44
REMARK SMILES IDX 38 45 39 46 40 47 66 48 67 49 75 50 68 51 74 52 76 53 73 54
REMARK SMILES IDX 69 55 70 56 71 57 72 58 51 59 52 60 60 61 53 62 59 63 61 64
REMARK SMILES IDX 58 65 54 66 55 67 56 68 57 69 5 70 6 71 7 72 8 73 9 74 18 75
REMARK SMILES IDX 19 76 23 77 20 78 22 79 24 80 21 81 10 82 11 83 12 84 13 85
REMARK SMILES IDX 17 86 14 87 16 88 15 89
REMARK H PARENT 81 22 49 33
REMARK Flexibility Score: inf
ROOT
ATOM      1  C   UNL A   1      37.714  21.410  24.822  1.00  0.00     0.275 C 
ENDROOT
BRANCH   1   2
ATOM      2  O   UNL A   1      38.447  21.150  26.027  1.00  0.00    -0.458 OA
BRANCH   2   3
ATOM      3  C   UNL A   1      39.675  21.564  26.409  1.00  0.00     0.338 C 
ATOM      4  O   UNL A   1      40.563  20.712  26.460  1.00  0.00    -0.246 OA
BRANCH   3   5
ATOM      5  C   UNL A   1      40.026  22.963  26.851  1.00  0.00     0.060 A 
ATOM      6  C   UNL A   1      39.401  24.163  26.492  1.00  0.00     0.016 A 
ATOM      7  C   UNL A   1      41.077  23.055  27.776  1.00  0.00     0.016 A 
ATOM      8  C   UNL A   1      39.757  25.387  27.080  1.00  0.00     0.010 A 
ATOM      9  C   UNL A   1      41.419  24.266  28.378  1.00  0.00     0.010 A 
ATOM     10  C   UNL A   1      40.767  25.448  28.038  1.00  0.00    -0.014 A 
BRANCH  10  11
ATOM     11  C   UNL A   1      41.277  26.765  28.492  1.00  0.00     0.031 A 
ATOM     12  C   UNL A   1      42.668  27.146  28.091  1.00  0.00     0.074 A 
ATOM     13  C   UNL A   1      40.504  27.619  29.189  1.00  0.00     0.049 A 
ATOM     14  N   UNL A   1      43.305  28.266  28.287  1.00  0.00    -0.248 NA
ATOM     15  C   UNL A   1      43.462  26.107  27.418  1.00  0.00     0.031 C 
ATOM     16  C   UNL A   1      39.187  27.293  29.716  1.00  0.00     0.029 A 
ATOM     17  N   UNL A   1      40.679  28.931  29.553  1.00  0.00    -0.354 N 
ATOM     18  C   UNL A   1      44.583  28.053  27.789  1.00  0.00     0.074 A 
ATOM     19  C   UNL A   1      44.649  26.677  27.356  1.00  0.00     0.031 C 
ATOM     20  C   UNL A   1      38.619  28.397  30.227  1.00  0.00     0.029 A 
ATOM     21  C   UNL A   1      39.559  29.504  30.123  1.00  0.00     0.049 A 
ATOM     22  H   UNL A   1      41.526  29.417  29.420  1.00  0.00     0.167 HD
ATOM     23  C   UNL A   1      45.601  28.938  27.678  1.00  0.00     0.034 A 
ATOM     24  C   UNL A   1      39.330  30.779  30.505  1.00  0.00     0.034 A 
ATOM     25  C   UNL A   1      45.496  30.302  28.120  1.00  0.00     0.049 A 
ATOM     26  C   UNL A   1      40.471  31.759  30.344  1.00  0.00     0.074 A 
ATOM     27  C   UNL A   1      46.452  31.299  28.090  1.00  0.00     0.029 A 
ATOM     28  N   UNL A   1      44.352  30.860  28.684  1.00  0.00    -0.354 N 
ATOM     29  N   UNL A   1      41.671  31.551  29.845  1.00  0.00    -0.248 NA
ATOM     30  C   UNL A   1      40.239  33.131  30.803  1.00  0.00     0.031 C 
ATOM     31  C   UNL A   1      45.904  32.440  28.685  1.00  0.00     0.029 A 
ATOM     32  C   UNL A   1      44.581  32.183  29.015  1.00  0.00     0.049 A 
ATOM     33  H   UNL A   1      43.503  30.382  28.826  1.00  0.00     0.167 HD
ATOM     34  C   UNL A   1      42.329  32.774  29.916  1.00  0.00     0.074 A 
ATOM     35  C   UNL A   1      41.379  33.718  30.472  1.00  0.00     0.031 C 
ATOM     36  C   UNL A   1      43.603  33.092  29.568  1.00  0.00     0.034 A 
BRANCH  23  37
ATOM     37  C   UNL A   1      46.894  28.402  27.119  1.00  0.00     0.023 A 
ATOM     38  C   UNL A   1      47.145  28.389  25.733  1.00  0.00     0.031 A 
ATOM     39  C   UNL A   1      47.818  27.764  27.961  1.00  0.00     0.131 A 
ATOM     40  C   UNL A   1      48.219  27.644  25.226  1.00  0.00     0.055 A 
ATOM     41  C   UNL A   1      48.944  27.112  27.455  1.00  0.00     0.041 A 
ATOM     42  F   UNL A   1      47.615  27.716  29.288  1.00  0.00    -0.206 F 
ATOM     43  C   UNL A   1      49.137  27.028  26.078  1.00  0.00     0.022 A 
BRANCH  40  44
ATOM     44  S   UNL A   1      48.275  27.317  23.441  1.00  0.00     0.124 S 
ATOM     45  O   UNL A   1      49.586  27.853  23.086  1.00  0.00    -0.237 OA
ATOM     46  O   UNL A   1      48.142  25.866  23.380  1.00  0.00    -0.237 OA
ATOM     47  O   UNL A   1      47.136  28.070  22.920  1.00  0.00    -0.744 OA
ENDBRANCH  40  44
ENDBRANCH  23  37
BRANCH  24  48
ATOM     48  C   UNL A   1      38.013  31.219  31.069  1.00  0.00     0.023 A 
ATOM     49  C   UNL A   1      37.025  31.801  30.250  1.00  0.00     0.031 A 
ATOM     50  C   UNL A   1      37.739  31.137  32.447  1.00  0.00     0.131 A 
ATOM     51  C   UNL A   1      35.848  32.323  30.817  1.00  0.00     0.055 A 
ATOM     52  C   UNL A   1      36.539  31.599  32.998  1.00  0.00     0.041 A 
ATOM     53  F   UNL A   1      38.638  30.602  33.288  1.00  0.00    -0.206 F 
ATOM     54  C   UNL A   1      35.592  32.211  32.184  1.00  0.00     0.022 A 
BRANCH  51  55
ATOM     55  S   UNL A   1      34.697  33.248  29.759  1.00  0.00     0.124 S 
ATOM     56  O   UNL A   1      33.829  33.880  30.746  1.00  0.00    -0.237 OA
ATOM     57  O   UNL A   1      35.601  34.136  29.035  1.00  0.00    -0.237 OA
ATOM     58  O   UNL A   1      34.068  32.208  28.948  1.00  0.00    -0.744 OA
ENDBRANCH  51  55
ENDBRANCH  24  48
BRANCH  36  59
ATOM     59  C   UNL A   1      44.009  34.534  29.737  1.00  0.00     0.023 A 
ATOM     60  C   UNL A   1      43.796  35.485  28.725  1.00  0.00     0.031 A 
ATOM     61  C   UNL A   1      44.624  34.954  30.929  1.00  0.00     0.131 A 
ATOM     62  C   UNL A   1      44.258  36.797  28.897  1.00  0.00     0.055 A 
ATOM     63  C   UNL A   1      45.014  36.279  31.123  1.00  0.00     0.041 A 
ATOM     64  F   UNL A   1      44.851  34.084  31.926  1.00  0.00    -0.206 F 
ATOM     65  C   UNL A   1      44.846  37.204  30.097  1.00  0.00     0.022 A 
BRANCH  62  66
ATOM     66  S   UNL A   1      44.184  37.933  27.487  1.00  0.00     0.124 S 
ATOM     67  O   UNL A   1      43.971  39.218  28.144  1.00  0.00    -0.237 OA
ATOM     68  O   UNL A   1      45.490  37.743  26.865  1.00  0.00    -0.237 OA
ATOM     69  O   UNL A   1      43.050  37.439  26.709  1.00  0.00    -0.744 OA
ENDBRANCH  62  66
ENDBRANCH  36  59
ENDBRANCH  10  11
ENDBRANCH   3   5
ENDBRANCH   2   3
ENDBRANCH   1   2
BRANCH   1  70
ATOM     70  C   UNL A   1      36.325  22.000  25.082  1.00  0.00     0.274 C 
BRANCH  70  71
ATOM     71  O   UNL A   1      35.404  21.037  25.624  1.00  0.00    -0.462 OA
BRANCH  71  72
ATOM     72  C   UNL A   1      34.363  21.496  26.390  1.00  0.00     0.313 C 
ATOM     73  O   UNL A   1      34.386  21.569  27.612  1.00  0.00    -0.252 OA
BRANCH  72  74
ATOM     74  C   UNL A   1      33.167  21.870  25.493  1.00  0.00     0.131 C 
BRANCH  74  75
ATOM     75  C   UNL A   1      32.863  23.366  25.637  1.00  0.00    -0.020 A 
ATOM     76  C   UNL A   1      33.784  24.251  25.035  1.00  0.00     0.006 A 
ATOM     77  C   UNL A   1      31.763  23.952  26.285  1.00  0.00     0.022 A 
ATOM     78  C   UNL A   1      33.709  25.635  25.205  1.00  0.00     0.000 A 
ATOM     79  C   UNL A   1      31.724  25.337  26.511  1.00  0.00     0.016 A 
ATOM     80  Br  UNL A   1      30.188  23.010  26.786  1.00  0.00    -0.051 Br
ATOM     81  C   UNL A   1      32.708  26.174  25.994  1.00  0.00     0.001 A 
ENDBRANCH  74  75
BRANCH  74  82
ATOM     82  C   UNL A   1      33.292  21.313  24.042  1.00  0.00     0.026 C 
BRANCH  82  83
ATOM     83  C   UNL A   1      32.367  20.144  23.647  1.00  0.00     0.057 C 
BRANCH  83  84
ATOM     84  C   UNL A   1      32.736  18.730  24.042  1.00  0.00     0.040 A 
ATOM     85  C   UNL A   1      33.347  17.822  23.183  1.00  0.00     0.024 A 
ATOM     86  N   UNL A   1      32.465  18.404  25.334  1.00  0.00    -0.261 NA
ATOM     87  C   UNL A   1      33.620  16.531  23.636  1.00  0.00     0.003 A 
ATOM     88  C   UNL A   1      32.736  17.141  25.746  1.00  0.00     0.111 A 
ATOM     89  C   UNL A   1      33.294  16.173  24.936  1.00  0.00     0.020 A 
ENDBRANCH  83  84
ENDBRANCH  82  83
ENDBRANCH  74  82
ENDBRANCH  72  74
ENDBRANCH  71  72
ENDBRANCH  70  71
ENDBRANCH   1  70
TORSDOF 18
ENDMDL
MODEL 2
REMARK VINA RESULT:     -11.9      5.098     10.495
REMARK SMILES O=C(OCCOC(=O)[C@H](CCc1ccccn1)c1ccccc1Br)c1ccc(-c2c3nc(c(-c4cc(S(=O)(=O)[O-])ccc4F)c4ccc([nH]4)c(-c4cc(S(=O)(=O)[O-])ccc4F)c4nc(c(-c5cc(S(=O)(=O)[O-])ccc5F)c5ccc2[nH]5)C=C4)C=C3)cc1
REMARK SMILES IDX 4 1 3 2 2 3 1 4 25 5 26 6 87 7 27 8 86 9 28 10 29 11 30 12
REMARK SMILES IDX 80 13 31 14 85 15 79 16 81 17 32 18 84 19 78 20 77 21 33 23
REMARK SMILES IDX 65 24 45 25 64 26 46 27 49 28 63 29 82 30 47 31 48 32 62 34
REMARK SMILES IDX 83 35 50 36 34 37 35 38 43 39 36 40 42 41 44 42 41 43 37 44
REMARK SMILES IDX 38 45 39 46 40 47 66 48 67 49 75 50 68 51 74 52 76 53 73 54
REMARK SMILES IDX 69 55 70 56 71 57 72 58 51 59 52 60 60 61 53 62 59 63 61 64
REMARK SMILES IDX 58 65 54 66 55 67 56 68 57 69 5 70 6 71 7 72 8 73 9 74 18 75
REMARK SMILES IDX 19 76 23 77 20 78 22 79 24 80 21 81 10 82 11 83 12 84 13 85
REMARK SMILES IDX 17 86 14 87 16 88 15 89
REMARK H PARENT 81 22 49 33
REMARK Flexibility Score: inf
ROOT
ATOM      1  C   UNL A   1      31.935  30.153  26.831  1.00  0.00     0.275 C 
ENDROOT
BRANCH   1   2
ATOM      2  O   UNL A   1      32.980  31.117  26.645  1.00  0.00    -0.458 OA
BRANCH   2   3
ATOM      3  C   UNL A   1      33.811  31.688  27.546  1.00  0.00     0.338 C 
ATOM      4  O   UNL A   1      33.522  32.821  27.933  1.00  0.00    -0.246 OA
BRANCH   3   5
ATOM      5  C   UNL A   1      35.097  31.085  28.051  1.00  0.00     0.060 A 
ATOM      6  C   UNL A   1      35.382  29.736  28.289  1.00  0.00     0.016 A 
ATOM      7  C   UNL A   1      36.146  31.994  28.257  1.00  0.00     0.016 A 
ATOM      8  C   UNL A   1      36.669  29.303  28.644  1.00  0.00     0.010 A 
ATOM      9  C   UNL A   1      37.433  31.566  28.589  1.00  0.00     0.010 A 
ATOM     10  C   UNL A   1      37.711  30.216  28.789  1.00  0.00    -0.014 A 
BRANCH  10  11
ATOM     11  C   UNL A   1      39.005  29.777  29.367  1.00  0.00     0.031 A 
ATOM     12  C   UNL A   1      39.349  30.259  30.742  1.00  0.00     0.074 A 
ATOM     13  C   UNL A   1      39.819  28.927  28.713  1.00  0.00     0.049 A 
ATOM     14  N   UNL A   1      40.369  29.951  31.493  1.00  0.00    -0.248 NA
ATOM     15  C   UNL A   1      38.444  31.260  31.330  1.00  0.00     0.031 C 
ATOM     16  C   UNL A   1      39.622  28.497  27.337  1.00  0.00     0.029 A 
ATOM     17  N   UNL A   1      40.947  28.249  29.104  1.00  0.00    -0.354 N 
ATOM     18  C   UNL A   1      40.242  30.742  32.627  1.00  0.00     0.074 A 
ATOM     19  C   UNL A   1      39.095  31.596  32.426  1.00  0.00     0.031 C 
ATOM     20  C   UNL A   1      40.514  27.540  27.031  1.00  0.00     0.029 A 
ATOM     21  C   UNL A   1      41.394  27.332  28.173  1.00  0.00     0.049 A 
ATOM     22  H   UNL A   1      41.394  28.404  29.967  1.00  0.00     0.167 HD
ATOM     23  C   UNL A   1      41.002  30.735  33.746  1.00  0.00     0.034 A 
ATOM     24  C   UNL A   1      42.395  26.429  28.250  1.00  0.00     0.034 A 
ATOM     25  C   UNL A   1      42.138  29.870  33.908  1.00  0.00     0.049 A 
ATOM     26  C   UNL A   1      43.212  26.417  29.522  1.00  0.00     0.074 A 
ATOM     27  C   UNL A   1      43.008  29.773  34.977  1.00  0.00     0.029 A 
ATOM     28  N   UNL A   1      42.565  28.946  32.959  1.00  0.00    -0.354 N 
ATOM     29  N   UNL A   1      43.066  27.155  30.601  1.00  0.00    -0.248 NA
ATOM     30  C   UNL A   1      44.329  25.470  29.586  1.00  0.00     0.031 C 
ATOM     31  C   UNL A   1      43.991  28.832  34.650  1.00  0.00     0.029 A 
ATOM     32  C   UNL A   1      43.691  28.283  33.412  1.00  0.00     0.049 A 
ATOM     33  H   UNL A   1      42.128  28.787  32.091  1.00  0.00     0.167 HD
ATOM     34  C   UNL A   1      44.064  26.746  31.479  1.00  0.00     0.074 A 
ATOM     35  C   UNL A   1      44.779  25.674  30.815  1.00  0.00     0.031 C 
ATOM     36  C   UNL A   1      44.375  27.216  32.715  1.00  0.00     0.034 A 
BRANCH  23  37
ATOM     37  C   UNL A   1      40.636  31.740  34.808  1.00  0.00     0.023 A 
ATOM     38  C   UNL A   1      39.777  31.404  35.873  1.00  0.00     0.031 A 
ATOM     39  C   UNL A   1      41.025  33.083  34.676  1.00  0.00     0.131 A 
ATOM     40  C   UNL A   1      39.238  32.415  36.681  1.00  0.00     0.055 A 
ATOM     41  C   UNL A   1      40.566  34.070  35.551  1.00  0.00     0.041 A 
ATOM     42  F   UNL A   1      41.817  33.468  33.663  1.00  0.00    -0.206 F 
ATOM     43  C   UNL A   1      39.648  33.742  36.545  1.00  0.00     0.022 A 
BRANCH  40  44
ATOM     44  S   UNL A   1      37.841  32.000  37.763  1.00  0.00     0.124 S 
ATOM     45  O   UNL A   1      38.426  32.201  39.087  1.00  0.00    -0.237 OA
ATOM     46  O   UNL A   1      36.829  32.970  37.361  1.00  0.00    -0.237 OA
ATOM     47  O   UNL A   1      37.545  30.611  37.422  1.00  0.00    -0.744 OA
ENDBRANCH  40  44
ENDBRANCH  23  37
BRANCH  24  48
ATOM     48  C   UNL A   1      42.699  25.477  27.131  1.00  0.00     0.023 A 
ATOM     49  C   UNL A   1      42.202  24.159  27.140  1.00  0.00     0.031 A 
ATOM     50  C   UNL A   1      43.550  25.837  26.071  1.00  0.00     0.131 A 
ATOM     51  C   UNL A   1      42.600  23.243  26.149  1.00  0.00     0.055 A 
ATOM     52  C   UNL A   1      43.892  24.941  25.052  1.00  0.00     0.041 A 
ATOM     53  F   UNL A   1      44.067  27.074  26.004  1.00  0.00    -0.206 F 
ATOM     54  C   UNL A   1      43.430  23.630  25.096  1.00  0.00     0.022 A 
BRANCH  51  55
ATOM     55  S   UNL A   1      42.105  21.502  26.310  1.00  0.00     0.124 S 
ATOM     56  O   UNL A   1      43.068  20.838  25.440  1.00  0.00    -0.237 OA
ATOM     57  O   UNL A   1      42.268  21.274  27.742  1.00  0.00    -0.237 OA
ATOM     58  O   UNL A   1      40.724  21.495  25.834  1.00  0.00    -0.744 OA
ENDBRANCH  51  55
ENDBRANCH  24  48
BRANCH  36  59
ATOM     59  C   UNL A   1      45.506  26.528  33.435  1.00  0.00     0.023 A 
ATOM     60  C   UNL A   1      45.288  25.412  34.260  1.00  0.00     0.031 A 
ATOM     61  C   UNL A   1      46.821  27.006  33.293  1.00  0.00     0.131 A 
ATOM     62  C   UNL A   1      46.360  24.851  34.967  1.00  0.00     0.055 A 
ATOM     63  C   UNL A   1      47.894  26.397  33.942  1.00  0.00     0.041 A 
ATOM     64  F   UNL A   1      47.082  28.071  32.518  1.00  0.00    -0.206 F 
ATOM     65  C   UNL A   1      47.664  25.323  34.797  1.00  0.00     0.022 A 
BRANCH  62  66
ATOM     66  S   UNL A   1      46.007  23.572  36.201  1.00  0.00     0.124 S 
ATOM     67  O   UNL A   1      46.010  24.339  37.443  1.00  0.00    -0.237 OA
ATOM     68  O   UNL A   1      44.708  23.068  35.766  1.00  0.00    -0.237 OA
ATOM     69  O   UNL A   1      47.118  22.634  36.049  1.00  0.00    -0.744 OA
ENDBRANCH  62  66
ENDBRANCH  36  59
ENDBRANCH  10  11
ENDBRANCH   3   5
ENDBRANCH   2   3
ENDBRANCH   1   2
BRANCH   1  70
ATOM     70  C   UNL A   1      32.203  28.832  26.102  1.00  0.00     0.274 C 
BRANCH  70  71
ATOM     71  O   UNL A   1      31.086  27.927  26.163  1.00  0.00    -0.462 OA
BRANCH  71  72
ATOM     72  C   UNL A   1      31.314  26.599  25.904  1.00  0.00     0.313 C 
ATOM     73  O   UNL A   1      30.968  25.684  26.640  1.00  0.00    -0.252 OA
BRANCH  72  74
ATOM     74  C   UNL A   1      32.088  26.441  24.581  1.00  0.00     0.131 C 
BRANCH  74  75
ATOM     75  C   UNL A   1      33.048  25.250  24.685  1.00  0.00    -0.020 A 
ATOM     76  C   UNL A   1      34.246  25.473  25.398  1.00  0.00     0.006 A 
ATOM     77  C   UNL A   1      32.858  23.958  24.165  1.00  0.00     0.022 A 
ATOM     78  C   UNL A   1      35.268  24.525  25.453  1.00  0.00     0.000 A 
ATOM     79  C   UNL A   1      33.912  23.030  24.165  1.00  0.00     0.016 A 
ATOM     80  Br  UNL A   1      31.188  23.281  23.559  1.00  0.00    -0.051 Br
ATOM     81  C   UNL A   1      35.123  23.321  24.784  1.00  0.00     0.001 A 
ENDBRANCH  74  75
BRANCH  74  82
ATOM     82  C   UNL A   1      31.168  26.497  23.323  1.00  0.00     0.026 C 
BRANCH  82  83
ATOM     83  C   UNL A   1      31.187  27.792  22.486  1.00  0.00     0.057 C 
BRANCH  83  84
ATOM     84  C   UNL A   1      29.955  28.670  22.437  1.00  0.00     0.040 A 
ATOM     85  C   UNL A   1      28.785  28.401  23.140  1.00  0.00     0.024 A 
ATOM     86  N   UNL A   1      30.077  29.791  21.677  1.00  0.00    -0.261 NA
ATOM     87  C   UNL A   1      27.693  29.260  23.004  1.00  0.00     0.003 A 
ATOM     88  C   UNL A   1      28.999  30.606  21.559  1.00  0.00     0.111 A 
ATOM     89  C   UNL A   1      27.792  30.376  22.186  1.00  0.00     0.020 A 
ENDBRANCH  83  84
ENDBRANCH  82  83
ENDBRANCH  74  82
ENDBRANCH  72  74
ENDBRANCH  71  72
ENDBRANCH  70  71
ENDBRANCH   1  70
TORSDOF 18
ENDMDL
MODEL 3
REMARK VINA RESULT:     -11.8      1.956      3.180
REMARK SMILES O=C(OCCOC(=O)[C@H](CCc1ccccn1)c1ccccc1Br)c1ccc(-c2c3nc(c(-c4cc(S(=O)(=O)[O-])ccc4F)c4ccc([nH]4)c(-c4cc(S(=O)(=O)[O-])ccc4F)c4nc(c(-c5cc(S(=O)(=O)[O-])ccc5F)c5ccc2[nH]5)C=C4)C=C3)cc1
REMARK SMILES IDX 4 1 3 2 2 3 1 4 25 5 26 6 87 7 27 8 86 9 28 10 29 11 30 12
REMARK SMILES IDX 80 13 31 14 85 15 79 16 81 17 32 18 84 19 78 20 77 21 33 23
REMARK SMILES IDX 65 24 45 25 64 26 46 27 49 28 63 29 82 30 47 31 48 32 62 34
REMARK SMILES IDX 83 35 50 36 34 37 35 38 43 39 36 40 42 41 44 42 41 43 37 44
REMARK SMILES IDX 38 45 39 46 40 47 66 48 67 49 75 50 68 51 74 52 76 53 73 54
REMARK SMILES IDX 69 55 70 56 71 57 72 58 51 59 52 60 60 61 53 62 59 63 61 64
REMARK SMILES IDX 58 65 54 66 55 67 56 68 57 69 5 70 6 71 7 72 8 73 9 74 18 75
REMARK SMILES IDX 19 76 23 77 20 78 22 79 24 80 21 81 10 82 11 83 12 84 13 85
REMARK SMILES IDX 17 86 14 87 16 88 15 89
REMARK H PARENT 81 22 49 33
REMARK Flexibility Score: inf
ROOT
ATOM      1  C   UNL A   1      36.864  21.574  25.723  1.00  0.00     0.275 C 
ENDROOT
BRANCH   1   2
ATOM      2  O   UNL A   1      38.279  21.500  25.499  1.00  0.00    -0.458 OA
BRANCH   2   3
ATOM      3  C   UNL A   1      39.310  21.788  26.324  1.00  0.00     0.338 C 
ATOM      4  O   UNL A   1      39.946  20.837  26.778  1.00  0.00    -0.246 OA
BRANCH   3   5
ATOM      5  C   UNL A   1      39.692  23.170  26.793  1.00  0.00     0.060 A 
ATOM      6  C   UNL A   1      39.068  24.386  26.491  1.00  0.00     0.016 A 
ATOM      7  C   UNL A   1      40.777  23.224  27.680  1.00  0.00     0.016 A 
ATOM      8  C   UNL A   1      39.459  25.589  27.100  1.00  0.00     0.010 A 
ATOM      9  C   UNL A   1      41.155  24.414  28.304  1.00  0.00     0.010 A 
ATOM     10  C   UNL A   1      40.504  25.612  28.022  1.00  0.00    -0.014 A 
BRANCH  10  11
ATOM     11  C   UNL A   1      41.045  26.910  28.495  1.00  0.00     0.031 A 
ATOM     12  C   UNL A   1      42.450  27.256  28.111  1.00  0.00     0.074 A 
ATOM     13  C   UNL A   1      40.287  27.778  29.191  1.00  0.00     0.049 A 
ATOM     14  N   UNL A   1      43.115  28.357  28.326  1.00  0.00    -0.248 NA
ATOM     15  C   UNL A   1      43.222  26.202  27.437  1.00  0.00     0.031 C 
ATOM     16  C   UNL A   1      38.957  27.483  29.701  1.00  0.00     0.029 A 
ATOM     17  N   UNL A   1      40.495  29.081  29.570  1.00  0.00    -0.354 N 
ATOM     18  C   UNL A   1      44.392  28.113  27.839  1.00  0.00     0.074 A 
ATOM     19  C   UNL A   1      44.426  26.740  27.394  1.00  0.00     0.031 C 
ATOM     20  C   UNL A   1      38.413  28.598  30.217  1.00  0.00     0.029 A 
ATOM     21  C   UNL A   1      39.385  29.680  30.134  1.00  0.00     0.049 A 
ATOM     22  H   UNL A   1      41.356  29.545  29.451  1.00  0.00     0.167 HD
ATOM     23  C   UNL A   1      45.435  28.971  27.748  1.00  0.00     0.034 A 
ATOM     24  C   UNL A   1      39.187  30.957  30.526  1.00  0.00     0.034 A 
ATOM     25  C   UNL A   1      45.363  30.332  28.203  1.00  0.00     0.049 A 
ATOM     26  C   UNL A   1      40.356  31.906  30.386  1.00  0.00     0.074 A 
ATOM     27  C   UNL A   1      46.346  31.303  28.192  1.00  0.00     0.029 A 
ATOM     28  N   UNL A   1      44.229  30.916  28.760  1.00  0.00    -0.354 N 
ATOM     29  N   UNL A   1      41.555  31.670  29.898  1.00  0.00    -0.248 NA
ATOM     30  C   UNL A   1      40.156  33.280  30.857  1.00  0.00     0.031 C 
ATOM     31  C   UNL A   1      45.824  32.453  28.793  1.00  0.00     0.029 A 
ATOM     32  C   UNL A   1      44.491  32.230  29.106  1.00  0.00     0.049 A 
ATOM     33  H   UNL A   1      43.365  30.461  28.887  1.00  0.00     0.167 HD
ATOM     34  C   UNL A   1      42.246  32.873  29.989  1.00  0.00     0.074 A 
ATOM     35  C   UNL A   1      41.316  33.838  30.543  1.00  0.00     0.031 C 
ATOM     36  C   UNL A   1      43.532  33.160  29.658  1.00  0.00     0.034 A 
BRANCH  23  37
ATOM     37  C   UNL A   1      46.719  28.405  27.197  1.00  0.00     0.023 A 
ATOM     38  C   UNL A   1      46.999  28.427  25.817  1.00  0.00     0.031 A 
ATOM     39  C   UNL A   1      47.601  27.705  28.037  1.00  0.00     0.131 A 
ATOM     40  C   UNL A   1      48.056  27.658  25.307  1.00  0.00     0.055 A 
ATOM     41  C   UNL A   1      48.712  27.028  27.532  1.00  0.00     0.041 A 
ATOM     42  F   UNL A   1      47.367  27.622  29.356  1.00  0.00    -0.206 F 
ATOM     43  C   UNL A   1      48.931  26.981  26.157  1.00  0.00     0.022 A 
BRANCH  40  44
ATOM     44  S   UNL A   1      48.137  27.388  23.514  1.00  0.00     0.124 S 
ATOM     45  O   UNL A   1      47.990  25.937  23.430  1.00  0.00    -0.237 OA
ATOM     46  O   UNL A   1      47.009  28.171  23.023  1.00  0.00    -0.237 OA
ATOM     47  O   UNL A   1      49.457  27.898  23.150  1.00  0.00    -0.744 OA
ENDBRANCH  40  44
ENDBRANCH  23  37
BRANCH  24  48
ATOM     48  C   UNL A   1      37.876  31.428  31.080  1.00  0.00     0.023 A 
ATOM     49  C   UNL A   1      36.895  32.002  30.248  1.00  0.00     0.031 A 
ATOM     50  C   UNL A   1      37.603  31.383  32.460  1.00  0.00     0.131 A 
ATOM     51  C   UNL A   1      35.725  32.552  30.803  1.00  0.00     0.055 A 
ATOM     52  C   UNL A   1      36.409  31.874  33.000  1.00  0.00     0.041 A 
ATOM     53  F   UNL A   1      38.496  30.857  33.313  1.00  0.00    -0.206 F 
ATOM     54  C   UNL A   1      35.470  32.478  32.173  1.00  0.00     0.022 A 
BRANCH  51  55
ATOM     55  S   UNL A   1      34.585  33.466  29.723  1.00  0.00     0.124 S 
ATOM     56  O   UNL A   1      35.497  34.359  29.017  1.00  0.00    -0.237 OA
ATOM     57  O   UNL A   1      33.994  32.393  28.931  1.00  0.00    -0.237 OA
ATOM     58  O   UNL A   1      33.675  34.118  30.662  1.00  0.00    -0.744 OA
ENDBRANCH  51  55
ENDBRANCH  24  48
BRANCH  36  59
ATOM     59  C   UNL A   1      43.975  34.588  29.845  1.00  0.00     0.023 A 
ATOM     60  C   UNL A   1      43.785  35.558  28.847  1.00  0.00     0.031 A 
ATOM     61  C   UNL A   1      44.603  34.977  31.041  1.00  0.00     0.131 A 
ATOM     62  C   UNL A   1      44.281  36.855  29.035  1.00  0.00     0.055 A 
ATOM     63  C   UNL A   1      45.028  36.287  31.252  1.00  0.00     0.041 A 
ATOM     64  F   UNL A   1      44.810  34.087  32.025  1.00  0.00    -0.206 F 
ATOM     65  C   UNL A   1      44.882  37.231  30.239  1.00  0.00     0.022 A 
BRANCH  62  66
ATOM     66  S   UNL A   1      44.234  38.012  27.640  1.00  0.00     0.124 S 
ATOM     67  O   UNL A   1      43.218  37.410  26.782  1.00  0.00    -0.237 OA
ATOM     68  O   UNL A   1      43.860  39.265  28.287  1.00  0.00    -0.237 OA
ATOM     69  O   UNL A   1      45.596  37.968  27.113  1.00  0.00    -0.744 OA
ENDBRANCH  62  66
ENDBRANCH  36  59
ENDBRANCH  10  11
ENDBRANCH   3   5
ENDBRANCH   2   3
ENDBRANCH   1   2
BRANCH   1  70
ATOM     70  C   UNL A   1      36.148  22.492  24.728  1.00  0.00     0.274 C 
BRANCH  70  71
ATOM     71  O   UNL A   1      35.762  23.750  25.309  1.00  0.00    -0.462 OA
BRANCH  71  72
ATOM     72  C   UNL A   1      34.511  23.852  25.862  1.00  0.00     0.313 C 
ATOM     73  O   UNL A   1      34.181  23.335  26.922  1.00  0.00    -0.252 OA
BRANCH  72  74
ATOM     74  C   UNL A   1      33.589  24.675  24.942  1.00  0.00     0.131 C 
BRANCH  74  75
ATOM     75  C   UNL A   1      33.160  25.961  25.660  1.00  0.00    -0.020 A 
ATOM     76  C   UNL A   1      34.151  26.955  25.808  1.00  0.00     0.006 A 
ATOM     77  C   UNL A   1      31.887  26.263  26.172  1.00  0.00     0.022 A 
ATOM     78  C   UNL A   1      33.941  28.112  26.560  1.00  0.00     0.000 A 
ATOM     79  C   UNL A   1      31.696  27.394  26.982  1.00  0.00     0.016 A 
ATOM     80  Br  UNL A   1      30.301  25.310  25.733  1.00  0.00    -0.051 Br
ATOM     81  C   UNL A   1      32.727  28.303  27.197  1.00  0.00     0.001 A 
ENDBRANCH  74  75
BRANCH  74  82
ATOM     82  C   UNL A   1      34.149  24.832  23.495  1.00  0.00     0.026 C 
BRANCH  82  83
ATOM     83  C   UNL A   1      33.159  25.260  22.393  1.00  0.00     0.057 C 
BRANCH  83  84
ATOM     84  C   UNL A   1      32.502  26.622  22.463  1.00  0.00     0.040 A 
ATOM     85  C   UNL A   1      33.208  27.817  22.546  1.00  0.00     0.024 A 
ATOM     86  N   UNL A   1      31.144  26.610  22.399  1.00  0.00    -0.261 NA
ATOM     87  C   UNL A   1      32.506  29.020  22.636  1.00  0.00     0.003 A 
ATOM     88  C   UNL A   1      30.487  27.792  22.493  1.00  0.00     0.111 A 
ATOM     89  C   UNL A   1      31.119  29.012  22.628  1.00  0.00     0.020 A 
ENDBRANCH  83  84
ENDBRANCH  82  83
ENDBRANCH  74  82
ENDBRANCH  72  74
ENDBRANCH  71  72
ENDBRANCH  70  71
ENDBRANCH   1  70
TORSDOF 18
ENDMDL
