MODEL 1
REMARK VINA RESULT:     -11.4      0.000      0.000
REMARK SMILES CNC(=O)[C@H](C)Oc1cc([N+](=O)[O-])c(C(=O)OCCOC(=O)c2ccc(-c3c4nc(c(-c5cc(S(=O)(=O)[O-])ccc5F)c5ccc([nH]5)c(-c5cc(S(=O)(=O)[O-])ccc5F)c5nc(c(-c6cc(S(=O)(=O)[O-])ccc6F)c6ccc3[nH]6)C=C5)C=C4)cc2)cc1OC
REMARK SMILES IDX 18 1 17 2 15 3 16 4 14 5 8 6 9 7 87 8 10 9 86 10 7 11 5 12
REMARK SMILES IDX 6 13 3 14 1 15 2 16 4 18 88 19 89 20 11 21 12 22 13 23 19 24
REMARK SMILES IDX 20 25 21 26 22 27 23 28 24 29 85 30 25 31 84 32 26 33 27 34
REMARK SMILES IDX 28 35 78 36 29 37 83 38 77 39 79 40 30 41 82 42 76 43 75 44
REMARK SMILES IDX 31 46 63 47 43 48 62 49 44 50 47 51 61 52 80 53 45 54 46 55
REMARK SMILES IDX 60 57 81 58 48 59 32 60 33 61 41 62 34 63 40 64 42 65 39 66
REMARK SMILES IDX 35 67 36 68 37 69 38 70 64 71 65 72 73 73 66 74 72 75 74 76
REMARK SMILES IDX 71 77 67 78 68 79 69 80 70 81 49 82 50 83 58 84 51 85 57 86
REMARK SMILES IDX 59 87 56 88 52 89 53 90 54 91 55 92
REMARK H PARENT 2 17 79 45 47 56
REMARK Flexibility Score: inf
ROOT
ATOM      1  C   UNL A   1      32.562  29.416  24.553  1.00  0.00     0.275 C 
ENDROOT
BRANCH   1   2
ATOM      2  O   UNL A   1      33.203  28.213  25.022  1.00  0.00    -0.458 OA
BRANCH   2   3
ATOM      3  C   UNL A   1      32.551  27.046  24.825  1.00  0.00     0.345 C 
ATOM      4  O   UNL A   1      31.390  26.796  25.108  1.00  0.00    -0.246 OA
BRANCH   3   5
ATOM      5  C   UNL A   1      33.488  25.988  24.409  1.00  0.00     0.141 A 
ATOM      6  C   UNL A   1      34.637  23.459  24.059  1.00  0.00     0.169 A 
ATOM      7  C   UNL A   1      33.893  24.009  23.022  1.00  0.00     0.137 A 
ATOM      8  C   UNL A   1      34.943  24.237  25.194  1.00  0.00     0.162 A 
ATOM      9  C   UNL A   1      33.342  25.282  23.212  1.00  0.00     0.287 A 
ATOM     10  C   UNL A   1      34.355  25.485  25.374  1.00  0.00     0.073 A 
BRANCH   6  11
ATOM     11  O   UNL A   1      35.096  22.191  24.080  1.00  0.00    -0.477 OA
BRANCH  11  12
ATOM     12  C   UNL A   1      34.366  21.118  24.628  1.00  0.00     0.259 C 
ATOM     13  C   UNL A   1      35.523  20.187  25.060  1.00  0.00     0.064 C 
BRANCH  12  14
ATOM     14  C   UNL A   1      33.442  21.213  25.892  1.00  0.00     0.260 C 
ATOM     15  C   UNL A   1      31.255  22.253  24.986  1.00  0.00     0.142 C 
ATOM     16  N   UNL A   1      32.166  21.662  25.932  1.00  0.00    -0.356 N 
ATOM     17  H   UNL A   1      31.762  21.560  26.824  1.00  0.00     0.163 HD
ATOM     18  O   UNL A   1      33.858  20.804  26.988  1.00  0.00    -0.271 OA
ENDBRANCH  12  14
ENDBRANCH  11  12
ENDBRANCH   6  11
BRANCH   8  19
ATOM     19  O   UNL A   1      35.768  23.876  26.228  1.00  0.00    -0.493 OA
ATOM     20  C   UNL A   1      37.156  23.806  25.925  1.00  0.00     0.278 C 
ENDBRANCH   8  19
BRANCH   9  21
ATOM     21  N   UNL A   1      32.795  25.932  22.049  1.00  0.00     0.063 N 
ATOM     22  O   UNL A   1      33.594  26.452  21.262  1.00  0.00    -0.258 OA
ATOM     23  O   UNL A   1      31.563  25.993  21.998  1.00  0.00    -0.258 OA
ENDBRANCH   9  21
ENDBRANCH   3   5
ENDBRANCH   2   3
ENDBRANCH   1   2
BRANCH   1  24
ATOM     24  C   UNL A   1      31.729  30.039  25.667  1.00  0.00     0.275 C 
BRANCH  24  25
ATOM     25  O   UNL A   1      32.480  30.027  26.891  1.00  0.00    -0.458 OA
BRANCH  25  26
ATOM     26  C   UNL A   1      33.071  31.207  27.199  1.00  0.00     0.338 C 
ATOM     27  O   UNL A   1      32.545  32.301  27.230  1.00  0.00    -0.246 OA
BRANCH  26  28
ATOM     28  C   UNL A   1      34.477  30.972  27.564  1.00  0.00     0.060 A 
ATOM     29  C   UNL A   1      34.887  29.684  27.890  1.00  0.00     0.016 A 
ATOM     30  C   UNL A   1      35.321  32.054  27.786  1.00  0.00     0.016 A 
ATOM     31  C   UNL A   1      36.067  29.499  28.602  1.00  0.00     0.010 A 
ATOM     32  C   UNL A   1      36.580  31.833  28.353  1.00  0.00     0.010 A 
ATOM     33  C   UNL A   1      36.952  30.558  28.820  1.00  0.00    -0.014 A 
BRANCH  33  34
ATOM     34  C   UNL A   1      38.237  30.357  29.555  1.00  0.00     0.031 A 
ATOM     35  C   UNL A   1      39.312  29.485  28.956  1.00  0.00     0.074 A 
ATOM     36  C   UNL A   1      38.449  30.930  30.758  1.00  0.00     0.049 A 
ATOM     37  N   UNL A   1      40.312  28.879  29.543  1.00  0.00    -0.248 NA
ATOM     38  C   UNL A   1      39.230  29.240  27.507  1.00  0.00     0.031 C 
ATOM     39  C   UNL A   1      37.561  31.887  31.422  1.00  0.00     0.029 A 
ATOM     40  N   UNL A   1      39.483  30.779  31.652  1.00  0.00    -0.354 N 
ATOM     41  C   UNL A   1      40.930  28.115  28.554  1.00  0.00     0.074 A 
ATOM     42  C   UNL A   1      40.186  28.338  27.330  1.00  0.00     0.031 C 
ATOM     43  C   UNL A   1      38.101  32.264  32.587  1.00  0.00     0.029 A 
ATOM     44  C   UNL A   1      39.285  31.458  32.833  1.00  0.00     0.049 A 
ATOM     45  H   UNL A   1      40.285  30.238  31.466  1.00  0.00     0.167 HD
ATOM     46  C   UNL A   1      42.006  27.298  28.673  1.00  0.00     0.034 A 
ATOM     47  C   UNL A   1      39.917  31.378  34.020  1.00  0.00     0.034 A 
ATOM     48  C   UNL A   1      42.755  27.147  29.901  1.00  0.00     0.049 A 
ATOM     49  C   UNL A   1      41.047  30.397  34.165  1.00  0.00     0.074 A 
ATOM     50  C   UNL A   1      43.859  26.351  30.148  1.00  0.00     0.029 A 
ATOM     51  N   UNL A   1      42.482  27.820  31.088  1.00  0.00    -0.354 N 
ATOM     52  N   UNL A   1      41.548  29.578  33.270  1.00  0.00    -0.248 NA
ATOM     53  C   UNL A   1      41.683  30.314  35.485  1.00  0.00     0.031 C 
ATOM     54  C   UNL A   1      44.207  26.485  31.497  1.00  0.00     0.029 A 
ATOM     55  C   UNL A   1      43.381  27.437  32.072  1.00  0.00     0.049 A 
ATOM     56  H   UNL A   1      41.756  28.473  31.211  1.00  0.00     0.167 HD
ATOM     57  C   UNL A   1      42.585  28.908  33.909  1.00  0.00     0.074 A 
ATOM     58  C   UNL A   1      42.637  29.421  35.263  1.00  0.00     0.031 C 
ATOM     59  C   UNL A   1      43.423  27.961  33.417  1.00  0.00     0.034 A 
BRANCH  46  60
ATOM     60  C   UNL A   1      42.388  26.450  27.479  1.00  0.00     0.023 A 
ATOM     61  C   UNL A   1      41.966  25.117  27.329  1.00  0.00     0.031 A 
ATOM     62  C   UNL A   1      43.215  26.990  26.474  1.00  0.00     0.131 A 
ATOM     63  C   UNL A   1      42.429  24.353  26.244  1.00  0.00     0.055 A 
ATOM     64  C   UNL A   1      43.600  26.252  25.354  1.00  0.00     0.041 A 
ATOM     65  F   UNL A   1      43.671  28.249  26.569  1.00  0.00    -0.206 F 
ATOM     66  C   UNL A   1      43.221  24.919  25.241  1.00  0.00     0.022 A 
BRANCH  63  67
ATOM     67  S   UNL A   1      42.107  22.567  26.237  1.00  0.00     0.124 S 
ATOM     68  O   UNL A   1      40.646  22.530  26.268  1.00  0.00    -0.237 OA
ATOM     69  O   UNL A   1      42.730  22.138  24.990  1.00  0.00    -0.237 OA
ATOM     70  O   UNL A   1      42.760  22.095  27.457  1.00  0.00    -0.744 OA
ENDBRANCH  63  67
ENDBRANCH  46  60
BRANCH  47  71
ATOM     71  C   UNL A   1      39.431  32.177  35.184  1.00  0.00     0.023 A 
ATOM     72  C   UNL A   1      39.877  33.490  35.392  1.00  0.00     0.031 A 
ATOM     73  C   UNL A   1      38.526  31.633  36.115  1.00  0.00     0.131 A 
ATOM     74  C   UNL A   1      39.443  34.204  36.520  1.00  0.00     0.055 A 
ATOM     75  C   UNL A   1      38.044  32.372  37.196  1.00  0.00     0.041 A 
ATOM     76  F   UNL A   1      38.071  30.378  35.971  1.00  0.00    -0.206 F 
ATOM     77  C   UNL A   1      38.513  33.662  37.411  1.00  0.00     0.022 A 
BRANCH  74  78
ATOM     78  S   UNL A   1      40.187  35.821  36.859  1.00  0.00     0.124 S 
ATOM     79  O   UNL A   1      39.647  36.125  38.179  1.00  0.00    -0.237 OA
ATOM     80  O   UNL A   1      41.613  35.517  36.803  1.00  0.00    -0.237 OA
ATOM     81  O   UNL A   1      39.687  36.659  35.771  1.00  0.00    -0.744 OA
ENDBRANCH  74  78
ENDBRANCH  47  71
BRANCH  59  82
ATOM     82  C   UNL A   1      44.525  27.483  34.329  1.00  0.00     0.023 A 
ATOM     83  C   UNL A   1      44.386  26.342  35.137  1.00  0.00     0.031 A 
ATOM     84  C   UNL A   1      45.736  28.195  34.388  1.00  0.00     0.131 A 
ATOM     85  C   UNL A   1      45.425  25.975  36.005  1.00  0.00     0.055 A 
ATOM     86  C   UNL A   1      46.789  27.788  35.205  1.00  0.00     0.041 A 
ATOM     87  F   UNL A   1      45.918  29.298  33.642  1.00  0.00    -0.206 F 
ATOM     88  C   UNL A   1      46.633  26.678  36.029  1.00  0.00     0.022 A 
BRANCH  85  89
ATOM     89  S   UNL A   1      45.148  24.612  37.170  1.00  0.00     0.124 S 
ATOM     90  O   UNL A   1      44.680  23.549  36.286  1.00  0.00    -0.237 OA
ATOM     91  O   UNL A   1      46.474  24.421  37.750  1.00  0.00    -0.237 OA
ATOM     92  O   UNL A   1      44.142  25.143  38.088  1.00  0.00    -0.744 OA
ENDBRANCH  85  89
ENDBRANCH  59  82
ENDBRANCH  33  34
ENDBRANCH  26  28
ENDBRANCH  25  26
ENDBRANCH  24  25
ENDBRANCH   1  24
TORSDOF 19
ENDMDL
MODEL 2
REMARK VINA RESULT:     -10.8      4.915      9.989
REMARK SMILES CNC(=O)[C@H](C)Oc1cc([N+](=O)[O-])c(C(=O)OCCOC(=O)c2ccc(-c3c4nc(c(-c5cc(S(=O)(=O)[O-])ccc5F)c5ccc([nH]5)c(-c5cc(S(=O)(=O)[O-])ccc5F)c5nc(c(-c6cc(S(=O)(=O)[O-])ccc6F)c6ccc3[nH]6)C=C5)C=C4)cc2)cc1OC
REMARK SMILES IDX 18 1 17 2 15 3 16 4 14 5 8 6 9 7 87 8 10 9 86 10 7 11 5 12
REMARK SMILES IDX 6 13 3 14 1 15 2 16 4 18 88 19 89 20 11 21 12 22 13 23 19 24
REMARK SMILES IDX 20 25 21 26 22 27 23 28 24 29 85 30 25 31 84 32 26 33 27 34
REMARK SMILES IDX 28 35 78 36 29 37 83 38 77 39 79 40 30 41 82 42 76 43 75 44
REMARK SMILES IDX 31 46 63 47 43 48 62 49 44 50 47 51 61 52 80 53 45 54 46 55
REMARK SMILES IDX 60 57 81 58 48 59 32 60 33 61 41 62 34 63 40 64 42 65 39 66
REMARK SMILES IDX 35 67 36 68 37 69 38 70 64 71 65 72 73 73 66 74 72 75 74 76
REMARK SMILES IDX 71 77 67 78 68 79 69 80 70 81 49 82 50 83 58 84 51 85 57 86
REMARK SMILES IDX 59 87 56 88 52 89 53 90 54 91 55 92
REMARK H PARENT 2 17 79 45 47 56
REMARK Flexibility Score: inf
ROOT
ATOM      1  C   UNL A   1      35.564  20.560  25.384  1.00  0.00     0.275 C 
ENDROOT
BRANCH   1   2
ATOM      2  O   UNL A   1      34.651  21.625  25.054  1.00  0.00    -0.458 OA
BRANCH   2   3
ATOM      3  C   UNL A   1      34.331  22.494  26.039  1.00  0.00     0.345 C 
ATOM      4  O   UNL A   1      34.352  22.282  27.241  1.00  0.00    -0.246 OA
BRANCH   3   5
ATOM      5  C   UNL A   1      33.723  23.714  25.482  1.00  0.00     0.141 A 
ATOM      6  C   UNL A   1      33.043  26.407  25.127  1.00  0.00     0.169 A 
ATOM      7  C   UNL A   1      34.053  25.860  24.346  1.00  0.00     0.137 A 
ATOM      8  C   UNL A   1      32.268  25.573  25.959  1.00  0.00     0.162 A 
ATOM      9  C   UNL A   1      34.365  24.507  24.527  1.00  0.00     0.287 A 
ATOM     10  C   UNL A   1      32.620  24.241  26.147  1.00  0.00     0.073 A 
BRANCH   6  11
ATOM     11  O   UNL A   1      32.739  27.720  25.172  1.00  0.00    -0.477 OA
BRANCH  11  12
ATOM     12  C   UNL A   1      31.846  28.334  24.271  1.00  0.00     0.259 C 
ATOM     13  C   UNL A   1      31.417  29.566  25.102  1.00  0.00     0.064 C 
BRANCH  12  14
ATOM     14  C   UNL A   1      32.243  28.919  22.872  1.00  0.00     0.260 C 
ATOM     15  C   UNL A   1      30.006  29.779  21.900  1.00  0.00     0.142 C 
ATOM     16  N   UNL A   1      31.421  29.524  21.982  1.00  0.00    -0.356 N 
ATOM     17  H   UNL A   1      31.909  29.877  21.203  1.00  0.00     0.163 HD
ATOM     18  O   UNL A   1      33.430  28.893  22.511  1.00  0.00    -0.271 OA
ENDBRANCH  12  14
ENDBRANCH  11  12
ENDBRANCH   6  11
BRANCH   8  19
ATOM     19  O   UNL A   1      31.165  25.947  26.682  1.00  0.00    -0.493 OA
ATOM     20  C   UNL A   1      29.903  25.681  26.082  1.00  0.00     0.278 C 
ENDBRANCH   8  19
BRANCH   9  21
ATOM     21  N   UNL A   1      35.228  23.903  23.545  1.00  0.00     0.063 N 
ATOM     22  O   UNL A   1      36.447  24.002  23.725  1.00  0.00    -0.258 OA
ATOM     23  O   UNL A   1      34.663  23.421  22.558  1.00  0.00    -0.258 OA
ENDBRANCH   9  21
ENDBRANCH   3   5
ENDBRANCH   2   3
ENDBRANCH   1   2
BRANCH   1  24
ATOM     24  C   UNL A   1      36.864  20.718  24.604  1.00  0.00     0.275 C 
BRANCH  24  25
ATOM     25  O   UNL A   1      37.625  21.805  25.155  1.00  0.00    -0.458 OA
BRANCH  25  26
ATOM     26  C   UNL A   1      38.750  21.428  25.808  1.00  0.00     0.338 C 
ATOM     27  O   UNL A   1      39.303  20.348  25.747  1.00  0.00    -0.246 OA
BRANCH  26  28
ATOM     28  C   UNL A   1      39.270  22.562  26.587  1.00  0.00     0.060 A 
ATOM     29  C   UNL A   1      38.826  23.847  26.295  1.00  0.00     0.016 A 
ATOM     30  C   UNL A   1      40.344  22.372  27.449  1.00  0.00     0.016 A 
ATOM     31  C   UNL A   1      39.566  24.943  26.721  1.00  0.00     0.010 A 
ATOM     32  C   UNL A   1      40.979  23.486  28.007  1.00  0.00     0.010 A 
ATOM     33  C   UNL A   1      40.635  24.792  27.609  1.00  0.00    -0.014 A 
BRANCH  33  34
ATOM     34  C   UNL A   1      41.412  25.971  28.097  1.00  0.00     0.031 A 
ATOM     35  C   UNL A   1      40.724  27.030  28.922  1.00  0.00     0.074 A 
ATOM     36  C   UNL A   1      42.720  26.116  27.799  1.00  0.00     0.049 A 
ATOM     37  N   UNL A   1      41.071  28.274  29.131  1.00  0.00    -0.248 NA
ATOM     38  C   UNL A   1      39.462  26.642  29.572  1.00  0.00     0.031 C 
ATOM     39  C   UNL A   1      43.557  25.131  27.109  1.00  0.00     0.029 A 
ATOM     40  N   UNL A   1      43.580  27.164  28.028  1.00  0.00    -0.354 N 
ATOM     41  C   UNL A   1      40.032  28.842  29.867  1.00  0.00     0.074 A 
ATOM     42  C   UNL A   1      39.043  27.800  30.063  1.00  0.00     0.031 C 
ATOM     43  C   UNL A   1      44.806  25.600  27.007  1.00  0.00     0.029 A 
ATOM     44  C   UNL A   1      44.824  26.978  27.471  1.00  0.00     0.049 A 
ATOM     45  H   UNL A   1      43.329  27.968  28.538  1.00  0.00     0.167 HD
ATOM     46  C   UNL A   1      39.919  30.117  30.316  1.00  0.00     0.034 A 
ATOM     47  C   UNL A   1      45.841  27.837  27.262  1.00  0.00     0.034 A 
ATOM     48  C   UNL A   1      40.955  31.112  30.147  1.00  0.00     0.049 A 
ATOM     49  C   UNL A   1      45.664  29.271  27.678  1.00  0.00     0.074 A 
ATOM     50  C   UNL A   1      40.959  32.434  30.554  1.00  0.00     0.029 A 
ATOM     51  N   UNL A   1      42.181  30.887  29.529  1.00  0.00    -0.354 N 
ATOM     52  N   UNL A   1      44.632  29.840  28.254  1.00  0.00    -0.248 NA
ATOM     53  C   UNL A   1      46.780  30.182  27.398  1.00  0.00     0.031 C 
ATOM     54  C   UNL A   1      42.150  33.026  30.119  1.00  0.00     0.029 A 
ATOM     55  C   UNL A   1      42.934  32.051  29.523  1.00  0.00     0.049 A 
ATOM     56  H   UNL A   1      42.471  30.026  29.150  1.00  0.00     0.167 HD
ATOM     57  C   UNL A   1      44.990  31.170  28.440  1.00  0.00     0.074 A 
ATOM     58  C   UNL A   1      46.333  31.316  27.916  1.00  0.00     0.031 C 
ATOM     59  C   UNL A   1      44.274  32.179  29.000  1.00  0.00     0.034 A 
BRANCH  46  60
ATOM     60  C   UNL A   1      38.612  30.530  30.957  1.00  0.00     0.023 A 
ATOM     61  C   UNL A   1      37.558  31.107  30.227  1.00  0.00     0.031 A 
ATOM     62  C   UNL A   1      38.428  30.357  32.343  1.00  0.00     0.131 A 
ATOM     63  C   UNL A   1      36.404  31.553  30.895  1.00  0.00     0.055 A 
ATOM     64  C   UNL A   1      37.244  30.723  32.987  1.00  0.00     0.041 A 
ATOM     65  F   UNL A   1      39.404  29.834  33.102  1.00  0.00    -0.206 F 
ATOM     66  C   UNL A   1      36.229  31.340  32.265  1.00  0.00     0.022 A 
BRANCH  63  67
ATOM     67  S   UNL A   1      35.198  32.551  29.977  1.00  0.00     0.124 S 
ATOM     68  O   UNL A   1      34.760  31.611  28.946  1.00  0.00    -0.237 OA
ATOM     69  O   UNL A   1      34.215  32.880  31.001  1.00  0.00    -0.237 OA
ATOM     70  O   UNL A   1      35.989  33.678  29.484  1.00  0.00    -0.744 OA
ENDBRANCH  63  67
ENDBRANCH  46  60
BRANCH  47  71
ATOM     71  C   UNL A   1      47.069  27.385  26.542  1.00  0.00     0.023 A 
ATOM     72  C   UNL A   1      47.259  27.685  25.185  1.00  0.00     0.031 A 
ATOM     73  C   UNL A   1      48.063  26.634  27.197  1.00  0.00     0.131 A 
ATOM     74  C   UNL A   1      48.399  27.208  24.519  1.00  0.00     0.055 A 
ATOM     75  C   UNL A   1      49.228  26.222  26.547  1.00  0.00     0.041 A 
ATOM     76  F   UNL A   1      47.931  26.310  28.494  1.00  0.00    -0.206 F 
ATOM     77  C   UNL A   1      49.394  26.498  25.195  1.00  0.00     0.022 A 
BRANCH  74  78
ATOM     78  S   UNL A   1      48.516  27.449  22.727  1.00  0.00     0.124 S 
ATOM     79  O   UNL A   1      47.282  28.172  22.444  1.00  0.00    -0.237 OA
ATOM     80  O   UNL A   1      49.752  28.213  22.603  1.00  0.00    -0.237 OA
ATOM     81  O   UNL A   1      48.574  26.084  22.205  1.00  0.00    -0.744 OA
ENDBRANCH  74  78
ENDBRANCH  47  71
BRANCH  59  82
ATOM     82  C   UNL A   1      44.970  33.508  29.153  1.00  0.00     0.023 A 
ATOM     83  C   UNL A   1      44.958  34.481  28.140  1.00  0.00     0.031 A 
ATOM     84  C   UNL A   1      45.663  33.797  30.342  1.00  0.00     0.131 A 
ATOM     85  C   UNL A   1      45.667  35.678  28.316  1.00  0.00     0.055 A 
ATOM     86  C   UNL A   1      46.313  35.015  30.537  1.00  0.00     0.041 A 
ATOM     87  F   UNL A   1      45.714  32.898  31.340  1.00  0.00    -0.206 F 
ATOM     88  C   UNL A   1      46.327  35.960  29.516  1.00  0.00     0.022 A 
BRANCH  85  89
ATOM     89  S   UNL A   1      45.790  36.834  26.923  1.00  0.00     0.124 S 
ATOM     90  O   UNL A   1      46.086  35.936  25.811  1.00  0.00    -0.237 OA
ATOM     91  O   UNL A   1      44.467  37.450  26.910  1.00  0.00    -0.237 OA
ATOM     92  O   UNL A   1      46.883  37.723  27.311  1.00  0.00    -0.744 OA
ENDBRANCH  85  89
ENDBRANCH  59  82
ENDBRANCH  33  34
ENDBRANCH  26  28
ENDBRANCH  25  26
ENDBRANCH  24  25
ENDBRANCH   1  24
TORSDOF 19
ENDMDL
MODEL 3
REMARK VINA RESULT:     -10.5      1.676      2.280
REMARK SMILES CNC(=O)[C@H](C)Oc1cc([N+](=O)[O-])c(C(=O)OCCOC(=O)c2ccc(-c3c4nc(c(-c5cc(S(=O)(=O)[O-])ccc5F)c5ccc([nH]5)c(-c5cc(S(=O)(=O)[O-])ccc5F)c5nc(c(-c6cc(S(=O)(=O)[O-])ccc6F)c6ccc3[nH]6)C=C5)C=C4)cc2)cc1OC
REMARK SMILES IDX 18 1 17 2 15 3 16 4 14 5 8 6 9 7 87 8 10 9 86 10 7 11 5 12
REMARK SMILES IDX 6 13 3 14 1 15 2 16 4 18 88 19 89 20 11 21 12 22 13 23 19 24
REMARK SMILES IDX 20 25 21 26 22 27 23 28 24 29 85 30 25 31 84 32 26 33 27 34
REMARK SMILES IDX 28 35 78 36 29 37 83 38 77 39 79 40 30 41 82 42 76 43 75 44
REMARK SMILES IDX 31 46 63 47 43 48 62 49 44 50 47 51 61 52 80 53 45 54 46 55
REMARK SMILES IDX 60 57 81 58 48 59 32 60 33 61 41 62 34 63 40 64 42 65 39 66
REMARK SMILES IDX 35 67 36 68 37 69 38 70 64 71 65 72 73 73 66 74 72 75 74 76
REMARK SMILES IDX 71 77 67 78 68 79 69 80 70 81 49 82 50 83 58 84 51 85 57 86
REMARK SMILES IDX 59 87 56 88 52 89 53 90 54 91 55 92
REMARK H PARENT 2 17 79 45 47 56
REMARK Flexibility Score: inf
ROOT
ATOM      1  C   UNL A   1      31.089  29.364  24.566  1.00  0.00     0.275 C 
ENDROOT
BRANCH   1   2
ATOM      2  O   UNL A   1      31.494  28.417  23.558  1.00  0.00    -0.458 OA
BRANCH   2   3
ATOM      3  C   UNL A   1      30.869  27.218  23.546  1.00  0.00     0.345 C 
ATOM      4  O   UNL A   1      29.702  27.002  23.260  1.00  0.00    -0.246 OA
BRANCH   3   5
ATOM      5  C   UNL A   1      31.721  26.178  24.147  1.00  0.00     0.141 A 
ATOM      6  C   UNL A   1      32.666  23.666  24.943  1.00  0.00     0.169 A 
ATOM      7  C   UNL A   1      33.194  24.251  23.798  1.00  0.00     0.137 A 
ATOM      8  C   UNL A   1      31.798  24.404  25.773  1.00  0.00     0.162 A 
ATOM      9  C   UNL A   1      32.720  25.515  23.428  1.00  0.00     0.287 A 
ATOM     10  C   UNL A   1      31.315  25.643  25.365  1.00  0.00     0.073 A 
BRANCH   6  11
ATOM     11  O   UNL A   1      32.912  22.399  25.335  1.00  0.00    -0.477 OA
BRANCH  11  12
ATOM     12  C   UNL A   1      34.156  21.979  25.846  1.00  0.00     0.259 C 
ATOM     13  C   UNL A   1      33.691  21.147  27.063  1.00  0.00     0.064 C 
BRANCH  12  14
ATOM     14  C   UNL A   1      35.168  21.047  25.092  1.00  0.00     0.260 C 
ATOM     15  C   UNL A   1      37.213  22.568  24.661  1.00  0.00     0.142 C 
ATOM     16  N   UNL A   1      36.415  21.371  24.676  1.00  0.00    -0.356 N 
ATOM     17  H   UNL A   1      36.891  20.600  24.291  1.00  0.00     0.163 HD
ATOM     18  O   UNL A   1      34.862  19.865  24.869  1.00  0.00    -0.271 OA
ENDBRANCH  12  14
ENDBRANCH  11  12
ENDBRANCH   6  11
BRANCH   8  19
ATOM     19  O   UNL A   1      31.307  24.008  26.990  1.00  0.00    -0.493 OA
ATOM     20  C   UNL A   1      30.210  23.103  26.959  1.00  0.00     0.278 C 
ENDBRANCH   8  19
BRANCH   9  21
ATOM     21  N   UNL A   1      33.449  26.205  22.396  1.00  0.00     0.063 N 
ATOM     22  O   UNL A   1      34.087  27.211  22.728  1.00  0.00    -0.258 OA
ATOM     23  O   UNL A   1      33.289  25.778  21.248  1.00  0.00    -0.258 OA
ENDBRANCH   9  21
ENDBRANCH   3   5
ENDBRANCH   2   3
ENDBRANCH   1   2
BRANCH   1  24
ATOM     24  C   UNL A   1      31.898  29.156  25.840  1.00  0.00     0.275 C 
BRANCH  24  25
ATOM     25  O   UNL A   1      33.052  30.013  25.821  1.00  0.00    -0.458 OA
BRANCH  25  26
ATOM     26  C   UNL A   1      32.998  31.046  26.695  1.00  0.00     0.338 C 
ATOM     27  O   UNL A   1      32.158  31.922  26.739  1.00  0.00    -0.246 OA
BRANCH  26  28
ATOM     28  C   UNL A   1      34.102  30.931  27.660  1.00  0.00     0.060 A 
ATOM     29  C   UNL A   1      34.836  32.065  27.990  1.00  0.00     0.016 A 
ATOM     30  C   UNL A   1      34.534  29.674  28.066  1.00  0.00     0.016 A 
ATOM     31  C   UNL A   1      36.093  31.925  28.568  1.00  0.00     0.010 A 
ATOM     32  C   UNL A   1      35.722  29.562  28.797  1.00  0.00     0.010 A 
ATOM     33  C   UNL A   1      36.548  30.681  29.012  1.00  0.00    -0.014 A 
BRANCH  33  34
ATOM     34  C   UNL A   1      37.884  30.531  29.665  1.00  0.00     0.031 A 
ATOM     35  C   UNL A   1      38.946  29.684  29.010  1.00  0.00     0.074 A 
ATOM     36  C   UNL A   1      38.154  31.129  30.844  1.00  0.00     0.049 A 
ATOM     37  N   UNL A   1      40.000  29.119  29.539  1.00  0.00    -0.248 NA
ATOM     38  C   UNL A   1      38.779  29.414  27.573  1.00  0.00     0.031 C 
ATOM     39  C   UNL A   1      37.279  32.068  31.552  1.00  0.00     0.029 A 
ATOM     40  N   UNL A   1      39.247  31.024  31.672  1.00  0.00    -0.354 N 
ATOM     41  C   UNL A   1      40.578  28.360  28.523  1.00  0.00     0.074 A 
ATOM     42  C   UNL A   1      39.750  28.540  27.347  1.00  0.00     0.031 C 
ATOM     43  C   UNL A   1      37.881  32.479  32.674  1.00  0.00     0.029 A 
ATOM     44  C   UNL A   1      39.103  31.714  32.854  1.00  0.00     0.049 A 
ATOM     45  H   UNL A   1      40.053  30.505  31.442  1.00  0.00     0.167 HD
ATOM     46  C   UNL A   1      41.685  27.579  28.583  1.00  0.00     0.034 A 
ATOM     47  C   UNL A   1      39.813  31.672  33.999  1.00  0.00     0.034 A 
ATOM     48  C   UNL A   1      42.516  27.470  29.762  1.00  0.00     0.049 A 
ATOM     49  C   UNL A   1      40.981  30.729  34.083  1.00  0.00     0.074 A 
ATOM     50  C   UNL A   1      43.659  26.713  29.947  1.00  0.00     0.029 A 
ATOM     51  N   UNL A   1      42.298  28.152  30.954  1.00  0.00    -0.354 N 
ATOM     52  N   UNL A   1      41.449  29.913  33.168  1.00  0.00    -0.248 NA
ATOM     53  C   UNL A   1      41.703  30.687  35.360  1.00  0.00     0.031 C 
ATOM     54  C   UNL A   1      44.088  26.878  31.268  1.00  0.00     0.029 A 
ATOM     55  C   UNL A   1      43.270  27.813  31.883  1.00  0.00     0.049 A 
ATOM     56  H   UNL A   1      41.560  28.784  31.115  1.00  0.00     0.167 HD
ATOM     57  C   UNL A   1      42.546  29.286  33.748  1.00  0.00     0.074 A 
ATOM     58  C   UNL A   1      42.669  29.821  35.089  1.00  0.00     0.031 C 
ATOM     59  C   UNL A   1      43.381  28.358  33.216  1.00  0.00     0.034 A 
BRANCH  46  60
ATOM     60  C   UNL A   1      42.017  26.725  27.378  1.00  0.00     0.023 A 
ATOM     61  C   UNL A   1      41.703  25.356  27.308  1.00  0.00     0.031 A 
ATOM     62  C   UNL A   1      42.684  27.298  26.277  1.00  0.00     0.131 A 
ATOM     63  C   UNL A   1      42.119  24.597  26.201  1.00  0.00     0.055 A 
ATOM     64  C   UNL A   1      43.017  26.557  25.142  1.00  0.00     0.041 A 
ATOM     65  F   UNL A   1      43.034  28.595  26.290  1.00  0.00    -0.206 F 
ATOM     66  C   UNL A   1      42.749  25.193  25.106  1.00  0.00     0.022 A 
BRANCH  63  67
ATOM     67  S   UNL A   1      41.959  22.791  26.275  1.00  0.00     0.124 S 
ATOM     68  O   UNL A   1      42.617  22.384  25.034  1.00  0.00    -0.237 OA
ATOM     69  O   UNL A   1      42.661  22.461  27.509  1.00  0.00    -0.237 OA
ATOM     70  O   UNL A   1      40.513  22.574  26.302  1.00  0.00    -0.744 OA
ENDBRANCH  63  67
ENDBRANCH  46  60
BRANCH  47  71
ATOM     71  C   UNL A   1      39.377  32.474  35.180  1.00  0.00     0.023 A 
ATOM     72  C   UNL A   1      38.707  31.869  36.254  1.00  0.00     0.031 A 
ATOM     73  C   UNL A   1      39.611  33.860  35.248  1.00  0.00     0.131 A 
ATOM     74  C   UNL A   1      38.266  32.652  37.331  1.00  0.00     0.055 A 
ATOM     75  C   UNL A   1      39.232  34.622  36.354  1.00  0.00     0.041 A 
ATOM     76  F   UNL A   1      40.241  34.496  34.246  1.00  0.00    -0.206 F 
ATOM     77  C   UNL A   1      38.543  34.019  37.399  1.00  0.00     0.022 A 
BRANCH  74  78
ATOM     78  S   UNL A   1      37.238  31.871  38.603  1.00  0.00     0.124 S 
ATOM     79  O   UNL A   1      37.113  30.512  38.090  1.00  0.00    -0.237 OA
ATOM     80  O   UNL A   1      38.057  32.034  39.799  1.00  0.00    -0.237 OA
ATOM     81  O   UNL A   1      36.009  32.663  38.579  1.00  0.00    -0.744 OA
ENDBRANCH  74  78
ENDBRANCH  47  71
BRANCH  59  82
ATOM     82  C   UNL A   1      44.554  27.929  34.061  1.00  0.00     0.023 A 
ATOM     83  C   UNL A   1      44.477  26.850  34.957  1.00  0.00     0.031 A 
ATOM     84  C   UNL A   1      45.772  28.626  33.964  1.00  0.00     0.131 A 
ATOM     85  C   UNL A   1      45.584  26.529  35.757  1.00  0.00     0.055 A 
ATOM     86  C   UNL A   1      46.889  28.262  34.714  1.00  0.00     0.041 A 
ATOM     87  F   UNL A   1      45.898  29.670  33.129  1.00  0.00    -0.206 F 
ATOM     88  C   UNL A   1      46.795  27.214  35.626  1.00  0.00     0.022 A 
BRANCH  85  89
ATOM     89  S   UNL A   1      45.398  25.256  37.035  1.00  0.00     0.124 S 
ATOM     90  O   UNL A   1      44.087  25.575  37.592  1.00  0.00    -0.237 OA
ATOM     91  O   UNL A   1      45.478  24.021  36.261  1.00  0.00    -0.237 OA
ATOM     92  O   UNL A   1      46.528  25.500  37.929  1.00  0.00    -0.744 OA
ENDBRANCH  85  89
ENDBRANCH  59  82
ENDBRANCH  33  34
ENDBRANCH  26  28
ENDBRANCH  25  26
ENDBRANCH  24  25
ENDBRANCH   1  24
TORSDOF 19
ENDMDL
