MODEL 1
REMARK VINA RESULT:     -12.2      0.000      0.000
REMARK SMILES COc1ccc([C@H]2CC(c3ccc(S(C)(=O)=O)cc3)=NN2c2ccc(C(=O)OCCOC(=O)c3ccc(-c4c5nc(c(-c6cc(S(=O)(=O)[O-])ccc6F)c6ccc([nH]6)c(-c6cc(S(=O)(=O)[O-])ccc6F)c6nc(c(-c7cc(S(=O)(=O)[O-])ccc7F)c7ccc4[nH]7)C=C6)C=C5)cc3)cc2)cc1
REMARK SMILES IDX 29 1 28 2 26 3 27 4 25 5 22 6 23 7 98 8 24 9 97 10 21 11
REMARK SMILES IDX 7 12 8 13 9 14 20 15 6 16 3 17 4 18 100 19 5 20 99 21 2 22
REMARK SMILES IDX 1 23 10 24 11 25 19 26 12 27 18 28 13 29 14 30 15 31 16 32
REMARK SMILES IDX 17 33 30 34 31 35 32 36 33 37 34 38 35 39 96 40 36 41 95 42
REMARK SMILES IDX 37 43 38 44 39 45 89 46 40 47 94 48 88 49 90 50 41 51 93 52
REMARK SMILES IDX 87 53 86 54 42 56 74 57 54 58 73 59 55 60 58 61 72 62 91 63
REMARK SMILES IDX 56 64 57 65 71 67 92 68 59 69 43 70 44 71 52 72 45 73 51 74
REMARK SMILES IDX 53 75 50 76 46 77 47 78 48 79 49 80 75 81 76 82 84 83 77 84
REMARK SMILES IDX 83 85 85 86 82 87 78 88 79 89 80 90 81 91 60 92 61 93 69 94
REMARK SMILES IDX 62 95 68 96 70 97 67 98 63 99 64 100 65 101 66 102
REMARK H PARENT 90 55 58 66
REMARK Flexibility Score: inf
ROOT
ATOM      1  C   UNL A   1      34.231  33.187  28.319  1.00  0.00     0.275 C 
ENDROOT
BRANCH   1   2
ATOM      2  O   UNL A   1      33.689  32.028  27.652  1.00  0.00    -0.458 OA
BRANCH   2   3
ATOM      3  C   UNL A   1      34.548  30.988  27.519  1.00  0.00     0.338 C 
ATOM      4  O   UNL A   1      35.765  31.035  27.626  1.00  0.00    -0.246 OA
BRANCH   3   5
ATOM      5  C   UNL A   1      33.827  29.722  27.268  1.00  0.00     0.060 A 
ATOM      6  C   UNL A   1      32.474  27.376  26.491  1.00  0.00     0.060 A 
ATOM      7  C   UNL A   1      33.849  27.506  26.292  1.00  0.00     0.029 A 
ATOM      8  C   UNL A   1      31.793  28.425  27.128  1.00  0.00     0.029 A 
ATOM      9  C   UNL A   1      34.507  28.680  26.635  1.00  0.00     0.018 A 
ATOM     10  C   UNL A   1      32.467  29.586  27.540  1.00  0.00     0.018 A 
BRANCH   6  11
ATOM     11  N   UNL A   1      31.825  26.241  26.029  1.00  0.00    -0.257 N 
ATOM     12  C   UNL A   1      30.512  26.254  25.386  1.00  0.00     0.144 C 
ATOM     13  C   UNL A   1      30.392  24.823  24.839  1.00  0.00     0.091 C 
ATOM     14  C   UNL A   1      31.752  24.287  25.185  1.00  0.00     0.071 C 
ATOM     15  N   UNL A   1      32.527  25.091  25.838  1.00  0.00    -0.176 NA
BRANCH  12  16
ATOM     16  C   UNL A   1      30.366  27.315  24.302  1.00  0.00    -0.023 A 
ATOM     17  C   UNL A   1      30.007  29.190  22.214  1.00  0.00     0.118 A 
ATOM     18  C   UNL A   1      28.919  28.751  22.969  1.00  0.00     0.047 A 
ATOM     19  C   UNL A   1      31.284  28.739  22.539  1.00  0.00     0.047 A 
ATOM     20  C   UNL A   1      29.094  27.820  23.997  1.00  0.00     0.010 A 
ATOM     21  C   UNL A   1      31.464  27.818  23.581  1.00  0.00     0.010 A 
BRANCH  17  22
ATOM     22  O   UNL A   1      29.700  30.077  21.219  1.00  0.00    -0.497 OA
ATOM     23  C   UNL A   1      28.382  30.616  21.251  1.00  0.00     0.278 C 
ENDBRANCH  17  22
ENDBRANCH  12  16
BRANCH  14  24
ATOM     24  C   UNL A   1      32.121  22.899  24.880  1.00  0.00    -0.002 A 
ATOM     25  C   UNL A   1      32.649  22.116  25.914  1.00  0.00     0.011 A 
ATOM     26  C   UNL A   1      31.918  22.358  23.608  1.00  0.00     0.011 A 
ATOM     27  C   UNL A   1      32.937  20.770  25.690  1.00  0.00     0.021 A 
ATOM     28  C   UNL A   1      32.232  21.016  23.373  1.00  0.00     0.021 A 
ATOM     29  C   UNL A   1      32.728  20.228  24.418  1.00  0.00     0.067 A 
BRANCH  29  30
ATOM     30  S   UNL A   1      33.036  18.495  24.162  1.00  0.00     0.175 S 
ATOM     31  C   UNL A   1      32.527  18.190  22.492  1.00  0.00     0.163 C 
ATOM     32  O   UNL A   1      34.474  18.317  24.251  1.00  0.00    -0.224 OA
ATOM     33  O   UNL A   1      32.152  17.757  25.047  1.00  0.00    -0.224 OA
ENDBRANCH  29  30
ENDBRANCH  14  24
ENDBRANCH   6  11
ENDBRANCH   3   5
ENDBRANCH   2   3
ENDBRANCH   1   2
BRANCH   1  34
ATOM     34  C   UNL A   1      33.271  34.376  28.269  1.00  0.00     0.275 C 
BRANCH  34  35
ATOM     35  O   UNL A   1      32.528  34.483  29.496  1.00  0.00    -0.458 OA
BRANCH  35  36
ATOM     36  C   UNL A   1      33.011  35.383  30.384  1.00  0.00     0.338 C 
ATOM     37  O   UNL A   1      32.656  36.540  30.527  1.00  0.00    -0.246 OA
BRANCH  36  38
ATOM     38  C   UNL A   1      34.044  34.762  31.228  1.00  0.00     0.060 A 
ATOM     39  C   UNL A   1      35.342  35.251  31.159  1.00  0.00     0.016 A 
ATOM     40  C   UNL A   1      33.782  33.589  31.928  1.00  0.00     0.016 A 
ATOM     41  C   UNL A   1      36.404  34.486  31.634  1.00  0.00     0.010 A 
ATOM     42  C   UNL A   1      34.837  32.908  32.551  1.00  0.00     0.010 A 
ATOM     43  C   UNL A   1      36.171  33.315  32.368  1.00  0.00    -0.014 A 
BRANCH  43  44
ATOM     44  C   UNL A   1      37.314  32.523  32.922  1.00  0.00     0.031 A 
ATOM     45  C   UNL A   1      37.869  32.833  34.292  1.00  0.00     0.074 A 
ATOM     46  C   UNL A   1      37.859  31.515  32.208  1.00  0.00     0.049 A 
ATOM     47  N   UNL A   1      38.972  32.410  34.859  1.00  0.00    -0.248 NA
ATOM     48  C   UNL A   1      37.089  33.760  35.126  1.00  0.00     0.031 C 
ATOM     49  C   UNL A   1      37.398  31.059  30.894  1.00  0.00     0.029 A 
ATOM     50  N   UNL A   1      38.917  30.682  32.485  1.00  0.00    -0.354 N 
ATOM     51  C   UNL A   1      39.050  33.065  36.087  1.00  0.00     0.074 A 
ATOM     52  C   UNL A   1      37.890  33.930  36.167  1.00  0.00     0.031 C 
ATOM     53  C   UNL A   1      38.125  30.002  30.509  1.00  0.00     0.029 A 
ATOM     54  C   UNL A   1      39.186  29.780  31.480  1.00  0.00     0.049 A 
ATOM     55  H   UNL A   1      39.433  30.726  33.322  1.00  0.00     0.167 HD
ATOM     56  C   UNL A   1      39.997  32.953  37.054  1.00  0.00     0.034 A 
ATOM     57  C   UNL A   1      40.204  28.913  31.316  1.00  0.00     0.034 A 
ATOM     58  C   UNL A   1      41.126  32.053  36.971  1.00  0.00     0.049 A 
ATOM     59  C   UNL A   1      41.285  28.859  32.360  1.00  0.00     0.074 A 
ATOM     60  C   UNL A   1      42.136  31.848  37.895  1.00  0.00     0.029 A 
ATOM     61  N   UNL A   1      41.392  31.204  35.903  1.00  0.00    -0.354 N 
ATOM     62  N   UNL A   1      41.384  29.535  33.480  1.00  0.00    -0.248 NA
ATOM     63  C   UNL A   1      42.399  27.937  32.108  1.00  0.00     0.031 C 
ATOM     64  C   UNL A   1      43.048  30.930  37.357  1.00  0.00     0.029 A 
ATOM     65  C   UNL A   1      42.565  30.497  36.133  1.00  0.00     0.049 A 
ATOM     66  H   UNL A   1      40.830  31.115  35.099  1.00  0.00     0.167 HD
ATOM     67  C   UNL A   1      42.565  29.106  34.076  1.00  0.00     0.074 A 
ATOM     68  C   UNL A   1      43.131  28.099  33.200  1.00  0.00     0.031 C 
ATOM     69  C   UNL A   1      43.130  29.508  35.243  1.00  0.00     0.034 A 
BRANCH  56  70
ATOM     70  C   UNL A   1      39.885  33.873  38.251  1.00  0.00     0.023 A 
ATOM     71  C   UNL A   1      40.570  35.099  38.323  1.00  0.00     0.031 A 
ATOM     72  C   UNL A   1      39.108  33.494  39.362  1.00  0.00     0.131 A 
ATOM     73  C   UNL A   1      40.538  35.855  39.506  1.00  0.00     0.055 A 
ATOM     74  C   UNL A   1      39.008  34.294  40.504  1.00  0.00     0.041 A 
ATOM     75  F   UNL A   1      38.442  32.329  39.366  1.00  0.00    -0.206 F 
ATOM     76  C   UNL A   1      39.742  35.473  40.588  1.00  0.00     0.022 A 
BRANCH  73  77
ATOM     77  S   UNL A   1      41.682  37.254  39.673  1.00  0.00     0.124 S 
ATOM     78  O   UNL A   1      42.528  36.816  40.779  1.00  0.00    -0.237 OA
ATOM     79  O   UNL A   1      42.320  37.300  38.362  1.00  0.00    -0.237 OA
ATOM     80  O   UNL A   1      40.803  38.381  39.979  1.00  0.00    -0.744 OA
ENDBRANCH  73  77
ENDBRANCH  56  70
BRANCH  57  81
ATOM     81  C   UNL A   1      40.288  28.080  30.080  1.00  0.00     0.023 A 
ATOM     82  C   UNL A   1      41.211  28.378  29.067  1.00  0.00     0.031 A 
ATOM     83  C   UNL A   1      39.433  26.977  29.891  1.00  0.00     0.131 A 
ATOM     84  C   UNL A   1      41.242  27.599  27.899  1.00  0.00     0.055 A 
ATOM     85  C   UNL A   1      39.508  26.170  28.754  1.00  0.00     0.041 A 
ATOM     86  F   UNL A   1      38.528  26.649  30.826  1.00  0.00    -0.206 F 
ATOM     87  C   UNL A   1      40.411  26.487  27.744  1.00  0.00     0.022 A 
BRANCH  84  88
ATOM     88  S   UNL A   1      42.341  28.104  26.548  1.00  0.00     0.124 S 
ATOM     89  O   UNL A   1      41.528  27.806  25.375  1.00  0.00    -0.237 OA
ATOM     90  O   UNL A   1      42.554  29.518  26.840  1.00  0.00    -0.237 OA
ATOM     91  O   UNL A   1      43.514  27.251  26.727  1.00  0.00    -0.744 OA
ENDBRANCH  84  88
ENDBRANCH  57  81
BRANCH  69  92
ATOM     92  C   UNL A   1      44.407  28.816  35.654  1.00  0.00     0.023 A 
ATOM     93  C   UNL A   1      44.397  27.601  36.360  1.00  0.00     0.031 A 
ATOM     94  C   UNL A   1      45.652  29.398  35.356  1.00  0.00     0.131 A 
ATOM     95  C   UNL A   1      45.605  27.036  36.796  1.00  0.00     0.055 A 
ATOM     96  C   UNL A   1      46.853  28.799  35.736  1.00  0.00     0.041 A 
ATOM     97  F   UNL A   1      45.720  30.561  34.689  1.00  0.00    -0.206 F 
ATOM     98  C   UNL A   1      46.834  27.617  36.472  1.00  0.00     0.022 A 
BRANCH  95  99
ATOM     99  S   UNL A   1      45.548  25.580  37.877  1.00  0.00     0.124 S 
ATOM    100  O   UNL A   1      46.443  24.656  37.186  1.00  0.00    -0.237 OA
ATOM    101  O   UNL A   1      46.035  26.111  39.145  1.00  0.00    -0.237 OA
ATOM    102  O   UNL A   1      44.136  25.200  37.865  1.00  0.00    -0.744 OA
ENDBRANCH  95  99
ENDBRANCH  69  92
ENDBRANCH  43  44
ENDBRANCH  36  38
ENDBRANCH  35  36
ENDBRANCH  34  35
ENDBRANCH   1  34
TORSDOF 19
ENDMDL
MODEL 2
REMARK VINA RESULT:     -11.9      1.791      2.046
REMARK SMILES COc1ccc([C@H]2CC(c3ccc(S(C)(=O)=O)cc3)=NN2c2ccc(C(=O)OCCOC(=O)c3ccc(-c4c5nc(c(-c6cc(S(=O)(=O)[O-])ccc6F)c6ccc([nH]6)c(-c6cc(S(=O)(=O)[O-])ccc6F)c6nc(c(-c7cc(S(=O)(=O)[O-])ccc7F)c7ccc4[nH]7)C=C6)C=C5)cc3)cc2)cc1
REMARK SMILES IDX 29 1 28 2 26 3 27 4 25 5 22 6 23 7 98 8 24 9 97 10 21 11
REMARK SMILES IDX 7 12 8 13 9 14 20 15 6 16 3 17 4 18 100 19 5 20 99 21 2 22
REMARK SMILES IDX 1 23 10 24 11 25 19 26 12 27 18 28 13 29 14 30 15 31 16 32
REMARK SMILES IDX 17 33 30 34 31 35 32 36 33 37 34 38 35 39 96 40 36 41 95 42
REMARK SMILES IDX 37 43 38 44 39 45 89 46 40 47 94 48 88 49 90 50 41 51 93 52
REMARK SMILES IDX 87 53 86 54 42 56 74 57 54 58 73 59 55 60 58 61 72 62 91 63
REMARK SMILES IDX 56 64 57 65 71 67 92 68 59 69 43 70 44 71 52 72 45 73 51 74
REMARK SMILES IDX 53 75 50 76 46 77 47 78 48 79 49 80 75 81 76 82 84 83 77 84
REMARK SMILES IDX 83 85 85 86 82 87 78 88 79 89 80 90 81 91 60 92 61 93 69 94
REMARK SMILES IDX 62 95 68 96 70 97 67 98 63 99 64 100 65 101 66 102
REMARK H PARENT 90 55 58 66
REMARK Flexibility Score: inf
ROOT
ATOM      1  C   UNL A   1      34.216  33.366  28.488  1.00  0.00     0.275 C 
ENDROOT
BRANCH   1   2
ATOM      2  O   UNL A   1      33.658  32.229  27.796  1.00  0.00    -0.458 OA
BRANCH   2   3
ATOM      3  C   UNL A   1      34.533  31.226  27.541  1.00  0.00     0.338 C 
ATOM      4  O   UNL A   1      35.752  31.312  27.534  1.00  0.00    -0.246 OA
BRANCH   3   5
ATOM      5  C   UNL A   1      33.832  29.945  27.310  1.00  0.00     0.060 A 
ATOM      6  C   UNL A   1      32.548  27.548  26.571  1.00  0.00     0.060 A 
ATOM      7  C   UNL A   1      33.937  27.662  26.509  1.00  0.00     0.029 A 
ATOM      8  C   UNL A   1      31.813  28.642  27.053  1.00  0.00     0.029 A 
ATOM      9  C   UNL A   1      34.565  28.858  26.832  1.00  0.00     0.018 A 
ATOM     10  C   UNL A   1      32.449  29.830  27.446  1.00  0.00     0.018 A 
BRANCH   6  11
ATOM     11  N   UNL A   1      31.942  26.381  26.129  1.00  0.00    -0.257 N 
ATOM     12  C   UNL A   1      30.636  26.336  25.474  1.00  0.00     0.144 C 
ATOM     13  C   UNL A   1      30.569  24.890  24.958  1.00  0.00     0.091 C 
ATOM     14  C   UNL A   1      31.942  24.408  25.329  1.00  0.00     0.071 C 
ATOM     15  N   UNL A   1      32.683  25.252  25.970  1.00  0.00    -0.176 NA
BRANCH  12  16
ATOM     16  C   UNL A   1      30.466  27.368  24.365  1.00  0.00    -0.023 A 
ATOM     17  C   UNL A   1      30.071  29.180  22.228  1.00  0.00     0.118 A 
ATOM     18  C   UNL A   1      28.984  28.678  22.944  1.00  0.00     0.047 A 
ATOM     19  C   UNL A   1      31.361  28.824  22.616  1.00  0.00     0.047 A 
ATOM     20  C   UNL A   1      29.176  27.778  23.996  1.00  0.00     0.010 A 
ATOM     21  C   UNL A   1      31.557  27.935  23.683  1.00  0.00     0.010 A 
BRANCH  17  22
ATOM     22  O   UNL A   1      29.749  30.028  21.205  1.00  0.00    -0.497 OA
ATOM     23  C   UNL A   1      28.467  30.644  21.288  1.00  0.00     0.278 C 
ENDBRANCH  17  22
ENDBRANCH  12  16
BRANCH  14  24
ATOM     24  C   UNL A   1      32.360  23.026  25.059  1.00  0.00    -0.002 A 
ATOM     25  C   UNL A   1      32.431  22.138  26.138  1.00  0.00     0.011 A 
ATOM     26  C   UNL A   1      32.642  22.596  23.760  1.00  0.00     0.011 A 
ATOM     27  C   UNL A   1      32.745  20.797  25.915  1.00  0.00     0.021 A 
ATOM     28  C   UNL A   1      32.983  21.259  23.537  1.00  0.00     0.021 A 
ATOM     29  C   UNL A   1      33.022  20.365  24.615  1.00  0.00     0.067 A 
BRANCH  29  30
ATOM     30  S   UNL A   1      33.354  18.641  24.335  1.00  0.00     0.175 S 
ATOM     31  C   UNL A   1      32.648  17.814  25.735  1.00  0.00     0.163 C 
ATOM     32  O   UNL A   1      32.607  18.267  23.148  1.00  0.00    -0.224 OA
ATOM     33  O   UNL A   1      34.794  18.459  24.381  1.00  0.00    -0.224 OA
ENDBRANCH  29  30
ENDBRANCH  14  24
ENDBRANCH   6  11
ENDBRANCH   3   5
ENDBRANCH   2   3
ENDBRANCH   1   2
BRANCH   1  34
ATOM     34  C   UNL A   1      33.231  34.534  28.554  1.00  0.00     0.275 C 
BRANCH  34  35
ATOM     35  O   UNL A   1      32.577  34.576  29.834  1.00  0.00    -0.458 OA
BRANCH  35  36
ATOM     36  C   UNL A   1      33.112  35.444  30.724  1.00  0.00     0.338 C 
ATOM     37  O   UNL A   1      32.794  36.607  30.901  1.00  0.00    -0.246 OA
BRANCH  36  38
ATOM     38  C   UNL A   1      34.151  34.777  31.524  1.00  0.00     0.060 A 
ATOM     39  C   UNL A   1      35.435  35.307  31.522  1.00  0.00     0.016 A 
ATOM     40  C   UNL A   1      33.915  33.537  32.109  1.00  0.00     0.016 A 
ATOM     41  C   UNL A   1      36.512  34.533  31.942  1.00  0.00     0.010 A 
ATOM     42  C   UNL A   1      34.981  32.832  32.684  1.00  0.00     0.010 A 
ATOM     43  C   UNL A   1      36.305  33.293  32.561  1.00  0.00    -0.014 A 
BRANCH  43  44
ATOM     44  C   UNL A   1      37.464  32.486  33.058  1.00  0.00     0.031 A 
ATOM     45  C   UNL A   1      38.084  32.783  34.403  1.00  0.00     0.074 A 
ATOM     46  C   UNL A   1      37.965  31.476  32.315  1.00  0.00     0.049 A 
ATOM     47  N   UNL A   1      39.208  32.346  34.916  1.00  0.00    -0.248 NA
ATOM     48  C   UNL A   1      37.354  33.714  35.276  1.00  0.00     0.031 C 
ATOM     49  C   UNL A   1      37.439  31.032  31.021  1.00  0.00     0.029 A 
ATOM     50  N   UNL A   1      39.026  30.631  32.539  1.00  0.00    -0.354 N 
ATOM     51  C   UNL A   1      39.349  32.993  36.142  1.00  0.00     0.074 A 
ATOM     52  C   UNL A   1      38.203  33.870  36.280  1.00  0.00     0.031 C 
ATOM     53  C   UNL A   1      38.136  29.970  30.598  1.00  0.00     0.029 A 
ATOM     54  C   UNL A   1      39.239  29.731  31.518  1.00  0.00     0.049 A 
ATOM     55  H   UNL A   1      39.580  30.665  33.352  1.00  0.00     0.167 HD
ATOM     56  C   UNL A   1      40.338  32.866  37.064  1.00  0.00     0.034 A 
ATOM     57  C   UNL A   1      40.238  28.854  31.303  1.00  0.00     0.034 A 
ATOM     58  C   UNL A   1      41.452  31.955  36.925  1.00  0.00     0.049 A 
ATOM     59  C   UNL A   1      41.365  28.784  32.296  1.00  0.00     0.074 A 
ATOM     60  C   UNL A   1      42.502  31.734  37.800  1.00  0.00     0.029 A 
ATOM     61  N   UNL A   1      41.660  31.109  35.842  1.00  0.00    -0.354 N 
ATOM     62  N   UNL A   1      41.523  29.453  33.414  1.00  0.00    -0.248 NA
ATOM     63  C   UNL A   1      42.457  27.852  31.989  1.00  0.00     0.031 C 
ATOM     64  C   UNL A   1      43.378  30.811  37.217  1.00  0.00     0.029 A 
ATOM     65  C   UNL A   1      42.835  30.389  36.014  1.00  0.00     0.049 A 
ATOM     66  H   UNL A   1      41.061  31.030  35.064  1.00  0.00     0.167 HD
ATOM     67  C   UNL A   1      42.726  29.009  33.953  1.00  0.00     0.074 A 
ATOM     68  C   UNL A   1      43.240  28.001  33.047  1.00  0.00     0.031 C 
ATOM     69  C   UNL A   1      43.348  29.399  35.095  1.00  0.00     0.034 A 
BRANCH  56  70
ATOM     70  C   UNL A   1      40.291  33.781  38.270  1.00  0.00     0.023 A 
ATOM     71  C   UNL A   1      39.515  33.489  39.405  1.00  0.00     0.031 A 
ATOM     72  C   UNL A   1      41.008  34.993  38.263  1.00  0.00     0.131 A 
ATOM     73  C   UNL A   1      39.402  34.431  40.441  1.00  0.00     0.055 A 
ATOM     74  C   UNL A   1      40.962  35.886  39.337  1.00  0.00     0.041 A 
ATOM     75  F   UNL A   1      41.756  35.341  37.204  1.00  0.00    -0.206 F 
ATOM     76  C   UNL A   1      40.140  35.616  40.426  1.00  0.00     0.022 A 
BRANCH  73  77
ATOM     77  S   UNL A   1      38.149  34.159  41.726  1.00  0.00     0.124 S 
ATOM     78  O   UNL A   1      38.913  33.432  42.736  1.00  0.00    -0.237 OA
ATOM     79  O   UNL A   1      37.758  35.519  42.080  1.00  0.00    -0.237 OA
ATOM     80  O   UNL A   1      37.123  33.372  41.045  1.00  0.00    -0.744 OA
ENDBRANCH  73  77
ENDBRANCH  56  70
BRANCH  57  81
ATOM     81  C   UNL A   1      40.256  28.027  30.061  1.00  0.00     0.023 A 
ATOM     82  C   UNL A   1      41.163  28.296  29.025  1.00  0.00     0.031 A 
ATOM     83  C   UNL A   1      39.355  26.960  29.888  1.00  0.00     0.131 A 
ATOM     84  C   UNL A   1      41.132  27.525  27.852  1.00  0.00     0.055 A 
ATOM     85  C   UNL A   1      39.368  26.158  28.746  1.00  0.00     0.041 A 
ATOM     86  F   UNL A   1      38.463  26.660  30.846  1.00  0.00    -0.206 F 
ATOM     87  C   UNL A   1      40.255  26.446  27.714  1.00  0.00     0.022 A 
BRANCH  84  88
ATOM     88  S   UNL A   1      42.214  27.995  26.475  1.00  0.00     0.124 S 
ATOM     89  O   UNL A   1      41.716  27.143  25.401  1.00  0.00    -0.237 OA
ATOM     90  O   UNL A   1      41.936  29.422  26.342  1.00  0.00    -0.237 OA
ATOM     91  O   UNL A   1      43.551  27.667  26.965  1.00  0.00    -0.744 OA
ENDBRANCH  84  88
ENDBRANCH  57  81
BRANCH  69  92
ATOM     92  C   UNL A   1      44.635  28.691  35.443  1.00  0.00     0.023 A 
ATOM     93  C   UNL A   1      45.888  29.208  35.071  1.00  0.00     0.031 A 
ATOM     94  C   UNL A   1      44.602  27.467  36.135  1.00  0.00     0.131 A 
ATOM     95  C   UNL A   1      47.054  28.474  35.340  1.00  0.00     0.055 A 
ATOM     96  C   UNL A   1      45.769  26.774  36.456  1.00  0.00     0.041 A 
ATOM     97  F   UNL A   1      43.433  26.926  36.509  1.00  0.00    -0.206 F 
ATOM     98  C   UNL A   1      47.004  27.270  36.047  1.00  0.00     0.022 A 
BRANCH  95  99
ATOM     99  S   UNL A   1      48.632  29.066  34.669  1.00  0.00     0.124 S 
ATOM    100  O   UNL A   1      48.814  30.322  35.391  1.00  0.00    -0.237 OA
ATOM    101  O   UNL A   1      49.548  27.988  35.024  1.00  0.00    -0.237 OA
ATOM    102  O   UNL A   1      48.365  29.206  33.239  1.00  0.00    -0.744 OA
ENDBRANCH  95  99
ENDBRANCH  69  92
ENDBRANCH  43  44
ENDBRANCH  36  38
ENDBRANCH  35  36
ENDBRANCH  34  35
ENDBRANCH   1  34
TORSDOF 19
ENDMDL
MODEL 3
REMARK VINA RESULT:     -11.9      1.574      7.316
REMARK SMILES COc1ccc([C@H]2CC(c3ccc(S(C)(=O)=O)cc3)=NN2c2ccc(C(=O)OCCOC(=O)c3ccc(-c4c5nc(c(-c6cc(S(=O)(=O)[O-])ccc6F)c6ccc([nH]6)c(-c6cc(S(=O)(=O)[O-])ccc6F)c6nc(c(-c7cc(S(=O)(=O)[O-])ccc7F)c7ccc4[nH]7)C=C6)C=C5)cc3)cc2)cc1
REMARK SMILES IDX 29 1 28 2 26 3 27 4 25 5 22 6 23 7 98 8 24 9 97 10 21 11
REMARK SMILES IDX 7 12 8 13 9 14 20 15 6 16 3 17 4 18 100 19 5 20 99 21 2 22
REMARK SMILES IDX 1 23 10 24 11 25 19 26 12 27 18 28 13 29 14 30 15 31 16 32
REMARK SMILES IDX 17 33 30 34 31 35 32 36 33 37 34 38 35 39 96 40 36 41 95 42
REMARK SMILES IDX 37 43 38 44 39 45 89 46 40 47 94 48 88 49 90 50 41 51 93 52
REMARK SMILES IDX 87 53 86 54 42 56 74 57 54 58 73 59 55 60 58 61 72 62 91 63
REMARK SMILES IDX 56 64 57 65 71 67 92 68 59 69 43 70 44 71 52 72 45 73 51 74
REMARK SMILES IDX 53 75 50 76 46 77 47 78 48 79 49 80 75 81 76 82 84 83 77 84
REMARK SMILES IDX 83 85 85 86 82 87 78 88 79 89 80 90 81 91 60 92 61 93 69 94
REMARK SMILES IDX 62 95 68 96 70 97 67 98 63 99 64 100 65 101 66 102
REMARK H PARENT 90 55 58 66
REMARK Flexibility Score: inf
ROOT
ATOM      1  C   UNL A   1      34.572  33.095  27.997  1.00  0.00     0.275 C 
ENDROOT
BRANCH   1   2
ATOM      2  O   UNL A   1      33.902  31.880  27.601  1.00  0.00    -0.458 OA
BRANCH   2   3
ATOM      3  C   UNL A   1      34.621  30.744  27.776  1.00  0.00     0.338 C 
ATOM      4  O   UNL A   1      35.689  30.646  28.362  1.00  0.00    -0.246 OA
BRANCH   3   5
ATOM      5  C   UNL A   1      33.925  29.573  27.202  1.00  0.00     0.060 A 
ATOM      6  C   UNL A   1      32.589  27.227  26.394  1.00  0.00     0.060 A 
ATOM      7  C   UNL A   1      31.918  28.221  27.106  1.00  0.00     0.029 A 
ATOM      8  C   UNL A   1      33.933  27.447  26.053  1.00  0.00     0.029 A 
ATOM      9  C   UNL A   1      32.589  29.357  27.542  1.00  0.00     0.018 A 
ATOM     10  C   UNL A   1      34.597  28.625  26.431  1.00  0.00     0.018 A 
BRANCH   6  11
ATOM     11  N   UNL A   1      31.924  26.052  26.076  1.00  0.00    -0.257 N 
ATOM     12  C   UNL A   1      30.564  26.002  25.542  1.00  0.00     0.144 C 
ATOM     13  C   UNL A   1      30.424  24.531  25.119  1.00  0.00     0.091 C 
ATOM     14  C   UNL A   1      31.816  24.038  25.395  1.00  0.00     0.071 C 
ATOM     15  N   UNL A   1      32.627  24.899  25.918  1.00  0.00    -0.176 NA
BRANCH  12  16
ATOM     16  C   UNL A   1      30.315  26.974  24.394  1.00  0.00    -0.023 A 
ATOM     17  C   UNL A   1      29.941  28.877  22.335  1.00  0.00     0.118 A 
ATOM     18  C   UNL A   1      31.208  28.360  22.602  1.00  0.00     0.047 A 
ATOM     19  C   UNL A   1      28.848  28.400  23.056  1.00  0.00     0.047 A 
ATOM     20  C   UNL A   1      31.397  27.424  23.624  1.00  0.00     0.010 A 
ATOM     21  C   UNL A   1      29.032  27.448  24.069  1.00  0.00     0.010 A 
BRANCH  17  22
ATOM     22  O   UNL A   1      29.894  29.806  21.333  1.00  0.00    -0.497 OA
ATOM     23  C   UNL A   1      28.677  30.538  21.219  1.00  0.00     0.278 C 
ENDBRANCH  17  22
ENDBRANCH  12  16
BRANCH  14  24
ATOM     24  C   UNL A   1      32.182  22.634  25.169  1.00  0.00    -0.002 A 
ATOM     25  C   UNL A   1      31.918  22.080  23.911  1.00  0.00     0.011 A 
ATOM     26  C   UNL A   1      32.811  21.881  26.163  1.00  0.00     0.011 A 
ATOM     27  C   UNL A   1      32.323  20.775  23.627  1.00  0.00     0.021 A 
ATOM     28  C   UNL A   1      33.194  20.564  25.891  1.00  0.00     0.021 A 
ATOM     29  C   UNL A   1      32.958  20.024  24.621  1.00  0.00     0.067 A 
BRANCH  29  30
ATOM     30  S   UNL A   1      33.529  18.387  24.226  1.00  0.00     0.175 S 
ATOM     31  C   UNL A   1      32.742  17.336  25.417  1.00  0.00     0.163 C 
ATOM     32  O   UNL A   1      33.001  18.075  22.909  1.00  0.00    -0.224 OA
ATOM     33  O   UNL A   1      34.960  18.351  24.467  1.00  0.00    -0.224 OA
ENDBRANCH  29  30
ENDBRANCH  14  24
ENDBRANCH   6  11
ENDBRANCH   3   5
ENDBRANCH   2   3
ENDBRANCH   1   2
BRANCH   1  34
ATOM     34  C   UNL A   1      33.583  34.187  28.407  1.00  0.00     0.275 C 
BRANCH  34  35
ATOM     35  O   UNL A   1      33.172  34.014  29.774  1.00  0.00    -0.458 OA
BRANCH  35  36
ATOM     36  C   UNL A   1      33.711  34.892  30.651  1.00  0.00     0.338 C 
ATOM     37  O   UNL A   1      33.337  36.030  30.878  1.00  0.00    -0.246 OA
BRANCH  36  38
ATOM     38  C   UNL A   1      34.838  34.273  31.365  1.00  0.00     0.060 A 
ATOM     39  C   UNL A   1      36.007  35.006  31.527  1.00  0.00     0.016 A 
ATOM     40  C   UNL A   1      34.816  32.922  31.697  1.00  0.00     0.016 A 
ATOM     41  C   UNL A   1      37.197  34.362  31.851  1.00  0.00     0.010 A 
ATOM     42  C   UNL A   1      35.980  32.313  32.184  1.00  0.00     0.010 A 
ATOM     43  C   UNL A   1      37.203  33.009  32.218  1.00  0.00    -0.014 A 
BRANCH  43  44
ATOM     44  C   UNL A   1      38.478  32.332  32.615  1.00  0.00     0.031 A 
ATOM     45  C   UNL A   1      39.108  31.295  31.715  1.00  0.00     0.074 A 
ATOM     46  C   UNL A   1      39.086  32.646  33.778  1.00  0.00     0.049 A 
ATOM     47  N   UNL A   1      40.082  30.455  31.966  1.00  0.00    -0.248 NA
ATOM     48  C   UNL A   1      38.552  31.173  30.359  1.00  0.00     0.031 C 
ATOM     49  C   UNL A   1      38.631  33.665  34.727  1.00  0.00     0.029 A 
ATOM     50  N   UNL A   1      40.225  32.145  34.365  1.00  0.00    -0.354 N 
ATOM     51  C   UNL A   1      40.213  29.665  30.826  1.00  0.00     0.074 A 
ATOM     52  C   UNL A   1      39.201  30.117  29.893  1.00  0.00     0.031 C 
ATOM     53  C   UNL A   1      39.505  33.755  35.738  1.00  0.00     0.029 A 
ATOM     54  C   UNL A   1      40.513  32.716  35.585  1.00  0.00     0.049 A 
ATOM     55  H   UNL A   1      40.781  31.446  33.952  1.00  0.00     0.167 HD
ATOM     56  C   UNL A   1      41.096  28.662  30.582  1.00  0.00     0.034 A 
ATOM     57  C   UNL A   1      41.440  32.405  36.512  1.00  0.00     0.034 A 
ATOM     58  C   UNL A   1      42.125  28.255  31.513  1.00  0.00     0.049 A 
ATOM     59  C   UNL A   1      42.357  31.241  36.258  1.00  0.00     0.074 A 
ATOM     60  C   UNL A   1      43.079  27.263  31.365  1.00  0.00     0.029 A 
ATOM     61  N   UNL A   1      42.338  28.820  32.764  1.00  0.00    -0.354 N 
ATOM     62  N   UNL A   1      42.424  30.458  35.207  1.00  0.00    -0.248 NA
ATOM     63  C   UNL A   1      43.312  30.910  37.322  1.00  0.00     0.031 C 
ATOM     64  C   UNL A   1      43.821  27.182  32.550  1.00  0.00     0.029 A 
ATOM     65  C   UNL A   1      43.387  28.178  33.409  1.00  0.00     0.049 A 
ATOM     66  H   UNL A   1      41.820  29.569  33.141  1.00  0.00     0.167 HD
ATOM     67  C   UNL A   1      43.442  29.549  35.478  1.00  0.00     0.074 A 
ATOM     68  C   UNL A   1      43.972  29.897  36.782  1.00  0.00     0.031 C 
ATOM     69  C   UNL A   1      43.896  28.521  34.717  1.00  0.00     0.034 A 
BRANCH  56  70
ATOM     70  C   UNL A   1      40.941  27.896  29.285  1.00  0.00     0.023 A 
ATOM     71  C   UNL A   1      41.821  28.066  28.203  1.00  0.00     0.031 A 
ATOM     72  C   UNL A   1      39.863  27.006  29.116  1.00  0.00     0.131 A 
ATOM     73  C   UNL A   1      41.560  27.432  26.977  1.00  0.00     0.055 A 
ATOM     74  C   UNL A   1      39.659  26.308  27.923  1.00  0.00     0.041 A 
ATOM     75  F   UNL A   1      38.976  26.810  30.105  1.00  0.00    -0.206 F 
ATOM     76  C   UNL A   1      40.499  26.535  26.838  1.00  0.00     0.022 A 
BRANCH  73  77
ATOM     77  S   UNL A   1      42.527  27.924  25.522  1.00  0.00     0.124 S 
ATOM     78  O   UNL A   1      42.405  26.743  24.672  1.00  0.00    -0.237 OA
ATOM     79  O   UNL A   1      41.822  29.115  25.061  1.00  0.00    -0.237 OA
ATOM     80  O   UNL A   1      43.865  28.159  26.061  1.00  0.00    -0.744 OA
ENDBRANCH  73  77
ENDBRANCH  56  70
BRANCH  57  81
ATOM     81  C   UNL A   1      41.496  33.161  37.798  1.00  0.00     0.023 A 
ATOM     82  C   UNL A   1      40.841  32.689  38.945  1.00  0.00     0.031 A 
ATOM     83  C   UNL A   1      42.200  34.377  37.893  1.00  0.00     0.131 A 
ATOM     84  C   UNL A   1      40.880  33.440  40.131  1.00  0.00     0.055 A 
ATOM     85  C   UNL A   1      42.285  35.090  39.090  1.00  0.00     0.041 A 
ATOM     86  F   UNL A   1      42.841  34.878  36.826  1.00  0.00    -0.206 F 
ATOM     87  C   UNL A   1      41.614  34.626  40.217  1.00  0.00     0.022 A 
BRANCH  84  88
ATOM     88  S   UNL A   1      39.899  32.877  41.548  1.00  0.00     0.124 S 
ATOM     89  O   UNL A   1      39.116  31.798  40.957  1.00  0.00    -0.237 OA
ATOM     90  O   UNL A   1      40.934  32.474  42.495  1.00  0.00    -0.237 OA
ATOM     91  O   UNL A   1      39.139  34.065  41.929  1.00  0.00    -0.744 OA
ENDBRANCH  84  88
ENDBRANCH  57  81
BRANCH  69  92
ATOM     92  C   UNL A   1      45.059  27.732  35.267  1.00  0.00     0.023 A 
ATOM     93  C   UNL A   1      44.870  26.548  36.001  1.00  0.00     0.031 A 
ATOM     94  C   UNL A   1      46.376  28.188  35.074  1.00  0.00     0.131 A 
ATOM     95  C   UNL A   1      45.975  25.893  36.567  1.00  0.00     0.055 A 
ATOM     96  C   UNL A   1      47.474  27.497  35.584  1.00  0.00     0.041 A 
ATOM     97  F   UNL A   1      46.614  29.315  34.386  1.00  0.00    -0.206 F 
ATOM     98  C   UNL A   1      47.277  26.349  36.347  1.00  0.00     0.022 A 
BRANCH  95  99
ATOM     99  S   UNL A   1      45.681  24.488  37.675  1.00  0.00     0.124 S 
ATOM    100  O   UNL A   1      44.854  25.092  38.716  1.00  0.00    -0.237 OA
ATOM    101  O   UNL A   1      45.009  23.532  36.801  1.00  0.00    -0.237 OA
ATOM    102  O   UNL A   1      47.025  24.100  38.100  1.00  0.00    -0.744 OA
ENDBRANCH  95  99
ENDBRANCH  69  92
ENDBRANCH  43  44
ENDBRANCH  36  38
ENDBRANCH  35  36
ENDBRANCH  34  35
ENDBRANCH   1  34
TORSDOF 19
ENDMDL
