MODEL 1
REMARK VINA RESULT:     -11.6      0.000      0.000
REMARK SMILES Cc1cc(C)c2c(O[C@@H](C)C(=O)OCCOC(=O)c3ccc(-c4c5nc(c(-c6cc(S(=O)(=O)[O-])ccc6F)c6ccc([nH]6)c(-c6cc(S(=O)(=O)[O-])ccc6F)c6nc(c(-c7cc(S(=O)(=O)[O-])ccc7F)c7ccc4[nH]7)C=C6)C=C5)cc3)nsc2n1
REMARK SMILES IDX 15 1 14 2 13 3 11 4 12 5 9 6 10 7 8 8 7 9 1 10 2 11 3 12
REMARK SMILES IDX 85 13 4 14 84 15 5 16 6 17 83 18 82 19 16 20 17 21 18 22
REMARK SMILES IDX 19 23 20 24 81 25 21 26 80 27 22 28 23 29 24 30 74 31 25 32
REMARK SMILES IDX 79 33 73 34 75 35 26 36 78 37 72 38 71 39 27 41 59 42 39 43
REMARK SMILES IDX 58 44 40 45 43 46 57 47 76 48 41 49 42 50 56 52 77 53 44 54
REMARK SMILES IDX 28 55 29 56 37 57 30 58 36 59 38 60 35 61 31 62 32 63 33 64
REMARK SMILES IDX 34 65 60 66 61 67 69 68 62 69 68 70 70 71 67 72 63 73 64 74
REMARK SMILES IDX 65 75 66 76 45 77 46 78 54 79 47 80 53 81 55 82 52 83 48 84
REMARK SMILES IDX 49 85 50 86 51 87
REMARK H PARENT 75 40 43 51
REMARK Flexibility Score: inf
ROOT
ATOM      1  C   UNL A   1      31.810  31.371  26.675  1.00  0.00     0.275 C 
ENDROOT
BRANCH   1   2
ATOM      2  C   UNL A   1      31.711  29.863  26.603  1.00  0.00     0.274 C 
BRANCH   2   3
ATOM      3  O   UNL A   1      31.978  29.439  25.256  1.00  0.00    -0.459 OA
BRANCH   3   4
ATOM      4  C   UNL A   1      30.990  28.922  24.483  1.00  0.00     0.347 C 
ATOM      5  O   UNL A   1      30.254  29.589  23.763  1.00  0.00    -0.248 OA
BRANCH   4   6
ATOM      6  C   UNL A   1      30.879  27.385  24.644  1.00  0.00     0.281 C 
ATOM      7  C   UNL A   1      30.227  26.688  23.451  1.00  0.00     0.066 C 
BRANCH   6   8
ATOM      8  O   UNL A   1      30.431  26.679  25.766  1.00  0.00    -0.462 OA
BRANCH   8   9
ATOM      9  C   UNL A   1      30.897  25.455  26.093  1.00  0.00     0.236 A 
ATOM     10  C   UNL A   1      35.090  21.620  26.218  1.00  0.00     0.067 C 
ATOM     11  C   UNL A   1      34.089  22.734  26.182  1.00  0.00     0.039 A 
ATOM     12  C   UNL A   1      34.508  24.017  25.882  1.00  0.00     0.027 A 
ATOM     13  N   UNL A   1      32.832  22.430  26.504  1.00  0.00    -0.240 NA
ATOM     14  C   UNL A   1      33.609  25.107  25.886  1.00  0.00    -0.034 A 
ATOM     15  C   UNL A   1      31.966  23.460  26.441  1.00  0.00     0.147 A 
ATOM     16  C   UNL A   1      34.281  26.423  25.559  1.00  0.00     0.045 C 
ATOM     17  C   UNL A   1      32.218  24.805  26.123  1.00  0.00     0.078 A 
ATOM     18  S   UNL A   1      30.327  23.199  26.794  1.00  0.00    -0.012 S 
ATOM     19  N   UNL A   1      29.861  24.743  26.533  1.00  0.00    -0.153 NA
ENDBRANCH   8   9
ENDBRANCH   6   8
ENDBRANCH   4   6
ENDBRANCH   3   4
ENDBRANCH   2   3
ENDBRANCH   1   2
BRANCH   1  20
ATOM     20  O   UNL A   1      32.898  31.703  27.524  1.00  0.00    -0.458 OA
BRANCH  20  21
ATOM     21  C   UNL A   1      32.924  32.990  27.942  1.00  0.00     0.338 C 
ATOM     22  O   UNL A   1      32.131  33.876  27.690  1.00  0.00    -0.246 OA
BRANCH  21  23
ATOM     23  C   UNL A   1      34.183  33.220  28.638  1.00  0.00     0.060 A 
ATOM     24  C   UNL A   1      35.178  33.854  27.895  1.00  0.00     0.016 A 
ATOM     25  C   UNL A   1      34.447  32.475  29.795  1.00  0.00     0.016 A 
ATOM     26  C   UNL A   1      36.476  33.499  28.153  1.00  0.00     0.010 A 
ATOM     27  C   UNL A   1      35.737  32.100  30.031  1.00  0.00     0.010 A 
ATOM     28  C   UNL A   1      36.715  32.543  29.148  1.00  0.00    -0.014 A 
BRANCH  28  29
ATOM     29  C   UNL A   1      38.074  32.137  29.384  1.00  0.00     0.031 A 
ATOM     30  C   UNL A   1      38.239  30.704  29.085  1.00  0.00     0.074 A 
ATOM     31  C   UNL A   1      39.052  32.995  29.727  1.00  0.00     0.049 A 
ATOM     32  N   UNL A   1      38.317  29.745  29.943  1.00  0.00    -0.248 NA
ATOM     33  C   UNL A   1      38.002  30.256  27.701  1.00  0.00     0.031 C 
ATOM     34  C   UNL A   1      39.012  34.454  29.822  1.00  0.00     0.029 A 
ATOM     35  N   UNL A   1      40.349  32.711  29.993  1.00  0.00    -0.354 N 
ATOM     36  C   UNL A   1      38.430  28.594  29.181  1.00  0.00     0.074 A 
ATOM     37  C   UNL A   1      37.961  28.933  27.866  1.00  0.00     0.031 C 
ATOM     38  C   UNL A   1      40.279  34.930  29.907  1.00  0.00     0.029 A 
ATOM     39  C   UNL A   1      41.203  33.810  30.004  1.00  0.00     0.049 A 
ATOM     40  H   UNL A   1      40.665  31.795  30.166  1.00  0.00     0.167 HD
ATOM     41  C   UNL A   1      39.209  27.569  29.608  1.00  0.00     0.034 A 
ATOM     42  C   UNL A   1      42.563  33.761  30.045  1.00  0.00     0.034 A 
ATOM     43  C   UNL A   1      39.463  27.668  31.029  1.00  0.00     0.049 A 
ATOM     44  C   UNL A   1      42.907  32.437  30.631  1.00  0.00     0.074 A 
ATOM     45  C   UNL A   1      38.660  27.696  32.155  1.00  0.00     0.029 A 
ATOM     46  N   UNL A   1      40.673  28.192  31.425  1.00  0.00    -0.354 N 
ATOM     47  N   UNL A   1      42.607  32.100  31.856  1.00  0.00    -0.248 NA
ATOM     48  C   UNL A   1      43.122  31.326  29.717  1.00  0.00     0.031 C 
ATOM     49  C   UNL A   1      39.261  28.660  33.018  1.00  0.00     0.029 A 
ATOM     50  C   UNL A   1      40.437  29.114  32.418  1.00  0.00     0.049 A 
ATOM     51  H   UNL A   1      41.554  27.949  31.061  1.00  0.00     0.167 HD
ATOM     52  C   UNL A   1      42.169  30.788  31.768  1.00  0.00     0.074 A 
ATOM     53  C   UNL A   1      42.589  30.336  30.442  1.00  0.00     0.031 C 
ATOM     54  C   UNL A   1      41.255  30.290  32.654  1.00  0.00     0.034 A 
BRANCH  41  55
ATOM     55  C   UNL A   1      40.059  26.742  28.678  1.00  0.00     0.023 A 
ATOM     56  C   UNL A   1      41.119  27.393  28.027  1.00  0.00     0.031 A 
ATOM     57  C   UNL A   1      39.733  25.451  28.189  1.00  0.00     0.131 A 
ATOM     58  C   UNL A   1      41.748  26.805  26.918  1.00  0.00     0.055 A 
ATOM     59  C   UNL A   1      40.403  24.847  27.126  1.00  0.00     0.041 A 
ATOM     60  F   UNL A   1      38.693  24.740  28.639  1.00  0.00    -0.206 F 
ATOM     61  C   UNL A   1      41.399  25.535  26.464  1.00  0.00     0.022 A 
BRANCH  58  62
ATOM     62  S   UNL A   1      42.944  27.793  25.990  1.00  0.00     0.124 S 
ATOM     63  O   UNL A   1      44.138  26.959  26.068  1.00  0.00    -0.237 OA
ATOM     64  O   UNL A   1      42.305  27.884  24.681  1.00  0.00    -0.237 OA
ATOM     65  O   UNL A   1      43.003  29.044  26.742  1.00  0.00    -0.744 OA
ENDBRANCH  58  62
ENDBRANCH  41  55
BRANCH  42  66
ATOM     66  C   UNL A   1      43.555  34.575  29.280  1.00  0.00     0.023 A 
ATOM     67  C   UNL A   1      44.164  34.080  28.103  1.00  0.00     0.031 A 
ATOM     68  C   UNL A   1      43.696  35.958  29.526  1.00  0.00     0.131 A 
ATOM     69  C   UNL A   1      44.843  34.953  27.220  1.00  0.00     0.055 A 
ATOM     70  C   UNL A   1      44.367  36.816  28.649  1.00  0.00     0.041 A 
ATOM     71  F   UNL A   1      43.105  36.545  30.576  1.00  0.00    -0.206 F 
ATOM     72  C   UNL A   1      44.929  36.321  27.483  1.00  0.00     0.022 A 
BRANCH  69  73
ATOM     73  S   UNL A   1      45.513  34.344  25.637  1.00  0.00     0.124 S 
ATOM     74  O   UNL A   1      44.452  34.698  24.701  1.00  0.00    -0.237 OA
ATOM     75  O   UNL A   1      46.763  35.085  25.510  1.00  0.00    -0.237 OA
ATOM     76  O   UNL A   1      45.677  32.908  25.869  1.00  0.00    -0.744 OA
ENDBRANCH  69  73
ENDBRANCH  42  66
BRANCH  54  77
ATOM     77  C   UNL A   1      40.949  31.109  33.897  1.00  0.00     0.023 A 
ATOM     78  C   UNL A   1      39.940  32.098  34.002  1.00  0.00     0.031 A 
ATOM     79  C   UNL A   1      41.655  30.773  35.064  1.00  0.00     0.131 A 
ATOM     80  C   UNL A   1      39.681  32.710  35.249  1.00  0.00     0.055 A 
ATOM     81  C   UNL A   1      41.381  31.364  36.296  1.00  0.00     0.041 A 
ATOM     82  F   UNL A   1      42.606  29.825  35.032  1.00  0.00    -0.206 F 
ATOM     83  C   UNL A   1      40.395  32.338  36.393  1.00  0.00     0.022 A 
BRANCH  80  84
ATOM     84  S   UNL A   1      38.399  33.999  35.412  1.00  0.00     0.124 S 
ATOM     85  O   UNL A   1      37.156  33.271  35.181  1.00  0.00    -0.237 OA
ATOM     86  O   UNL A   1      38.610  34.492  36.770  1.00  0.00    -0.237 OA
ATOM     87  O   UNL A   1      38.743  34.961  34.361  1.00  0.00    -0.744 OA
ENDBRANCH  80  84
ENDBRANCH  54  77
ENDBRANCH  28  29
ENDBRANCH  21  23
ENDBRANCH  20  21
ENDBRANCH   1  20
TORSDOF 16
ENDMDL
MODEL 2
REMARK VINA RESULT:     -11.5      4.631      9.601
REMARK SMILES Cc1cc(C)c2c(O[C@@H](C)C(=O)OCCOC(=O)c3ccc(-c4c5nc(c(-c6cc(S(=O)(=O)[O-])ccc6F)c6ccc([nH]6)c(-c6cc(S(=O)(=O)[O-])ccc6F)c6nc(c(-c7cc(S(=O)(=O)[O-])ccc7F)c7ccc4[nH]7)C=C6)C=C5)cc3)nsc2n1
REMARK SMILES IDX 15 1 14 2 13 3 11 4 12 5 9 6 10 7 8 8 7 9 1 10 2 11 3 12
REMARK SMILES IDX 85 13 4 14 84 15 5 16 6 17 83 18 82 19 16 20 17 21 18 22
REMARK SMILES IDX 19 23 20 24 81 25 21 26 80 27 22 28 23 29 24 30 74 31 25 32
REMARK SMILES IDX 79 33 73 34 75 35 26 36 78 37 72 38 71 39 27 41 59 42 39 43
REMARK SMILES IDX 58 44 40 45 43 46 57 47 76 48 41 49 42 50 56 52 77 53 44 54
REMARK SMILES IDX 28 55 29 56 37 57 30 58 36 59 38 60 35 61 31 62 32 63 33 64
REMARK SMILES IDX 34 65 60 66 61 67 69 68 62 69 68 70 70 71 67 72 63 73 64 74
REMARK SMILES IDX 65 75 66 76 45 77 46 78 54 79 47 80 53 81 55 82 52 83 48 84
REMARK SMILES IDX 49 85 50 86 51 87
REMARK H PARENT 75 40 43 51
REMARK Flexibility Score: inf
ROOT
ATOM      1  C   UNL A   1      37.868  20.262  24.899  1.00  0.00     0.275 C 
ENDROOT
BRANCH   1   2
ATOM      2  C   UNL A   1      36.661  21.176  24.899  1.00  0.00     0.274 C 
BRANCH   2   3
ATOM      3  O   UNL A   1      35.504  20.424  25.299  1.00  0.00    -0.459 OA
BRANCH   3   4
ATOM      4  C   UNL A   1      34.409  21.050  25.800  1.00  0.00     0.347 C 
ATOM      5  O   UNL A   1      34.321  21.481  26.945  1.00  0.00    -0.248 OA
BRANCH   4   6
ATOM      6  C   UNL A   1      33.263  21.124  24.758  1.00  0.00     0.281 C 
ATOM      7  C   UNL A   1      32.888  19.769  24.161  1.00  0.00     0.066 C 
BRANCH   6   8
ATOM      8  O   UNL A   1      33.132  22.034  23.703  1.00  0.00    -0.462 OA
BRANCH   8   9
ATOM      9  C   UNL A   1      32.563  23.248  23.854  1.00  0.00     0.236 A 
ATOM     10  C   UNL A   1      32.442  28.404  26.244  1.00  0.00     0.067 C 
ATOM     11  C   UNL A   1      32.619  27.045  25.638  1.00  0.00     0.039 A 
ATOM     12  C   UNL A   1      33.812  26.371  25.815  1.00  0.00     0.027 A 
ATOM     13  N   UNL A   1      31.614  26.576  24.899  1.00  0.00    -0.240 NA
ATOM     14  C   UNL A   1      34.043  25.109  25.221  1.00  0.00    -0.034 A 
ATOM     15  C   UNL A   1      31.812  25.345  24.389  1.00  0.00     0.147 A 
ATOM     16  C   UNL A   1      35.422  24.563  25.519  1.00  0.00     0.045 C 
ATOM     17  C   UNL A   1      32.941  24.516  24.501  1.00  0.00     0.078 A 
ATOM     18  S   UNL A   1      30.595  24.619  23.457  1.00  0.00    -0.012 S 
ATOM     19  N   UNL A   1      31.412  23.231  23.183  1.00  0.00    -0.153 NA
ENDBRANCH   8   9
ENDBRANCH   6   8
ENDBRANCH   4   6
ENDBRANCH   3   4
ENDBRANCH   2   3
ENDBRANCH   1   2
BRANCH   1  20
ATOM     20  O   UNL A   1      38.899  20.892  25.644  1.00  0.00    -0.458 OA
BRANCH  20  21
ATOM     21  C   UNL A   1      40.028  20.160  25.788  1.00  0.00     0.338 C 
ATOM     22  O   UNL A   1      40.187  18.977  25.563  1.00  0.00    -0.246 OA
BRANCH  21  23
ATOM     23  C   UNL A   1      41.034  20.992  26.433  1.00  0.00     0.060 A 
ATOM     24  C   UNL A   1      41.098  20.895  27.823  1.00  0.00     0.016 A 
ATOM     25  C   UNL A   1      41.561  22.074  25.715  1.00  0.00     0.016 A 
ATOM     26  C   UNL A   1      41.438  22.027  28.516  1.00  0.00     0.010 A 
ATOM     27  C   UNL A   1      41.870  23.208  26.407  1.00  0.00     0.010 A 
ATOM     28  C   UNL A   1      41.711  23.191  27.788  1.00  0.00    -0.014 A 
BRANCH  28  29
ATOM     29  C   UNL A   1      42.021  24.390  28.520  1.00  0.00     0.031 A 
ATOM     30  C   UNL A   1      40.984  25.411  28.292  1.00  0.00     0.074 A 
ATOM     31  C   UNL A   1      43.062  24.491  29.365  1.00  0.00     0.049 A 
ATOM     32  N   UNL A   1      41.076  26.440  27.520  1.00  0.00    -0.248 NA
ATOM     33  C   UNL A   1      39.609  25.109  28.731  1.00  0.00     0.031 C 
ATOM     34  C   UNL A   1      43.997  23.457  29.810  1.00  0.00     0.029 A 
ATOM     35  N   UNL A   1      43.452  25.575  30.078  1.00  0.00    -0.354 N 
ATOM     36  C   UNL A   1      39.846  27.068  27.617  1.00  0.00     0.074 A 
ATOM     37  C   UNL A   1      38.931  26.086  28.128  1.00  0.00     0.031 C 
ATOM     38  C   UNL A   1      44.696  23.916  30.878  1.00  0.00     0.029 A 
ATOM     39  C   UNL A   1      44.354  25.313  31.105  1.00  0.00     0.049 A 
ATOM     40  H   UNL A   1      43.120  26.481  29.884  1.00  0.00     0.167 HD
ATOM     41  C   UNL A   1      39.768  28.422  27.585  1.00  0.00     0.034 A 
ATOM     42  C   UNL A   1      44.731  26.190  32.076  1.00  0.00     0.034 A 
ATOM     43  C   UNL A   1      40.966  28.997  27.011  1.00  0.00     0.049 A 
ATOM     44  C   UNL A   1      44.474  27.547  31.524  1.00  0.00     0.074 A 
ATOM     45  C   UNL A   1      41.607  28.877  25.792  1.00  0.00     0.029 A 
ATOM     46  N   UNL A   1      41.912  29.495  27.879  1.00  0.00    -0.354 N 
ATOM     47  N   UNL A   1      45.110  28.028  30.491  1.00  0.00    -0.248 NA
ATOM     48  C   UNL A   1      43.180  28.156  31.795  1.00  0.00     0.031 C 
ATOM     49  C   UNL A   1      43.000  28.852  26.103  1.00  0.00     0.029 A 
ATOM     50  C   UNL A   1      43.145  29.036  27.479  1.00  0.00     0.049 A 
ATOM     51  H   UNL A   1      41.736  30.079  28.651  1.00  0.00     0.167 HD
ATOM     52  C   UNL A   1      44.137  28.669  29.739  1.00  0.00     0.074 A 
ATOM     53  C   UNL A   1      42.985  28.790  30.633  1.00  0.00     0.031 C 
ATOM     54  C   UNL A   1      44.253  28.775  28.381  1.00  0.00     0.034 A 
BRANCH  41  55
ATOM     55  C   UNL A   1      38.809  29.209  28.440  1.00  0.00     0.023 A 
ATOM     56  C   UNL A   1      39.037  29.212  29.826  1.00  0.00     0.031 A 
ATOM     57  C   UNL A   1      37.553  29.717  28.020  1.00  0.00     0.131 A 
ATOM     58  C   UNL A   1      38.035  29.630  30.716  1.00  0.00     0.055 A 
ATOM     59  C   UNL A   1      36.586  30.190  28.906  1.00  0.00     0.041 A 
ATOM     60  F   UNL A   1      37.146  29.699  26.746  1.00  0.00    -0.206 F 
ATOM     61  C   UNL A   1      36.813  30.122  30.266  1.00  0.00     0.022 A 
BRANCH  58  62
ATOM     62  S   UNL A   1      38.311  29.392  32.486  1.00  0.00     0.124 S 
ATOM     63  O   UNL A   1      37.837  30.659  33.031  1.00  0.00    -0.237 OA
ATOM     64  O   UNL A   1      37.485  28.222  32.763  1.00  0.00    -0.237 OA
ATOM     65  O   UNL A   1      39.752  29.172  32.576  1.00  0.00    -0.744 OA
ENDBRANCH  58  62
ENDBRANCH  41  55
BRANCH  42  66
ATOM     66  C   UNL A   1      44.917  25.947  33.538  1.00  0.00     0.023 A 
ATOM     67  C   UNL A   1      43.910  26.279  34.475  1.00  0.00     0.031 A 
ATOM     68  C   UNL A   1      45.959  25.118  34.005  1.00  0.00     0.131 A 
ATOM     69  C   UNL A   1      43.953  25.765  35.793  1.00  0.00     0.055 A 
ATOM     70  C   UNL A   1      45.995  24.611  35.308  1.00  0.00     0.041 A 
ATOM     71  F   UNL A   1      46.930  24.688  33.187  1.00  0.00    -0.206 F 
ATOM     72  C   UNL A   1      44.983  24.918  36.204  1.00  0.00     0.022 A 
BRANCH  69  73
ATOM     73  S   UNL A   1      42.589  26.079  36.962  1.00  0.00     0.124 S 
ATOM     74  O   UNL A   1      41.806  24.854  36.854  1.00  0.00    -0.237 OA
ATOM     75  O   UNL A   1      43.290  26.291  38.224  1.00  0.00    -0.237 OA
ATOM     76  O   UNL A   1      41.944  27.274  36.416  1.00  0.00    -0.744 OA
ENDBRANCH  69  73
ENDBRANCH  42  66
BRANCH  54  77
ATOM     77  C   UNL A   1      45.593  28.433  27.752  1.00  0.00     0.023 A 
ATOM     78  C   UNL A   1      45.951  27.172  27.213  1.00  0.00     0.031 A 
ATOM     79  C   UNL A   1      46.505  29.490  27.596  1.00  0.00     0.131 A 
ATOM     80  C   UNL A   1      47.189  27.014  26.553  1.00  0.00     0.055 A 
ATOM     81  C   UNL A   1      47.717  29.334  26.925  1.00  0.00     0.041 A 
ATOM     82  F   UNL A   1      46.211  30.713  28.064  1.00  0.00    -0.206 F 
ATOM     83  C   UNL A   1      48.066  28.095  26.404  1.00  0.00     0.022 A 
BRANCH  80  84
ATOM     84  S   UNL A   1      47.685  25.399  25.863  1.00  0.00     0.124 S 
ATOM     85  O   UNL A   1      47.383  24.464  26.941  1.00  0.00    -0.237 OA
ATOM     86  O   UNL A   1      46.852  25.290  24.668  1.00  0.00    -0.237 OA
ATOM     87  O   UNL A   1      49.114  25.566  25.589  1.00  0.00    -0.744 OA
ENDBRANCH  80  84
ENDBRANCH  54  77
ENDBRANCH  28  29
ENDBRANCH  21  23
ENDBRANCH  20  21
ENDBRANCH   1  20
TORSDOF 16
ENDMDL
MODEL 3
REMARK VINA RESULT:     -11.3      4.802      9.581
REMARK SMILES Cc1cc(C)c2c(O[C@@H](C)C(=O)OCCOC(=O)c3ccc(-c4c5nc(c(-c6cc(S(=O)(=O)[O-])ccc6F)c6ccc([nH]6)c(-c6cc(S(=O)(=O)[O-])ccc6F)c6nc(c(-c7cc(S(=O)(=O)[O-])ccc7F)c7ccc4[nH]7)C=C6)C=C5)cc3)nsc2n1
REMARK SMILES IDX 15 1 14 2 13 3 11 4 12 5 9 6 10 7 8 8 7 9 1 10 2 11 3 12
REMARK SMILES IDX 85 13 4 14 84 15 5 16 6 17 83 18 82 19 16 20 17 21 18 22
REMARK SMILES IDX 19 23 20 24 81 25 21 26 80 27 22 28 23 29 24 30 74 31 25 32
REMARK SMILES IDX 79 33 73 34 75 35 26 36 78 37 72 38 71 39 27 41 59 42 39 43
REMARK SMILES IDX 58 44 40 45 43 46 57 47 76 48 41 49 42 50 56 52 77 53 44 54
REMARK SMILES IDX 28 55 29 56 37 57 30 58 36 59 38 60 35 61 31 62 32 63 33 64
REMARK SMILES IDX 34 65 60 66 61 67 69 68 62 69 68 70 70 71 67 72 63 73 64 74
REMARK SMILES IDX 65 75 66 76 45 77 46 78 54 79 47 80 53 81 55 82 52 83 48 84
REMARK SMILES IDX 49 85 50 86 51 87
REMARK H PARENT 75 40 43 51
REMARK Flexibility Score: inf
ROOT
ATOM      1  C   UNL A   1      38.062  20.947  25.181  1.00  0.00     0.275 C 
ENDROOT
BRANCH   1   2
ATOM      2  C   UNL A   1      37.689  22.410  25.288  1.00  0.00     0.274 C 
BRANCH   2   3
ATOM      3  O   UNL A   1      36.301  22.565  24.949  1.00  0.00    -0.459 OA
BRANCH   3   4
ATOM      4  C   UNL A   1      35.932  23.215  23.816  1.00  0.00     0.347 C 
ATOM      5  O   UNL A   1      36.512  23.114  22.740  1.00  0.00    -0.248 OA
BRANCH   4   6
ATOM      6  C   UNL A   1      34.705  24.132  24.054  1.00  0.00     0.281 C 
ATOM      7  C   UNL A   1      34.750  24.884  25.383  1.00  0.00     0.066 C 
BRANCH   6   8
ATOM      8  O   UNL A   1      33.357  23.813  23.864  1.00  0.00    -0.462 OA
BRANCH   8   9
ATOM      9  C   UNL A   1      32.927  22.548  23.672  1.00  0.00     0.236 A 
ATOM     10  C   UNL A   1      32.605  17.119  25.325  1.00  0.00     0.067 C 
ATOM     11  C   UNL A   1      32.708  18.584  25.031  1.00  0.00     0.039 A 
ATOM     12  C   UNL A   1      33.161  19.445  26.013  1.00  0.00     0.027 A 
ATOM     13  N   UNL A   1      32.296  18.992  23.830  1.00  0.00    -0.240 NA
ATOM     14  C   UNL A   1      33.228  20.841  25.798  1.00  0.00    -0.034 A 
ATOM     15  C   UNL A   1      32.423  20.314  23.607  1.00  0.00     0.147 A 
ATOM     16  C   UNL A   1      33.723  21.598  27.010  1.00  0.00     0.045 C 
ATOM     17  C   UNL A   1      32.893  21.314  24.476  1.00  0.00     0.078 A 
ATOM     18  S   UNL A   1      31.966  20.957  22.105  1.00  0.00    -0.012 S 
ATOM     19  N   UNL A   1      32.364  22.500  22.465  1.00  0.00    -0.153 NA
ENDBRANCH   8   9
ENDBRANCH   6   8
ENDBRANCH   4   6
ENDBRANCH   3   4
ENDBRANCH   2   3
ENDBRANCH   1   2
BRANCH   1  20
ATOM     20  O   UNL A   1      38.879  20.617  26.295  1.00  0.00    -0.458 OA
BRANCH  20  21
ATOM     21  C   UNL A   1      40.096  20.115  25.981  1.00  0.00     0.338 C 
ATOM     22  O   UNL A   1      40.353  19.066  25.426  1.00  0.00    -0.246 OA
BRANCH  21  23
ATOM     23  C   UNL A   1      41.112  20.974  26.574  1.00  0.00     0.060 A 
ATOM     24  C   UNL A   1      41.244  20.886  27.960  1.00  0.00     0.016 A 
ATOM     25  C   UNL A   1      41.578  22.064  25.827  1.00  0.00     0.016 A 
ATOM     26  C   UNL A   1      41.590  22.030  28.631  1.00  0.00     0.010 A 
ATOM     27  C   UNL A   1      41.893  23.209  26.499  1.00  0.00     0.010 A 
ATOM     28  C   UNL A   1      41.800  23.196  27.886  1.00  0.00    -0.014 A 
BRANCH  28  29
ATOM     29  C   UNL A   1      42.116  24.406  28.597  1.00  0.00     0.031 A 
ATOM     30  C   UNL A   1      41.101  25.438  28.325  1.00  0.00     0.074 A 
ATOM     31  C   UNL A   1      43.142  24.508  29.461  1.00  0.00     0.049 A 
ATOM     32  N   UNL A   1      41.227  26.448  27.533  1.00  0.00    -0.248 NA
ATOM     33  C   UNL A   1      39.714  25.169  28.744  1.00  0.00     0.031 C 
ATOM     34  C   UNL A   1      44.050  23.469  29.947  1.00  0.00     0.029 A 
ATOM     35  N   UNL A   1      43.536  25.601  30.157  1.00  0.00    -0.354 N 
ATOM     36  C   UNL A   1      40.005  27.098  27.591  1.00  0.00     0.074 A 
ATOM     37  C   UNL A   1      39.064  26.144  28.106  1.00  0.00     0.031 C 
ATOM     38  C   UNL A   1      44.736  23.941  31.018  1.00  0.00     0.029 A 
ATOM     39  C   UNL A   1      44.413  25.347  31.207  1.00  0.00     0.049 A 
ATOM     40  H   UNL A   1      43.224  26.508  29.936  1.00  0.00     0.167 HD
ATOM     41  C   UNL A   1      39.952  28.453  27.528  1.00  0.00     0.034 A 
ATOM     42  C   UNL A   1      44.786  26.240  32.166  1.00  0.00     0.034 A 
ATOM     43  C   UNL A   1      41.170  28.994  26.966  1.00  0.00     0.049 A 
ATOM     44  C   UNL A   1      44.564  27.588  31.578  1.00  0.00     0.074 A 
ATOM     45  C   UNL A   1      41.833  28.836  25.762  1.00  0.00     0.029 A 
ATOM     46  N   UNL A   1      42.107  29.496  27.841  1.00  0.00    -0.354 N 
ATOM     47  N   UNL A   1      45.227  28.035  30.548  1.00  0.00    -0.248 NA
ATOM     48  C   UNL A   1      43.275  28.224  31.810  1.00  0.00     0.031 C 
ATOM     49  C   UNL A   1      43.218  28.795  26.102  1.00  0.00     0.029 A 
ATOM     50  C   UNL A   1      43.340  29.007  27.476  1.00  0.00     0.049 A 
ATOM     51  H   UNL A   1      41.926  30.100  28.596  1.00  0.00     0.167 HD
ATOM     52  C   UNL A   1      44.281  28.675  29.763  1.00  0.00     0.074 A 
ATOM     53  C   UNL A   1      43.114  28.835  30.630  1.00  0.00     0.031 C 
ATOM     54  C   UNL A   1      44.425  28.748  28.405  1.00  0.00     0.034 A 
BRANCH  41  55
ATOM     55  C   UNL A   1      38.989  29.275  28.346  1.00  0.00     0.023 A 
ATOM     56  C   UNL A   1      39.158  29.263  29.740  1.00  0.00     0.031 A 
ATOM     57  C   UNL A   1      37.774  29.835  27.875  1.00  0.00     0.131 A 
ATOM     58  C   UNL A   1      38.137  29.718  30.589  1.00  0.00     0.055 A 
ATOM     59  C   UNL A   1      36.791  30.343  28.723  1.00  0.00     0.041 A 
ATOM     60  F   UNL A   1      37.422  29.839  26.585  1.00  0.00    -0.206 F 
ATOM     61  C   UNL A   1      36.956  30.261  30.091  1.00  0.00     0.022 A 
BRANCH  58  62
ATOM     62  S   UNL A   1      38.327  29.462  32.368  1.00  0.00     0.124 S 
ATOM     63  O   UNL A   1      38.180  30.820  32.879  1.00  0.00    -0.237 OA
ATOM     64  O   UNL A   1      37.231  28.542  32.657  1.00  0.00    -0.237 OA
ATOM     65  O   UNL A   1      39.666  28.890  32.485  1.00  0.00    -0.744 OA
ENDBRANCH  58  62
ENDBRANCH  41  55
BRANCH  42  66
ATOM     66  C   UNL A   1      44.939  26.027  33.636  1.00  0.00     0.023 A 
ATOM     67  C   UNL A   1      43.905  26.361  34.542  1.00  0.00     0.031 A 
ATOM     68  C   UNL A   1      45.981  25.222  34.144  1.00  0.00     0.131 A 
ATOM     69  C   UNL A   1      43.922  25.872  35.870  1.00  0.00     0.055 A 
ATOM     70  C   UNL A   1      45.993  24.740  35.457  1.00  0.00     0.041 A 
ATOM     71  F   UNL A   1      46.979  24.791  33.358  1.00  0.00    -0.206 F 
ATOM     72  C   UNL A   1      44.954  25.049  36.322  1.00  0.00     0.022 A 
BRANCH  69  73
ATOM     73  S   UNL A   1      42.526  26.188  36.999  1.00  0.00     0.124 S 
ATOM     74  O   UNL A   1      41.921  27.378  36.410  1.00  0.00    -0.237 OA
ATOM     75  O   UNL A   1      41.752  24.955  36.907  1.00  0.00    -0.237 OA
ATOM     76  O   UNL A   1      43.178  26.403  38.292  1.00  0.00    -0.744 OA
ENDBRANCH  69  73
ENDBRANCH  42  66
BRANCH  54  77
ATOM     77  C   UNL A   1      45.771  28.370  27.811  1.00  0.00     0.023 A 
ATOM     78  C   UNL A   1      46.137  27.077  27.359  1.00  0.00     0.031 A 
ATOM     79  C   UNL A   1      46.681  29.417  27.593  1.00  0.00     0.131 A 
ATOM     80  C   UNL A   1      47.381  26.880  26.721  1.00  0.00     0.055 A 
ATOM     81  C   UNL A   1      47.899  29.221  26.943  1.00  0.00     0.041 A 
ATOM     82  F   UNL A   1      46.381  30.668  27.977  1.00  0.00    -0.206 F 
ATOM     83  C   UNL A   1      48.256  27.951  26.508  1.00  0.00     0.022 A 
BRANCH  80  84
ATOM     84  S   UNL A   1      47.887  25.224  26.144  1.00  0.00     0.124 S 
ATOM     85  O   UNL A   1      48.286  25.457  24.760  1.00  0.00    -0.237 OA
ATOM     86  O   UNL A   1      48.960  24.875  27.070  1.00  0.00    -0.237 OA
ATOM     87  O   UNL A   1      46.672  24.421  26.297  1.00  0.00    -0.744 OA
ENDBRANCH  80  84
ENDBRANCH  54  77
ENDBRANCH  28  29
ENDBRANCH  21  23
ENDBRANCH  20  21
ENDBRANCH   1  20
TORSDOF 16
ENDMDL
