MODEL 1
REMARK VINA RESULT:     -11.0      0.000      0.000
REMARK SMILES O=C(C[C@H](c1ccsc1)n1cccc1)OCCOC(=O)c1ccc(-c2c3nc(c(-c4cc(S(=O)(=O)[O-])ccc4F)c4ccc([nH]4)c(-c4cc(S(=O)(=O)[O-])ccc4F)c4nc(c(-c5cc(S(=O)(=O)[O-])ccc5F)c5ccc2[nH]5)C=C4)C=C3)cc1
REMARK SMILES IDX 17 1 16 2 15 3 2 4 1 5 3 6 4 7 10 8 11 9 14 10 12 11 13 12
REMARK SMILES IDX 5 13 6 14 9 15 7 16 8 17 18 18 19 19 20 20 21 21 22 22 83 23
REMARK SMILES IDX 23 24 82 25 24 26 25 27 26 28 76 29 27 30 81 31 75 32 77 33
REMARK SMILES IDX 28 34 80 35 74 36 73 37 29 39 61 40 41 41 60 42 42 43 45 44
REMARK SMILES IDX 59 45 78 46 43 47 44 48 58 50 79 51 46 52 30 53 31 54 39 55
REMARK SMILES IDX 32 56 38 57 40 58 37 59 33 60 34 61 35 62 36 63 62 64 63 65
REMARK SMILES IDX 71 66 64 67 70 68 72 69 69 70 65 71 66 72 67 73 68 74 47 75
REMARK SMILES IDX 48 76 56 77 49 78 55 79 57 80 54 81 50 82 51 83 52 84 53 85
REMARK H PARENT 77 38 45 49
REMARK Flexibility Score: inf
ROOT
ATOM      1  C   UNL A   1      34.575  29.226  26.666  1.00  0.00     0.275 C 
ENDROOT
BRANCH   1   2
ATOM      2  C   UNL A   1      34.110  27.944  25.983  1.00  0.00     0.274 C 
BRANCH   2   3
ATOM      3  O   UNL A   1      33.027  27.281  26.670  1.00  0.00    -0.462 OA
BRANCH   3   4
ATOM      4  C   UNL A   1      31.708  27.396  26.389  1.00  0.00     0.308 C 
ATOM      5  O   UNL A   1      30.881  26.745  27.025  1.00  0.00    -0.252 OA
BRANCH   4   6
ATOM      6  C   UNL A   1      31.269  28.377  25.338  1.00  0.00     0.153 C 
BRANCH   6   7
ATOM      7  C   UNL A   1      30.541  27.663  24.209  1.00  0.00     0.128 C 
BRANCH   7   8
ATOM      8  N   UNL A   1      29.637  28.596  23.510  1.00  0.00    -0.346 N 
ATOM      9  C   UNL A   1      28.402  28.247  23.013  1.00  0.00     0.086 A 
ATOM     10  C   UNL A   1      29.772  29.961  23.427  1.00  0.00     0.086 A 
ATOM     11  C   UNL A   1      27.776  29.390  22.565  1.00  0.00     0.019 A 
ATOM     12  C   UNL A   1      28.647  30.473  22.819  1.00  0.00     0.019 A 
ENDBRANCH   7   8
BRANCH   7  13
ATOM     13  C   UNL A   1      31.471  26.927  23.270  1.00  0.00    -0.014 A 
ATOM     14  C   UNL A   1      32.601  27.485  22.580  1.00  0.00     0.017 A 
ATOM     15  C   UNL A   1      31.400  25.562  23.044  1.00  0.00     0.070 A 
ATOM     16  C   UNL A   1      33.322  26.540  21.883  1.00  0.00     0.065 A 
ATOM     17  S   UNL A   1      32.648  24.980  22.032  1.00  0.00    -0.152 S 
ENDBRANCH   7  13
ENDBRANCH   6   7
ENDBRANCH   4   6
ENDBRANCH   3   4
ENDBRANCH   2   3
ENDBRANCH   1   2
BRANCH   1  18
ATOM     18  O   UNL A   1      35.554  28.977  27.674  1.00  0.00    -0.458 OA
BRANCH  18  19
ATOM     19  C   UNL A   1      36.373  30.027  27.932  1.00  0.00     0.338 C 
ATOM     20  O   UNL A   1      36.145  31.194  27.708  1.00  0.00    -0.246 OA
BRANCH  19  21
ATOM     21  C   UNL A   1      37.628  29.545  28.525  1.00  0.00     0.060 A 
ATOM     22  C   UNL A   1      38.810  29.831  27.832  1.00  0.00     0.016 A 
ATOM     23  C   UNL A   1      37.609  28.687  29.632  1.00  0.00     0.016 A 
ATOM     24  C   UNL A   1      39.960  29.148  28.168  1.00  0.00     0.010 A 
ATOM     25  C   UNL A   1      38.749  27.973  29.942  1.00  0.00     0.010 A 
ATOM     26  C   UNL A   1      39.904  28.183  29.181  1.00  0.00    -0.014 A 
BRANCH  26  27
ATOM     27  C   UNL A   1      41.139  27.466  29.518  1.00  0.00     0.031 A 
ATOM     28  C   UNL A   1      41.331  26.267  28.539  1.00  0.00     0.074 A 
ATOM     29  C   UNL A   1      41.799  27.968  30.618  1.00  0.00     0.049 A 
ATOM     30  N   UNL A   1      42.015  25.175  28.670  1.00  0.00    -0.248 NA
ATOM     31  C   UNL A   1      40.599  26.248  27.231  1.00  0.00     0.031 C 
ATOM     32  C   UNL A   1      41.419  29.195  31.379  1.00  0.00     0.029 A 
ATOM     33  N   UNL A   1      42.905  27.576  31.338  1.00  0.00    -0.354 N 
ATOM     34  C   UNL A   1      42.035  24.513  27.414  1.00  0.00     0.074 A 
ATOM     35  C   UNL A   1      41.043  25.152  26.612  1.00  0.00     0.031 C 
ATOM     36  C   UNL A   1      42.191  29.362  32.483  1.00  0.00     0.029 A 
ATOM     37  C   UNL A   1      43.172  28.298  32.550  1.00  0.00     0.049 A 
ATOM     38  H   UNL A   1      43.484  26.838  31.037  1.00  0.00     0.167 HD
ATOM     39  C   UNL A   1      42.968  23.569  27.087  1.00  0.00     0.034 A 
ATOM     40  C   UNL A   1      44.092  28.007  33.534  1.00  0.00     0.034 A 
ATOM     41  C   UNL A   1      43.781  23.308  28.224  1.00  0.00     0.049 A 
ATOM     42  C   UNL A   1      44.863  26.915  32.922  1.00  0.00     0.074 A 
ATOM     43  C   UNL A   1      43.506  22.662  29.400  1.00  0.00     0.029 A 
ATOM     44  N   UNL A   1      44.906  24.083  28.380  1.00  0.00    -0.354 N 
ATOM     45  N   UNL A   1      45.713  27.067  31.954  1.00  0.00    -0.248 NA
ATOM     46  C   UNL A   1      44.578  25.536  33.337  1.00  0.00     0.031 C 
ATOM     47  C   UNL A   1      44.109  23.508  30.347  1.00  0.00     0.029 A 
ATOM     48  C   UNL A   1      44.973  24.410  29.710  1.00  0.00     0.049 A 
ATOM     49  H   UNL A   1      45.539  24.351  27.675  1.00  0.00     0.167 HD
ATOM     50  C   UNL A   1      45.805  25.802  31.439  1.00  0.00     0.074 A 
ATOM     51  C   UNL A   1      45.386  24.900  32.495  1.00  0.00     0.031 C 
ATOM     52  C   UNL A   1      45.690  25.602  30.100  1.00  0.00     0.034 A 
BRANCH  39  53
ATOM     53  C   UNL A   1      43.412  22.937  25.793  1.00  0.00     0.023 A 
ATOM     54  C   UNL A   1      43.540  21.522  25.800  1.00  0.00     0.031 A 
ATOM     55  C   UNL A   1      44.016  23.610  24.727  1.00  0.00     0.131 A 
ATOM     56  C   UNL A   1      44.361  20.853  24.887  1.00  0.00     0.055 A 
ATOM     57  C   UNL A   1      44.786  22.927  23.767  1.00  0.00     0.041 A 
ATOM     58  F   UNL A   1      43.963  24.944  24.620  1.00  0.00    -0.206 F 
ATOM     59  C   UNL A   1      44.995  21.551  23.867  1.00  0.00     0.022 A 
BRANCH  56  60
ATOM     60  S   UNL A   1      44.721  19.097  25.187  1.00  0.00     0.124 S 
ATOM     61  O   UNL A   1      46.048  19.151  25.789  1.00  0.00    -0.237 OA
ATOM     62  O   UNL A   1      43.632  18.711  26.081  1.00  0.00    -0.237 OA
ATOM     63  O   UNL A   1      44.665  18.505  23.853  1.00  0.00    -0.744 OA
ENDBRANCH  56  60
ENDBRANCH  39  53
BRANCH  40  64
ATOM     64  C   UNL A   1      44.512  28.353  34.973  1.00  0.00     0.023 A 
ATOM     65  C   UNL A   1      44.456  27.542  36.124  1.00  0.00     0.031 A 
ATOM     66  C   UNL A   1      45.128  29.633  35.202  1.00  0.00     0.131 A 
ATOM     67  C   UNL A   1      45.075  27.978  37.344  1.00  0.00     0.055 A 
ATOM     68  C   UNL A   1      45.819  30.003  36.355  1.00  0.00     0.041 A 
ATOM     69  F   UNL A   1      45.091  30.620  34.298  1.00  0.00    -0.206 F 
ATOM     70  C   UNL A   1      45.813  29.161  37.436  1.00  0.00     0.022 A 
BRANCH  67  71
ATOM     71  S   UNL A   1      44.955  27.019  38.892  1.00  0.00     0.124 S 
ATOM     72  O   UNL A   1      45.112  28.058  39.905  1.00  0.00    -0.237 OA
ATOM     73  O   UNL A   1      43.635  26.406  38.796  1.00  0.00    -0.237 OA
ATOM     74  O   UNL A   1      46.073  26.079  38.798  1.00  0.00    -0.744 OA
ENDBRANCH  67  71
ENDBRANCH  40  64
BRANCH  52  75
ATOM     75  C   UNL A   1      45.989  26.825  29.228  1.00  0.00     0.023 A 
ATOM     76  C   UNL A   1      44.927  27.583  28.699  1.00  0.00     0.031 A 
ATOM     77  C   UNL A   1      47.278  27.214  28.813  1.00  0.00     0.131 A 
ATOM     78  C   UNL A   1      45.162  28.639  27.793  1.00  0.00     0.055 A 
ATOM     79  C   UNL A   1      47.517  28.264  27.913  1.00  0.00     0.041 A 
ATOM     80  F   UNL A   1      48.364  26.587  29.259  1.00  0.00    -0.206 F 
ATOM     81  C   UNL A   1      46.454  28.983  27.395  1.00  0.00     0.022 A 
BRANCH  78  82
ATOM     82  S   UNL A   1      43.754  29.586  27.155  1.00  0.00     0.124 S 
ATOM     83  O   UNL A   1      43.176  30.157  28.366  1.00  0.00    -0.237 OA
ATOM     84  O   UNL A   1      44.398  30.530  26.246  1.00  0.00    -0.237 OA
ATOM     85  O   UNL A   1      42.930  28.571  26.497  1.00  0.00    -0.744 OA
ENDBRANCH  78  82
ENDBRANCH  52  75
ENDBRANCH  26  27
ENDBRANCH  19  21
ENDBRANCH  18  19
ENDBRANCH   1  18
TORSDOF 17
ENDMDL
MODEL 2
REMARK VINA RESULT:     -10.9      4.838     10.078
REMARK SMILES O=C(C[C@H](c1ccsc1)n1cccc1)OCCOC(=O)c1ccc(-c2c3nc(c(-c4cc(S(=O)(=O)[O-])ccc4F)c4ccc([nH]4)c(-c4cc(S(=O)(=O)[O-])ccc4F)c4nc(c(-c5cc(S(=O)(=O)[O-])ccc5F)c5ccc2[nH]5)C=C4)C=C3)cc1
REMARK SMILES IDX 17 1 16 2 15 3 2 4 1 5 3 6 4 7 10 8 11 9 14 10 12 11 13 12
REMARK SMILES IDX 5 13 6 14 9 15 7 16 8 17 18 18 19 19 20 20 21 21 22 22 83 23
REMARK SMILES IDX 23 24 82 25 24 26 25 27 26 28 76 29 27 30 81 31 75 32 77 33
REMARK SMILES IDX 28 34 80 35 74 36 73 37 29 39 61 40 41 41 60 42 42 43 45 44
REMARK SMILES IDX 59 45 78 46 43 47 44 48 58 50 79 51 46 52 30 53 31 54 39 55
REMARK SMILES IDX 32 56 38 57 40 58 37 59 33 60 34 61 35 62 36 63 62 64 63 65
REMARK SMILES IDX 71 66 64 67 70 68 72 69 69 70 65 71 66 72 67 73 68 74 47 75
REMARK SMILES IDX 48 76 56 77 49 78 55 79 57 80 54 81 50 82 51 83 52 84 53 85
REMARK H PARENT 77 38 45 49
REMARK Flexibility Score: inf
ROOT
ATOM      1  C   UNL A   1      37.398  23.509  26.113  1.00  0.00     0.275 C 
ENDROOT
BRANCH   1   2
ATOM      2  C   UNL A   1      36.271  23.807  25.129  1.00  0.00     0.274 C 
BRANCH   2   3
ATOM      3  O   UNL A   1      35.108  24.404  25.743  1.00  0.00    -0.462 OA
BRANCH   3   4
ATOM      4  C   UNL A   1      34.081  25.008  25.100  1.00  0.00     0.308 C 
ATOM      5  O   UNL A   1      33.875  24.776  23.910  1.00  0.00    -0.252 OA
BRANCH   4   6
ATOM      6  C   UNL A   1      33.164  25.909  25.877  1.00  0.00     0.153 C 
BRANCH   6   7
ATOM      7  C   UNL A   1      32.789  27.132  25.053  1.00  0.00     0.128 C 
BRANCH   7   8
ATOM      8  N   UNL A   1      31.435  26.974  24.488  1.00  0.00    -0.346 N 
ATOM      9  C   UNL A   1      30.407  26.315  25.123  1.00  0.00     0.086 A 
ATOM     10  C   UNL A   1      30.929  27.611  23.380  1.00  0.00     0.086 A 
ATOM     11  C   UNL A   1      29.257  26.492  24.384  1.00  0.00     0.019 A 
ATOM     12  C   UNL A   1      29.590  27.304  23.278  1.00  0.00     0.019 A 
ENDBRANCH   7   8
BRANCH   7  13
ATOM     13  C   UNL A   1      32.970  28.435  25.799  1.00  0.00    -0.014 A 
ATOM     14  C   UNL A   1      31.960  29.430  26.032  1.00  0.00     0.017 A 
ATOM     15  C   UNL A   1      34.140  28.780  26.456  1.00  0.00     0.070 A 
ATOM     16  C   UNL A   1      32.396  30.456  26.840  1.00  0.00     0.065 A 
ATOM     17  S   UNL A   1      34.021  30.252  27.316  1.00  0.00    -0.152 S 
ENDBRANCH   7  13
ENDBRANCH   6   7
ENDBRANCH   4   6
ENDBRANCH   3   4
ENDBRANCH   2   3
ENDBRANCH   1   2
BRANCH   1  18
ATOM     18  O   UNL A   1      38.096  24.690  26.508  1.00  0.00    -0.458 OA
BRANCH  18  19
ATOM     19  C   UNL A   1      39.211  24.461  27.245  1.00  0.00     0.338 C 
ATOM     20  O   UNL A   1      39.704  23.386  27.498  1.00  0.00    -0.246 OA
BRANCH  19  21
ATOM     21  C   UNL A   1      39.757  25.736  27.731  1.00  0.00     0.060 A 
ATOM     22  C   UNL A   1      39.637  26.000  29.100  1.00  0.00     0.016 A 
ATOM     23  C   UNL A   1      40.206  26.708  26.828  1.00  0.00     0.016 A 
ATOM     24  C   UNL A   1      39.842  27.287  29.550  1.00  0.00     0.010 A 
ATOM     25  C   UNL A   1      40.371  28.005  27.271  1.00  0.00     0.010 A 
ATOM     26  C   UNL A   1      40.149  28.289  28.622  1.00  0.00    -0.014 A 
BRANCH  26  27
ATOM     27  C   UNL A   1      40.357  29.652  29.125  1.00  0.00     0.031 A 
ATOM     28  C   UNL A   1      38.978  30.321  29.411  1.00  0.00     0.074 A 
ATOM     29  C   UNL A   1      41.679  30.036  29.178  1.00  0.00     0.049 A 
ATOM     30  N   UNL A   1      38.648  31.571  29.485  1.00  0.00    -0.248 NA
ATOM     31  C   UNL A   1      37.758  29.467  29.584  1.00  0.00     0.031 C 
ATOM     32  C   UNL A   1      42.855  29.164  28.881  1.00  0.00     0.029 A 
ATOM     33  N   UNL A   1      42.328  31.212  29.479  1.00  0.00    -0.354 N 
ATOM     34  C   UNL A   1      37.319  31.648  29.978  1.00  0.00     0.074 A 
ATOM     35  C   UNL A   1      36.785  30.327  29.895  1.00  0.00     0.031 C 
ATOM     36  C   UNL A   1      44.018  29.862  28.903  1.00  0.00     0.029 A 
ATOM     37  C   UNL A   1      43.745  31.243  29.246  1.00  0.00     0.049 A 
ATOM     38  H   UNL A   1      41.845  31.993  29.834  1.00  0.00     0.167 HD
ATOM     39  C   UNL A   1      36.802  32.779  30.548  1.00  0.00     0.034 A 
ATOM     40  C   UNL A   1      44.596  32.325  29.293  1.00  0.00     0.034 A 
ATOM     41  C   UNL A   1      37.755  33.829  30.437  1.00  0.00     0.049 A 
ATOM     42  C   UNL A   1      43.730  33.375  29.848  1.00  0.00     0.074 A 
ATOM     43  C   UNL A   1      38.186  34.544  29.352  1.00  0.00     0.029 A 
ATOM     44  N   UNL A   1      38.660  33.962  31.464  1.00  0.00    -0.354 N 
ATOM     45  N   UNL A   1      43.340  33.430  31.084  1.00  0.00    -0.248 NA
ATOM     46  C   UNL A   1      43.157  34.370  28.932  1.00  0.00     0.031 C 
ATOM     47  C   UNL A   1      39.576  34.589  29.565  1.00  0.00     0.029 A 
ATOM     48  C   UNL A   1      39.876  34.208  30.880  1.00  0.00     0.049 A 
ATOM     49  H   UNL A   1      38.472  33.894  32.428  1.00  0.00     0.167 HD
ATOM     50  C   UNL A   1      42.243  34.247  31.013  1.00  0.00     0.074 A 
ATOM     51  C   UNL A   1      42.392  35.027  29.800  1.00  0.00     0.031 C 
ATOM     52  C   UNL A   1      41.080  33.875  31.608  1.00  0.00     0.034 A 
BRANCH  39  53
ATOM     53  C   UNL A   1      35.589  33.068  31.393  1.00  0.00     0.023 A 
ATOM     54  C   UNL A   1      34.779  34.156  30.973  1.00  0.00     0.031 A 
ATOM     55  C   UNL A   1      35.378  32.603  32.695  1.00  0.00     0.131 A 
ATOM     56  C   UNL A   1      33.936  34.832  31.861  1.00  0.00     0.055 A 
ATOM     57  C   UNL A   1      34.478  33.242  33.567  1.00  0.00     0.041 A 
ATOM     58  F   UNL A   1      36.088  31.585  33.199  1.00  0.00    -0.206 F 
ATOM     59  C   UNL A   1      33.783  34.383  33.167  1.00  0.00     0.022 A 
BRANCH  56  60
ATOM     60  S   UNL A   1      33.206  36.405  31.317  1.00  0.00     0.124 S 
ATOM     61  O   UNL A   1      33.955  37.381  32.100  1.00  0.00    -0.237 OA
ATOM     62  O   UNL A   1      33.482  36.390  29.884  1.00  0.00    -0.237 OA
ATOM     63  O   UNL A   1      31.796  36.268  31.677  1.00  0.00    -0.744 OA
ENDBRANCH  56  60
ENDBRANCH  39  53
BRANCH  40  64
ATOM     64  C   UNL A   1      46.012  32.799  28.921  1.00  0.00     0.023 A 
ATOM     65  C   UNL A   1      46.479  33.289  27.686  1.00  0.00     0.031 A 
ATOM     66  C   UNL A   1      46.998  32.848  29.967  1.00  0.00     0.131 A 
ATOM     67  C   UNL A   1      47.791  33.865  27.587  1.00  0.00     0.055 A 
ATOM     68  C   UNL A   1      48.226  33.504  29.892  1.00  0.00     0.041 A 
ATOM     69  F   UNL A   1      46.821  32.244  31.150  1.00  0.00    -0.206 F 
ATOM     70  C   UNL A   1      48.624  34.038  28.695  1.00  0.00     0.022 A 
BRANCH  67  71
ATOM     71  S   UNL A   1      48.489  34.427  25.998  1.00  0.00     0.124 S 
ATOM     72  O   UNL A   1      49.152  35.670  26.381  1.00  0.00    -0.237 OA
ATOM     73  O   UNL A   1      49.362  33.323  25.615  1.00  0.00    -0.237 OA
ATOM     74  O   UNL A   1      47.309  34.596  25.148  1.00  0.00    -0.744 OA
ENDBRANCH  67  71
ENDBRANCH  40  64
BRANCH  52  75
ATOM     75  C   UNL A   1      41.220  32.850  32.737  1.00  0.00     0.023 A 
ATOM     76  C   UNL A   1      40.931  31.494  32.490  1.00  0.00     0.031 A 
ATOM     77  C   UNL A   1      41.529  33.171  34.073  1.00  0.00     0.131 A 
ATOM     78  C   UNL A   1      40.929  30.545  33.534  1.00  0.00     0.055 A 
ATOM     79  C   UNL A   1      41.529  32.230  35.114  1.00  0.00     0.041 A 
ATOM     80  F   UNL A   1      41.838  34.415  34.429  1.00  0.00    -0.206 F 
ATOM     81  C   UNL A   1      41.226  30.906  34.847  1.00  0.00     0.022 A 
BRANCH  78  82
ATOM     82  S   UNL A   1      40.560  28.811  33.151  1.00  0.00     0.124 S 
ATOM     83  O   UNL A   1      40.674  28.164  34.453  1.00  0.00    -0.237 OA
ATOM     84  O   UNL A   1      39.213  28.894  32.593  1.00  0.00    -0.237 OA
ATOM     85  O   UNL A   1      41.597  28.445  32.187  1.00  0.00    -0.744 OA
ENDBRANCH  78  82
ENDBRANCH  52  75
ENDBRANCH  26  27
ENDBRANCH  19  21
ENDBRANCH  18  19
ENDBRANCH   1  18
TORSDOF 17
ENDMDL
MODEL 3
REMARK VINA RESULT:     -10.7      1.812      2.911
REMARK SMILES O=C(C[C@H](c1ccsc1)n1cccc1)OCCOC(=O)c1ccc(-c2c3nc(c(-c4cc(S(=O)(=O)[O-])ccc4F)c4ccc([nH]4)c(-c4cc(S(=O)(=O)[O-])ccc4F)c4nc(c(-c5cc(S(=O)(=O)[O-])ccc5F)c5ccc2[nH]5)C=C4)C=C3)cc1
REMARK SMILES IDX 17 1 16 2 15 3 2 4 1 5 3 6 4 7 10 8 11 9 14 10 12 11 13 12
REMARK SMILES IDX 5 13 6 14 9 15 7 16 8 17 18 18 19 19 20 20 21 21 22 22 83 23
REMARK SMILES IDX 23 24 82 25 24 26 25 27 26 28 76 29 27 30 81 31 75 32 77 33
REMARK SMILES IDX 28 34 80 35 74 36 73 37 29 39 61 40 41 41 60 42 42 43 45 44
REMARK SMILES IDX 59 45 78 46 43 47 44 48 58 50 79 51 46 52 30 53 31 54 39 55
REMARK SMILES IDX 32 56 38 57 40 58 37 59 33 60 34 61 35 62 36 63 62 64 63 65
REMARK SMILES IDX 71 66 64 67 70 68 72 69 69 70 65 71 66 72 67 73 68 74 47 75
REMARK SMILES IDX 48 76 56 77 49 78 55 79 57 80 54 81 50 82 51 83 52 84 53 85
REMARK H PARENT 77 38 45 49
REMARK Flexibility Score: inf
ROOT
ATOM      1  C   UNL A   1      34.379  29.306  26.659  1.00  0.00     0.275 C 
ENDROOT
BRANCH   1   2
ATOM      2  C   UNL A   1      33.164  28.431  26.947  1.00  0.00     0.274 C 
BRANCH   2   3
ATOM      3  O   UNL A   1      32.597  27.819  25.768  1.00  0.00    -0.462 OA
BRANCH   3   4
ATOM      4  C   UNL A   1      33.257  27.060  24.862  1.00  0.00     0.308 C 
ATOM      5  O   UNL A   1      33.112  27.268  23.659  1.00  0.00    -0.252 OA
BRANCH   4   6
ATOM      6  C   UNL A   1      34.212  26.007  25.350  1.00  0.00     0.153 C 
BRANCH   6   7
ATOM      7  C   UNL A   1      33.885  24.657  24.730  1.00  0.00     0.128 C 
BRANCH   7   8
ATOM      8  N   UNL A   1      35.117  23.869  24.538  1.00  0.00    -0.346 N 
ATOM      9  C   UNL A   1      35.331  23.018  23.476  1.00  0.00     0.086 A 
ATOM     10  C   UNL A   1      36.294  24.001  25.236  1.00  0.00     0.086 A 
ATOM     11  C   UNL A   1      36.633  22.570  23.536  1.00  0.00     0.019 A 
ATOM     12  C   UNL A   1      37.239  23.186  24.653  1.00  0.00     0.019 A 
ENDBRANCH   7   8
BRANCH   7  13
ATOM     13  C   UNL A   1      32.811  23.900  25.477  1.00  0.00    -0.014 A 
ATOM     14  C   UNL A   1      32.911  23.371  26.810  1.00  0.00     0.017 A 
ATOM     15  C   UNL A   1      31.527  23.717  24.987  1.00  0.00     0.070 A 
ATOM     16  C   UNL A   1      31.728  22.830  27.261  1.00  0.00     0.065 A 
ATOM     17  S   UNL A   1      30.489  22.931  26.094  1.00  0.00    -0.152 S 
ENDBRANCH   7  13
ENDBRANCH   6   7
ENDBRANCH   4   6
ENDBRANCH   3   4
ENDBRANCH   2   3
ENDBRANCH   1   2
BRANCH   1  18
ATOM     18  O   UNL A   1      35.484  28.994  27.508  1.00  0.00    -0.458 OA
BRANCH  18  19
ATOM     19  C   UNL A   1      36.275  30.053  27.811  1.00  0.00     0.338 C 
ATOM     20  O   UNL A   1      36.023  31.221  27.623  1.00  0.00    -0.246 OA
BRANCH  19  21
ATOM     21  C   UNL A   1      37.533  29.580  28.404  1.00  0.00     0.060 A 
ATOM     22  C   UNL A   1      38.693  29.725  27.634  1.00  0.00     0.016 A 
ATOM     23  C   UNL A   1      37.528  28.858  29.603  1.00  0.00     0.016 A 
ATOM     24  C   UNL A   1      39.826  29.028  28.000  1.00  0.00     0.010 A 
ATOM     25  C   UNL A   1      38.647  28.128  29.948  1.00  0.00     0.010 A 
ATOM     26  C   UNL A   1      39.774  28.190  29.121  1.00  0.00    -0.014 A 
BRANCH  26  27
ATOM     27  C   UNL A   1      40.989  27.455  29.488  1.00  0.00     0.031 A 
ATOM     28  C   UNL A   1      41.208  26.274  28.493  1.00  0.00     0.074 A 
ATOM     29  C   UNL A   1      41.612  27.929  30.621  1.00  0.00     0.049 A 
ATOM     30  N   UNL A   1      41.877  25.174  28.627  1.00  0.00    -0.248 NA
ATOM     31  C   UNL A   1      40.524  26.288  27.159  1.00  0.00     0.031 C 
ATOM     32  C   UNL A   1      41.216  29.145  31.393  1.00  0.00     0.029 A 
ATOM     33  N   UNL A   1      42.688  27.514  31.373  1.00  0.00    -0.354 N 
ATOM     34  C   UNL A   1      41.937  24.536  27.360  1.00  0.00     0.074 A 
ATOM     35  C   UNL A   1      40.981  25.200  26.535  1.00  0.00     0.031 C 
ATOM     36  C   UNL A   1      41.948  29.283  32.527  1.00  0.00     0.029 A 
ATOM     37  C   UNL A   1      42.917  28.209  32.608  1.00  0.00     0.049 A 
ATOM     38  H   UNL A   1      43.271  26.776  31.079  1.00  0.00     0.167 HD
ATOM     39  C   UNL A   1      42.873  23.591  27.048  1.00  0.00     0.034 A 
ATOM     40  C   UNL A   1      43.797  27.890  33.619  1.00  0.00     0.034 A 
ATOM     41  C   UNL A   1      43.642  23.300  28.209  1.00  0.00     0.049 A 
ATOM     42  C   UNL A   1      44.581  26.804  33.014  1.00  0.00     0.074 A 
ATOM     43  C   UNL A   1      43.319  22.633  29.360  1.00  0.00     0.029 A 
ATOM     44  N   UNL A   1      44.767  24.062  28.421  1.00  0.00    -0.354 N 
ATOM     45  N   UNL A   1      45.467  26.967  32.081  1.00  0.00    -0.248 NA
ATOM     46  C   UNL A   1      44.269  25.419  33.391  1.00  0.00     0.031 C 
ATOM     47  C   UNL A   1      43.894  23.455  30.346  1.00  0.00     0.029 A 
ATOM     48  C   UNL A   1      44.788  24.362  29.759  1.00  0.00     0.049 A 
ATOM     49  H   UNL A   1      45.428  24.338  27.745  1.00  0.00     0.167 HD
ATOM     50  C   UNL A   1      45.568  25.711  31.545  1.00  0.00     0.074 A 
ATOM     51  C   UNL A   1      45.103  24.792  32.566  1.00  0.00     0.031 C 
ATOM     52  C   UNL A   1      45.500  25.539  30.199  1.00  0.00     0.034 A 
BRANCH  39  53
ATOM     53  C   UNL A   1      43.360  22.980  25.759  1.00  0.00     0.023 A 
ATOM     54  C   UNL A   1      43.486  21.566  25.746  1.00  0.00     0.031 A 
ATOM     55  C   UNL A   1      43.999  23.671  24.724  1.00  0.00     0.131 A 
ATOM     56  C   UNL A   1      44.337  20.911  24.849  1.00  0.00     0.055 A 
ATOM     57  C   UNL A   1      44.800  23.003  23.779  1.00  0.00     0.041 A 
ATOM     58  F   UNL A   1      43.950  25.006  24.639  1.00  0.00    -0.206 F 
ATOM     59  C   UNL A   1      45.004  21.626  23.862  1.00  0.00     0.022 A 
BRANCH  56  60
ATOM     60  S   UNL A   1      44.685  19.149  25.131  1.00  0.00     0.124 S 
ATOM     61  O   UNL A   1      45.997  19.191  25.767  1.00  0.00    -0.237 OA
ATOM     62  O   UNL A   1      43.573  18.753  25.990  1.00  0.00    -0.237 OA
ATOM     63  O   UNL A   1      44.662  18.579  23.786  1.00  0.00    -0.744 OA
ENDBRANCH  56  60
ENDBRANCH  39  53
BRANCH  40  64
ATOM     64  C   UNL A   1      44.167  28.204  35.080  1.00  0.00     0.023 A 
ATOM     65  C   UNL A   1      44.438  27.306  36.130  1.00  0.00     0.031 A 
ATOM     66  C   UNL A   1      44.356  29.584  35.442  1.00  0.00     0.131 A 
ATOM     67  C   UNL A   1      44.955  27.790  37.379  1.00  0.00     0.055 A 
ATOM     68  C   UNL A   1      44.958  30.036  36.614  1.00  0.00     0.041 A 
ATOM     69  F   UNL A   1      43.955  30.593  34.657  1.00  0.00    -0.206 F 
ATOM     70  C   UNL A   1      45.282  29.132  37.591  1.00  0.00     0.022 A 
BRANCH  67  71
ATOM     71  S   UNL A   1      45.234  26.691  38.809  1.00  0.00     0.124 S 
ATOM     72  O   UNL A   1      44.779  25.403  38.294  1.00  0.00    -0.237 OA
ATOM     73  O   UNL A   1      46.668  26.821  39.045  1.00  0.00    -0.237 OA
ATOM     74  O   UNL A   1      44.388  27.269  39.854  1.00  0.00    -0.744 OA
ENDBRANCH  67  71
ENDBRANCH  40  64
BRANCH  52  75
ATOM     75  C   UNL A   1      45.841  26.776  29.363  1.00  0.00     0.023 A 
ATOM     76  C   UNL A   1      44.808  27.521  28.762  1.00  0.00     0.031 A 
ATOM     77  C   UNL A   1      47.150  27.192  29.050  1.00  0.00     0.131 A 
ATOM     78  C   UNL A   1      45.091  28.590  27.887  1.00  0.00     0.055 A 
ATOM     79  C   UNL A   1      47.437  28.255  28.180  1.00  0.00     0.041 A 
ATOM     80  F   UNL A   1      48.211  26.580  29.570  1.00  0.00    -0.206 F 
ATOM     81  C   UNL A   1      46.402  28.962  27.590  1.00  0.00     0.022 A 
BRANCH  78  82
ATOM     82  S   UNL A   1      43.718  29.519  27.153  1.00  0.00     0.124 S 
ATOM     83  O   UNL A   1      42.979  28.486  26.436  1.00  0.00    -0.237 OA
ATOM     84  O   UNL A   1      43.057  30.081  28.327  1.00  0.00    -0.237 OA
ATOM     85  O   UNL A   1      44.387  30.502  26.300  1.00  0.00    -0.744 OA
ENDBRANCH  78  82
ENDBRANCH  52  75
ENDBRANCH  26  27
ENDBRANCH  19  21
ENDBRANCH  18  19
ENDBRANCH   1  18
TORSDOF 17
ENDMDL
