MODEL 1
REMARK VINA RESULT:     -11.9      0.000      0.000
REMARK SMILES C[C@@H](Sc1nc(-c2ccc3c(c2)OCO3)ccc1C#N)C(=O)OCCOC(=O)c1ccc(-c2c3nc(c(-c4cc(S(=O)(=O)[O-])ccc4F)c4ccc([nH]4)c(-c4cc(S(=O)(=O)[O-])ccc4F)c4nc(c(-c5cc(S(=O)(=O)[O-])ccc5F)c5ccc2[nH]5)C=C4)C=C3)cc1
REMARK SMILES IDX 24 1 23 2 21 3 22 4 2 5 1 6 3 7 4 8 5 9 18 10 6 11 17 12
REMARK SMILES IDX 16 13 19 14 20 15 7 16 8 17 12 18 9 19 11 20 10 21 13 22
REMARK SMILES IDX 15 23 14 24 25 25 26 26 27 27 28 28 29 29 30 30 91 31 31 32
REMARK SMILES IDX 90 33 32 34 33 35 34 36 84 37 35 38 89 39 83 40 85 41 36 42
REMARK SMILES IDX 88 43 82 44 81 45 37 47 69 48 49 49 68 50 50 51 53 52 67 53
REMARK SMILES IDX 86 54 51 55 52 56 66 58 87 59 54 60 38 61 39 62 47 63 40 64
REMARK SMILES IDX 46 65 48 66 45 67 41 68 42 69 43 70 44 71 70 72 71 73 79 74
REMARK SMILES IDX 72 75 78 76 80 77 77 78 73 79 74 80 75 81 76 82 55 83 56 84
REMARK SMILES IDX 64 85 57 86 63 87 65 88 62 89 58 90 59 91 60 92 61 93
REMARK H PARENT 85 46 53 57
REMARK Flexibility Score: inf
ROOT
ATOM      1  C   UNL A   1      35.554  21.055  24.751  1.00  0.00     0.274 C 
ENDROOT
BRANCH   1   2
ATOM      2  O   UNL A   1      35.643  22.493  24.759  1.00  0.00    -0.461 OA
BRANCH   2   3
ATOM      3  C   UNL A   1      35.514  23.115  23.553  1.00  0.00     0.319 C 
ATOM      4  O   UNL A   1      36.313  22.989  22.629  1.00  0.00    -0.251 OA
BRANCH   3   5
ATOM      5  C   UNL A   1      34.297  24.041  23.481  1.00  0.00     0.160 C 
ATOM      6  C   UNL A   1      33.016  23.331  23.064  1.00  0.00     0.032 C 
BRANCH   5   7
ATOM      7  S   UNL A   1      34.135  24.802  25.135  1.00  0.00    -0.090 SA
BRANCH   7   8
ATOM      8  C   UNL A   1      32.412  25.304  25.192  1.00  0.00     0.115 A 
ATOM      9  N   UNL A   1      31.994  26.302  24.365  1.00  0.00    -0.240 NA
ATOM     10  C   UNL A   1      31.541  24.619  26.044  1.00  0.00     0.084 A 
ATOM     11  C   UNL A   1      30.673  26.631  24.368  1.00  0.00     0.072 A 
ATOM     12  C   UNL A   1      30.186  24.939  26.006  1.00  0.00     0.024 A 
ATOM     13  C   UNL A   1      29.748  25.946  25.157  1.00  0.00     0.030 A 
BRANCH  10  14
ATOM     14  C   UNL A   1      31.979  23.593  26.947  1.00  0.00     0.102 C 
ATOM     15  N   UNL A   1      32.380  22.778  27.665  1.00  0.00    -0.192 NA
ENDBRANCH  10  14
BRANCH  11  16
ATOM     16  C   UNL A   1      30.220  27.734  23.501  1.00  0.00     0.004 A 
ATOM     17  C   UNL A   1      31.168  28.451  22.716  1.00  0.00     0.014 A 
ATOM     18  C   UNL A   1      28.884  28.173  23.497  1.00  0.00     0.061 A 
ATOM     19  C   UNL A   1      30.815  29.594  21.990  1.00  0.00     0.051 A 
ATOM     20  C   UNL A   1      28.565  29.311  22.776  1.00  0.00     0.166 A 
ATOM     21  C   UNL A   1      29.505  30.005  22.053  1.00  0.00     0.165 A 
ATOM     22  O   UNL A   1      27.339  29.901  22.717  1.00  0.00    -0.454 OA
ATOM     23  O   UNL A   1      28.997  31.113  21.453  1.00  0.00    -0.454 OA
ATOM     24  C   UNL A   1      27.607  31.009  21.827  1.00  0.00     0.468 C 
ENDBRANCH  11  16
ENDBRANCH   7   8
ENDBRANCH   5   7
ENDBRANCH   3   5
ENDBRANCH   2   3
ENDBRANCH   1   2
BRANCH   1  25
ATOM     25  C   UNL A   1      36.863  20.410  25.215  1.00  0.00     0.275 C 
BRANCH  25  26
ATOM     26  O   UNL A   1      37.961  21.336  25.153  1.00  0.00    -0.458 OA
BRANCH  26  27
ATOM     27  C   UNL A   1      39.042  20.991  25.891  1.00  0.00     0.338 C 
ATOM     28  O   UNL A   1      39.525  19.879  26.016  1.00  0.00    -0.246 OA
BRANCH  27  29
ATOM     29  C   UNL A   1      39.635  22.196  26.479  1.00  0.00     0.060 A 
ATOM     30  C   UNL A   1      39.220  23.454  26.031  1.00  0.00     0.016 A 
ATOM     31  C   UNL A   1      40.662  22.071  27.412  1.00  0.00     0.016 A 
ATOM     32  C   UNL A   1      39.838  24.603  26.513  1.00  0.00     0.010 A 
ATOM     33  C   UNL A   1      41.267  23.225  27.908  1.00  0.00     0.010 A 
ATOM     34  C   UNL A   1      40.865  24.496  27.455  1.00  0.00    -0.014 A 
BRANCH  34  35
ATOM     35  C   UNL A   1      41.568  25.698  27.957  1.00  0.00     0.031 A 
ATOM     36  C   UNL A   1      40.789  26.751  28.685  1.00  0.00     0.074 A 
ATOM     37  C   UNL A   1      42.875  25.872  27.689  1.00  0.00     0.049 A 
ATOM     38  N   UNL A   1      41.132  27.973  28.996  1.00  0.00    -0.248 NA
ATOM     39  C   UNL A   1      39.429  26.377  29.094  1.00  0.00     0.031 C 
ATOM     40  C   UNL A   1      43.735  24.890  27.028  1.00  0.00     0.029 A 
ATOM     41  N   UNL A   1      43.695  26.950  27.904  1.00  0.00    -0.354 N 
ATOM     42  C   UNL A   1      40.015  28.532  29.604  1.00  0.00     0.074 A 
ATOM     43  C   UNL A   1      38.979  27.518  29.592  1.00  0.00     0.031 C 
ATOM     44  C   UNL A   1      44.955  25.425  26.861  1.00  0.00     0.029 A 
ATOM     45  C   UNL A   1      44.939  26.805  27.336  1.00  0.00     0.049 A 
ATOM     46  H   UNL A   1      43.420  27.747  28.413  1.00  0.00     0.167 HD
ATOM     47  C   UNL A   1      39.874  29.780  30.119  1.00  0.00     0.034 A 
ATOM     48  C   UNL A   1      45.928  27.702  27.158  1.00  0.00     0.034 A 
ATOM     49  C   UNL A   1      40.929  30.767  30.100  1.00  0.00     0.049 A 
ATOM     50  C   UNL A   1      45.731  29.109  27.660  1.00  0.00     0.074 A 
ATOM     51  C   UNL A   1      40.920  32.051  30.616  1.00  0.00     0.029 A 
ATOM     52  N   UNL A   1      42.179  30.586  29.514  1.00  0.00    -0.354 N 
ATOM     53  N   UNL A   1      44.675  29.639  28.235  1.00  0.00    -0.248 NA
ATOM     54  C   UNL A   1      46.856  30.036  27.494  1.00  0.00     0.031 C 
ATOM     55  C   UNL A   1      42.122  32.673  30.264  1.00  0.00     0.029 A 
ATOM     56  C   UNL A   1      42.929  31.748  29.617  1.00  0.00     0.049 A 
ATOM     57  H   UNL A   1      42.485  29.753  29.087  1.00  0.00     0.167 HD
ATOM     58  C   UNL A   1      45.022  30.955  28.530  1.00  0.00     0.074 A 
ATOM     59  C   UNL A   1      46.383  31.135  28.066  1.00  0.00     0.031 C 
ATOM     60  C   UNL A   1      44.285  31.918  29.142  1.00  0.00     0.034 A 
BRANCH  47  61
ATOM     61  C   UNL A   1      38.514  30.156  30.661  1.00  0.00     0.023 A 
ATOM     62  C   UNL A   1      37.523  30.739  29.851  1.00  0.00     0.031 A 
ATOM     63  C   UNL A   1      38.228  29.996  32.029  1.00  0.00     0.131 A 
ATOM     64  C   UNL A   1      36.345  31.236  30.431  1.00  0.00     0.055 A 
ATOM     65  C   UNL A   1      37.012  30.403  32.583  1.00  0.00     0.041 A 
ATOM     66  F   UNL A   1      39.139  29.470  32.863  1.00  0.00    -0.206 F 
ATOM     67  C   UNL A   1      36.071  31.048  31.787  1.00  0.00     0.022 A 
BRANCH  64  68
ATOM     68  S   UNL A   1      35.275  32.307  29.430  1.00  0.00     0.124 S 
ATOM     69  O   UNL A   1      34.722  31.359  28.466  1.00  0.00    -0.237 OA
ATOM     70  O   UNL A   1      34.338  32.831  30.416  1.00  0.00    -0.237 OA
ATOM     71  O   UNL A   1      36.201  33.286  28.865  1.00  0.00    -0.744 OA
ENDBRANCH  64  68
ENDBRANCH  47  61
BRANCH  48  72
ATOM     72  C   UNL A   1      47.155  27.305  26.414  1.00  0.00     0.023 A 
ATOM     73  C   UNL A   1      48.178  26.571  27.030  1.00  0.00     0.031 A 
ATOM     74  C   UNL A   1      47.312  27.644  25.056  1.00  0.00     0.131 A 
ATOM     75  C   UNL A   1      49.321  26.214  26.297  1.00  0.00     0.055 A 
ATOM     76  C   UNL A   1      48.425  27.244  24.318  1.00  0.00     0.041 A 
ATOM     77  F   UNL A   1      46.360  28.346  24.418  1.00  0.00    -0.206 F 
ATOM     78  C   UNL A   1      49.443  26.530  24.940  1.00  0.00     0.022 A 
BRANCH  75  79
ATOM     79  S   UNL A   1      50.678  25.374  27.155  1.00  0.00     0.124 S 
ATOM     80  O   UNL A   1      51.210  26.446  27.990  1.00  0.00    -0.237 OA
ATOM     81  O   UNL A   1      49.979  24.302  27.856  1.00  0.00    -0.237 OA
ATOM     82  O   UNL A   1      51.552  24.939  26.068  1.00  0.00    -0.744 OA
ENDBRANCH  75  79
ENDBRANCH  48  72
BRANCH  60  83
ATOM     83  C   UNL A   1      44.960  33.243  29.410  1.00  0.00     0.023 A 
ATOM     84  C   UNL A   1      44.837  34.339  28.539  1.00  0.00     0.031 A 
ATOM     85  C   UNL A   1      45.721  33.411  30.582  1.00  0.00     0.131 A 
ATOM     86  C   UNL A   1      45.495  35.544  28.837  1.00  0.00     0.055 A 
ATOM     87  C   UNL A   1      46.320  34.629  30.904  1.00  0.00     0.041 A 
ATOM     88  F   UNL A   1      45.879  32.394  31.445  1.00  0.00    -0.206 F 
ATOM     89  C   UNL A   1      46.216  35.702  30.024  1.00  0.00     0.022 A 
BRANCH  86  90
ATOM     90  S   UNL A   1      45.462  36.886  27.618  1.00  0.00     0.124 S 
ATOM     91  O   UNL A   1      46.343  36.370  26.575  1.00  0.00    -0.237 OA
ATOM     92  O   UNL A   1      44.046  36.964  27.275  1.00  0.00    -0.237 OA
ATOM     93  O   UNL A   1      45.984  38.035  28.358  1.00  0.00    -0.744 OA
ENDBRANCH  86  90
ENDBRANCH  60  83
ENDBRANCH  34  35
ENDBRANCH  27  29
ENDBRANCH  26  27
ENDBRANCH  25  26
ENDBRANCH   1  25
TORSDOF 18
ENDMDL
MODEL 2
REMARK VINA RESULT:     -11.8      1.849      2.127
REMARK SMILES C[C@@H](Sc1nc(-c2ccc3c(c2)OCO3)ccc1C#N)C(=O)OCCOC(=O)c1ccc(-c2c3nc(c(-c4cc(S(=O)(=O)[O-])ccc4F)c4ccc([nH]4)c(-c4cc(S(=O)(=O)[O-])ccc4F)c4nc(c(-c5cc(S(=O)(=O)[O-])ccc5F)c5ccc2[nH]5)C=C4)C=C3)cc1
REMARK SMILES IDX 24 1 23 2 21 3 22 4 2 5 1 6 3 7 4 8 5 9 18 10 6 11 17 12
REMARK SMILES IDX 16 13 19 14 20 15 7 16 8 17 12 18 9 19 11 20 10 21 13 22
REMARK SMILES IDX 15 23 14 24 25 25 26 26 27 27 28 28 29 29 30 30 91 31 31 32
REMARK SMILES IDX 90 33 32 34 33 35 34 36 84 37 35 38 89 39 83 40 85 41 36 42
REMARK SMILES IDX 88 43 82 44 81 45 37 47 69 48 49 49 68 50 50 51 53 52 67 53
REMARK SMILES IDX 86 54 51 55 52 56 66 58 87 59 54 60 38 61 39 62 47 63 40 64
REMARK SMILES IDX 46 65 48 66 45 67 41 68 42 69 43 70 44 71 70 72 71 73 79 74
REMARK SMILES IDX 72 75 78 76 80 77 77 78 73 79 74 80 75 81 76 82 55 83 56 84
REMARK SMILES IDX 64 85 57 86 63 87 65 88 62 89 58 90 59 91 60 92 61 93
REMARK H PARENT 85 46 53 57
REMARK Flexibility Score: inf
ROOT
ATOM      1  C   UNL A   1      36.187  20.772  24.710  1.00  0.00     0.274 C 
ENDROOT
BRANCH   1   2
ATOM      2  O   UNL A   1      36.000  22.200  24.780  1.00  0.00    -0.461 OA
BRANCH   2   3
ATOM      3  C   UNL A   1      35.761  22.838  23.600  1.00  0.00     0.319 C 
ATOM      4  O   UNL A   1      36.535  22.827  22.647  1.00  0.00    -0.251 OA
BRANCH   3   5
ATOM      5  C   UNL A   1      34.451  23.629  23.599  1.00  0.00     0.160 C 
ATOM      6  C   UNL A   1      33.224  22.773  23.314  1.00  0.00     0.032 C 
BRANCH   5   7
ATOM      7  S   UNL A   1      34.340  24.438  25.235  1.00  0.00    -0.090 SA
BRANCH   7   8
ATOM      8  C   UNL A   1      32.636  25.001  25.303  1.00  0.00     0.115 A 
ATOM      9  N   UNL A   1      32.238  25.986  24.450  1.00  0.00    -0.240 NA
ATOM     10  C   UNL A   1      31.756  24.374  26.190  1.00  0.00     0.084 A 
ATOM     11  C   UNL A   1      30.930  26.361  24.463  1.00  0.00     0.072 A 
ATOM     12  C   UNL A   1      30.413  24.741  26.163  1.00  0.00     0.024 A 
ATOM     13  C   UNL A   1      29.995  25.735  25.289  1.00  0.00     0.030 A 
BRANCH  10  14
ATOM     14  C   UNL A   1      32.173  23.363  27.119  1.00  0.00     0.102 C 
ATOM     15  N   UNL A   1      32.532  22.583  27.896  1.00  0.00    -0.192 NA
ENDBRANCH  10  14
BRANCH  11  16
ATOM     16  C   UNL A   1      30.501  27.451  23.568  1.00  0.00     0.004 A 
ATOM     17  C   UNL A   1      31.478  28.259  22.919  1.00  0.00     0.014 A 
ATOM     18  C   UNL A   1      29.145  27.790  23.409  1.00  0.00     0.061 A 
ATOM     19  C   UNL A   1      31.128  29.391  22.176  1.00  0.00     0.051 A 
ATOM     20  C   UNL A   1      28.828  28.920  22.676  1.00  0.00     0.166 A 
ATOM     21  C   UNL A   1      29.793  29.702  22.086  1.00  0.00     0.165 A 
ATOM     22  O   UNL A   1      27.577  29.419  22.478  1.00  0.00    -0.454 OA
ATOM     23  O   UNL A   1      29.276  30.785  21.449  1.00  0.00    -0.454 OA
ATOM     24  C   UNL A   1      27.864  30.568  21.649  1.00  0.00     0.468 C 
ENDBRANCH  11  16
ENDBRANCH   7   8
ENDBRANCH   5   7
ENDBRANCH   3   5
ENDBRANCH   2   3
ENDBRANCH   1   2
BRANCH   1  25
ATOM     25  C   UNL A   1      37.634  20.381  25.024  1.00  0.00     0.275 C 
BRANCH  25  26
ATOM     26  O   UNL A   1      38.415  21.519  25.423  1.00  0.00    -0.458 OA
BRANCH  26  27
ATOM     27  C   UNL A   1      39.466  21.236  26.228  1.00  0.00     0.338 C 
ATOM     28  O   UNL A   1      39.963  20.143  26.436  1.00  0.00    -0.246 OA
BRANCH  27  29
ATOM     29  C   UNL A   1      40.008  22.483  26.778  1.00  0.00     0.060 A 
ATOM     30  C   UNL A   1      39.611  23.705  26.227  1.00  0.00     0.016 A 
ATOM     31  C   UNL A   1      40.973  22.429  27.782  1.00  0.00     0.016 A 
ATOM     32  C   UNL A   1      40.185  24.890  26.676  1.00  0.00     0.010 A 
ATOM     33  C   UNL A   1      41.532  23.620  28.243  1.00  0.00     0.010 A 
ATOM     34  C   UNL A   1      41.149  24.854  27.688  1.00  0.00    -0.014 A 
BRANCH  34  35
ATOM     35  C   UNL A   1      41.806  26.095  28.159  1.00  0.00     0.031 A 
ATOM     36  C   UNL A   1      40.991  27.127  28.878  1.00  0.00     0.074 A 
ATOM     37  C   UNL A   1      43.101  26.319  27.871  1.00  0.00     0.049 A 
ATOM     38  N   UNL A   1      41.285  28.368  29.161  1.00  0.00    -0.248 NA
ATOM     39  C   UNL A   1      39.653  26.704  29.311  1.00  0.00     0.031 C 
ATOM     40  C   UNL A   1      43.994  25.363  27.216  1.00  0.00     0.029 A 
ATOM     41  N   UNL A   1      43.876  27.435  28.056  1.00  0.00    -0.354 N 
ATOM     42  C   UNL A   1      40.152  28.891  29.774  1.00  0.00     0.074 A 
ATOM     43  C   UNL A   1      39.161  27.834  29.793  1.00  0.00     0.031 C 
ATOM     44  C   UNL A   1      45.187  25.946  27.025  1.00  0.00     0.029 A 
ATOM     45  C   UNL A   1      45.118  27.332  27.475  1.00  0.00     0.049 A 
ATOM     46  H   UNL A   1      43.574  28.229  28.554  1.00  0.00     0.167 HD
ATOM     47  C   UNL A   1      39.965  30.140  30.268  1.00  0.00     0.034 A 
ATOM     48  C   UNL A   1      46.066  28.268  27.267  1.00  0.00     0.034 A 
ATOM     49  C   UNL A   1      40.976  31.171  30.218  1.00  0.00     0.049 A 
ATOM     50  C   UNL A   1      45.815  29.674  27.747  1.00  0.00     0.074 A 
ATOM     51  C   UNL A   1      40.918  32.463  30.710  1.00  0.00     0.029 A 
ATOM     52  N   UNL A   1      42.225  31.033  29.619  1.00  0.00    -0.354 N 
ATOM     53  N   UNL A   1      44.744  30.169  28.325  1.00  0.00    -0.248 NA
ATOM     54  C   UNL A   1      46.897  30.645  27.550  1.00  0.00     0.031 C 
ATOM     55  C   UNL A   1      42.088  33.129  30.331  1.00  0.00     0.029 A 
ATOM     56  C   UNL A   1      42.926  32.227  29.691  1.00  0.00     0.049 A 
ATOM     57  H   UNL A   1      42.562  30.206  29.203  1.00  0.00     0.167 HD
ATOM     58  C   UNL A   1      45.038  31.504  28.592  1.00  0.00     0.074 A 
ATOM     59  C   UNL A   1      46.384  31.733  28.108  1.00  0.00     0.031 C 
ATOM     60  C   UNL A   1      44.268  32.446  29.196  1.00  0.00     0.034 A 
BRANCH  47  61
ATOM     61  C   UNL A   1      38.596  30.469  30.820  1.00  0.00     0.023 A 
ATOM     62  C   UNL A   1      37.592  31.054  30.028  1.00  0.00     0.031 A 
ATOM     63  C   UNL A   1      38.314  30.259  32.182  1.00  0.00     0.131 A 
ATOM     64  C   UNL A   1      36.403  31.506  30.623  1.00  0.00     0.055 A 
ATOM     65  C   UNL A   1      37.088  30.620  32.747  1.00  0.00     0.041 A 
ATOM     66  F   UNL A   1      39.236  29.727  33.000  1.00  0.00    -0.206 F 
ATOM     67  C   UNL A   1      36.133  31.269  31.972  1.00  0.00     0.022 A 
BRANCH  64  68
ATOM     68  S   UNL A   1      35.310  32.584  29.655  1.00  0.00     0.124 S 
ATOM     69  O   UNL A   1      34.204  32.801  30.585  1.00  0.00    -0.237 OA
ATOM     70  O   UNL A   1      36.156  33.741  29.391  1.00  0.00    -0.237 OA
ATOM     71  O   UNL A   1      34.977  31.773  28.485  1.00  0.00    -0.744 OA
ENDBRANCH  64  68
ENDBRANCH  47  61
BRANCH  48  72
ATOM     72  C   UNL A   1      47.300  27.909  26.515  1.00  0.00     0.023 A 
ATOM     73  C   UNL A   1      47.347  27.972  25.116  1.00  0.00     0.031 A 
ATOM     74  C   UNL A   1      48.465  27.510  27.198  1.00  0.00     0.131 A 
ATOM     75  C   UNL A   1      48.529  27.626  24.441  1.00  0.00     0.055 A 
ATOM     76  C   UNL A   1      49.651  27.216  26.527  1.00  0.00     0.041 A 
ATOM     77  F   UNL A   1      48.472  27.434  28.540  1.00  0.00    -0.206 F 
ATOM     78  C   UNL A   1      49.686  27.266  25.138  1.00  0.00     0.022 A 
BRANCH  75  79
ATOM     79  S   UNL A   1      48.519  27.599  22.628  1.00  0.00     0.124 S 
ATOM     80  O   UNL A   1      47.252  28.257  22.329  1.00  0.00    -0.237 OA
ATOM     81  O   UNL A   1      49.726  28.353  22.306  1.00  0.00    -0.237 OA
ATOM     82  O   UNL A   1      48.573  26.174  22.308  1.00  0.00    -0.744 OA
ENDBRANCH  75  79
ENDBRANCH  48  72
BRANCH  60  83
ATOM     83  C   UNL A   1      44.889  33.803  29.431  1.00  0.00     0.023 A 
ATOM     84  C   UNL A   1      45.616  34.106  30.595  1.00  0.00     0.031 A 
ATOM     85  C   UNL A   1      44.767  34.804  28.448  1.00  0.00     0.131 A 
ATOM     86  C   UNL A   1      46.164  35.388  30.761  1.00  0.00     0.055 A 
ATOM     87  C   UNL A   1      45.366  36.055  28.592  1.00  0.00     0.041 A 
ATOM     88  F   UNL A   1      44.075  34.572  27.320  1.00  0.00    -0.206 F 
ATOM     89  C   UNL A   1      46.062  36.356  29.758  1.00  0.00     0.022 A 
BRANCH  86  90
ATOM     90  S   UNL A   1      46.950  35.807  32.341  1.00  0.00     0.124 S 
ATOM     91  O   UNL A   1      48.364  35.615  32.036  1.00  0.00    -0.237 OA
ATOM     92  O   UNL A   1      46.524  37.187  32.548  1.00  0.00    -0.237 OA
ATOM     93  O   UNL A   1      46.381  34.836  33.275  1.00  0.00    -0.744 OA
ENDBRANCH  86  90
ENDBRANCH  60  83
ENDBRANCH  34  35
ENDBRANCH  27  29
ENDBRANCH  26  27
ENDBRANCH  25  26
ENDBRANCH   1  25
TORSDOF 18
ENDMDL
MODEL 3
REMARK VINA RESULT:     -11.5      1.680      2.346
REMARK SMILES C[C@@H](Sc1nc(-c2ccc3c(c2)OCO3)ccc1C#N)C(=O)OCCOC(=O)c1ccc(-c2c3nc(c(-c4cc(S(=O)(=O)[O-])ccc4F)c4ccc([nH]4)c(-c4cc(S(=O)(=O)[O-])ccc4F)c4nc(c(-c5cc(S(=O)(=O)[O-])ccc5F)c5ccc2[nH]5)C=C4)C=C3)cc1
REMARK SMILES IDX 24 1 23 2 21 3 22 4 2 5 1 6 3 7 4 8 5 9 18 10 6 11 17 12
REMARK SMILES IDX 16 13 19 14 20 15 7 16 8 17 12 18 9 19 11 20 10 21 13 22
REMARK SMILES IDX 15 23 14 24 25 25 26 26 27 27 28 28 29 29 30 30 91 31 31 32
REMARK SMILES IDX 90 33 32 34 33 35 34 36 84 37 35 38 89 39 83 40 85 41 36 42
REMARK SMILES IDX 88 43 82 44 81 45 37 47 69 48 49 49 68 50 50 51 53 52 67 53
REMARK SMILES IDX 86 54 51 55 52 56 66 58 87 59 54 60 38 61 39 62 47 63 40 64
REMARK SMILES IDX 46 65 48 66 45 67 41 68 42 69 43 70 44 71 70 72 71 73 79 74
REMARK SMILES IDX 72 75 78 76 80 77 77 78 73 79 74 80 75 81 76 82 55 83 56 84
REMARK SMILES IDX 64 85 57 86 63 87 65 88 62 89 58 90 59 91 60 92 61 93
REMARK H PARENT 85 46 53 57
REMARK Flexibility Score: inf
ROOT
ATOM      1  C   UNL A   1      35.634  21.022  25.064  1.00  0.00     0.274 C 
ENDROOT
BRANCH   1   2
ATOM      2  O   UNL A   1      35.284  21.397  26.411  1.00  0.00    -0.461 OA
BRANCH   2   3
ATOM      3  C   UNL A   1      33.956  21.400  26.714  1.00  0.00     0.319 C 
ATOM      4  O   UNL A   1      33.505  21.712  27.813  1.00  0.00    -0.251 OA
BRANCH   3   5
ATOM      5  C   UNL A   1      33.075  20.916  25.560  1.00  0.00     0.160 C 
ATOM      6  C   UNL A   1      32.706  19.441  25.652  1.00  0.00     0.032 C 
BRANCH   5   7
ATOM      7  S   UNL A   1      31.588  21.982  25.571  1.00  0.00    -0.090 SA
BRANCH   7   8
ATOM      8  C   UNL A   1      32.083  23.391  24.574  1.00  0.00     0.115 A 
ATOM      9  N   UNL A   1      32.240  24.600  25.182  1.00  0.00    -0.240 NA
ATOM     10  C   UNL A   1      32.344  23.193  23.215  1.00  0.00     0.084 A 
ATOM     11  C   UNL A   1      32.679  25.647  24.431  1.00  0.00     0.072 A 
ATOM     12  C   UNL A   1      32.831  24.265  22.470  1.00  0.00     0.024 A 
ATOM     13  C   UNL A   1      33.006  25.498  23.083  1.00  0.00     0.030 A 
BRANCH  10  14
ATOM     14  C   UNL A   1      32.145  21.934  22.557  1.00  0.00     0.102 C 
ATOM     15  N   UNL A   1      31.981  20.943  21.981  1.00  0.00    -0.192 NA
ENDBRANCH  10  14
BRANCH  11  16
ATOM     16  C   UNL A   1      32.817  26.966  25.076  1.00  0.00     0.004 A 
ATOM     17  C   UNL A   1      33.785  27.154  26.103  1.00  0.00     0.014 A 
ATOM     18  C   UNL A   1      31.947  28.030  24.778  1.00  0.00     0.061 A 
ATOM     19  C   UNL A   1      33.860  28.338  26.843  1.00  0.00     0.051 A 
ATOM     20  C   UNL A   1      32.038  29.188  25.532  1.00  0.00     0.166 A 
ATOM     21  C   UNL A   1      32.961  29.332  26.541  1.00  0.00     0.165 A 
ATOM     22  O   UNL A   1      31.236  30.282  25.415  1.00  0.00    -0.454 OA
ATOM     23  O   UNL A   1      32.857  30.524  27.183  1.00  0.00    -0.454 OA
ATOM     24  C   UNL A   1      31.800  31.150  26.425  1.00  0.00     0.468 C 
ENDBRANCH  11  16
ENDBRANCH   7   8
ENDBRANCH   5   7
ENDBRANCH   3   5
ENDBRANCH   2   3
ENDBRANCH   1   2
BRANCH   1  25
ATOM     25  C   UNL A   1      37.121  20.677  24.946  1.00  0.00     0.275 C 
BRANCH  25  26
ATOM     26  O   UNL A   1      37.953  21.772  25.363  1.00  0.00    -0.458 OA
BRANCH  26  27
ATOM     27  C   UNL A   1      39.065  21.415  26.048  1.00  0.00     0.338 C 
ATOM     28  O   UNL A   1      39.540  20.298  26.154  1.00  0.00    -0.246 OA
BRANCH  27  29
ATOM     29  C   UNL A   1      39.703  22.615  26.601  1.00  0.00     0.060 A 
ATOM     30  C   UNL A   1      39.364  23.870  26.087  1.00  0.00     0.016 A 
ATOM     31  C   UNL A   1      40.696  22.481  27.568  1.00  0.00     0.016 A 
ATOM     32  C   UNL A   1      40.026  25.008  26.537  1.00  0.00     0.010 A 
ATOM     33  C   UNL A   1      41.344  23.624  28.031  1.00  0.00     0.010 A 
ATOM     34  C   UNL A   1      41.020  24.892  27.513  1.00  0.00    -0.014 A 
BRANCH  34  35
ATOM     35  C   UNL A   1      41.769  26.080  27.983  1.00  0.00     0.031 A 
ATOM     36  C   UNL A   1      41.031  27.181  28.681  1.00  0.00     0.074 A 
ATOM     37  C   UNL A   1      43.082  26.195  27.712  1.00  0.00     0.049 A 
ATOM     38  N   UNL A   1      41.420  28.397  28.959  1.00  0.00    -0.248 NA
ATOM     39  C   UNL A   1      39.657  26.871  29.098  1.00  0.00     0.031 C 
ATOM     40  C   UNL A   1      43.903  25.163  27.079  1.00  0.00     0.029 A 
ATOM     41  N   UNL A   1      43.942  27.246  27.899  1.00  0.00    -0.354 N 
ATOM     42  C   UNL A   1      40.326  29.015  29.551  1.00  0.00     0.074 A 
ATOM     43  C   UNL A   1      39.252  28.042  29.564  1.00  0.00     0.031 C 
ATOM     44  C   UNL A   1      45.143  25.646  26.900  1.00  0.00     0.029 A 
ATOM     45  C   UNL A   1      45.180  27.038  27.337  1.00  0.00     0.049 A 
ATOM     46  H   UNL A   1      43.699  28.066  28.386  1.00  0.00     0.167 HD
ATOM     47  C   UNL A   1      40.233  30.281  30.031  1.00  0.00     0.034 A 
ATOM     48  C   UNL A   1      46.203  27.891  27.136  1.00  0.00     0.034 A 
ATOM     49  C   UNL A   1      41.326  31.225  29.987  1.00  0.00     0.049 A 
ATOM     50  C   UNL A   1      46.061  29.318  27.600  1.00  0.00     0.074 A 
ATOM     51  C   UNL A   1      41.366  32.522  30.468  1.00  0.00     0.029 A 
ATOM     52  N   UNL A   1      42.568  30.981  29.408  1.00  0.00    -0.354 N 
ATOM     53  N   UNL A   1      45.026  29.903  28.158  1.00  0.00    -0.248 NA
ATOM     54  C   UNL A   1      47.221  30.196  27.410  1.00  0.00     0.031 C 
ATOM     55  C   UNL A   1      42.592  33.087  30.101  1.00  0.00     0.029 A 
ATOM     56  C   UNL A   1      43.362  32.115  29.480  1.00  0.00     0.049 A 
ATOM     57  H   UNL A   1      42.842  30.125  29.004  1.00  0.00     0.167 HD
ATOM     58  C   UNL A   1      45.424  31.212  28.418  1.00  0.00     0.074 A 
ATOM     59  C   UNL A   1      46.791  31.327  27.952  1.00  0.00     0.031 C 
ATOM     60  C   UNL A   1      44.724  32.220  29.003  1.00  0.00     0.034 A 
BRANCH  47  61
ATOM     61  C   UNL A   1      38.889  30.724  30.561  1.00  0.00     0.023 A 
ATOM     62  C   UNL A   1      37.886  31.235  29.718  1.00  0.00     0.031 A 
ATOM     63  C   UNL A   1      38.631  30.703  31.944  1.00  0.00     0.131 A 
ATOM     64  C   UNL A   1      36.725  31.801  30.269  1.00  0.00     0.055 A 
ATOM     65  C   UNL A   1      37.430  31.176  32.479  1.00  0.00     0.041 A 
ATOM     66  F   UNL A   1      39.554  30.251  32.806  1.00  0.00    -0.206 F 
ATOM     67  C   UNL A   1      36.478  31.750  31.643  1.00  0.00     0.022 A 
BRANCH  64  68
ATOM     68  S   UNL A   1      35.644  32.780  29.189  1.00  0.00     0.124 S 
ATOM     69  O   UNL A   1      36.098  32.371  27.862  1.00  0.00    -0.237 OA
ATOM     70  O   UNL A   1      34.314  32.325  29.575  1.00  0.00    -0.237 OA
ATOM     71  O   UNL A   1      35.961  34.161  29.547  1.00  0.00    -0.744 OA
ENDBRANCH  64  68
ENDBRANCH  47  61
BRANCH  48  72
ATOM     72  C   UNL A   1      47.414  27.426  26.405  1.00  0.00     0.023 A 
ATOM     73  C   UNL A   1      48.403  26.661  27.039  1.00  0.00     0.031 A 
ATOM     74  C   UNL A   1      47.589  27.732  25.041  1.00  0.00     0.131 A 
ATOM     75  C   UNL A   1      49.531  26.241  26.317  1.00  0.00     0.055 A 
ATOM     76  C   UNL A   1      48.687  27.269  24.315  1.00  0.00     0.041 A 
ATOM     77  F   UNL A   1      46.671  28.461  24.386  1.00  0.00    -0.206 F 
ATOM     78  C   UNL A   1      49.671  26.524  24.955  1.00  0.00     0.022 A 
BRANCH  75  79
ATOM     79  S   UNL A   1      50.849  25.360  27.198  1.00  0.00     0.124 S 
ATOM     80  O   UNL A   1      51.384  26.410  28.058  1.00  0.00    -0.237 OA
ATOM     81  O   UNL A   1      50.109  24.296  27.868  1.00  0.00    -0.237 OA
ATOM     82  O   UNL A   1      51.738  24.918  26.126  1.00  0.00    -0.744 OA
ENDBRANCH  75  79
ENDBRANCH  48  72
BRANCH  60  83
ATOM     83  C   UNL A   1      45.450  33.524  29.236  1.00  0.00     0.023 A 
ATOM     84  C   UNL A   1      45.441  34.568  28.295  1.00  0.00     0.031 A 
ATOM     85  C   UNL A   1      46.143  33.728  30.444  1.00  0.00     0.131 A 
ATOM     86  C   UNL A   1      46.141  35.756  28.564  1.00  0.00     0.055 A 
ATOM     87  C   UNL A   1      46.784  34.933  30.731  1.00  0.00     0.041 A 
ATOM     88  F   UNL A   1      46.192  32.761  31.374  1.00  0.00    -0.206 F 
ATOM     89  C   UNL A   1      46.792  35.952  29.785  1.00  0.00     0.022 A 
BRANCH  86  90
ATOM     90  S   UNL A   1      46.256  37.019  27.267  1.00  0.00     0.124 S 
ATOM     91  O   UNL A   1      47.197  37.968  27.851  1.00  0.00    -0.237 OA
ATOM     92  O   UNL A   1      46.746  36.253  26.126  1.00  0.00    -0.237 OA
ATOM     93  O   UNL A   1      44.882  37.506  27.141  1.00  0.00    -0.744 OA
ENDBRANCH  86  90
ENDBRANCH  60  83
ENDBRANCH  34  35
ENDBRANCH  27  29
ENDBRANCH  26  27
ENDBRANCH  25  26
ENDBRANCH   1  25
TORSDOF 18
ENDMDL
