MODEL 1
REMARK VINA RESULT:     -11.6      0.000      0.000
REMARK SMILES COc1ccc([C@H](C)[N@H+]2CC[C@H](C(=O)OCCOC(=O)c3ccc(-c4c5nc(c(-c6cc(S(=O)(=O)[O-])ccc6F)c6ccc([nH]6)c(-c6cc(S(=O)(=O)[O-])ccc6F)c6nc(c(-c7cc(S(=O)(=O)[O-])ccc7F)c7ccc4[nH]7)C=C6)C=C5)cc3)[C@@H]2C)cc1
REMARK SMILES IDX 16 1 15 2 13 3 14 4 12 5 9 6 10 7 84 8 11 10 85 11 7 12 8 13
REMARK SMILES IDX 6 14 3 15 4 16 87 17 5 18 86 19 2 20 1 21 17 22 18 23 19 24
REMARK SMILES IDX 20 25 21 26 22 27 83 28 23 29 82 30 24 31 25 32 26 33 76 34
REMARK SMILES IDX 27 35 81 36 75 37 77 38 28 39 80 40 74 41 73 42 29 44 61 45
REMARK SMILES IDX 41 46 60 47 42 48 45 49 59 50 78 51 43 52 44 53 58 55 79 56
REMARK SMILES IDX 46 57 30 58 31 59 39 60 32 61 38 62 40 63 37 64 33 65 34 66
REMARK SMILES IDX 35 67 36 68 62 69 63 70 71 71 64 72 70 73 72 74 69 75 65 76
REMARK SMILES IDX 66 77 67 78 68 79 47 80 48 81 56 82 49 83 55 84 57 85 54 86
REMARK SMILES IDX 50 87 51 88 52 89 53 90
REMARK H PARENT 9 9 77 43 45 54
REMARK Flexibility Score: inf
ROOT
ATOM      1  C   UNL A   1      35.892  20.846  25.489  1.00  0.00     0.274 C 
ENDROOT
BRANCH   1   2
ATOM      2  O   UNL A   1      34.935  20.081  24.741  1.00  0.00    -0.462 OA
BRANCH   2   3
ATOM      3  C   UNL A   1      33.676  20.594  24.648  1.00  0.00     0.315 C 
ATOM      4  O   UNL A   1      32.672  20.061  25.094  1.00  0.00    -0.252 OA
BRANCH   3   5
ATOM      5  C   UNL A   1      33.717  21.895  23.874  1.00  0.00     0.162 C 
ATOM      6  N   UNL A   1      32.608  24.044  24.059  1.00  0.00    -0.326 N 
ATOM      7  C   UNL A   1      31.740  23.144  23.298  1.00  0.00     0.264 C 
ATOM      8  C   UNL A   1      33.637  23.193  24.694  1.00  0.00     0.196 C 
ATOM      9  H   UNL A   1      32.028  24.528  24.745  1.00  0.00     0.348 HD
ATOM     10  C   UNL A   1      32.591  21.967  22.855  1.00  0.00     0.083 C 
ATOM     11  C   UNL A   1      33.342  23.083  26.187  1.00  0.00     0.076 C 
BRANCH   6  12
ATOM     12  C   UNL A   1      33.185  25.202  23.332  1.00  0.00     0.212 C 
ATOM     13  C   UNL A   1      32.592  25.404  21.924  1.00  0.00     0.081 C 
BRANCH  12  14
ATOM     14  C   UNL A   1      33.211  26.515  24.127  1.00  0.00     0.009 A 
ATOM     15  C   UNL A   1      33.304  29.014  25.472  1.00  0.00     0.118 A 
ATOM     16  C   UNL A   1      33.426  27.816  26.179  1.00  0.00     0.047 A 
ATOM     17  C   UNL A   1      33.189  28.967  24.088  1.00  0.00     0.047 A 
ATOM     18  C   UNL A   1      33.383  26.581  25.516  1.00  0.00     0.013 A 
ATOM     19  C   UNL A   1      33.156  27.736  23.427  1.00  0.00     0.013 A 
BRANCH  15  20
ATOM     20  O   UNL A   1      33.344  30.152  26.229  1.00  0.00    -0.497 OA
ATOM     21  C   UNL A   1      32.087  30.701  26.608  1.00  0.00     0.278 C 
ENDBRANCH  15  20
ENDBRANCH  12  14
ENDBRANCH   6  12
ENDBRANCH   3   5
ENDBRANCH   2   3
ENDBRANCH   1   2
BRANCH   1  22
ATOM     22  C   UNL A   1      37.305  20.524  24.997  1.00  0.00     0.275 C 
BRANCH  22  23
ATOM     23  O   UNL A   1      38.208  21.628  25.204  1.00  0.00    -0.458 OA
BRANCH  23  24
ATOM     24  C   UNL A   1      39.254  21.367  26.034  1.00  0.00     0.338 C 
ATOM     25  O   UNL A   1      39.787  20.286  26.199  1.00  0.00    -0.246 OA
BRANCH  24  26
ATOM     26  C   UNL A   1      39.765  22.619  26.646  1.00  0.00     0.060 A 
ATOM     27  C   UNL A   1      39.208  23.824  26.203  1.00  0.00     0.016 A 
ATOM     28  C   UNL A   1      40.767  22.636  27.622  1.00  0.00     0.016 A 
ATOM     29  C   UNL A   1      39.599  25.035  26.770  1.00  0.00     0.010 A 
ATOM     30  C   UNL A   1      41.197  23.858  28.157  1.00  0.00     0.010 A 
ATOM     31  C   UNL A   1      40.612  25.063  27.735  1.00  0.00    -0.014 A 
BRANCH  31  32
ATOM     32  C   UNL A   1      41.152  26.381  28.154  1.00  0.00     0.031 A 
ATOM     33  C   UNL A   1      42.581  26.701  27.819  1.00  0.00     0.074 A 
ATOM     34  C   UNL A   1      40.365  27.304  28.737  1.00  0.00     0.049 A 
ATOM     35  N   UNL A   1      43.243  27.816  27.976  1.00  0.00    -0.248 NA
ATOM     36  C   UNL A   1      43.360  25.613  27.207  1.00  0.00     0.031 C 
ATOM     37  C   UNL A   1      38.949  27.126  29.054  1.00  0.00     0.029 A 
ATOM     38  N   UNL A   1      40.644  28.584  29.150  1.00  0.00    -0.354 N 
ATOM     39  C   UNL A   1      44.508  27.580  27.448  1.00  0.00     0.074 A 
ATOM     40  C   UNL A   1      44.531  26.199  27.012  1.00  0.00     0.031 C 
ATOM     41  C   UNL A   1      38.482  28.258  29.612  1.00  0.00     0.029 A 
ATOM     42  C   UNL A   1      39.568  29.232  29.714  1.00  0.00     0.049 A 
ATOM     43  H   UNL A   1      41.530  28.999  29.051  1.00  0.00     0.167 HD
ATOM     44  C   UNL A   1      45.552  28.437  27.333  1.00  0.00     0.034 A 
ATOM     45  C   UNL A   1      39.479  30.465  30.255  1.00  0.00     0.034 A 
ATOM     46  C   UNL A   1      45.536  29.788  27.839  1.00  0.00     0.049 A 
ATOM     47  C   UNL A   1      40.701  31.359  30.235  1.00  0.00     0.074 A 
ATOM     48  C   UNL A   1      46.551  30.729  27.821  1.00  0.00     0.029 A 
ATOM     49  N   UNL A   1      44.458  30.383  28.485  1.00  0.00    -0.354 N 
ATOM     50  N   UNL A   1      41.889  31.131  29.720  1.00  0.00    -0.248 NA
ATOM     51  C   UNL A   1      40.563  32.684  30.855  1.00  0.00     0.031 C 
ATOM     52  C   UNL A   1      46.116  31.857  28.524  1.00  0.00     0.029 A 
ATOM     53  C   UNL A   1      44.796  31.662  28.899  1.00  0.00     0.049 A 
ATOM     54  H   UNL A   1      43.581  29.957  28.626  1.00  0.00     0.167 HD
ATOM     55  C   UNL A   1      42.622  32.299  29.919  1.00  0.00     0.074 A 
ATOM     56  C   UNL A   1      41.738  33.232  30.586  1.00  0.00     0.031 C 
ATOM     57  C   UNL A   1      43.906  32.581  29.574  1.00  0.00     0.034 A 
BRANCH  44  58
ATOM     58  C   UNL A   1      46.810  27.897  26.699  1.00  0.00     0.023 A 
ATOM     59  C   UNL A   1      47.086  28.084  25.331  1.00  0.00     0.031 A 
ATOM     60  C   UNL A   1      47.715  27.132  27.454  1.00  0.00     0.131 A 
ATOM     61  C   UNL A   1      48.192  27.448  24.748  1.00  0.00     0.055 A 
ATOM     62  C   UNL A   1      48.861  26.572  26.885  1.00  0.00     0.041 A 
ATOM     63  F   UNL A   1      47.489  26.894  28.756  1.00  0.00    -0.206 F 
ATOM     64  C   UNL A   1      49.095  26.715  25.520  1.00  0.00     0.022 A 
BRANCH  61  65
ATOM     65  S   UNL A   1      48.344  27.457  22.940  1.00  0.00     0.124 S 
ATOM     66  O   UNL A   1      48.355  26.027  22.638  1.00  0.00    -0.237 OA
ATOM     67  O   UNL A   1      47.153  28.188  22.525  1.00  0.00    -0.237 OA
ATOM     68  O   UNL A   1      49.613  28.145  22.705  1.00  0.00    -0.744 OA
ENDBRANCH  61  65
ENDBRANCH  44  58
BRANCH  45  69
ATOM     69  C   UNL A   1      38.214  30.930  30.901  1.00  0.00     0.023 A 
ATOM     70  C   UNL A   1      37.208  31.584  30.168  1.00  0.00     0.031 A 
ATOM     71  C   UNL A   1      38.033  30.804  32.291  1.00  0.00     0.131 A 
ATOM     72  C   UNL A   1      36.100  32.135  30.834  1.00  0.00     0.055 A 
ATOM     73  C   UNL A   1      36.899  31.298  32.940  1.00  0.00     0.041 A 
ATOM     74  F   UNL A   1      38.964  30.200  33.045  1.00  0.00    -0.206 F 
ATOM     75  C   UNL A   1      35.931  31.982  32.212  1.00  0.00     0.022 A 
BRANCH  72  76
ATOM     76  S   UNL A   1      34.931  33.157  29.892  1.00  0.00     0.124 S 
ATOM     77  O   UNL A   1      34.032  33.622  30.941  1.00  0.00    -0.237 OA
ATOM     78  O   UNL A   1      35.810  34.163  29.306  1.00  0.00    -0.237 OA
ATOM     79  O   UNL A   1      34.345  32.215  28.940  1.00  0.00    -0.744 OA
ENDBRANCH  72  76
ENDBRANCH  45  69
BRANCH  57  80
ATOM     80  C   UNL A   1      44.411  33.978  29.864  1.00  0.00     0.023 A 
ATOM     81  C   UNL A   1      44.222  35.043  28.966  1.00  0.00     0.031 A 
ATOM     82  C   UNL A   1      45.109  34.239  31.058  1.00  0.00     0.131 A 
ATOM     83  C   UNL A   1      44.785  36.300  29.243  1.00  0.00     0.055 A 
ATOM     84  C   UNL A   1      45.602  35.510  31.360  1.00  0.00     0.041 A 
ATOM     85  F   UNL A   1      45.323  33.263  31.954  1.00  0.00    -0.206 F 
ATOM     86  C   UNL A   1      45.457  36.544  30.442  1.00  0.00     0.022 A 
BRANCH  83  87
ATOM     87  S   UNL A   1      44.732  37.580  27.957  1.00  0.00     0.124 S 
ATOM     88  O   UNL A   1      44.068  38.679  28.650  1.00  0.00    -0.237 OA
ATOM     89  O   UNL A   1      46.146  37.777  27.656  1.00  0.00    -0.237 OA
ATOM     90  O   UNL A   1      43.952  36.960  26.888  1.00  0.00    -0.744 OA
ENDBRANCH  83  87
ENDBRANCH  57  80
ENDBRANCH  31  32
ENDBRANCH  24  26
ENDBRANCH  23  24
ENDBRANCH  22  23
ENDBRANCH   1  22
TORSDOF 17
ENDMDL
MODEL 2
REMARK VINA RESULT:     -11.5      4.951     10.132
REMARK SMILES COc1ccc([C@H](C)[N@H+]2CC[C@H](C(=O)OCCOC(=O)c3ccc(-c4c5nc(c(-c6cc(S(=O)(=O)[O-])ccc6F)c6ccc([nH]6)c(-c6cc(S(=O)(=O)[O-])ccc6F)c6nc(c(-c7cc(S(=O)(=O)[O-])ccc7F)c7ccc4[nH]7)C=C6)C=C5)cc3)[C@@H]2C)cc1
REMARK SMILES IDX 16 1 15 2 13 3 14 4 12 5 9 6 10 7 84 8 11 10 85 11 7 12 8 13
REMARK SMILES IDX 6 14 3 15 4 16 87 17 5 18 86 19 2 20 1 21 17 22 18 23 19 24
REMARK SMILES IDX 20 25 21 26 22 27 83 28 23 29 82 30 24 31 25 32 26 33 76 34
REMARK SMILES IDX 27 35 81 36 75 37 77 38 28 39 80 40 74 41 73 42 29 44 61 45
REMARK SMILES IDX 41 46 60 47 42 48 45 49 59 50 78 51 43 52 44 53 58 55 79 56
REMARK SMILES IDX 46 57 30 58 31 59 39 60 32 61 38 62 40 63 37 64 33 65 34 66
REMARK SMILES IDX 35 67 36 68 62 69 63 70 71 71 64 72 70 73 72 74 69 75 65 76
REMARK SMILES IDX 66 77 67 78 68 79 47 80 48 81 56 82 49 83 55 84 57 85 54 86
REMARK SMILES IDX 50 87 51 88 52 89 53 90
REMARK H PARENT 9 9 77 43 45 54
REMARK Flexibility Score: inf
ROOT
ATOM      1  C   UNL A   1      31.810  30.953  26.622  1.00  0.00     0.274 C 
ENDROOT
BRANCH   1   2
ATOM      2  O   UNL A   1      33.170  30.652  26.274  1.00  0.00    -0.462 OA
BRANCH   2   3
ATOM      3  C   UNL A   1      33.519  29.334  26.249  1.00  0.00     0.315 C 
ATOM      4  O   UNL A   1      34.256  28.794  27.060  1.00  0.00    -0.252 OA
BRANCH   3   5
ATOM      5  C   UNL A   1      32.889  28.667  25.044  1.00  0.00     0.162 C 
ATOM      6  N   UNL A   1      32.115  26.428  24.526  1.00  0.00    -0.326 N 
ATOM      7  C   UNL A   1      33.551  26.492  24.251  1.00  0.00     0.264 C 
ATOM      8  C   UNL A   1      31.789  27.630  25.322  1.00  0.00     0.196 C 
ATOM      9  H   UNL A   1      31.935  25.563  25.036  1.00  0.00     0.348 HD
ATOM     10  C   UNL A   1      33.933  27.960  24.195  1.00  0.00     0.083 C 
ATOM     11  C   UNL A   1      31.540  27.216  26.770  1.00  0.00     0.076 C 
BRANCH   6  12
ATOM     12  C   UNL A   1      31.212  26.244  23.362  1.00  0.00     0.212 C 
ATOM     13  C   UNL A   1      30.477  24.889  23.360  1.00  0.00     0.081 C 
BRANCH  12  14
ATOM     14  C   UNL A   1      30.247  27.410  23.105  1.00  0.00     0.009 A 
ATOM     15  C   UNL A   1      28.348  29.469  22.640  1.00  0.00     0.118 A 
ATOM     16  C   UNL A   1      29.659  29.588  22.177  1.00  0.00     0.047 A 
ATOM     17  C   UNL A   1      27.969  28.299  23.289  1.00  0.00     0.047 A 
ATOM     18  C   UNL A   1      30.598  28.571  22.403  1.00  0.00     0.013 A 
ATOM     19  C   UNL A   1      28.903  27.282  23.505  1.00  0.00     0.013 A 
BRANCH  15  20
ATOM     20  O   UNL A   1      27.530  30.532  22.374  1.00  0.00    -0.497 OA
ATOM     21  C   UNL A   1      28.132  31.820  22.429  1.00  0.00     0.278 C 
ENDBRANCH  15  20
ENDBRANCH  12  14
ENDBRANCH   6  12
ENDBRANCH   3   5
ENDBRANCH   2   3
ENDBRANCH   1   2
BRANCH   1  22
ATOM     22  C   UNL A   1      31.714  32.402  27.108  1.00  0.00     0.275 C 
BRANCH  22  23
ATOM     23  O   UNL A   1      32.961  33.105  26.944  1.00  0.00    -0.458 OA
BRANCH  23  24
ATOM     24  C   UNL A   1      33.446  33.685  28.075  1.00  0.00     0.338 C 
ATOM     25  O   UNL A   1      32.887  34.534  28.743  1.00  0.00    -0.246 OA
BRANCH  24  26
ATOM     26  C   UNL A   1      34.726  33.052  28.483  1.00  0.00     0.060 A 
ATOM     27  C   UNL A   1      34.651  31.829  29.159  1.00  0.00     0.016 A 
ATOM     28  C   UNL A   1      35.975  33.628  28.228  1.00  0.00     0.016 A 
ATOM     29  C   UNL A   1      35.811  31.150  29.524  1.00  0.00     0.010 A 
ATOM     30  C   UNL A   1      37.142  32.970  28.640  1.00  0.00     0.010 A 
ATOM     31  C   UNL A   1      37.065  31.726  29.287  1.00  0.00    -0.014 A 
BRANCH  31  32
ATOM     32  C   UNL A   1      38.262  31.081  29.882  1.00  0.00     0.031 A 
ATOM     33  C   UNL A   1      38.668  31.485  31.271  1.00  0.00     0.074 A 
ATOM     34  C   UNL A   1      38.916  30.095  29.240  1.00  0.00     0.049 A 
ATOM     35  N   UNL A   1      39.599  30.990  32.043  1.00  0.00    -0.248 NA
ATOM     36  C   UNL A   1      37.904  32.588  31.873  1.00  0.00     0.031 C 
ATOM     37  C   UNL A   1      38.573  29.580  27.916  1.00  0.00     0.029 A 
ATOM     38  N   UNL A   1      39.997  29.341  29.626  1.00  0.00    -0.354 N 
ATOM     39  C   UNL A   1      39.511  31.696  33.238  1.00  0.00     0.074 A 
ATOM     40  C   UNL A   1      38.467  32.684  33.068  1.00  0.00     0.031 C 
ATOM     41  C   UNL A   1      39.429  28.591  27.599  1.00  0.00     0.029 A 
ATOM     42  C   UNL A   1      40.393  28.417  28.685  1.00  0.00     0.049 A 
ATOM     43  H   UNL A   1      40.446  29.450  30.494  1.00  0.00     0.167 HD
ATOM     44  C   UNL A   1      40.230  31.530  34.375  1.00  0.00     0.034 A 
ATOM     45  C   UNL A   1      41.421  27.543  28.700  1.00  0.00     0.034 A 
ATOM     46  C   UNL A   1      41.317  30.590  34.504  1.00  0.00     0.049 A 
ATOM     47  C   UNL A   1      42.296  27.470  29.933  1.00  0.00     0.074 A 
ATOM     48  C   UNL A   1      42.145  30.371  35.590  1.00  0.00     0.029 A 
ATOM     49  N   UNL A   1      41.748  29.731  33.499  1.00  0.00    -0.354 N 
ATOM     50  N   UNL A   1      42.194  28.132  31.064  1.00  0.00    -0.248 NA
ATOM     51  C   UNL A   1      43.415  26.519  29.896  1.00  0.00     0.031 C 
ATOM     52  C   UNL A   1      43.123  29.444  35.216  1.00  0.00     0.029 A 
ATOM     53  C   UNL A   1      42.851  29.009  33.929  1.00  0.00     0.049 A 
ATOM     54  H   UNL A   1      41.331  29.648  32.611  1.00  0.00     0.167 HD
ATOM     55  C   UNL A   1      43.211  27.645  31.885  1.00  0.00     0.074 A 
ATOM     56  C   UNL A   1      43.902  26.625  31.123  1.00  0.00     0.031 C 
ATOM     57  C   UNL A   1      43.538  27.999  33.155  1.00  0.00     0.034 A 
BRANCH  44  58
ATOM     58  C   UNL A   1      39.899  32.444  35.529  1.00  0.00     0.023 A 
ATOM     59  C   UNL A   1      38.974  32.073  36.523  1.00  0.00     0.031 A 
ATOM     60  C   UNL A   1      40.468  33.727  35.606  1.00  0.00     0.131 A 
ATOM     61  C   UNL A   1      38.587  33.002  37.500  1.00  0.00     0.055 A 
ATOM     62  C   UNL A   1      40.142  34.617  36.631  1.00  0.00     0.041 A 
ATOM     63  F   UNL A   1      41.334  34.148  34.671  1.00  0.00    -0.206 F 
ATOM     64  C   UNL A   1      39.183  34.263  37.577  1.00  0.00     0.022 A 
BRANCH  61  65
ATOM     65  S   UNL A   1      37.176  32.600  38.569  1.00  0.00     0.124 S 
ATOM     66  O   UNL A   1      36.054  33.098  37.777  1.00  0.00    -0.237 OA
ATOM     67  O   UNL A   1      37.277  31.151  38.694  1.00  0.00    -0.237 OA
ATOM     68  O   UNL A   1      37.447  33.353  39.792  1.00  0.00    -0.744 OA
ENDBRANCH  61  65
ENDBRANCH  44  58
BRANCH  45  69
ATOM     69  C   UNL A   1      41.719  26.688  27.510  1.00  0.00     0.023 A 
ATOM     70  C   UNL A   1      41.393  25.321  27.483  1.00  0.00     0.031 A 
ATOM     71  C   UNL A   1      42.421  27.215  26.410  1.00  0.00     0.131 A 
ATOM     72  C   UNL A   1      41.819  24.520  26.410  1.00  0.00     0.055 A 
ATOM     73  C   UNL A   1      42.787  26.428  25.316  1.00  0.00     0.041 A 
ATOM     74  F   UNL A   1      42.771  28.511  26.385  1.00  0.00    -0.206 F 
ATOM     75  C   UNL A   1      42.499  25.067  25.319  1.00  0.00     0.022 A 
BRANCH  72  76
ATOM     76  S   UNL A   1      41.572  22.723  26.507  1.00  0.00     0.124 S 
ATOM     77  O   UNL A   1      42.299  22.260  25.331  1.00  0.00    -0.237 OA
ATOM     78  O   UNL A   1      42.170  22.403  27.798  1.00  0.00    -0.237 OA
ATOM     79  O   UNL A   1      40.119  22.574  26.441  1.00  0.00    -0.744 OA
ENDBRANCH  72  76
ENDBRANCH  45  69
BRANCH  57  80
ATOM     80  C   UNL A   1      44.663  27.236  33.819  1.00  0.00     0.023 A 
ATOM     81  C   UNL A   1      46.001  27.665  33.752  1.00  0.00     0.031 A 
ATOM     82  C   UNL A   1      44.389  26.045  34.517  1.00  0.00     0.131 A 
ATOM     83  C   UNL A   1      47.019  26.875  34.310  1.00  0.00     0.055 A 
ATOM     84  C   UNL A   1      45.398  25.303  35.134  1.00  0.00     0.041 A 
ATOM     85  F   UNL A   1      43.133  25.582  34.614  1.00  0.00    -0.206 F 
ATOM     86  C   UNL A   1      46.723  25.707  35.016  1.00  0.00     0.022 A 
BRANCH  83  87
ATOM     87  S   UNL A   1      48.747  27.331  33.996  1.00  0.00     0.124 S 
ATOM     88  O   UNL A   1      48.607  28.642  33.373  1.00  0.00    -0.237 OA
ATOM     89  O   UNL A   1      49.320  27.320  35.338  1.00  0.00    -0.237 OA
ATOM     90  O   UNL A   1      49.226  26.271  33.110  1.00  0.00    -0.744 OA
ENDBRANCH  83  87
ENDBRANCH  57  80
ENDBRANCH  31  32
ENDBRANCH  24  26
ENDBRANCH  23  24
ENDBRANCH  22  23
ENDBRANCH   1  22
TORSDOF 17
ENDMDL
MODEL 3
REMARK VINA RESULT:     -11.4      4.663     10.159
REMARK SMILES COc1ccc([C@H](C)[N@H+]2CC[C@H](C(=O)OCCOC(=O)c3ccc(-c4c5nc(c(-c6cc(S(=O)(=O)[O-])ccc6F)c6ccc([nH]6)c(-c6cc(S(=O)(=O)[O-])ccc6F)c6nc(c(-c7cc(S(=O)(=O)[O-])ccc7F)c7ccc4[nH]7)C=C6)C=C5)cc3)[C@@H]2C)cc1
REMARK SMILES IDX 16 1 15 2 13 3 14 4 12 5 9 6 10 7 84 8 11 10 85 11 7 12 8 13
REMARK SMILES IDX 6 14 3 15 4 16 87 17 5 18 86 19 2 20 1 21 17 22 18 23 19 24
REMARK SMILES IDX 20 25 21 26 22 27 83 28 23 29 82 30 24 31 25 32 26 33 76 34
REMARK SMILES IDX 27 35 81 36 75 37 77 38 28 39 80 40 74 41 73 42 29 44 61 45
REMARK SMILES IDX 41 46 60 47 42 48 45 49 59 50 78 51 43 52 44 53 58 55 79 56
REMARK SMILES IDX 46 57 30 58 31 59 39 60 32 61 38 62 40 63 37 64 33 65 34 66
REMARK SMILES IDX 35 67 36 68 62 69 63 70 71 71 64 72 70 73 72 74 69 75 65 76
REMARK SMILES IDX 66 77 67 78 68 79 47 80 48 81 56 82 49 83 55 84 57 85 54 86
REMARK SMILES IDX 50 87 51 88 52 89 53 90
REMARK H PARENT 9 9 77 43 45 54
REMARK Flexibility Score: inf
ROOT
ATOM      1  C   UNL A   1      32.651  29.632  25.665  1.00  0.00     0.274 C 
ENDROOT
BRANCH   1   2
ATOM      2  O   UNL A   1      31.504  28.772  25.585  1.00  0.00    -0.462 OA
BRANCH   2   3
ATOM      3  C   UNL A   1      31.590  27.573  26.229  1.00  0.00     0.315 C 
ATOM      4  O   UNL A   1      31.228  27.372  27.377  1.00  0.00    -0.252 OA
BRANCH   3   5
ATOM      5  C   UNL A   1      32.240  26.555  25.315  1.00  0.00     0.162 C 
ATOM      6  N   UNL A   1      31.709  24.299  24.599  1.00  0.00    -0.326 N 
ATOM      7  C   UNL A   1      32.426  24.219  25.872  1.00  0.00     0.264 C 
ATOM      8  C   UNL A   1      31.301  25.711  24.438  1.00  0.00     0.196 C 
ATOM      9  H   UNL A   1      30.910  23.668  24.653  1.00  0.00     0.348 HD
ATOM     10  C   UNL A   1      33.086  25.567  26.102  1.00  0.00     0.083 C 
ATOM     11  C   UNL A   1      29.798  25.825  24.677  1.00  0.00     0.076 C 
BRANCH   6  12
ATOM     12  C   UNL A   1      32.397  23.758  23.400  1.00  0.00     0.212 C 
ATOM     13  C   UNL A   1      32.429  24.739  22.212  1.00  0.00     0.081 C 
BRANCH  12  14
ATOM     14  C   UNL A   1      33.782  23.153  23.670  1.00  0.00     0.009 A 
ATOM     15  C   UNL A   1      36.280  21.950  24.280  1.00  0.00     0.118 A 
ATOM     16  C   UNL A   1      36.220  23.205  23.674  1.00  0.00     0.047 A 
ATOM     17  C   UNL A   1      35.093  21.317  24.631  1.00  0.00     0.047 A 
ATOM     18  C   UNL A   1      34.987  23.803  23.374  1.00  0.00     0.013 A 
ATOM     19  C   UNL A   1      33.865  21.917  24.341  1.00  0.00     0.013 A 
BRANCH  15  20
ATOM     20  O   UNL A   1      37.539  21.464  24.506  1.00  0.00    -0.497 OA
ATOM     21  C   UNL A   1      37.624  20.107  24.924  1.00  0.00     0.278 C 
ENDBRANCH  15  20
ENDBRANCH  12  14
ENDBRANCH   6  12
ENDBRANCH   3   5
ENDBRANCH   2   3
ENDBRANCH   1   2
BRANCH   1  22
ATOM     22  C   UNL A   1      32.317  30.854  26.524  1.00  0.00     0.275 C 
BRANCH  22  23
ATOM     23  O   UNL A   1      33.104  30.892  27.730  1.00  0.00    -0.458 OA
BRANCH  23  24
ATOM     24  C   UNL A   1      33.985  31.927  27.808  1.00  0.00     0.338 C 
ATOM     25  O   UNL A   1      33.722  33.105  27.663  1.00  0.00    -0.246 OA
BRANCH  24  26
ATOM     26  C   UNL A   1      35.325  31.445  28.226  1.00  0.00     0.060 A 
ATOM     27  C   UNL A   1      35.459  30.081  28.507  1.00  0.00     0.016 A 
ATOM     28  C   UNL A   1      36.432  32.291  28.354  1.00  0.00     0.016 A 
ATOM     29  C   UNL A   1      36.700  29.548  28.852  1.00  0.00     0.010 A 
ATOM     30  C   UNL A   1      37.669  31.765  28.751  1.00  0.00     0.010 A 
ATOM     31  C   UNL A   1      37.809  30.389  28.998  1.00  0.00    -0.014 A 
BRANCH  31  32
ATOM     32  C   UNL A   1      39.053  29.823  29.576  1.00  0.00     0.031 A 
ATOM     33  C   UNL A   1      39.489  30.306  30.930  1.00  0.00     0.074 A 
ATOM     34  C   UNL A   1      39.727  28.838  28.954  1.00  0.00     0.049 A 
ATOM     35  N   UNL A   1      40.468  29.887  31.688  1.00  0.00    -0.248 NA
ATOM     36  C   UNL A   1      38.699  31.402  31.511  1.00  0.00     0.031 C 
ATOM     37  C   UNL A   1      39.361  28.249  27.667  1.00  0.00     0.029 A 
ATOM     38  N   UNL A   1      40.853  28.149  29.332  1.00  0.00    -0.354 N 
ATOM     39  C   UNL A   1      40.391  30.641  32.854  1.00  0.00     0.074 A 
ATOM     40  C   UNL A   1      39.299  31.576  32.679  1.00  0.00     0.031 C 
ATOM     41  C   UNL A   1      40.247  27.284  27.362  1.00  0.00     0.029 A 
ATOM     42  C   UNL A   1      41.256  27.201  28.418  1.00  0.00     0.049 A 
ATOM     43  H   UNL A   1      41.327  28.315  30.177  1.00  0.00     0.167 HD
ATOM     44  C   UNL A   1      41.156  30.558  33.969  1.00  0.00     0.034 A 
ATOM     45  C   UNL A   1      42.321  26.372  28.433  1.00  0.00     0.034 A 
ATOM     46  C   UNL A   1      42.287  29.672  34.098  1.00  0.00     0.049 A 
ATOM     47  C   UNL A   1      43.241  26.392  29.635  1.00  0.00     0.074 A 
ATOM     48  C   UNL A   1      43.162  29.537  35.162  1.00  0.00     0.029 A 
ATOM     49  N   UNL A   1      42.720  28.787  33.117  1.00  0.00    -0.354 N 
ATOM     50  N   UNL A   1      43.150  27.100  30.739  1.00  0.00    -0.248 NA
ATOM     51  C   UNL A   1      44.399  25.488  29.598  1.00  0.00     0.031 C 
ATOM     52  C   UNL A   1      44.166  28.636  34.793  1.00  0.00     0.029 A 
ATOM     53  C   UNL A   1      43.868  28.132  33.537  1.00  0.00     0.049 A 
ATOM     54  H   UNL A   1      42.276  28.646  32.250  1.00  0.00     0.167 HD
ATOM     55  C   UNL A   1      44.215  26.694  31.542  1.00  0.00     0.074 A 
ATOM     56  C   UNL A   1      44.923  25.670  30.801  1.00  0.00     0.031 C 
ATOM     57  C   UNL A   1      44.571  27.119  32.783  1.00  0.00     0.034 A 
BRANCH  44  58
ATOM     58  C   UNL A   1      40.826  31.508  35.094  1.00  0.00     0.023 A 
ATOM     59  C   UNL A   1      39.763  31.259  35.982  1.00  0.00     0.031 A 
ATOM     60  C   UNL A   1      41.541  32.708  35.244  1.00  0.00     0.131 A 
ATOM     61  C   UNL A   1      39.397  32.231  36.925  1.00  0.00     0.055 A 
ATOM     62  C   UNL A   1      41.226  33.635  36.240  1.00  0.00     0.041 A 
ATOM     63  F   UNL A   1      42.546  33.015  34.408  1.00  0.00    -0.206 F 
ATOM     64  C   UNL A   1      40.137  33.406  37.078  1.00  0.00     0.022 A 
BRANCH  61  65
ATOM     65  S   UNL A   1      37.844  32.014  37.838  1.00  0.00     0.124 S 
ATOM     66  O   UNL A   1      38.288  32.182  39.220  1.00  0.00    -0.237 OA
ATOM     67  O   UNL A   1      37.009  33.081  37.301  1.00  0.00    -0.237 OA
ATOM     68  O   UNL A   1      37.427  30.658  37.487  1.00  0.00    -0.744 OA
ENDBRANCH  61  65
ENDBRANCH  44  58
BRANCH  45  69
ATOM     69  C   UNL A   1      42.615  25.478  27.272  1.00  0.00     0.023 A 
ATOM     70  C   UNL A   1      42.159  24.149  27.229  1.00  0.00     0.031 A 
ATOM     71  C   UNL A   1      43.438  25.921  26.220  1.00  0.00     0.131 A 
ATOM     72  C   UNL A   1      42.577  23.297  26.193  1.00  0.00     0.055 A 
ATOM     73  C   UNL A   1      43.799  25.088  25.158  1.00  0.00     0.041 A 
ATOM     74  F   UNL A   1      43.913  27.176  26.211  1.00  0.00    -0.206 F 
ATOM     75  C   UNL A   1      43.380  23.762  25.149  1.00  0.00     0.022 A 
BRANCH  72  76
ATOM     76  S   UNL A   1      42.149  21.534  26.282  1.00  0.00     0.124 S 
ATOM     77  O   UNL A   1      40.726  21.559  25.968  1.00  0.00    -0.237 OA
ATOM     78  O   UNL A   1      43.021  20.957  25.265  1.00  0.00    -0.237 OA
ATOM     79  O   UNL A   1      42.478  21.172  27.660  1.00  0.00    -0.744 OA
ENDBRANCH  72  76
ENDBRANCH  45  69
BRANCH  57  80
ATOM     80  C   UNL A   1      45.751  26.434  33.437  1.00  0.00     0.023 A 
ATOM     81  C   UNL A   1      45.618  25.225  34.143  1.00  0.00     0.031 A 
ATOM     82  C   UNL A   1      47.031  27.016  33.365  1.00  0.00     0.131 A 
ATOM     83  C   UNL A   1      46.727  24.675  34.805  1.00  0.00     0.055 A 
ATOM     84  C   UNL A   1      48.145  26.424  33.964  1.00  0.00     0.041 A 
ATOM     85  F   UNL A   1      47.222  28.171  32.708  1.00  0.00    -0.206 F 
ATOM     86  C   UNL A   1      47.993  25.258  34.705  1.00  0.00     0.022 A 
BRANCH  83  87
ATOM     87  S   UNL A   1      46.470  23.253  35.903  1.00  0.00     0.124 S 
ATOM     88  O   UNL A   1      45.025  23.277  36.098  1.00  0.00    -0.237 OA
ATOM     89  O   UNL A   1      46.987  22.146  35.104  1.00  0.00    -0.237 OA
ATOM     90  O   UNL A   1      47.261  23.585  37.086  1.00  0.00    -0.744 OA
ENDBRANCH  83  87
ENDBRANCH  57  80
ENDBRANCH  31  32
ENDBRANCH  24  26
ENDBRANCH  23  24
ENDBRANCH  22  23
ENDBRANCH   1  22
TORSDOF 17
ENDMDL
