MODEL 1
REMARK VINA RESULT:     -12.0      0.000      0.000
REMARK SMILES CC[C@@H](C)[C@@H](C(=O)OCCOC(=O)c1ccc(-c2c3nc(c(-c4cc(S(=O)(=O)[O-])ccc4F)c4ccc([nH]4)c(-c4cc(S(=O)(=O)[O-])ccc4F)c4nc(c(-c5cc(S(=O)(=O)[O-])ccc5F)c5ccc2[nH]5)C=C4)C=C3)cc1)N1C(=O)/C(=C/c2ccc(O)cc2)SC1=S
REMARK SMILES IDX 9 1 8 2 6 3 7 4 5 5 3 6 4 7 2 8 1 9 77 10 78 11 90 12 79 13
REMARK SMILES IDX 80 14 89 15 91 16 81 17 82 18 83 19 88 20 84 21 87 22 85 23
REMARK SMILES IDX 86 24 10 26 11 27 12 28 13 29 14 30 15 31 76 32 16 33 75 34
REMARK SMILES IDX 17 35 18 36 19 37 69 38 20 39 74 40 68 41 70 42 21 43 73 44
REMARK SMILES IDX 67 45 66 46 22 48 54 49 34 50 53 51 35 52 38 53 52 54 71 55
REMARK SMILES IDX 36 56 37 57 51 59 72 60 39 61 23 62 24 63 32 64 25 65 31 66
REMARK SMILES IDX 33 67 30 68 26 69 27 70 28 71 29 72 55 73 56 74 64 75 57 76
REMARK SMILES IDX 63 77 65 78 62 79 58 80 59 81 60 82 61 83 40 84 41 85 49 86
REMARK SMILES IDX 42 87 48 88 50 89 47 90 43 91 44 92 45 93 46 94
REMARK H PARENT 86 25 70 47 38 58
REMARK Flexibility Score: inf
ROOT
ATOM      1  C   UNL A   1      31.794  28.212  27.518  1.00  0.00     0.274 C 
ENDROOT
BRANCH   1   2
ATOM      2  O   UNL A   1      31.436  26.957  26.899  1.00  0.00    -0.461 OA
BRANCH   2   3
ATOM      3  C   UNL A   1      32.365  26.342  26.131  1.00  0.00     0.329 C 
ATOM      4  O   UNL A   1      33.558  26.347  26.420  1.00  0.00    -0.250 OA
BRANCH   3   5
ATOM      5  C   UNL A   1      31.816  25.762  24.796  1.00  0.00     0.204 C 
BRANCH   5   6
ATOM      6  C   UNL A   1      32.638  24.665  24.040  1.00  0.00     0.020 C 
ATOM      7  C   UNL A   1      31.977  24.392  22.670  1.00  0.00     0.010 C 
BRANCH   6   8
ATOM      8  C   UNL A   1      32.838  23.306  24.755  1.00  0.00     0.002 C 
ATOM      9  C   UNL A   1      33.503  22.263  23.854  1.00  0.00     0.004 C 
ENDBRANCH   6   8
ENDBRANCH   5   6
BRANCH   5  10
ATOM     10  N   UNL A   1      31.388  26.942  23.938  1.00  0.00    -0.278 N 
ATOM     11  C   UNL A   1      30.013  27.193  23.861  1.00  0.00     0.267 C 
ATOM     12  C   UNL A   1      32.180  27.868  23.268  1.00  0.00     0.149 C 
ATOM     13  O   UNL A   1      29.128  26.478  24.313  1.00  0.00    -0.268 OA
ATOM     14  C   UNL A   1      29.741  28.460  23.126  1.00  0.00     0.081 C 
ATOM     15  S   UNL A   1      31.171  28.965  22.332  1.00  0.00    -0.054 SA
ATOM     16  S   UNL A   1      33.832  28.084  23.213  1.00  0.00    -0.052 S 
ATOM     17  C   UNL A   1      28.570  29.116  23.139  1.00  0.00     0.029 C 
BRANCH  17  18
ATOM     18  C   UNL A   1      28.322  30.356  22.386  1.00  0.00    -0.024 A 
ATOM     19  C   UNL A   1      28.032  30.329  21.017  1.00  0.00     0.012 A 
ATOM     20  C   UNL A   1      28.308  31.584  23.062  1.00  0.00     0.012 A 
ATOM     21  C   UNL A   1      27.708  31.511  20.342  1.00  0.00     0.047 A 
ATOM     22  C   UNL A   1      27.990  32.765  22.386  1.00  0.00     0.047 A 
ATOM     23  C   UNL A   1      27.684  32.716  21.030  1.00  0.00     0.115 A 
BRANCH  23  24
ATOM     24  O   UNL A   1      27.350  33.838  20.334  1.00  0.00    -0.508 OA
ATOM     25  H   UNL A   1      27.440  33.855  19.402  1.00  0.00     0.293 HD
ENDBRANCH  23  24
ENDBRANCH  17  18
ENDBRANCH   5  10
ENDBRANCH   3   5
ENDBRANCH   2   3
ENDBRANCH   1   2
BRANCH   1  26
ATOM     26  C   UNL A   1      31.616  29.378  26.545  1.00  0.00     0.275 C 
BRANCH  26  27
ATOM     27  O   UNL A   1      32.882  29.983  26.234  1.00  0.00    -0.458 OA
BRANCH  27  28
ATOM     28  C   UNL A   1      33.188  31.071  26.974  1.00  0.00     0.338 C 
ATOM     29  O   UNL A   1      32.462  32.025  27.209  1.00  0.00    -0.246 OA
BRANCH  28  30
ATOM     30  C   UNL A   1      34.500  30.868  27.599  1.00  0.00     0.060 A 
ATOM     31  C   UNL A   1      34.893  29.562  27.877  1.00  0.00     0.016 A 
ATOM     32  C   UNL A   1      35.295  31.941  27.992  1.00  0.00     0.016 A 
ATOM     33  C   UNL A   1      36.047  29.310  28.598  1.00  0.00     0.010 A 
ATOM     34  C   UNL A   1      36.493  31.686  28.674  1.00  0.00     0.010 A 
ATOM     35  C   UNL A   1      36.864  30.368  28.995  1.00  0.00    -0.014 A 
BRANCH  35  36
ATOM     36  C   UNL A   1      38.067  30.069  29.805  1.00  0.00     0.031 A 
ATOM     37  C   UNL A   1      39.201  29.315  29.178  1.00  0.00     0.074 A 
ATOM     38  C   UNL A   1      38.177  30.561  31.055  1.00  0.00     0.049 A 
ATOM     39  N   UNL A   1      40.260  28.798  29.742  1.00  0.00    -0.248 NA
ATOM     40  C   UNL A   1      39.128  29.109  27.724  1.00  0.00     0.031 C 
ATOM     41  C   UNL A   1      37.195  31.433  31.704  1.00  0.00     0.029 A 
ATOM     42  N   UNL A   1      39.178  30.445  31.983  1.00  0.00    -0.354 N 
ATOM     43  C   UNL A   1      40.942  28.138  28.727  1.00  0.00     0.074 A 
ATOM     44  C   UNL A   1      40.193  28.351  27.507  1.00  0.00     0.031 C 
ATOM     45  C   UNL A   1      37.681  31.834  32.889  1.00  0.00     0.029 A 
ATOM     46  C   UNL A   1      38.951  31.159  33.139  1.00  0.00     0.049 A 
ATOM     47  H   UNL A   1      39.985  29.900  31.838  1.00  0.00     0.167 HD
ATOM     48  C   UNL A   1      42.069  27.392  28.830  1.00  0.00     0.034 A 
ATOM     49  C   UNL A   1      39.674  31.230  34.274  1.00  0.00     0.034 A 
ATOM     50  C   UNL A   1      42.795  27.230  30.067  1.00  0.00     0.049 A 
ATOM     51  C   UNL A   1      40.905  30.362  34.379  1.00  0.00     0.074 A 
ATOM     52  C   UNL A   1      43.882  26.419  30.337  1.00  0.00     0.029 A 
ATOM     53  N   UNL A   1      42.512  27.918  31.241  1.00  0.00    -0.354 N 
ATOM     54  N   UNL A   1      41.449  29.588  33.465  1.00  0.00    -0.248 NA
ATOM     55  C   UNL A   1      41.593  30.336  35.675  1.00  0.00     0.031 C 
ATOM     56  C   UNL A   1      44.219  26.574  31.687  1.00  0.00     0.029 A 
ATOM     57  C   UNL A   1      43.389  27.535  32.242  1.00  0.00     0.049 A 
ATOM     58  H   UNL A   1      41.792  28.582  31.347  1.00  0.00     0.167 HD
ATOM     59  C   UNL A   1      42.544  28.988  34.077  1.00  0.00     0.074 A 
ATOM     60  C   UNL A   1      42.602  29.512  35.428  1.00  0.00     0.031 C 
ATOM     61  C   UNL A   1      43.415  28.075  33.581  1.00  0.00     0.034 A 
BRANCH  48  62
ATOM     62  C   UNL A   1      42.486  26.601  27.615  1.00  0.00     0.023 A 
ATOM     63  C   UNL A   1      42.098  25.266  27.406  1.00  0.00     0.031 A 
ATOM     64  C   UNL A   1      43.350  27.191  26.673  1.00  0.00     0.131 A 
ATOM     65  C   UNL A   1      42.624  24.550  26.318  1.00  0.00     0.055 A 
ATOM     66  C   UNL A   1      43.811  26.495  25.554  1.00  0.00     0.041 A 
ATOM     67  F   UNL A   1      43.780  28.453  26.836  1.00  0.00    -0.206 F 
ATOM     68  C   UNL A   1      43.460  25.161  25.379  1.00  0.00     0.022 A 
BRANCH  65  69
ATOM     69  S   UNL A   1      42.318  22.764  26.217  1.00  0.00     0.124 S 
ATOM     70  O   UNL A   1      40.871  22.699  26.400  1.00  0.00    -0.237 OA
ATOM     71  O   UNL A   1      42.811  22.433  24.885  1.00  0.00    -0.237 OA
ATOM     72  O   UNL A   1      43.103  22.218  27.324  1.00  0.00    -0.744 OA
ENDBRANCH  65  69
ENDBRANCH  48  62
BRANCH  49  73
ATOM     73  C   UNL A   1      39.238  32.087  35.419  1.00  0.00     0.023 A 
ATOM     74  C   UNL A   1      39.641  33.430  35.510  1.00  0.00     0.031 A 
ATOM     75  C   UNL A   1      38.453  31.571  36.467  1.00  0.00     0.131 A 
ATOM     76  C   UNL A   1      39.291  34.195  36.635  1.00  0.00     0.055 A 
ATOM     77  C   UNL A   1      38.049  32.355  37.549  1.00  0.00     0.041 A 
ATOM     78  F   UNL A   1      38.052  30.288  36.452  1.00  0.00    -0.206 F 
ATOM     79  C   UNL A   1      38.480  33.673  37.645  1.00  0.00     0.022 A 
BRANCH  76  80
ATOM     80  S   UNL A   1      40.006  35.853  36.823  1.00  0.00     0.124 S 
ATOM     81  O   UNL A   1      39.268  36.368  37.971  1.00  0.00    -0.237 OA
ATOM     82  O   UNL A   1      41.416  35.553  37.046  1.00  0.00    -0.237 OA
ATOM     83  O   UNL A   1      39.704  36.500  35.548  1.00  0.00    -0.744 OA
ENDBRANCH  76  80
ENDBRANCH  49  73
BRANCH  61  84
ATOM     84  C   UNL A   1      44.513  27.608  34.499  1.00  0.00     0.023 A 
ATOM     85  C   UNL A   1      44.352  26.479  35.321  1.00  0.00     0.031 A 
ATOM     86  C   UNL A   1      45.746  28.282  34.524  1.00  0.00     0.131 A 
ATOM     87  C   UNL A   1      45.400  26.078  36.163  1.00  0.00     0.055 A 
ATOM     88  C   UNL A   1      46.798  27.852  35.331  1.00  0.00     0.041 A 
ATOM     89  F   UNL A   1      45.949  29.362  33.753  1.00  0.00    -0.206 F 
ATOM     90  C   UNL A   1      46.626  26.748  36.161  1.00  0.00     0.022 A 
BRANCH  87  91
ATOM     91  S   UNL A   1      45.127  24.685  37.293  1.00  0.00     0.124 S 
ATOM     92  O   UNL A   1      46.120  24.938  38.332  1.00  0.00    -0.237 OA
ATOM     93  O   UNL A   1      43.734  24.866  37.687  1.00  0.00    -0.237 OA
ATOM     94  O   UNL A   1      45.386  23.512  36.461  1.00  0.00    -0.744 OA
ENDBRANCH  87  91
ENDBRANCH  61  84
ENDBRANCH  35  36
ENDBRANCH  28  30
ENDBRANCH  27  28
ENDBRANCH  26  27
ENDBRANCH   1  26
TORSDOF 19
ENDMDL
MODEL 2
REMARK VINA RESULT:     -11.8      5.165     10.807
REMARK SMILES CC[C@@H](C)[C@@H](C(=O)OCCOC(=O)c1ccc(-c2c3nc(c(-c4cc(S(=O)(=O)[O-])ccc4F)c4ccc([nH]4)c(-c4cc(S(=O)(=O)[O-])ccc4F)c4nc(c(-c5cc(S(=O)(=O)[O-])ccc5F)c5ccc2[nH]5)C=C4)C=C3)cc1)N1C(=O)/C(=C/c2ccc(O)cc2)SC1=S
REMARK SMILES IDX 9 1 8 2 6 3 7 4 5 5 3 6 4 7 2 8 1 9 77 10 78 11 90 12 79 13
REMARK SMILES IDX 80 14 89 15 91 16 81 17 82 18 83 19 88 20 84 21 87 22 85 23
REMARK SMILES IDX 86 24 10 26 11 27 12 28 13 29 14 30 15 31 76 32 16 33 75 34
REMARK SMILES IDX 17 35 18 36 19 37 69 38 20 39 74 40 68 41 70 42 21 43 73 44
REMARK SMILES IDX 67 45 66 46 22 48 54 49 34 50 53 51 35 52 38 53 52 54 71 55
REMARK SMILES IDX 36 56 37 57 51 59 72 60 39 61 23 62 24 63 32 64 25 65 31 66
REMARK SMILES IDX 33 67 30 68 26 69 27 70 28 71 29 72 55 73 56 74 64 75 57 76
REMARK SMILES IDX 63 77 65 78 62 79 58 80 59 81 60 82 61 83 40 84 41 85 49 86
REMARK SMILES IDX 42 87 48 88 50 89 47 90 43 91 44 92 45 93 46 94
REMARK H PARENT 86 25 70 47 38 58
REMARK Flexibility Score: inf
ROOT
ATOM      1  C   UNL A   1      36.265  22.962  23.314  1.00  0.00     0.274 C 
ENDROOT
BRANCH   1   2
ATOM      2  O   UNL A   1      35.480  23.895  24.088  1.00  0.00    -0.461 OA
BRANCH   2   3
ATOM      3  C   UNL A   1      34.313  24.331  23.559  1.00  0.00     0.329 C 
ATOM      4  O   UNL A   1      34.265  24.931  22.491  1.00  0.00    -0.250 OA
BRANCH   3   5
ATOM      5  C   UNL A   1      33.075  24.133  24.481  1.00  0.00     0.204 C 
BRANCH   5   6
ATOM      6  C   UNL A   1      32.789  25.173  25.615  1.00  0.00     0.020 C 
ATOM      7  C   UNL A   1      31.281  25.149  25.956  1.00  0.00     0.010 C 
BRANCH   6   8
ATOM      8  C   UNL A   1      33.196  26.644  25.351  1.00  0.00     0.002 C 
ATOM      9  C   UNL A   1      32.074  27.454  24.698  1.00  0.00     0.004 C 
ENDBRANCH   6   8
ENDBRANCH   5   6
BRANCH   5  10
ATOM     10  N   UNL A   1      33.083  22.681  24.935  1.00  0.00    -0.278 N 
ATOM     11  C   UNL A   1      32.662  21.731  23.998  1.00  0.00     0.267 C 
ATOM     12  C   UNL A   1      33.524  22.145  26.139  1.00  0.00     0.149 C 
ATOM     13  O   UNL A   1      32.172  21.974  22.902  1.00  0.00    -0.268 OA
ATOM     14  C   UNL A   1      32.867  20.347  24.510  1.00  0.00     0.081 C 
ATOM     15  S   UNL A   1      33.204  20.415  26.187  1.00  0.00    -0.054 SA
ATOM     16  S   UNL A   1      34.258  22.842  27.463  1.00  0.00    -0.052 S 
ATOM     17  C   UNL A   1      32.841  19.240  23.752  1.00  0.00     0.029 C 
BRANCH  17  18
ATOM     18  C   UNL A   1      33.027  17.881  24.289  1.00  0.00    -0.024 A 
ATOM     19  C   UNL A   1      32.162  17.358  25.256  1.00  0.00     0.012 A 
ATOM     20  C   UNL A   1      34.045  17.068  23.773  1.00  0.00     0.012 A 
ATOM     21  C   UNL A   1      32.300  16.033  25.684  1.00  0.00     0.047 A 
ATOM     22  C   UNL A   1      34.187  15.746  24.204  1.00  0.00     0.047 A 
ATOM     23  C   UNL A   1      33.306  15.237  25.152  1.00  0.00     0.115 A 
BRANCH  23  24
ATOM     24  O   UNL A   1      33.393  13.950  25.588  1.00  0.00    -0.508 OA
ATOM     25  H   UNL A   1      34.231  13.560  25.732  1.00  0.00     0.293 HD
ENDBRANCH  23  24
ENDBRANCH  17  18
ENDBRANCH   5  10
ENDBRANCH   3   5
ENDBRANCH   2   3
ENDBRANCH   1   2
BRANCH   1  26
ATOM     26  C   UNL A   1      36.514  21.670  24.093  1.00  0.00     0.275 C 
BRANCH  26  27
ATOM     27  O   UNL A   1      36.942  21.956  25.435  1.00  0.00    -0.458 OA
BRANCH  27  28
ATOM     28  C   UNL A   1      38.192  21.538  25.732  1.00  0.00     0.338 C 
ATOM     29  O   UNL A   1      38.693  20.461  25.445  1.00  0.00    -0.246 OA
BRANCH  28  30
ATOM     30  C   UNL A   1      38.936  22.651  26.334  1.00  0.00     0.060 A 
ATOM     31  C   UNL A   1      38.488  23.945  26.079  1.00  0.00     0.016 A 
ATOM     32  C   UNL A   1      40.105  22.441  27.059  1.00  0.00     0.016 A 
ATOM     33  C   UNL A   1      39.227  25.041  26.490  1.00  0.00     0.010 A 
ATOM     34  C   UNL A   1      40.826  23.549  27.524  1.00  0.00     0.010 A 
ATOM     35  C   UNL A   1      40.397  24.855  27.226  1.00  0.00    -0.014 A 
BRANCH  35  36
ATOM     36  C   UNL A   1      41.189  26.046  27.610  1.00  0.00     0.031 A 
ATOM     37  C   UNL A   1      40.597  27.040  28.563  1.00  0.00     0.074 A 
ATOM     38  C   UNL A   1      42.462  26.173  27.187  1.00  0.00     0.049 A 
ATOM     39  N   UNL A   1      41.034  28.226  28.895  1.00  0.00    -0.248 NA
ATOM     40  C   UNL A   1      39.341  26.651  29.222  1.00  0.00     0.031 C 
ATOM     41  C   UNL A   1      43.183  25.185  26.380  1.00  0.00     0.029 A 
ATOM     42  N   UNL A   1      43.393  27.153  27.416  1.00  0.00    -0.354 N 
ATOM     43  C   UNL A   1      40.069  28.758  29.742  1.00  0.00     0.074 A 
ATOM     44  C   UNL A   1      39.042  27.750  29.898  1.00  0.00     0.031 C 
ATOM     45  C   UNL A   1      44.461  25.575  26.250  1.00  0.00     0.029 A 
ATOM     46  C   UNL A   1      44.626  26.889  26.860  1.00  0.00     0.049 A 
ATOM     47  H   UNL A   1      43.198  27.971  27.928  1.00  0.00     0.167 HD
ATOM     48  C   UNL A   1      40.040  29.994  30.297  1.00  0.00     0.034 A 
ATOM     49  C   UNL A   1      45.744  27.642  26.827  1.00  0.00     0.034 A 
ATOM     50  C   UNL A   1      41.102  30.956  30.132  1.00  0.00     0.049 A 
ATOM     51  C   UNL A   1      45.674  29.029  27.420  1.00  0.00     0.074 A 
ATOM     52  C   UNL A   1      41.153  32.276  30.544  1.00  0.00     0.029 A 
ATOM     53  N   UNL A   1      42.319  30.687  29.515  1.00  0.00    -0.354 N 
ATOM     54  N   UNL A   1      44.684  29.601  28.066  1.00  0.00    -0.248 NA
ATOM     55  C   UNL A   1      46.850  29.890  27.239  1.00  0.00     0.031 C 
ATOM     56  C   UNL A   1      42.374  32.818  30.126  1.00  0.00     0.029 A 
ATOM     57  C   UNL A   1      43.117  31.819  29.517  1.00  0.00     0.049 A 
ATOM     58  H   UNL A   1      42.577  29.817  29.131  1.00  0.00     0.167 HD
ATOM     59  C   UNL A   1      45.120  30.886  28.372  1.00  0.00     0.074 A 
ATOM     60  C   UNL A   1      46.474  30.995  27.866  1.00  0.00     0.031 C 
ATOM     61  C   UNL A   1      44.462  31.894  28.998  1.00  0.00     0.034 A 
BRANCH  48  62
ATOM     62  C   UNL A   1      38.771  30.403  31.004  1.00  0.00     0.023 A 
ATOM     63  C   UNL A   1      37.693  31.014  30.340  1.00  0.00     0.031 A 
ATOM     64  C   UNL A   1      38.673  30.228  32.398  1.00  0.00     0.131 A 
ATOM     65  C   UNL A   1      36.595  31.483  31.080  1.00  0.00     0.055 A 
ATOM     66  C   UNL A   1      37.546  30.630  33.117  1.00  0.00     0.041 A 
ATOM     67  F   UNL A   1      39.683  29.678  33.091  1.00  0.00    -0.206 F 
ATOM     68  C   UNL A   1      36.504  31.275  32.459  1.00  0.00     0.022 A 
BRANCH  65  69
ATOM     69  S   UNL A   1      35.344  32.496  30.241  1.00  0.00     0.124 S 
ATOM     70  O   UNL A   1      34.882  31.590  29.193  1.00  0.00    -0.237 OA
ATOM     71  O   UNL A   1      34.393  32.774  31.311  1.00  0.00    -0.237 OA
ATOM     72  O   UNL A   1      36.102  33.652  29.765  1.00  0.00    -0.744 OA
ENDBRANCH  65  69
ENDBRANCH  48  62
BRANCH  49  73
ATOM     73  C   UNL A   1      46.991  27.149  26.166  1.00  0.00     0.023 A 
ATOM     74  C   UNL A   1      47.964  26.444  26.894  1.00  0.00     0.031 A 
ATOM     75  C   UNL A   1      47.258  27.413  24.809  1.00  0.00     0.131 A 
ATOM     76  C   UNL A   1      49.166  26.063  26.277  1.00  0.00     0.055 A 
ATOM     77  C   UNL A   1      48.424  26.971  24.182  1.00  0.00     0.041 A 
ATOM     78  F   UNL A   1      46.379  28.101  24.062  1.00  0.00    -0.206 F 
ATOM     79  C   UNL A   1      49.394  26.303  24.920  1.00  0.00     0.022 A 
BRANCH  76  80
ATOM     80  S   UNL A   1      50.486  25.348  27.297  1.00  0.00     0.124 S 
ATOM     81  O   UNL A   1      51.458  24.943  26.288  1.00  0.00    -0.237 OA
ATOM     82  O   UNL A   1      50.866  26.478  28.139  1.00  0.00    -0.237 OA
ATOM     83  O   UNL A   1      49.820  24.251  27.996  1.00  0.00    -0.744 OA
ENDBRANCH  76  80
ENDBRANCH  49  73
BRANCH  61  84
ATOM     84  C   UNL A   1      45.210  33.186  29.186  1.00  0.00     0.023 A 
ATOM     85  C   UNL A   1      45.081  34.248  28.274  1.00  0.00     0.031 A 
ATOM     86  C   UNL A   1      46.035  33.367  30.309  1.00  0.00     0.131 A 
ATOM     87  C   UNL A   1      45.796  35.436  28.486  1.00  0.00     0.055 A 
ATOM     88  C   UNL A   1      46.709  34.566  30.536  1.00  0.00     0.041 A 
ATOM     89  F   UNL A   1      46.186  32.383  31.209  1.00  0.00    -0.206 F 
ATOM     90  C   UNL A   1      46.598  35.606  29.618  1.00  0.00     0.022 A 
BRANCH  87  91
ATOM     91  S   UNL A   1      45.697  36.750  27.238  1.00  0.00     0.124 S 
ATOM     92  O   UNL A   1      46.191  37.908  27.976  1.00  0.00    -0.237 OA
ATOM     93  O   UNL A   1      46.570  36.248  26.181  1.00  0.00    -0.237 OA
ATOM     94  O   UNL A   1      44.276  36.792  26.897  1.00  0.00    -0.744 OA
ENDBRANCH  87  91
ENDBRANCH  61  84
ENDBRANCH  35  36
ENDBRANCH  28  30
ENDBRANCH  27  28
ENDBRANCH  26  27
ENDBRANCH   1  26
TORSDOF 19
ENDMDL
MODEL 3
REMARK VINA RESULT:     -11.8      5.336     10.788
REMARK SMILES CC[C@@H](C)[C@@H](C(=O)OCCOC(=O)c1ccc(-c2c3nc(c(-c4cc(S(=O)(=O)[O-])ccc4F)c4ccc([nH]4)c(-c4cc(S(=O)(=O)[O-])ccc4F)c4nc(c(-c5cc(S(=O)(=O)[O-])ccc5F)c5ccc2[nH]5)C=C4)C=C3)cc1)N1C(=O)/C(=C/c2ccc(O)cc2)SC1=S
REMARK SMILES IDX 9 1 8 2 6 3 7 4 5 5 3 6 4 7 2 8 1 9 77 10 78 11 90 12 79 13
REMARK SMILES IDX 80 14 89 15 91 16 81 17 82 18 83 19 88 20 84 21 87 22 85 23
REMARK SMILES IDX 86 24 10 26 11 27 12 28 13 29 14 30 15 31 76 32 16 33 75 34
REMARK SMILES IDX 17 35 18 36 19 37 69 38 20 39 74 40 68 41 70 42 21 43 73 44
REMARK SMILES IDX 67 45 66 46 22 48 54 49 34 50 53 51 35 52 38 53 52 54 71 55
REMARK SMILES IDX 36 56 37 57 51 59 72 60 39 61 23 62 24 63 32 64 25 65 31 66
REMARK SMILES IDX 33 67 30 68 26 69 27 70 28 71 29 72 55 73 56 74 64 75 57 76
REMARK SMILES IDX 63 77 65 78 62 79 58 80 59 81 60 82 61 83 40 84 41 85 49 86
REMARK SMILES IDX 42 87 48 88 50 89 47 90 43 91 44 92 45 93 46 94
REMARK H PARENT 86 25 70 47 38 58
REMARK Flexibility Score: inf
ROOT
ATOM      1  C   UNL A   1      36.362  22.774  23.564  1.00  0.00     0.274 C 
ENDROOT
BRANCH   1   2
ATOM      2  O   UNL A   1      35.546  23.734  24.272  1.00  0.00    -0.461 OA
BRANCH   2   3
ATOM      3  C   UNL A   1      34.414  24.168  23.671  1.00  0.00     0.329 C 
ATOM      4  O   UNL A   1      34.432  24.766  22.600  1.00  0.00    -0.250 OA
BRANCH   3   5
ATOM      5  C   UNL A   1      33.122  23.971  24.515  1.00  0.00     0.204 C 
BRANCH   5   6
ATOM      6  C   UNL A   1      32.763  25.015  25.624  1.00  0.00     0.020 C 
ATOM      7  C   UNL A   1      31.338  25.556  25.369  1.00  0.00     0.010 C 
BRANCH   6   8
ATOM      8  C   UNL A   1      33.712  26.228  25.794  1.00  0.00     0.002 C 
ATOM      9  C   UNL A   1      33.148  27.504  25.167  1.00  0.00     0.004 C 
ENDBRANCH   6   8
ENDBRANCH   5   6
BRANCH   5  10
ATOM     10  N   UNL A   1      33.104  22.521  24.974  1.00  0.00    -0.278 N 
ATOM     11  C   UNL A   1      32.727  21.568  24.021  1.00  0.00     0.267 C 
ATOM     12  C   UNL A   1      33.484  21.990  26.201  1.00  0.00     0.149 C 
ATOM     13  O   UNL A   1      32.292  21.807  22.902  1.00  0.00    -0.268 OA
ATOM     14  C   UNL A   1      32.904  20.186  24.549  1.00  0.00     0.081 C 
ATOM     15  S   UNL A   1      33.158  20.261  26.240  1.00  0.00    -0.054 SA
ATOM     16  S   UNL A   1      34.154  22.690  27.557  1.00  0.00    -0.052 S 
ATOM     17  C   UNL A   1      32.913  19.075  23.795  1.00  0.00     0.029 C 
BRANCH  17  18
ATOM     18  C   UNL A   1      33.069  17.719  24.346  1.00  0.00    -0.024 A 
ATOM     19  C   UNL A   1      32.025  17.090  25.033  1.00  0.00     0.012 A 
ATOM     20  C   UNL A   1      34.259  17.014  24.119  1.00  0.00     0.012 A 
ATOM     21  C   UNL A   1      32.162  15.767  25.466  1.00  0.00     0.047 A 
ATOM     22  C   UNL A   1      34.398  15.693  24.557  1.00  0.00     0.047 A 
ATOM     23  C   UNL A   1      33.343  15.078  25.221  1.00  0.00     0.115 A 
BRANCH  23  24
ATOM     24  O   UNL A   1      33.425  13.788  25.648  1.00  0.00    -0.508 OA
ATOM     25  H   UNL A   1      33.791  13.132  25.089  1.00  0.00     0.293 HD
ENDBRANCH  23  24
ENDBRANCH  17  18
ENDBRANCH   5  10
ENDBRANCH   3   5
ENDBRANCH   2   3
ENDBRANCH   1   2
BRANCH   1  26
ATOM     26  C   UNL A   1      36.596  21.520  24.407  1.00  0.00     0.275 C 
BRANCH  26  27
ATOM     27  O   UNL A   1      37.104  21.865  25.706  1.00  0.00    -0.458 OA
BRANCH  27  28
ATOM     28  C   UNL A   1      38.396  21.529  25.917  1.00  0.00     0.338 C 
ATOM     29  O   UNL A   1      38.944  20.486  25.595  1.00  0.00    -0.246 OA
BRANCH  28  30
ATOM     30  C   UNL A   1      39.105  22.689  26.469  1.00  0.00     0.060 A 
ATOM     31  C   UNL A   1      38.644  23.957  26.126  1.00  0.00     0.016 A 
ATOM     32  C   UNL A   1      40.259  22.543  27.234  1.00  0.00     0.016 A 
ATOM     33  C   UNL A   1      39.353  25.088  26.489  1.00  0.00     0.010 A 
ATOM     34  C   UNL A   1      40.949  23.690  27.650  1.00  0.00     0.010 A 
ATOM     35  C   UNL A   1      40.507  24.968  27.263  1.00  0.00    -0.014 A 
BRANCH  35  36
ATOM     36  C   UNL A   1      41.270  26.193  27.595  1.00  0.00     0.031 A 
ATOM     37  C   UNL A   1      40.693  27.169  28.576  1.00  0.00     0.074 A 
ATOM     38  C   UNL A   1      42.509  26.371  27.096  1.00  0.00     0.049 A 
ATOM     39  N   UNL A   1      41.098  28.373  28.877  1.00  0.00    -0.248 NA
ATOM     40  C   UNL A   1      39.496  26.731  29.311  1.00  0.00     0.031 C 
ATOM     41  C   UNL A   1      43.221  25.410  26.252  1.00  0.00     0.029 A 
ATOM     42  N   UNL A   1      43.409  27.391  27.265  1.00  0.00    -0.354 N 
ATOM     43  C   UNL A   1      40.164  28.870  29.778  1.00  0.00     0.074 A 
ATOM     44  C   UNL A   1      39.191  27.821  30.000  1.00  0.00     0.031 C 
ATOM     45  C   UNL A   1      44.472  25.851  26.044  1.00  0.00     0.029 A 
ATOM     46  C   UNL A   1      44.616  27.176  26.638  1.00  0.00     0.049 A 
ATOM     47  H   UNL A   1      43.210  28.204  27.784  1.00  0.00     0.167 HD
ATOM     48  C   UNL A   1      40.115  30.107  30.329  1.00  0.00     0.034 A 
ATOM     49  C   UNL A   1      45.698  27.975  26.535  1.00  0.00     0.034 A 
ATOM     50  C   UNL A   1      41.124  31.112  30.096  1.00  0.00     0.049 A 
ATOM     51  C   UNL A   1      45.605  29.362  27.125  1.00  0.00     0.074 A 
ATOM     52  C   UNL A   1      41.143  32.436  30.500  1.00  0.00     0.029 A 
ATOM     53  N   UNL A   1      42.313  30.890  29.410  1.00  0.00    -0.354 N 
ATOM     54  N   UNL A   1      44.631  29.896  27.827  1.00  0.00    -0.248 NA
ATOM     55  C   UNL A   1      46.731  30.269  26.871  1.00  0.00     0.031 C 
ATOM     56  C   UNL A   1      42.313  33.026  30.008  1.00  0.00     0.029 A 
ATOM     57  C   UNL A   1      43.060  32.055  29.360  1.00  0.00     0.049 A 
ATOM     58  H   UNL A   1      42.583  30.030  29.015  1.00  0.00     0.167 HD
ATOM     59  C   UNL A   1      45.030  31.200  28.101  1.00  0.00     0.074 A 
ATOM     60  C   UNL A   1      46.345  31.362  27.515  1.00  0.00     0.031 C 
ATOM     61  C   UNL A   1      44.368  32.183  28.761  1.00  0.00     0.034 A 
BRANCH  48  62
ATOM     62  C   UNL A   1      38.874  30.467  31.108  1.00  0.00     0.023 A 
ATOM     63  C   UNL A   1      37.742  31.047  30.511  1.00  0.00     0.031 A 
ATOM     64  C   UNL A   1      38.859  30.277  32.504  1.00  0.00     0.131 A 
ATOM     65  C   UNL A   1      36.671  31.472  31.315  1.00  0.00     0.055 A 
ATOM     66  C   UNL A   1      37.761  30.636  33.287  1.00  0.00     0.041 A 
ATOM     67  F   UNL A   1      39.924  29.757  33.135  1.00  0.00    -0.206 F 
ATOM     68  C   UNL A   1      36.663  31.250  32.695  1.00  0.00     0.022 A 
BRANCH  65  69
ATOM     69  S   UNL A   1      35.343  32.449  30.556  1.00  0.00     0.124 S 
ATOM     70  O   UNL A   1      35.109  31.718  29.313  1.00  0.00    -0.237 OA
ATOM     71  O   UNL A   1      34.282  32.370  31.554  1.00  0.00    -0.237 OA
ATOM     72  O   UNL A   1      35.942  33.772  30.388  1.00  0.00    -0.744 OA
ENDBRANCH  65  69
ENDBRANCH  48  62
BRANCH  49  73
ATOM     73  C   UNL A   1      46.923  27.530  25.802  1.00  0.00     0.023 A 
ATOM     74  C   UNL A   1      47.127  27.883  24.458  1.00  0.00     0.031 A 
ATOM     75  C   UNL A   1      47.887  26.707  26.413  1.00  0.00     0.131 A 
ATOM     76  C   UNL A   1      48.241  27.386  23.761  1.00  0.00     0.055 A 
ATOM     77  C   UNL A   1      49.030  26.273  25.738  1.00  0.00     0.041 A 
ATOM     78  F   UNL A   1      47.741  26.316  27.690  1.00  0.00    -0.206 F 
ATOM     79  C   UNL A   1      49.205  26.601  24.398  1.00  0.00     0.022 A 
BRANCH  76  80
ATOM     80  S   UNL A   1      48.361  27.682  21.975  1.00  0.00     0.124 S 
ATOM     81  O   UNL A   1      47.051  28.252  21.679  1.00  0.00    -0.237 OA
ATOM     82  O   UNL A   1      49.494  28.597  21.892  1.00  0.00    -0.237 OA
ATOM     83  O   UNL A   1      48.598  26.349  21.424  1.00  0.00    -0.744 OA
ENDBRANCH  76  80
ENDBRANCH  49  73
BRANCH  61  84
ATOM     84  C   UNL A   1      45.070  33.507  28.899  1.00  0.00     0.023 A 
ATOM     85  C   UNL A   1      45.977  33.752  29.945  1.00  0.00     0.031 A 
ATOM     86  C   UNL A   1      44.852  34.523  27.952  1.00  0.00     0.131 A 
ATOM     87  C   UNL A   1      46.609  35.000  30.039  1.00  0.00     0.055 A 
ATOM     88  C   UNL A   1      45.517  35.746  28.026  1.00  0.00     0.041 A 
ATOM     89  F   UNL A   1      43.999  34.334  26.934  1.00  0.00    -0.206 F 
ATOM     90  C   UNL A   1      46.396  35.992  29.077  1.00  0.00     0.022 A 
BRANCH  87  91
ATOM     91  S   UNL A   1      47.691  35.328  31.458  1.00  0.00     0.124 S 
ATOM     92  O   UNL A   1      49.018  35.173  30.871  1.00  0.00    -0.237 OA
ATOM     93  O   UNL A   1      47.315  36.688  31.833  1.00  0.00    -0.237 OA
ATOM     94  O   UNL A   1      47.314  34.296  32.422  1.00  0.00    -0.744 OA
ENDBRANCH  87  91
ENDBRANCH  61  84
ENDBRANCH  35  36
ENDBRANCH  28  30
ENDBRANCH  27  28
ENDBRANCH  26  27
ENDBRANCH   1  26
TORSDOF 19
ENDMDL
