MODEL 1
REMARK VINA RESULT:     -10.8      0.000      0.000
REMARK SMILES CC(C)(C)OC(=O)[C@@H]1[NH2+][C@H](C(=O)OCCOC(=O)c2ccc(-c3c4nc(c(-c5cc(S(=O)(=O)[O-])ccc5F)c5ccc([nH]5)c(-c5cc(S(=O)(=O)[O-])ccc5F)c5nc(c(-c6cc(S(=O)(=O)[O-])ccc6F)c6ccc3[nH]6)C=C5)C=C4)cc2)C(C)(C)S1
REMARK SMILES IDX 14 1 13 2 11 3 12 4 10 5 8 6 9 7 85 8 82 11 83 12 84 13 6 14
REMARK SMILES IDX 7 15 5 16 2 17 1 18 3 19 4 20 15 21 16 22 17 23 18 24 19 25
REMARK SMILES IDX 20 26 81 27 21 28 80 29 22 30 23 31 24 32 74 33 25 34 79 35
REMARK SMILES IDX 73 36 75 37 26 38 78 39 72 40 71 41 27 43 59 44 39 45 58 46
REMARK SMILES IDX 40 47 43 48 57 49 76 50 41 51 42 52 56 54 77 55 44 56 28 57
REMARK SMILES IDX 29 58 37 59 30 60 36 61 38 62 35 63 31 64 32 65 33 66 34 67
REMARK SMILES IDX 60 68 61 69 69 70 62 71 68 72 70 73 67 74 63 75 64 76 65 77
REMARK SMILES IDX 66 78 45 79 46 80 54 81 47 82 53 83 55 84 52 85 48 86 49 87
REMARK SMILES IDX 50 88 51 89
REMARK H PARENT 9 9 9 10 75 42 43 53
REMARK Flexibility Score: inf
ROOT
ATOM      1  C   UNL A   1      33.652  28.912  25.208  1.00  0.00     0.274 C 
ENDROOT
BRANCH   1   2
ATOM      2  O   UNL A   1      33.059  27.873  24.411  1.00  0.00    -0.458 OA
BRANCH   2   3
ATOM      3  C   UNL A   1      32.651  26.774  25.104  1.00  0.00     0.366 C 
ATOM      4  O   UNL A   1      33.235  26.309  26.079  1.00  0.00    -0.245 OA
BRANCH   3   5
ATOM      5  C   UNL A   1      31.406  26.100  24.515  1.00  0.00     0.310 C 
ATOM      6  C   UNL A   1      30.242  27.457  22.866  1.00  0.00     0.354 C 
ATOM      7  N   UNL A   1      30.292  27.052  24.287  1.00  0.00    -0.313 N 
ATOM      8  S   UNL A   1      31.414  26.452  21.909  1.00  0.00    -0.074 SA
ATOM      9  H   UNL A   1      29.411  26.607  24.541  1.00  0.00     0.348 HD
ATOM     10  H   UNL A   1      30.443  27.882  24.862  1.00  0.00     0.348 HD
ATOM     11  C   UNL A   1      31.684  25.261  23.259  1.00  0.00     0.079 C 
ATOM     12  C   UNL A   1      30.659  24.123  23.132  1.00  0.00     0.030 C 
ATOM     13  C   UNL A   1      33.099  24.682  23.180  1.00  0.00     0.030 C 
BRANCH   6  14
ATOM     14  C   UNL A   1      30.361  28.987  22.713  1.00  0.00     0.376 C 
ATOM     15  O   UNL A   1      31.271  29.516  22.082  1.00  0.00    -0.244 OA
BRANCH  14  16
ATOM     16  O   UNL A   1      29.411  29.674  23.402  1.00  0.00    -0.455 OA
BRANCH  16  17
ATOM     17  C   UNL A   1      28.122  29.990  22.814  1.00  0.00     0.104 C 
ATOM     18  C   UNL A   1      27.682  31.276  23.531  1.00  0.00     0.056 C 
ATOM     19  C   UNL A   1      27.112  28.887  23.127  1.00  0.00     0.056 C 
ATOM     20  C   UNL A   1      28.185  30.270  21.308  1.00  0.00     0.056 C 
ENDBRANCH  16  17
ENDBRANCH  14  16
ENDBRANCH   6  14
ENDBRANCH   3   5
ENDBRANCH   2   3
ENDBRANCH   1   2
BRANCH   1  21
ATOM     21  C   UNL A   1      32.659  30.035  25.501  1.00  0.00     0.275 C 
BRANCH  21  22
ATOM     22  O   UNL A   1      32.608  30.325  26.903  1.00  0.00    -0.458 OA
BRANCH  22  23
ATOM     23  C   UNL A   1      33.180  31.499  27.261  1.00  0.00     0.338 C 
ATOM     24  O   UNL A   1      32.779  32.627  27.028  1.00  0.00    -0.246 OA
BRANCH  23  25
ATOM     25  C   UNL A   1      34.440  31.207  27.943  1.00  0.00     0.060 A 
ATOM     26  C   UNL A   1      35.439  32.180  28.016  1.00  0.00     0.016 A 
ATOM     27  C   UNL A   1      34.626  29.941  28.492  1.00  0.00     0.016 A 
ATOM     28  C   UNL A   1      36.640  31.887  28.655  1.00  0.00     0.010 A 
ATOM     29  C   UNL A   1      35.814  29.659  29.160  1.00  0.00     0.010 A 
ATOM     30  C   UNL A   1      36.827  30.631  29.247  1.00  0.00    -0.014 A 
BRANCH  30  31
ATOM     31  C   UNL A   1      38.079  30.315  29.967  1.00  0.00     0.031 A 
ATOM     32  C   UNL A   1      39.063  29.362  29.358  1.00  0.00     0.074 A 
ATOM     33  C   UNL A   1      38.294  30.855  31.180  1.00  0.00     0.049 A 
ATOM     34  N   UNL A   1      40.129  28.823  29.885  1.00  0.00    -0.248 NA
ATOM     35  C   UNL A   1      38.801  28.954  27.969  1.00  0.00     0.031 C 
ATOM     36  C   UNL A   1      37.412  31.822  31.840  1.00  0.00     0.029 A 
ATOM     37  N   UNL A   1      39.307  30.659  32.082  1.00  0.00    -0.354 N 
ATOM     38  C   UNL A   1      40.666  28.003  28.900  1.00  0.00     0.074 A 
ATOM     39  C   UNL A   1      39.784  28.091  27.754  1.00  0.00     0.031 C 
ATOM     40  C   UNL A   1      37.922  32.130  33.043  1.00  0.00     0.029 A 
ATOM     41  C   UNL A   1      39.128  31.339  33.264  1.00  0.00     0.049 A 
ATOM     42  H   UNL A   1      40.087  30.088  31.901  1.00  0.00     0.167 HD
ATOM     43  C   UNL A   1      41.793  27.252  28.952  1.00  0.00     0.034 A 
ATOM     44  C   UNL A   1      39.836  31.294  34.409  1.00  0.00     0.034 A 
ATOM     45  C   UNL A   1      42.639  27.168  30.119  1.00  0.00     0.049 A 
ATOM     46  C   UNL A   1      41.038  30.385  34.471  1.00  0.00     0.074 A 
ATOM     47  C   UNL A   1      43.789  26.420  30.305  1.00  0.00     0.029 A 
ATOM     48  N   UNL A   1      42.420  27.857  31.306  1.00  0.00    -0.354 N 
ATOM     49  N   UNL A   1      41.521  29.591  33.543  1.00  0.00    -0.248 NA
ATOM     50  C   UNL A   1      41.789  30.367  35.732  1.00  0.00     0.031 C 
ATOM     51  C   UNL A   1      44.234  26.617  31.617  1.00  0.00     0.029 A 
ATOM     52  C   UNL A   1      43.403  27.541  32.232  1.00  0.00     0.049 A 
ATOM     53  H   UNL A   1      41.675  28.481  31.467  1.00  0.00     0.167 HD
ATOM     54  C   UNL A   1      42.653  29.002  34.100  1.00  0.00     0.074 A 
ATOM     55  C   UNL A   1      42.785  29.547  35.437  1.00  0.00     0.031 C 
ATOM     56  C   UNL A   1      43.507  28.096  33.560  1.00  0.00     0.034 A 
BRANCH  43  57
ATOM     57  C   UNL A   1      42.134  26.433  27.730  1.00  0.00     0.023 A 
ATOM     58  C   UNL A   1      41.675  25.112  27.580  1.00  0.00     0.031 A 
ATOM     59  C   UNL A   1      42.958  26.962  26.722  1.00  0.00     0.131 A 
ATOM     60  C   UNL A   1      42.100  24.343  26.485  1.00  0.00     0.055 A 
ATOM     61  C   UNL A   1      43.316  26.217  25.597  1.00  0.00     0.041 A 
ATOM     62  F   UNL A   1      43.444  28.209  26.822  1.00  0.00    -0.206 F 
ATOM     63  C   UNL A   1      42.899  24.895  25.480  1.00  0.00     0.022 A 
BRANCH  60  64
ATOM     64  S   UNL A   1      41.701  22.573  26.459  1.00  0.00     0.124 S 
ATOM     65  O   UNL A   1      42.363  22.140  25.231  1.00  0.00    -0.237 OA
ATOM     66  O   UNL A   1      42.292  22.099  27.704  1.00  0.00    -0.237 OA
ATOM     67  O   UNL A   1      40.241  22.552  26.414  1.00  0.00    -0.744 OA
ENDBRANCH  60  64
ENDBRANCH  43  57
BRANCH  44  68
ATOM     68  C   UNL A   1      39.416  32.091  35.597  1.00  0.00     0.023 A 
ATOM     69  C   UNL A   1      38.657  31.509  36.624  1.00  0.00     0.031 A 
ATOM     70  C   UNL A   1      39.722  33.460  35.699  1.00  0.00     0.131 A 
ATOM     71  C   UNL A   1      38.186  32.303  37.682  1.00  0.00     0.055 A 
ATOM     72  C   UNL A   1      39.300  34.233  36.783  1.00  0.00     0.041 A 
ATOM     73  F   UNL A   1      40.446  34.068  34.745  1.00  0.00    -0.206 F 
ATOM     74  C   UNL A   1      38.515  33.657  37.775  1.00  0.00     0.022 A 
BRANCH  71  75
ATOM     75  S   UNL A   1      37.053  31.558  38.886  1.00  0.00     0.124 S 
ATOM     76  O   UNL A   1      36.843  30.232  38.316  1.00  0.00    -0.237 OA
ATOM     77  O   UNL A   1      37.839  31.611  40.114  1.00  0.00    -0.237 OA
ATOM     78  O   UNL A   1      35.891  32.442  38.852  1.00  0.00    -0.744 OA
ENDBRANCH  71  75
ENDBRANCH  44  68
BRANCH  56  79
ATOM     79  C   UNL A   1      44.684  27.691  34.410  1.00  0.00     0.023 A 
ATOM     80  C   UNL A   1      44.629  26.579  35.268  1.00  0.00     0.031 A 
ATOM     81  C   UNL A   1      45.868  28.448  34.378  1.00  0.00     0.131 A 
ATOM     82  C   UNL A   1      45.718  26.290  36.104  1.00  0.00     0.055 A 
ATOM     83  C   UNL A   1      46.969  28.122  35.170  1.00  0.00     0.041 A 
ATOM     84  F   UNL A   1      45.971  29.521  33.577  1.00  0.00    -0.206 F 
ATOM     85  C   UNL A   1      46.892  27.045  36.049  1.00  0.00     0.022 A 
BRANCH  82  86
ATOM     86  S   UNL A   1      45.544  24.966  37.332  1.00  0.00     0.124 S 
ATOM     87  O   UNL A   1      46.375  25.456  38.426  1.00  0.00    -0.237 OA
ATOM     88  O   UNL A   1      44.106  24.955  37.578  1.00  0.00    -0.237 OA
ATOM     89  O   UNL A   1      46.062  23.787  36.639  1.00  0.00    -0.744 OA
ENDBRANCH  82  86
ENDBRANCH  56  79
ENDBRANCH  30  31
ENDBRANCH  23  25
ENDBRANCH  22  23
ENDBRANCH  21  22
ENDBRANCH   1  21
TORSDOF 17
ENDMDL
MODEL 2
REMARK VINA RESULT:     -10.7      5.272     10.232
REMARK SMILES CC(C)(C)OC(=O)[C@@H]1[NH2+][C@H](C(=O)OCCOC(=O)c2ccc(-c3c4nc(c(-c5cc(S(=O)(=O)[O-])ccc5F)c5ccc([nH]5)c(-c5cc(S(=O)(=O)[O-])ccc5F)c5nc(c(-c6cc(S(=O)(=O)[O-])ccc6F)c6ccc3[nH]6)C=C5)C=C4)cc2)C(C)(C)S1
REMARK SMILES IDX 14 1 13 2 11 3 12 4 10 5 8 6 9 7 85 8 82 11 83 12 84 13 6 14
REMARK SMILES IDX 7 15 5 16 2 17 1 18 3 19 4 20 15 21 16 22 17 23 18 24 19 25
REMARK SMILES IDX 20 26 81 27 21 28 80 29 22 30 23 31 24 32 74 33 25 34 79 35
REMARK SMILES IDX 73 36 75 37 26 38 78 39 72 40 71 41 27 43 59 44 39 45 58 46
REMARK SMILES IDX 40 47 43 48 57 49 76 50 41 51 42 52 56 54 77 55 44 56 28 57
REMARK SMILES IDX 29 58 37 59 30 60 36 61 38 62 35 63 31 64 32 65 33 66 34 67
REMARK SMILES IDX 60 68 61 69 69 70 62 71 68 72 70 73 67 74 63 75 64 76 65 77
REMARK SMILES IDX 66 78 45 79 46 80 54 81 47 82 53 83 55 84 52 85 48 86 49 87
REMARK SMILES IDX 50 88 51 89
REMARK H PARENT 9 9 9 10 75 42 43 53
REMARK Flexibility Score: inf
ROOT
ATOM      1  C   UNL A   1      35.120  20.736  25.336  1.00  0.00     0.274 C 
ENDROOT
BRANCH   1   2
ATOM      2  O   UNL A   1      34.759  21.743  26.297  1.00  0.00    -0.458 OA
BRANCH   2   3
ATOM      3  C   UNL A   1      34.341  22.925  25.767  1.00  0.00     0.366 C 
ATOM      4  O   UNL A   1      34.757  24.028  26.110  1.00  0.00    -0.245 OA
BRANCH   3   5
ATOM      5  C   UNL A   1      33.227  22.774  24.724  1.00  0.00     0.310 C 
ATOM      6  C   UNL A   1      31.620  24.599  24.733  1.00  0.00     0.354 C 
ATOM      7  N   UNL A   1      31.908  23.235  25.222  1.00  0.00    -0.313 N 
ATOM      8  S   UNL A   1      32.884  25.088  23.522  1.00  0.00    -0.074 SA
ATOM      9  H   UNL A   1      31.183  22.599  24.892  1.00  0.00     0.348 HD
ATOM     10  H   UNL A   1      31.926  23.247  26.242  1.00  0.00     0.348 HD
ATOM     11  C   UNL A   1      33.556  23.404  23.363  1.00  0.00     0.079 C 
ATOM     12  C   UNL A   1      32.809  22.674  22.235  1.00  0.00     0.030 C 
ATOM     13  C   UNL A   1      35.050  23.460  23.030  1.00  0.00     0.030 C 
BRANCH   6  14
ATOM     14  C   UNL A   1      31.372  25.575  25.901  1.00  0.00     0.376 C 
ATOM     15  O   UNL A   1      31.235  25.192  27.059  1.00  0.00    -0.244 OA
BRANCH  14  16
ATOM     16  O   UNL A   1      31.248  26.870  25.507  1.00  0.00    -0.455 OA
BRANCH  16  17
ATOM     17  C   UNL A   1      32.012  27.934  26.132  1.00  0.00     0.104 C 
ATOM     18  C   UNL A   1      33.422  27.347  26.290  1.00  0.00     0.056 C 
ATOM     19  C   UNL A   1      31.453  28.242  27.521  1.00  0.00     0.056 C 
ATOM     20  C   UNL A   1      32.105  29.206  25.281  1.00  0.00     0.056 C 
ENDBRANCH  16  17
ENDBRANCH  14  16
ENDBRANCH   6  14
ENDBRANCH   3   5
ENDBRANCH   2   3
ENDBRANCH   1   2
BRANCH   1  21
ATOM     21  C   UNL A   1      36.599  20.818  24.963  1.00  0.00     0.275 C 
BRANCH  21  22
ATOM     22  O   UNL A   1      37.356  21.464  25.994  1.00  0.00    -0.458 OA
BRANCH  22  23
ATOM     23  C   UNL A   1      38.683  21.195  25.976  1.00  0.00     0.338 C 
ATOM     24  O   UNL A   1      39.228  20.140  25.697  1.00  0.00    -0.246 OA
BRANCH  23  25
ATOM     25  C   UNL A   1      39.400  22.388  26.421  1.00  0.00     0.060 A 
ATOM     26  C   UNL A   1      40.500  22.268  27.273  1.00  0.00     0.016 A 
ATOM     27  C   UNL A   1      38.950  23.636  25.997  1.00  0.00     0.016 A 
ATOM     28  C   UNL A   1      41.166  23.411  27.702  1.00  0.00     0.010 A 
ATOM     29  C   UNL A   1      39.638  24.778  26.399  1.00  0.00     0.010 A 
ATOM     30  C   UNL A   1      40.750  24.672  27.253  1.00  0.00    -0.014 A 
BRANCH  30  31
ATOM     31  C   UNL A   1      41.472  25.896  27.664  1.00  0.00     0.031 A 
ATOM     32  C   UNL A   1      40.758  26.941  28.467  1.00  0.00     0.074 A 
ATOM     33  C   UNL A   1      42.747  26.070  27.271  1.00  0.00     0.049 A 
ATOM     34  N   UNL A   1      41.144  28.147  28.785  1.00  0.00    -0.248 NA
ATOM     35  C   UNL A   1      39.424  26.578  28.970  1.00  0.00     0.031 C 
ATOM     36  C   UNL A   1      43.538  25.093  26.517  1.00  0.00     0.029 A 
ATOM     37  N   UNL A   1      43.597  27.133  27.432  1.00  0.00    -0.354 N 
ATOM     38  C   UNL A   1      40.100  28.698  29.519  1.00  0.00     0.074 A 
ATOM     39  C   UNL A   1      39.050  27.701  29.567  1.00  0.00     0.031 C 
ATOM     40  C   UNL A   1      44.755  25.605  26.279  1.00  0.00     0.029 A 
ATOM     41  C   UNL A   1      44.810  26.965  26.806  1.00  0.00     0.049 A 
ATOM     42  H   UNL A   1      43.362  27.938  27.947  1.00  0.00     0.167 HD
ATOM     43  C   UNL A   1      40.033  29.921  30.099  1.00  0.00     0.034 A 
ATOM     44  C   UNL A   1      45.831  27.828  26.643  1.00  0.00     0.034 A 
ATOM     45  C   UNL A   1      41.089  30.900  30.014  1.00  0.00     0.049 A 
ATOM     46  C   UNL A   1      45.696  29.213  27.225  1.00  0.00     0.074 A 
ATOM     47  C   UNL A   1      41.127  32.183  30.533  1.00  0.00     0.029 A 
ATOM     48  N   UNL A   1      42.299  30.705  29.357  1.00  0.00    -0.354 N 
ATOM     49  N   UNL A   1      44.692  29.735  27.892  1.00  0.00    -0.248 NA
ATOM     50  C   UNL A   1      46.831  30.123  27.032  1.00  0.00     0.031 C 
ATOM     51  C   UNL A   1      42.334  32.778  30.147  1.00  0.00     0.029 A 
ATOM     52  C   UNL A   1      43.082  31.845  29.445  1.00  0.00     0.049 A 
ATOM     53  H   UNL A   1      42.562  29.875  28.897  1.00  0.00     0.167 HD
ATOM     54  C   UNL A   1      45.089  31.026  28.226  1.00  0.00     0.074 A 
ATOM     55  C   UNL A   1      46.429  31.194  27.699  1.00  0.00     0.031 C 
ATOM     56  C   UNL A   1      44.413  31.986  28.906  1.00  0.00     0.034 A 
BRANCH  43  57
ATOM     57  C   UNL A   1      38.756  30.270  30.827  1.00  0.00     0.023 A 
ATOM     58  C   UNL A   1      37.699  30.935  30.179  1.00  0.00     0.031 A 
ATOM     59  C   UNL A   1      38.608  29.971  32.192  1.00  0.00     0.131 A 
ATOM     60  C   UNL A   1      36.573  31.340  30.912  1.00  0.00     0.055 A 
ATOM     61  C   UNL A   1      37.452  30.311  32.898  1.00  0.00     0.041 A 
ATOM     62  F   UNL A   1      39.591  29.358  32.868  1.00  0.00    -0.206 F 
ATOM     63  C   UNL A   1      36.432  31.012  32.262  1.00  0.00     0.022 A 
BRANCH  60  64
ATOM     64  S   UNL A   1      35.355  32.417  30.107  1.00  0.00     0.124 S 
ATOM     65  O   UNL A   1      36.173  33.573  29.749  1.00  0.00    -0.237 OA
ATOM     66  O   UNL A   1      34.892  31.594  28.995  1.00  0.00    -0.237 OA
ATOM     67  O   UNL A   1      34.367  32.661  31.155  1.00  0.00    -0.744 OA
ENDBRANCH  60  64
ENDBRANCH  43  57
BRANCH  44  68
ATOM     68  C   UNL A   1      47.043  27.436  25.869  1.00  0.00     0.023 A 
ATOM     69  C   UNL A   1      47.185  27.793  24.520  1.00  0.00     0.031 A 
ATOM     70  C   UNL A   1      48.057  26.653  26.453  1.00  0.00     0.131 A 
ATOM     71  C   UNL A   1      48.286  27.327  23.783  1.00  0.00     0.055 A 
ATOM     72  C   UNL A   1      49.179  26.241  25.732  1.00  0.00     0.041 A 
ATOM     73  F   UNL A   1      47.973  26.284  27.741  1.00  0.00    -0.206 F 
ATOM     74  C   UNL A   1      49.290  26.565  24.385  1.00  0.00     0.022 A 
BRANCH  71  75
ATOM     75  S   UNL A   1      48.335  27.651  22.000  1.00  0.00     0.124 S 
ATOM     76  O   UNL A   1      48.533  26.311  21.459  1.00  0.00    -0.237 OA
ATOM     77  O   UNL A   1      47.026  28.249  21.766  1.00  0.00    -0.237 OA
ATOM     78  O   UNL A   1      49.471  28.558  21.850  1.00  0.00    -0.744 OA
ENDBRANCH  71  75
ENDBRANCH  44  68
BRANCH  56  79
ATOM     79  C   UNL A   1      45.149  33.278  29.157  1.00  0.00     0.023 A 
ATOM     80  C   UNL A   1      45.071  34.359  28.263  1.00  0.00     0.031 A 
ATOM     81  C   UNL A   1      45.962  33.414  30.296  1.00  0.00     0.131 A 
ATOM     82  C   UNL A   1      45.841  35.509  28.492  1.00  0.00     0.055 A 
ATOM     83  C   UNL A   1      46.680  34.583  30.549  1.00  0.00     0.041 A 
ATOM     84  F   UNL A   1      46.072  32.410  31.181  1.00  0.00    -0.206 F 
ATOM     85  C   UNL A   1      46.632  35.634  29.637  1.00  0.00     0.022 A 
BRANCH  82  86
ATOM     86  S   UNL A   1      45.863  36.807  27.225  1.00  0.00     0.124 S 
ATOM     87  O   UNL A   1      46.608  36.166  26.147  1.00  0.00    -0.237 OA
ATOM     88  O   UNL A   1      44.442  37.026  26.977  1.00  0.00    -0.237 OA
ATOM     89  O   UNL A   1      46.554  37.916  27.883  1.00  0.00    -0.744 OA
ENDBRANCH  82  86
ENDBRANCH  56  79
ENDBRANCH  30  31
ENDBRANCH  23  25
ENDBRANCH  22  23
ENDBRANCH  21  22
ENDBRANCH   1  21
TORSDOF 17
ENDMDL
MODEL 3
REMARK VINA RESULT:     -10.6      5.651     10.586
REMARK SMILES CC(C)(C)OC(=O)[C@@H]1[NH2+][C@H](C(=O)OCCOC(=O)c2ccc(-c3c4nc(c(-c5cc(S(=O)(=O)[O-])ccc5F)c5ccc([nH]5)c(-c5cc(S(=O)(=O)[O-])ccc5F)c5nc(c(-c6cc(S(=O)(=O)[O-])ccc6F)c6ccc3[nH]6)C=C5)C=C4)cc2)C(C)(C)S1
REMARK SMILES IDX 14 1 13 2 11 3 12 4 10 5 8 6 9 7 85 8 82 11 83 12 84 13 6 14
REMARK SMILES IDX 7 15 5 16 2 17 1 18 3 19 4 20 15 21 16 22 17 23 18 24 19 25
REMARK SMILES IDX 20 26 81 27 21 28 80 29 22 30 23 31 24 32 74 33 25 34 79 35
REMARK SMILES IDX 73 36 75 37 26 38 78 39 72 40 71 41 27 43 59 44 39 45 58 46
REMARK SMILES IDX 40 47 43 48 57 49 76 50 41 51 42 52 56 54 77 55 44 56 28 57
REMARK SMILES IDX 29 58 37 59 30 60 36 61 38 62 35 63 31 64 32 65 33 66 34 67
REMARK SMILES IDX 60 68 61 69 69 70 62 71 68 72 70 73 67 74 63 75 64 76 65 77
REMARK SMILES IDX 66 78 45 79 46 80 54 81 47 82 53 83 55 84 52 85 48 86 49 87
REMARK SMILES IDX 50 88 51 89
REMARK H PARENT 9 9 9 10 75 42 43 53
REMARK Flexibility Score: inf
ROOT
ATOM      1  C   UNL A   1      36.212  22.629  23.770  1.00  0.00     0.274 C 
ENDROOT
BRANCH   1   2
ATOM      2  O   UNL A   1      34.814  22.447  23.487  1.00  0.00    -0.458 OA
BRANCH   2   3
ATOM      3  C   UNL A   1      34.085  23.594  23.413  1.00  0.00     0.366 C 
ATOM      4  O   UNL A   1      34.390  24.571  22.735  1.00  0.00    -0.245 OA
BRANCH   3   5
ATOM      5  C   UNL A   1      32.850  23.600  24.322  1.00  0.00     0.310 C 
ATOM      6  C   UNL A   1      32.033  21.378  24.881  1.00  0.00     0.354 C 
ATOM      7  N   UNL A   1      31.877  22.535  23.974  1.00  0.00    -0.313 N 
ATOM      8  S   UNL A   1      33.191  21.804  26.213  1.00  0.00    -0.074 SA
ATOM      9  H   UNL A   1      30.930  22.904  24.058  1.00  0.00     0.348 HD
ATOM     10  H   UNL A   1      32.050  22.230  23.016  1.00  0.00     0.348 HD
ATOM     11  C   UNL A   1      33.178  23.582  25.822  1.00  0.00     0.079 C 
ATOM     12  C   UNL A   1      32.058  24.261  26.627  1.00  0.00     0.030 C 
ATOM     13  C   UNL A   1      34.523  24.215  26.188  1.00  0.00     0.030 C 
BRANCH   6  14
ATOM     14  C   UNL A   1      32.331  20.085  24.095  1.00  0.00     0.376 C 
ATOM     15  O   UNL A   1      32.469  20.073  22.876  1.00  0.00    -0.244 OA
BRANCH  14  16
ATOM     16  O   UNL A   1      32.348  18.971  24.875  1.00  0.00    -0.455 OA
BRANCH  16  17
ATOM     17  C   UNL A   1      33.224  17.851  24.585  1.00  0.00     0.104 C 
ATOM     18  C   UNL A   1      32.802  17.392  23.181  1.00  0.00     0.056 C 
ATOM     19  C   UNL A   1      32.969  16.709  25.569  1.00  0.00     0.056 C 
ATOM     20  C   UNL A   1      34.710  18.226  24.549  1.00  0.00     0.056 C 
ENDBRANCH  16  17
ENDBRANCH  14  16
ENDBRANCH   6  14
ENDBRANCH   3   5
ENDBRANCH   2   3
ENDBRANCH   1   2
BRANCH   1  21
ATOM     21  C   UNL A   1      36.803  21.420  24.492  1.00  0.00     0.275 C 
BRANCH  21  22
ATOM     22  O   UNL A   1      37.323  21.790  25.775  1.00  0.00    -0.458 OA
BRANCH  22  23
ATOM     23  C   UNL A   1      38.616  21.444  25.984  1.00  0.00     0.338 C 
ATOM     24  O   UNL A   1      39.127  20.345  25.848  1.00  0.00    -0.246 OA
BRANCH  23  25
ATOM     25  C   UNL A   1      39.332  22.619  26.481  1.00  0.00     0.060 A 
ATOM     26  C   UNL A   1      40.378  22.468  27.393  1.00  0.00     0.016 A 
ATOM     27  C   UNL A   1      38.933  23.879  26.043  1.00  0.00     0.016 A 
ATOM     28  C   UNL A   1      41.043  23.593  27.869  1.00  0.00     0.010 A 
ATOM     29  C   UNL A   1      39.620  25.002  26.495  1.00  0.00     0.010 A 
ATOM     30  C   UNL A   1      40.679  24.866  27.409  1.00  0.00    -0.014 A 
BRANCH  30  31
ATOM     31  C   UNL A   1      41.402  26.070  27.872  1.00  0.00     0.031 A 
ATOM     32  C   UNL A   1      40.668  27.118  28.653  1.00  0.00     0.074 A 
ATOM     33  C   UNL A   1      42.698  26.226  27.545  1.00  0.00     0.049 A 
ATOM     34  N   UNL A   1      41.060  28.313  29.006  1.00  0.00    -0.248 NA
ATOM     35  C   UNL A   1      39.304  26.775  29.084  1.00  0.00     0.031 C 
ATOM     36  C   UNL A   1      43.507  25.243  26.818  1.00  0.00     0.029 A 
ATOM     37  N   UNL A   1      43.558  27.270  27.762  1.00  0.00    -0.354 N 
ATOM     38  C   UNL A   1      39.991  28.874  29.694  1.00  0.00     0.074 A 
ATOM     39  C   UNL A   1      38.922  27.897  29.677  1.00  0.00     0.031 C 
ATOM     40  C   UNL A   1      44.744  25.736  26.648  1.00  0.00     0.029 A 
ATOM     41  C   UNL A   1      44.798  27.087  27.195  1.00  0.00     0.049 A 
ATOM     42  H   UNL A   1      43.312  28.072  28.276  1.00  0.00     0.167 HD
ATOM     43  C   UNL A   1      39.917  30.091  30.288  1.00  0.00     0.034 A 
ATOM     44  C   UNL A   1      45.841  27.933  27.094  1.00  0.00     0.034 A 
ATOM     45  C   UNL A   1      40.994  31.051  30.268  1.00  0.00     0.049 A 
ATOM     46  C   UNL A   1      45.703  29.312  27.687  1.00  0.00     0.074 A 
ATOM     47  C   UNL A   1      41.030  32.326  30.806  1.00  0.00     0.029 A 
ATOM     48  N   UNL A   1      42.231  30.841  29.670  1.00  0.00    -0.354 N 
ATOM     49  N   UNL A   1      44.676  29.845  28.311  1.00  0.00    -0.248 NA
ATOM     50  C   UNL A   1      46.862  30.203  27.564  1.00  0.00     0.031 C 
ATOM     51  C   UNL A   1      42.265  32.903  30.488  1.00  0.00     0.029 A 
ATOM     52  C   UNL A   1      43.030  31.965  29.812  1.00  0.00     0.049 A 
ATOM     53  H   UNL A   1      42.502  30.012  29.212  1.00  0.00     0.167 HD
ATOM     54  C   UNL A   1      45.080  31.124  28.682  1.00  0.00     0.074 A 
ATOM     55  C   UNL A   1      46.447  31.273  28.225  1.00  0.00     0.031 C 
ATOM     56  C   UNL A   1      44.389  32.088  29.341  1.00  0.00     0.034 A 
BRANCH  43  57
ATOM     57  C   UNL A   1      38.613  30.454  30.955  1.00  0.00     0.023 A 
ATOM     58  C   UNL A   1      37.583  31.106  30.252  1.00  0.00     0.031 A 
ATOM     59  C   UNL A   1      38.409  30.184  32.320  1.00  0.00     0.131 A 
ATOM     60  C   UNL A   1      36.429  31.526  30.931  1.00  0.00     0.055 A 
ATOM     61  C   UNL A   1      37.226  30.538  32.971  1.00  0.00     0.041 A 
ATOM     62  F   UNL A   1      39.364  29.585  33.048  1.00  0.00    -0.206 F 
ATOM     63  C   UNL A   1      36.233  31.226  32.281  1.00  0.00     0.022 A 
BRANCH  60  64
ATOM     64  S   UNL A   1      35.244  32.586  30.055  1.00  0.00     0.124 S 
ATOM     65  O   UNL A   1      34.284  32.892  31.113  1.00  0.00    -0.237 OA
ATOM     66  O   UNL A   1      36.081  33.695  29.612  1.00  0.00    -0.237 OA
ATOM     67  O   UNL A   1      34.736  31.725  28.990  1.00  0.00    -0.744 OA
ENDBRANCH  60  64
ENDBRANCH  43  57
BRANCH  44  68
ATOM     68  C   UNL A   1      47.083  27.528  26.376  1.00  0.00     0.023 A 
ATOM     69  C   UNL A   1      47.251  27.805  25.011  1.00  0.00     0.031 A 
ATOM     70  C   UNL A   1      48.100  26.810  27.032  1.00  0.00     0.131 A 
ATOM     71  C   UNL A   1      48.383  27.326  24.332  1.00  0.00     0.055 A 
ATOM     72  C   UNL A   1      49.252  26.385  26.365  1.00  0.00     0.041 A 
ATOM     73  F   UNL A   1      47.993  26.517  28.338  1.00  0.00    -0.206 F 
ATOM     74  C   UNL A   1      49.390  26.630  25.004  1.00  0.00     0.022 A 
BRANCH  71  75
ATOM     75  S   UNL A   1      48.470  27.542  22.534  1.00  0.00     0.124 S 
ATOM     76  O   UNL A   1      48.526  26.160  22.071  1.00  0.00    -0.237 OA
ATOM     77  O   UNL A   1      47.232  28.262  22.256  1.00  0.00    -0.237 OA
ATOM     78  O   UNL A   1      49.696  28.314  22.343  1.00  0.00    -0.744 OA
ENDBRANCH  71  75
ENDBRANCH  44  68
BRANCH  56  79
ATOM     79  C   UNL A   1      45.134  33.362  29.645  1.00  0.00     0.023 A 
ATOM     80  C   UNL A   1      45.087  34.470  28.783  1.00  0.00     0.031 A 
ATOM     81  C   UNL A   1      45.926  33.454  30.804  1.00  0.00     0.131 A 
ATOM     82  C   UNL A   1      45.866  35.604  29.062  1.00  0.00     0.055 A 
ATOM     83  C   UNL A   1      46.652  34.605  31.107  1.00  0.00     0.041 A 
ATOM     84  F   UNL A   1      46.006  32.422  31.660  1.00  0.00    -0.206 F 
ATOM     85  C   UNL A   1      46.635  35.684  30.226  1.00  0.00     0.022 A 
BRANCH  82  86
ATOM     86  S   UNL A   1      45.929  36.939  27.836  1.00  0.00     0.124 S 
ATOM     87  O   UNL A   1      47.289  36.816  27.324  1.00  0.00    -0.237 OA
ATOM     88  O   UNL A   1      44.863  36.566  26.913  1.00  0.00    -0.237 OA
ATOM     89  O   UNL A   1      45.670  38.142  28.626  1.00  0.00    -0.744 OA
ENDBRANCH  82  86
ENDBRANCH  56  79
ENDBRANCH  30  31
ENDBRANCH  23  25
ENDBRANCH  22  23
ENDBRANCH  21  22
ENDBRANCH   1  21
TORSDOF 17
ENDMDL
