MODEL 1
REMARK VINA RESULT:     -12.4      0.000      0.000
REMARK SMILES O=C(C[C@H]1S/C(=[NH+]\N=C\c2cc(Br)ccc2OCc2ccccc2)NC1=O)OCCOC(=O)c1ccc(-c2c3nc(c(-c4cc(S(=O)(=O)[O-])ccc4F)c4ccc([nH]4)c(-c4cc(S(=O)(=O)[O-])ccc4F)c4nc(c(-c5cc(S(=O)(=O)[O-])ccc5F)c5ccc2[nH]5)C=C4)C=C3)cc1
REMARK SMILES IDX 28 1 2 2 1 3 3 4 4 5 5 6 26 7 6 8 25 9 27 10 7 11 8 14 9 15
REMARK SMILES IDX 10 16 11 17 16 18 12 19 15 20 13 21 14 22 17 23 18 24 19 25
REMARK SMILES IDX 20 26 24 27 21 28 23 29 22 30 29 31 30 32 31 33 32 34 33 35
REMARK SMILES IDX 34 36 35 37 96 38 36 39 95 40 37 41 38 42 39 43 89 44 40 45
REMARK SMILES IDX 94 46 88 47 90 48 41 49 93 50 87 51 86 52 42 54 74 55 54 56
REMARK SMILES IDX 73 57 55 58 58 59 72 60 91 61 56 62 57 63 71 65 92 66 59 67
REMARK SMILES IDX 43 68 44 69 52 70 45 71 51 72 53 73 50 74 46 75 47 76 48 77
REMARK SMILES IDX 49 78 75 79 76 80 84 81 77 82 83 83 85 84 82 85 78 86 79 87
REMARK SMILES IDX 80 88 81 89 60 90 61 91 69 92 62 93 68 94 70 95 67 96 63 97
REMARK SMILES IDX 64 98 65 99 66 100
REMARK H PARENT 25 12 7 13 90 53 58 64
REMARK Flexibility Score: inf
ROOT
ATOM      1  O   UNL A   1      30.205  30.381  24.290  1.00  0.00    -0.462 OA
ENDROOT
BRANCH   1   2
ATOM      2  C   UNL A   1      30.071  29.821  23.069  1.00  0.00     0.307 C 
ATOM      3  O   UNL A   1      29.111  30.099  22.354  1.00  0.00    -0.252 OA
BRANCH   2   4
ATOM      4  C   UNL A   1      31.111  28.844  22.590  1.00  0.00     0.150 C 
BRANCH   4   5
ATOM      5  C   UNL A   1      30.590  27.421  22.536  1.00  0.00     0.184 C 
ATOM      6  S   UNL A   1      31.961  26.302  23.006  1.00  0.00    -0.020 SA
ATOM      7  C   UNL A   1      29.554  27.173  23.608  1.00  0.00     0.322 C 
ATOM      8  C   UNL A   1      31.397  26.223  24.654  1.00  0.00     0.337 C 
ATOM      9  N   UNL A   1      30.139  26.713  24.749  1.00  0.00    -0.202 N 
ATOM     10  O   UNL A   1      28.352  27.338  23.461  1.00  0.00    -0.246 OA
ATOM     11  N   UNL A   1      31.982  25.754  25.699  1.00  0.00    -0.142 N 
ATOM     12  H   UNL A   1      29.663  26.736  25.609  1.00  0.00     0.316 HD
ATOM     13  H   UNL A   1      31.581  25.805  26.596  1.00  0.00     0.343 HD
BRANCH  11  14
ATOM     14  N   UNL A   1      33.224  25.169  25.472  1.00  0.00    -0.093 NA
ATOM     15  C   UNL A   1      33.258  23.987  25.998  1.00  0.00     0.170 C 
BRANCH  15  16
ATOM     16  C   UNL A   1      34.384  23.083  25.778  1.00  0.00     0.040 A 
ATOM     17  C   UNL A   1      35.652  23.647  25.992  1.00  0.00     0.029 A 
ATOM     18  C   UNL A   1      34.236  21.728  25.451  1.00  0.00     0.128 A 
ATOM     19  C   UNL A   1      36.785  22.846  25.904  1.00  0.00     0.018 A 
ATOM     20  C   UNL A   1      35.400  20.945  25.388  1.00  0.00     0.048 A 
ATOM     21  Br  UNL A   1      38.496  23.599  26.178  1.00  0.00    -0.051 Br
ATOM     22  C   UNL A   1      36.665  21.492  25.616  1.00  0.00     0.019 A 
BRANCH  18  23
ATOM     23  O   UNL A   1      33.124  20.991  25.159  1.00  0.00    -0.488 OA
BRANCH  23  24
ATOM     24  C   UNL A   1      32.982  20.237  23.954  1.00  0.00     0.265 C 
BRANCH  24  25
ATOM     25  C   UNL A   1      33.013  18.748  24.211  1.00  0.00    -0.011 A 
ATOM     26  C   UNL A   1      33.423  17.851  23.215  1.00  0.00     0.007 A 
ATOM     27  C   UNL A   1      32.658  18.241  25.471  1.00  0.00     0.007 A 
ATOM     28  C   UNL A   1      33.569  16.494  23.500  1.00  0.00     0.000 A 
ATOM     29  C   UNL A   1      32.817  16.885  25.759  1.00  0.00     0.000 A 
ATOM     30  C   UNL A   1      33.286  16.015  24.778  1.00  0.00     0.000 A 
ENDBRANCH  24  25
ENDBRANCH  23  24
ENDBRANCH  18  23
ENDBRANCH  15  16
ENDBRANCH  11  14
ENDBRANCH   4   5
ENDBRANCH   2   4
ENDBRANCH   1   2
BRANCH   1  31
ATOM     31  C   UNL A   1      31.252  30.091  25.239  1.00  0.00     0.274 C 
BRANCH  31  32
ATOM     32  C   UNL A   1      31.555  31.276  26.157  1.00  0.00     0.275 C 
BRANCH  32  33
ATOM     33  O   UNL A   1      32.640  30.967  27.050  1.00  0.00    -0.458 OA
BRANCH  33  34
ATOM     34  C   UNL A   1      33.394  32.032  27.428  1.00  0.00     0.338 C 
ATOM     35  O   UNL A   1      32.985  33.169  27.603  1.00  0.00    -0.246 OA
BRANCH  34  36
ATOM     36  C   UNL A   1      34.767  31.596  27.777  1.00  0.00     0.060 A 
ATOM     37  C   UNL A   1      34.985  30.223  27.950  1.00  0.00     0.016 A 
ATOM     38  C   UNL A   1      35.827  32.495  27.950  1.00  0.00     0.016 A 
ATOM     39  C   UNL A   1      36.232  29.755  28.366  1.00  0.00     0.010 A 
ATOM     40  C   UNL A   1      37.081  32.023  28.360  1.00  0.00     0.010 A 
ATOM     41  C   UNL A   1      37.276  30.656  28.617  1.00  0.00    -0.014 A 
BRANCH  41  42
ATOM     42  C   UNL A   1      38.482  30.175  29.341  1.00  0.00     0.031 A 
ATOM     43  C   UNL A   1      38.702  30.643  30.759  1.00  0.00     0.074 A 
ATOM     44  C   UNL A   1      39.331  29.291  28.785  1.00  0.00     0.049 A 
ATOM     45  N   UNL A   1      39.627  30.299  31.617  1.00  0.00    -0.248 NA
ATOM     46  C   UNL A   1      37.746  31.637  31.270  1.00  0.00     0.031 C 
ATOM     47  C   UNL A   1      39.219  28.744  27.433  1.00  0.00     0.029 A 
ATOM     48  N   UNL A   1      40.451  28.685  29.301  1.00  0.00    -0.354 N 
ATOM     49  C   UNL A   1      39.358  31.023  32.775  1.00  0.00     0.074 A 
ATOM     50  C   UNL A   1      38.219  31.869  32.485  1.00  0.00     0.031 C 
ATOM     51  C   UNL A   1      40.224  27.872  27.232  1.00  0.00     0.029 A 
ATOM     52  C   UNL A   1      41.062  27.814  28.430  1.00  0.00     0.049 A 
ATOM     53  H   UNL A   1      40.785  28.858  30.210  1.00  0.00     0.167 HD
ATOM     54  C   UNL A   1      39.986  30.977  33.976  1.00  0.00     0.034 A 
ATOM     55  C   UNL A   1      42.170  27.058  28.584  1.00  0.00     0.034 A 
ATOM     56  C   UNL A   1      41.131  30.145  34.253  1.00  0.00     0.049 A 
ATOM     57  C   UNL A   1      42.905  27.085  29.906  1.00  0.00     0.074 A 
ATOM     58  C   UNL A   1      41.831  30.007  35.438  1.00  0.00     0.029 A 
ATOM     59  N   UNL A   1      41.756  29.320  33.326  1.00  0.00    -0.354 N 
ATOM     60  N   UNL A   1      42.614  27.744  31.004  1.00  0.00    -0.248 NA
ATOM     61  C   UNL A   1      44.110  26.251  30.009  1.00  0.00     0.031 C 
ATOM     62  C   UNL A   1      42.919  29.156  35.210  1.00  0.00     0.029 A 
ATOM     63  C   UNL A   1      42.851  28.697  33.904  1.00  0.00     0.049 A 
ATOM     64  H   UNL A   1      41.462  29.195  32.395  1.00  0.00     0.167 HD
ATOM     65  C   UNL A   1      43.575  27.365  31.941  1.00  0.00     0.074 A 
ATOM     66  C   UNL A   1      44.449  26.419  31.278  1.00  0.00     0.031 C 
ATOM     67  C   UNL A   1      43.718  27.754  33.235  1.00  0.00     0.034 A 
BRANCH  54  68
ATOM     68  C   UNL A   1      39.466  31.891  35.060  1.00  0.00     0.023 A 
ATOM     69  C   UNL A   1      39.949  33.204  35.216  1.00  0.00     0.031 A 
ATOM     70  C   UNL A   1      38.508  31.431  35.979  1.00  0.00     0.131 A 
ATOM     71  C   UNL A   1      39.531  33.979  36.308  1.00  0.00     0.055 A 
ATOM     72  C   UNL A   1      38.035  32.236  37.017  1.00  0.00     0.041 A 
ATOM     73  F   UNL A   1      38.028  30.180  35.897  1.00  0.00    -0.206 F 
ATOM     74  C   UNL A   1      38.559  33.513  37.196  1.00  0.00     0.022 A 
BRANCH  71  75
ATOM     75  S   UNL A   1      40.389  35.542  36.641  1.00  0.00     0.124 S 
ATOM     76  O   UNL A   1      41.701  35.292  36.050  1.00  0.00    -0.237 OA
ATOM     77  O   UNL A   1      39.550  36.516  35.951  1.00  0.00    -0.237 OA
ATOM     78  O   UNL A   1      40.380  35.635  38.100  1.00  0.00    -0.744 OA
ENDBRANCH  71  75
ENDBRANCH  54  68
BRANCH  55  79
ATOM     79  C   UNL A   1      42.684  26.222  27.458  1.00  0.00     0.023 A 
ATOM     80  C   UNL A   1      42.459  24.837  27.410  1.00  0.00     0.031 A 
ATOM     81  C   UNL A   1      43.479  26.793  26.449  1.00  0.00     0.131 A 
ATOM     82  C   UNL A   1      43.065  24.063  26.406  1.00  0.00     0.055 A 
ATOM     83  C   UNL A   1      44.036  26.030  25.423  1.00  0.00     0.041 A 
ATOM     84  F   UNL A   1      43.729  28.110  26.453  1.00  0.00    -0.206 F 
ATOM     85  C   UNL A   1      43.843  24.653  25.407  1.00  0.00     0.022 A 
BRANCH  82  86
ATOM     86  S   UNL A   1      42.898  22.257  26.476  1.00  0.00     0.124 S 
ATOM     87  O   UNL A   1      41.824  22.020  25.520  1.00  0.00    -0.237 OA
ATOM     88  O   UNL A   1      44.229  21.816  26.074  1.00  0.00    -0.237 OA
ATOM     89  O   UNL A   1      42.557  22.002  27.875  1.00  0.00    -0.744 OA
ENDBRANCH  82  86
ENDBRANCH  55  79
BRANCH  67  90
ATOM     90  C   UNL A   1      44.819  27.099  34.037  1.00  0.00     0.023 A 
ATOM     91  C   UNL A   1      44.633  25.872  34.699  1.00  0.00     0.031 A 
ATOM     92  C   UNL A   1      46.071  27.729  34.156  1.00  0.00     0.131 A 
ATOM     93  C   UNL A   1      45.661  25.345  35.496  1.00  0.00     0.055 A 
ATOM     94  C   UNL A   1      47.110  27.169  34.900  1.00  0.00     0.041 A 
ATOM     95  F   UNL A   1      46.306  28.902  33.547  1.00  0.00    -0.206 F 
ATOM     96  C   UNL A   1      46.903  25.978  35.589  1.00  0.00     0.022 A 
BRANCH  93  97
ATOM     97  S   UNL A   1      45.321  23.872  36.501  1.00  0.00     0.124 S 
ATOM     98  O   UNL A   1      44.180  23.285  35.805  1.00  0.00    -0.237 OA
ATOM     99  O   UNL A   1      46.576  23.133  36.405  1.00  0.00    -0.237 OA
ATOM    100  O   UNL A   1      45.024  24.420  37.823  1.00  0.00    -0.744 OA
ENDBRANCH  93  97
ENDBRANCH  67  90
ENDBRANCH  41  42
ENDBRANCH  34  36
ENDBRANCH  33  34
ENDBRANCH  32  33
ENDBRANCH  31  32
ENDBRANCH   1  31
TORSDOF 20
ENDMDL
MODEL 2
REMARK VINA RESULT:     -12.1      4.557     10.598
REMARK SMILES O=C(C[C@H]1S/C(=[NH+]\N=C\c2cc(Br)ccc2OCc2ccccc2)NC1=O)OCCOC(=O)c1ccc(-c2c3nc(c(-c4cc(S(=O)(=O)[O-])ccc4F)c4ccc([nH]4)c(-c4cc(S(=O)(=O)[O-])ccc4F)c4nc(c(-c5cc(S(=O)(=O)[O-])ccc5F)c5ccc2[nH]5)C=C4)C=C3)cc1
REMARK SMILES IDX 28 1 2 2 1 3 3 4 4 5 5 6 26 7 6 8 25 9 27 10 7 11 8 14 9 15
REMARK SMILES IDX 10 16 11 17 16 18 12 19 15 20 13 21 14 22 17 23 18 24 19 25
REMARK SMILES IDX 20 26 24 27 21 28 23 29 22 30 29 31 30 32 31 33 32 34 33 35
REMARK SMILES IDX 34 36 35 37 96 38 36 39 95 40 37 41 38 42 39 43 89 44 40 45
REMARK SMILES IDX 94 46 88 47 90 48 41 49 93 50 87 51 86 52 42 54 74 55 54 56
REMARK SMILES IDX 73 57 55 58 58 59 72 60 91 61 56 62 57 63 71 65 92 66 59 67
REMARK SMILES IDX 43 68 44 69 52 70 45 71 51 72 53 73 50 74 46 75 47 76 48 77
REMARK SMILES IDX 49 78 75 79 76 80 84 81 77 82 83 83 85 84 82 85 78 86 79 87
REMARK SMILES IDX 80 88 81 89 60 90 61 91 69 92 62 93 68 94 70 95 67 96 63 97
REMARK SMILES IDX 64 98 65 99 66 100
REMARK H PARENT 25 12 7 13 90 53 58 64
REMARK Flexibility Score: inf
ROOT
ATOM      1  O   UNL A   1      35.034  20.606  24.527  1.00  0.00    -0.462 OA
ENDROOT
BRANCH   1   2
ATOM      2  C   UNL A   1      33.925  20.014  25.019  1.00  0.00     0.307 C 
ATOM      3  O   UNL A   1      33.655  18.851  24.731  1.00  0.00    -0.252 OA
BRANCH   2   4
ATOM      4  C   UNL A   1      33.014  20.798  25.925  1.00  0.00     0.150 C 
BRANCH   4   5
ATOM      5  C   UNL A   1      32.101  21.737  25.160  1.00  0.00     0.184 C 
ATOM      6  S   UNL A   1      32.432  23.441  25.745  1.00  0.00    -0.020 SA
ATOM      7  C   UNL A   1      32.472  21.793  23.696  1.00  0.00     0.322 C 
ATOM      8  C   UNL A   1      33.513  23.742  24.411  1.00  0.00     0.337 C 
ATOM      9  N   UNL A   1      33.374  22.785  23.462  1.00  0.00    -0.202 N 
ATOM     10  O   UNL A   1      32.004  21.063  22.835  1.00  0.00    -0.246 OA
ATOM     11  N   UNL A   1      34.335  24.714  24.224  1.00  0.00    -0.142 N 
ATOM     12  H   UNL A   1      33.905  22.806  22.634  1.00  0.00     0.316 HD
ATOM     13  H   UNL A   1      34.935  24.755  23.445  1.00  0.00     0.343 HD
BRANCH  11  14
ATOM     14  N   UNL A   1      34.317  25.702  25.203  1.00  0.00    -0.093 NA
ATOM     15  C   UNL A   1      33.711  26.755  24.755  1.00  0.00     0.170 C 
BRANCH  15  16
ATOM     16  C   UNL A   1      33.407  27.890  25.622  1.00  0.00     0.040 A 
ATOM     17  C   UNL A   1      34.463  28.309  26.448  1.00  0.00     0.029 A 
ATOM     18  C   UNL A   1      32.185  28.577  25.598  1.00  0.00     0.128 A 
ATOM     19  C   UNL A   1      34.309  29.441  27.241  1.00  0.00     0.018 A 
ATOM     20  C   UNL A   1      32.071  29.726  26.397  1.00  0.00     0.048 A 
ATOM     21  Br  UNL A   1      35.720  30.005  28.364  1.00  0.00    -0.051 Br
ATOM     22  C   UNL A   1      33.121  30.162  27.210  1.00  0.00     0.019 A 
BRANCH  18  23
ATOM     23  O   UNL A   1      31.027  28.326  24.920  1.00  0.00    -0.488 OA
BRANCH  23  24
ATOM     24  C   UNL A   1      30.842  28.652  23.542  1.00  0.00     0.265 C 
BRANCH  24  25
ATOM     25  C   UNL A   1      29.680  29.597  23.335  1.00  0.00    -0.011 A 
ATOM     26  C   UNL A   1      29.654  30.857  23.950  1.00  0.00     0.007 A 
ATOM     27  C   UNL A   1      28.619  29.236  22.491  1.00  0.00     0.007 A 
ATOM     28  C   UNL A   1      28.643  31.769  23.652  1.00  0.00     0.000 A 
ATOM     29  C   UNL A   1      27.614  30.154  22.184  1.00  0.00     0.000 A 
ATOM     30  C   UNL A   1      27.635  31.425  22.754  1.00  0.00     0.000 A 
ENDBRANCH  24  25
ENDBRANCH  23  24
ENDBRANCH  18  23
ENDBRANCH  15  16
ENDBRANCH  11  14
ENDBRANCH   4   5
ENDBRANCH   2   4
ENDBRANCH   1   2
BRANCH   1  31
ATOM     31  C   UNL A   1      36.380  20.395  24.999  1.00  0.00     0.274 C 
BRANCH  31  32
ATOM     32  C   UNL A   1      36.929  21.605  25.759  1.00  0.00     0.275 C 
BRANCH  32  33
ATOM     33  O   UNL A   1      38.231  21.970  25.267  1.00  0.00    -0.458 OA
BRANCH  33  34
ATOM     34  C   UNL A   1      39.267  21.640  26.081  1.00  0.00     0.338 C 
ATOM     35  O   UNL A   1      39.795  20.541  26.153  1.00  0.00    -0.246 OA
BRANCH  34  36
ATOM     36  C   UNL A   1      39.799  22.847  26.757  1.00  0.00     0.060 A 
ATOM     37  C   UNL A   1      39.256  24.085  26.390  1.00  0.00     0.016 A 
ATOM     38  C   UNL A   1      40.817  22.790  27.718  1.00  0.00     0.016 A 
ATOM     39  C   UNL A   1      39.774  25.266  26.923  1.00  0.00     0.010 A 
ATOM     40  C   UNL A   1      41.330  23.977  28.258  1.00  0.00     0.010 A 
ATOM     41  C   UNL A   1      40.845  25.223  27.827  1.00  0.00    -0.014 A 
BRANCH  41  42
ATOM     42  C   UNL A   1      41.572  26.481  28.142  1.00  0.00     0.031 A 
ATOM     43  C   UNL A   1      42.978  26.646  27.620  1.00  0.00     0.074 A 
ATOM     44  C   UNL A   1      40.981  27.486  28.815  1.00  0.00     0.049 A 
ATOM     45  N   UNL A   1      43.778  27.679  27.691  1.00  0.00    -0.248 NA
ATOM     46  C   UNL A   1      43.556  25.485  26.928  1.00  0.00     0.031 C 
ATOM     47  C   UNL A   1      39.620  27.460  29.352  1.00  0.00     0.029 A 
ATOM     48  N   UNL A   1      41.450  28.732  29.148  1.00  0.00    -0.354 N 
ATOM     49  C   UNL A   1      44.948  27.297  27.043  1.00  0.00     0.074 A 
ATOM     50  C   UNL A   1      44.773  25.918  26.639  1.00  0.00     0.031 C 
ATOM     51  C   UNL A   1      39.361  28.644  29.937  1.00  0.00     0.029 A 
ATOM     52  C   UNL A   1      40.542  29.503  29.835  1.00  0.00     0.049 A 
ATOM     53  H   UNL A   1      42.354  29.046  28.917  1.00  0.00     0.167 HD
ATOM     54  C   UNL A   1      46.061  28.030  26.787  1.00  0.00     0.034 A 
ATOM     55  C   UNL A   1      40.652  30.756  30.324  1.00  0.00     0.034 A 
ATOM     56  C   UNL A   1      46.236  29.397  27.207  1.00  0.00     0.049 A 
ATOM     57  C   UNL A   1      41.935  31.526  30.100  1.00  0.00     0.074 A 
ATOM     58  C   UNL A   1      47.313  30.238  26.985  1.00  0.00     0.029 A 
ATOM     59  N   UNL A   1      45.316  30.124  27.952  1.00  0.00    -0.354 N 
ATOM     60  N   UNL A   1      43.017  31.166  29.449  1.00  0.00    -0.248 NA
ATOM     61  C   UNL A   1      41.999  32.881  30.667  1.00  0.00     0.031 C 
ATOM     62  C   UNL A   1      47.076  31.444  27.654  1.00  0.00     0.029 A 
ATOM     63  C   UNL A   1      45.814  31.389  28.225  1.00  0.00     0.049 A 
ATOM     64  H   UNL A   1      44.436  29.790  28.242  1.00  0.00     0.167 HD
ATOM     65  C   UNL A   1      43.870  32.268  29.490  1.00  0.00     0.074 A 
ATOM     66  C   UNL A   1      43.174  33.304  30.225  1.00  0.00     0.031 C 
ATOM     67  C   UNL A   1      45.112  32.416  28.959  1.00  0.00     0.034 A 
BRANCH  54  68
ATOM     68  C   UNL A   1      47.188  27.338  26.057  1.00  0.00     0.023 A 
ATOM     69  C   UNL A   1      48.189  26.627  26.744  1.00  0.00     0.031 A 
ATOM     70  C   UNL A   1      47.288  27.428  24.658  1.00  0.00     0.131 A 
ATOM     71  C   UNL A   1      49.285  26.104  26.040  1.00  0.00     0.055 A 
ATOM     72  C   UNL A   1      48.338  26.833  23.955  1.00  0.00     0.041 A 
ATOM     73  F   UNL A   1      46.377  28.112  23.949  1.00  0.00    -0.206 F 
ATOM     74  C   UNL A   1      49.354  26.180  24.648  1.00  0.00     0.022 A 
BRANCH  71  75
ATOM     75  S   UNL A   1      50.693  25.457  26.984  1.00  0.00     0.124 S 
ATOM     76  O   UNL A   1      50.078  24.349  27.710  1.00  0.00    -0.237 OA
ATOM     77  O   UNL A   1      51.635  25.091  25.933  1.00  0.00    -0.237 OA
ATOM     78  O   UNL A   1      51.096  26.588  27.817  1.00  0.00    -0.744 OA
ENDBRANCH  71  75
ENDBRANCH  54  68
BRANCH  55  79
ATOM     79  C   UNL A   1      39.534  31.372  31.100  1.00  0.00     0.023 A 
ATOM     80  C   UNL A   1      39.505  31.332  32.503  1.00  0.00     0.031 A 
ATOM     81  C   UNL A   1      38.434  31.942  30.437  1.00  0.00     0.131 A 
ATOM     82  C   UNL A   1      38.377  31.806  33.194  1.00  0.00     0.055 A 
ATOM     83  C   UNL A   1      37.338  32.461  31.127  1.00  0.00     0.041 A 
ATOM     84  F   UNL A   1      38.410  31.998  29.097  1.00  0.00    -0.206 F 
ATOM     85  C   UNL A   1      37.299  32.380  32.515  1.00  0.00     0.022 A 
BRANCH  82  86
ATOM     86  S   UNL A   1      38.296  31.579  34.993  1.00  0.00     0.124 S 
ATOM     87  O   UNL A   1      38.055  30.146  35.102  1.00  0.00    -0.237 OA
ATOM     88  O   UNL A   1      39.611  32.046  35.416  1.00  0.00    -0.237 OA
ATOM     89  O   UNL A   1      37.177  32.433  35.392  1.00  0.00    -0.744 OA
ENDBRANCH  82  86
ENDBRANCH  55  79
BRANCH  67  90
ATOM     90  C   UNL A   1      45.765  33.773  29.094  1.00  0.00     0.023 A 
ATOM     91  C   UNL A   1      45.438  34.848  28.248  1.00  0.00     0.031 A 
ATOM     92  C   UNL A   1      46.748  33.984  30.078  1.00  0.00     0.131 A 
ATOM     93  C   UNL A   1      46.129  36.064  28.363  1.00  0.00     0.055 A 
ATOM     94  C   UNL A   1      47.389  35.215  30.227  1.00  0.00     0.041 A 
ATOM     95  F   UNL A   1      47.102  32.995  30.914  1.00  0.00    -0.206 F 
ATOM     96  C   UNL A   1      47.092  36.259  29.357  1.00  0.00     0.022 A 
BRANCH  93  97
ATOM     97  S   UNL A   1      45.833  37.359  27.126  1.00  0.00     0.124 S 
ATOM     98  O   UNL A   1      46.758  36.983  26.062  1.00  0.00    -0.237 OA
ATOM     99  O   UNL A   1      44.415  37.185  26.828  1.00  0.00    -0.237 OA
ATOM    100  O   UNL A   1      46.170  38.592  27.833  1.00  0.00    -0.744 OA
ENDBRANCH  93  97
ENDBRANCH  67  90
ENDBRANCH  41  42
ENDBRANCH  34  36
ENDBRANCH  33  34
ENDBRANCH  32  33
ENDBRANCH  31  32
ENDBRANCH   1  31
TORSDOF 20
ENDMDL
MODEL 3
REMARK VINA RESULT:     -12.1      1.938      2.229
REMARK SMILES O=C(C[C@H]1S/C(=[NH+]\N=C\c2cc(Br)ccc2OCc2ccccc2)NC1=O)OCCOC(=O)c1ccc(-c2c3nc(c(-c4cc(S(=O)(=O)[O-])ccc4F)c4ccc([nH]4)c(-c4cc(S(=O)(=O)[O-])ccc4F)c4nc(c(-c5cc(S(=O)(=O)[O-])ccc5F)c5ccc2[nH]5)C=C4)C=C3)cc1
REMARK SMILES IDX 28 1 2 2 1 3 3 4 4 5 5 6 26 7 6 8 25 9 27 10 7 11 8 14 9 15
REMARK SMILES IDX 10 16 11 17 16 18 12 19 15 20 13 21 14 22 17 23 18 24 19 25
REMARK SMILES IDX 20 26 24 27 21 28 23 29 22 30 29 31 30 32 31 33 32 34 33 35
REMARK SMILES IDX 34 36 35 37 96 38 36 39 95 40 37 41 38 42 39 43 89 44 40 45
REMARK SMILES IDX 94 46 88 47 90 48 41 49 93 50 87 51 86 52 42 54 74 55 54 56
REMARK SMILES IDX 73 57 55 58 58 59 72 60 91 61 56 62 57 63 71 65 92 66 59 67
REMARK SMILES IDX 43 68 44 69 52 70 45 71 51 72 53 73 50 74 46 75 47 76 48 77
REMARK SMILES IDX 49 78 75 79 76 80 84 81 77 82 83 83 85 84 82 85 78 86 79 87
REMARK SMILES IDX 80 88 81 89 60 90 61 91 69 92 62 93 68 94 70 95 67 96 63 97
REMARK SMILES IDX 64 98 65 99 66 100
REMARK H PARENT 25 12 7 13 90 53 58 64
REMARK Flexibility Score: inf
ROOT
ATOM      1  O   UNL A   1      31.935  30.450  25.201  1.00  0.00    -0.462 OA
ENDROOT
BRANCH   1   2
ATOM      2  C   UNL A   1      31.545  29.359  24.510  1.00  0.00     0.307 C 
ATOM      3  O   UNL A   1      31.619  29.334  23.284  1.00  0.00    -0.252 OA
BRANCH   2   4
ATOM      4  C   UNL A   1      31.012  28.166  25.257  1.00  0.00     0.150 C 
BRANCH   4   5
ATOM      5  C   UNL A   1      30.882  26.938  24.376  1.00  0.00     0.184 C 
ATOM      6  S   UNL A   1      32.232  25.782  24.822  1.00  0.00    -0.020 SA
ATOM      7  C   UNL A   1      29.631  26.156  24.703  1.00  0.00     0.322 C 
ATOM      8  C   UNL A   1      31.177  24.880  25.876  1.00  0.00     0.337 C 
ATOM      9  N   UNL A   1      29.884  25.214  25.654  1.00  0.00    -0.202 N 
ATOM     10  O   UNL A   1      28.546  26.329  24.168  1.00  0.00    -0.246 OA
ATOM     11  N   UNL A   1      31.464  23.976  26.746  1.00  0.00    -0.142 N 
ATOM     12  H   UNL A   1      29.153  24.791  26.159  1.00  0.00     0.316 HD
ATOM     13  H   UNL A   1      30.782  23.563  27.323  1.00  0.00     0.343 HD
BRANCH  11  14
ATOM     14  N   UNL A   1      32.809  23.625  26.815  1.00  0.00    -0.093 NA
ATOM     15  C   UNL A   1      33.100  22.808  25.854  1.00  0.00     0.170 C 
BRANCH  15  16
ATOM     16  C   UNL A   1      34.477  22.398  25.589  1.00  0.00     0.040 A 
ATOM     17  C   UNL A   1      35.462  23.288  26.045  1.00  0.00     0.029 A 
ATOM     18  C   UNL A   1      34.819  21.176  24.992  1.00  0.00     0.128 A 
ATOM     19  C   UNL A   1      36.805  22.947  25.929  1.00  0.00     0.018 A 
ATOM     20  C   UNL A   1      36.183  20.856  24.907  1.00  0.00     0.048 A 
ATOM     21  Br  UNL A   1      38.138  24.143  26.529  1.00  0.00    -0.051 Br
ATOM     22  C   UNL A   1      37.172  21.726  25.374  1.00  0.00     0.019 A 
BRANCH  18  23
ATOM     23  O   UNL A   1      34.043  20.196  24.443  1.00  0.00    -0.488 OA
BRANCH  23  24
ATOM     24  C   UNL A   1      33.082  19.450  25.192  1.00  0.00     0.265 C 
BRANCH  24  25
ATOM     25  C   UNL A   1      33.335  17.962  25.113  1.00  0.00    -0.011 A 
ATOM     26  C   UNL A   1      34.555  17.460  24.638  1.00  0.00     0.007 A 
ATOM     27  C   UNL A   1      32.355  17.056  25.547  1.00  0.00     0.007 A 
ATOM     28  C   UNL A   1      34.826  16.093  24.689  1.00  0.00     0.000 A 
ATOM     29  C   UNL A   1      32.632  15.689  25.609  1.00  0.00     0.000 A 
ATOM     30  C   UNL A   1      33.872  15.211  25.193  1.00  0.00     0.000 A 
ENDBRANCH  24  25
ENDBRANCH  23  24
ENDBRANCH  18  23
ENDBRANCH  15  16
ENDBRANCH  11  14
ENDBRANCH   4   5
ENDBRANCH   2   4
ENDBRANCH   1   2
BRANCH   1  31
ATOM     31  C   UNL A   1      31.119  31.194  26.130  1.00  0.00     0.274 C 
BRANCH  31  32
ATOM     32  C   UNL A   1      31.874  32.364  26.765  1.00  0.00     0.275 C 
BRANCH  32  33
ATOM     33  O   UNL A   1      32.968  31.889  27.569  1.00  0.00    -0.458 OA
BRANCH  33  34
ATOM     34  C   UNL A   1      33.864  32.840  27.939  1.00  0.00     0.338 C 
ATOM     35  O   UNL A   1      33.606  34.008  28.178  1.00  0.00    -0.246 OA
BRANCH  34  36
ATOM     36  C   UNL A   1      35.192  32.230  28.190  1.00  0.00     0.060 A 
ATOM     37  C   UNL A   1      35.239  30.845  28.395  1.00  0.00     0.016 A 
ATOM     38  C   UNL A   1      36.373  32.982  28.241  1.00  0.00     0.016 A 
ATOM     39  C   UNL A   1      36.444  30.223  28.724  1.00  0.00     0.010 A 
ATOM     40  C   UNL A   1      37.584  32.354  28.563  1.00  0.00     0.010 A 
ATOM     41  C   UNL A   1      37.617  30.980  28.854  1.00  0.00    -0.014 A 
BRANCH  41  42
ATOM     42  C   UNL A   1      38.807  30.358  29.493  1.00  0.00     0.031 A 
ATOM     43  C   UNL A   1      39.160  30.769  30.902  1.00  0.00     0.074 A 
ATOM     44  C   UNL A   1      39.521  29.402  28.872  1.00  0.00     0.049 A 
ATOM     45  N   UNL A   1      40.094  30.310  31.695  1.00  0.00    -0.248 NA
ATOM     46  C   UNL A   1      38.349  31.846  31.488  1.00  0.00     0.031 C 
ATOM     47  C   UNL A   1      39.269  28.900  27.521  1.00  0.00     0.029 A 
ATOM     48  N   UNL A   1      40.598  28.670  29.306  1.00  0.00    -0.354 N 
ATOM     49  C   UNL A   1      39.974  31.032  32.878  1.00  0.00     0.074 A 
ATOM     50  C   UNL A   1      38.916  32.000  32.674  1.00  0.00     0.031 C 
ATOM     51  C   UNL A   1      40.161  27.932  27.243  1.00  0.00     0.029 A 
ATOM     52  C   UNL A   1      41.060  27.759  28.385  1.00  0.00     0.049 A 
ATOM     53  H   UNL A   1      41.004  28.787  30.196  1.00  0.00     0.167 HD
ATOM     54  C   UNL A   1      40.665  30.893  34.037  1.00  0.00     0.034 A 
ATOM     55  C   UNL A   1      42.088  26.888  28.457  1.00  0.00     0.034 A 
ATOM     56  C   UNL A   1      41.729  29.940  34.228  1.00  0.00     0.049 A 
ATOM     57  C   UNL A   1      42.900  26.807  29.731  1.00  0.00     0.074 A 
ATOM     58  C   UNL A   1      42.482  29.701  35.365  1.00  0.00     0.029 A 
ATOM     59  N   UNL A   1      42.205  29.074  33.252  1.00  0.00    -0.354 N 
ATOM     60  N   UNL A   1      42.748  27.468  30.856  1.00  0.00    -0.248 NA
ATOM     61  C   UNL A   1      44.014  25.848  29.745  1.00  0.00     0.031 C 
ATOM     62  C   UNL A   1      43.457  28.746  35.056  1.00  0.00     0.029 A 
ATOM     63  C   UNL A   1      43.261  28.326  33.750  1.00  0.00     0.049 A 
ATOM     64  H   UNL A   1      41.845  29.001  32.338  1.00  0.00     0.167 HD
ATOM     65  C   UNL A   1      43.719  26.969  31.724  1.00  0.00     0.074 A 
ATOM     66  C   UNL A   1      44.444  25.951  30.993  1.00  0.00     0.031 C 
ATOM     67  C   UNL A   1      43.980  27.312  33.013  1.00  0.00     0.034 A 
BRANCH  54  68
ATOM     68  C   UNL A   1      40.313  31.833  35.166  1.00  0.00     0.023 A 
ATOM     69  C   UNL A   1      39.383  31.479  36.161  1.00  0.00     0.031 A 
ATOM     70  C   UNL A   1      40.881  33.117  35.225  1.00  0.00     0.131 A 
ATOM     71  C   UNL A   1      38.991  32.423  37.121  1.00  0.00     0.055 A 
ATOM     72  C   UNL A   1      40.547  34.024  36.232  1.00  0.00     0.041 A 
ATOM     73  F   UNL A   1      41.756  33.521  34.291  1.00  0.00    -0.206 F 
ATOM     74  C   UNL A   1      39.585  33.686  37.179  1.00  0.00     0.022 A 
BRANCH  71  75
ATOM     75  S   UNL A   1      37.584  32.033  38.198  1.00  0.00     0.124 S 
ATOM     76  O   UNL A   1      38.161  32.237  39.524  1.00  0.00    -0.237 OA
ATOM     77  O   UNL A   1      36.584  33.008  37.777  1.00  0.00    -0.237 OA
ATOM     78  O   UNL A   1      37.276  30.643  37.870  1.00  0.00    -0.744 OA
ENDBRANCH  71  75
ENDBRANCH  54  68
BRANCH  55  79
ATOM     79  C   UNL A   1      42.440  26.027  27.288  1.00  0.00     0.023 A 
ATOM     80  C   UNL A   1      42.077  24.671  27.239  1.00  0.00     0.031 A 
ATOM     81  C   UNL A   1      43.218  26.537  26.235  1.00  0.00     0.131 A 
ATOM     82  C   UNL A   1      42.535  23.862  26.186  1.00  0.00     0.055 A 
ATOM     83  C   UNL A   1      43.628  25.744  25.163  1.00  0.00     0.041 A 
ATOM     84  F   UNL A   1      43.597  27.823  26.238  1.00  0.00    -0.206 F 
ATOM     85  C   UNL A   1      43.299  24.392  25.143  1.00  0.00     0.022 A 
BRANCH  82  86
ATOM     86  S   UNL A   1      42.197  22.080  26.244  1.00  0.00     0.124 S 
ATOM     87  O   UNL A   1      42.606  21.743  27.602  1.00  0.00    -0.237 OA
ATOM     88  O   UNL A   1      40.765  22.035  25.973  1.00  0.00    -0.237 OA
ATOM     89  O   UNL A   1      43.046  21.539  25.183  1.00  0.00    -0.744 OA
ENDBRANCH  82  86
ENDBRANCH  55  79
BRANCH  67  90
ATOM     90  C   UNL A   1      45.051  26.527  33.734  1.00  0.00     0.023 A 
ATOM     91  C   UNL A   1      46.400  26.925  33.732  1.00  0.00     0.031 A 
ATOM     92  C   UNL A   1      44.714  25.347  34.421  1.00  0.00     0.131 A 
ATOM     93  C   UNL A   1      47.369  26.119  34.351  1.00  0.00     0.055 A 
ATOM     94  C   UNL A   1      45.672  24.581  35.087  1.00  0.00     0.041 A 
ATOM     95  F   UNL A   1      43.443  24.916  34.457  1.00  0.00    -0.206 F 
ATOM     96  C   UNL A   1      47.011  24.958  35.041  1.00  0.00     0.022 A 
BRANCH  93  97
ATOM     97  S   UNL A   1      49.121  26.549  34.153  1.00  0.00     0.124 S 
ATOM     98  O   UNL A   1      49.394  26.100  32.792  1.00  0.00    -0.237 OA
ATOM     99  O   UNL A   1      49.111  27.995  34.357  1.00  0.00    -0.237 OA
ATOM    100  O   UNL A   1      49.784  25.780  35.204  1.00  0.00    -0.744 OA
ENDBRANCH  93  97
ENDBRANCH  67  90
ENDBRANCH  41  42
ENDBRANCH  34  36
ENDBRANCH  33  34
ENDBRANCH  32  33
ENDBRANCH  31  32
ENDBRANCH   1  31
TORSDOF 20
ENDMDL
