MODEL 1
REMARK VINA RESULT:     -11.0      0.000      0.000
REMARK SMILES [NH3+][C@H](Cc1ccc(O)c(F)c1)C(=O)OCCOC(=O)c1ccc(-c2c3nc(c(-c4cc(S(=O)(=O)[O-])ccc4F)c4ccc([nH]4)c(-c4cc(S(=O)(=O)[O-])ccc4F)c4nc(c(-c5cc(S(=O)(=O)[O-])ccc5F)c5ccc2[nH]5)C=C4)C=C3)cc1
REMARK SMILES IDX 15 1 14 2 12 3 13 4 2 5 1 6 3 10 4 11 5 12 11 13 6 14 9 15
REMARK SMILES IDX 7 16 10 17 8 18 16 20 17 21 18 22 19 23 20 24 21 25 82 26
REMARK SMILES IDX 22 27 81 28 23 29 24 30 25 31 75 32 26 33 80 34 74 35 76 36
REMARK SMILES IDX 27 37 79 38 73 39 72 40 28 42 60 43 40 44 59 45 41 46 44 47
REMARK SMILES IDX 58 48 77 49 42 50 43 51 57 53 78 54 45 55 29 56 30 57 38 58
REMARK SMILES IDX 31 59 37 60 39 61 36 62 32 63 33 64 34 65 35 66 61 67 62 68
REMARK SMILES IDX 70 69 63 70 69 71 71 72 68 73 64 74 65 75 66 76 67 77 46 78
REMARK SMILES IDX 47 79 55 80 48 81 54 82 56 83 53 84 49 85 50 86 51 87 52 88
REMARK H PARENT 1 7 1 8 1 9 8 19 76 41 44 52
REMARK Flexibility Score: inf
ROOT
ATOM      1  C   UNL A   1      36.275  21.851  24.190  1.00  0.00     0.274 C 
ENDROOT
BRANCH   1   2
ATOM      2  O   UNL A   1      35.290  22.020  25.226  1.00  0.00    -0.458 OA
BRANCH   2   3
ATOM      3  C   UNL A   1      33.989  22.136  24.862  1.00  0.00     0.365 C 
ATOM      4  O   UNL A   1      33.576  22.962  24.055  1.00  0.00    -0.245 OA
BRANCH   3   5
ATOM      5  C   UNL A   1      33.070  21.120  25.580  1.00  0.00     0.296 C 
BRANCH   5   6
ATOM      6  N   UNL A   1      33.636  20.706  26.887  1.00  0.00    -0.346 N 
ATOM      7  H   UNL A   1      34.647  20.596  26.801  1.00  0.00     0.345 HD
ATOM      8  H   UNL A   1      33.222  19.819  27.172  1.00  0.00     0.345 HD
ATOM      9  H   UNL A   1      33.431  21.418  27.588  1.00  0.00     0.345 HD
ENDBRANCH   5   6
BRANCH   5  10
ATOM     10  C   UNL A   1      32.530  19.938  24.742  1.00  0.00     0.113 C 
BRANCH  10  11
ATOM     11  C   UNL A   1      33.152  18.556  24.809  1.00  0.00    -0.038 A 
ATOM     12  C   UNL A   1      34.447  18.398  24.277  1.00  0.00     0.008 A 
ATOM     13  C   UNL A   1      32.539  17.439  25.390  1.00  0.00     0.047 A 
ATOM     14  C   UNL A   1      35.130  17.182  24.372  1.00  0.00     0.049 A 
ATOM     15  C   UNL A   1      33.226  16.230  25.492  1.00  0.00     0.165 A 
ATOM     16  C   UNL A   1      34.519  16.103  24.998  1.00  0.00     0.151 A 
ATOM     17  F   UNL A   1      32.628  15.199  26.106  1.00  0.00    -0.203 F 
BRANCH  16  18
ATOM     18  O   UNL A   1      35.179  14.916  25.149  1.00  0.00    -0.505 OA
ATOM     19  H   UNL A   1      34.736  14.109  24.979  1.00  0.00     0.293 HD
ENDBRANCH  16  18
ENDBRANCH  10  11
ENDBRANCH   5  10
ENDBRANCH   3   5
ENDBRANCH   2   3
ENDBRANCH   1   2
BRANCH   1  20
ATOM     20  C   UNL A   1      37.359  20.873  24.647  1.00  0.00     0.275 C 
BRANCH  20  21
ATOM     21  O   UNL A   1      37.833  21.221  25.961  1.00  0.00    -0.458 OA
BRANCH  21  22
ATOM     22  C   UNL A   1      39.164  21.059  26.149  1.00  0.00     0.338 C 
ATOM     23  O   UNL A   1      39.842  20.094  25.839  1.00  0.00    -0.246 OA
BRANCH  22  24
ATOM     24  C   UNL A   1      39.743  22.321  26.634  1.00  0.00     0.060 A 
ATOM     25  C   UNL A   1      39.218  23.509  26.120  1.00  0.00     0.016 A 
ATOM     26  C   UNL A   1      40.805  22.346  27.539  1.00  0.00     0.016 A 
ATOM     27  C   UNL A   1      39.754  24.732  26.507  1.00  0.00     0.010 A 
ATOM     28  C   UNL A   1      41.345  23.577  27.927  1.00  0.00     0.010 A 
ATOM     29  C   UNL A   1      40.826  24.777  27.407  1.00  0.00    -0.014 A 
BRANCH  29  30
ATOM     30  C   UNL A   1      41.422  26.089  27.753  1.00  0.00     0.031 A 
ATOM     31  C   UNL A   1      42.812  26.421  27.291  1.00  0.00     0.074 A 
ATOM     32  C   UNL A   1      40.688  26.995  28.426  1.00  0.00     0.049 A 
ATOM     33  N   UNL A   1      43.519  27.500  27.503  1.00  0.00    -0.248 NA
ATOM     34  C   UNL A   1      43.496  25.400  26.481  1.00  0.00     0.031 C 
ATOM     35  C   UNL A   1      39.312  26.793  28.881  1.00  0.00     0.029 A 
ATOM     36  N   UNL A   1      40.991  28.268  28.837  1.00  0.00    -0.354 N 
ATOM     37  C   UNL A   1      44.731  27.294  26.854  1.00  0.00     0.074 A 
ATOM     38  C   UNL A   1      44.674  25.968  26.270  1.00  0.00     0.031 C 
ATOM     39  C   UNL A   1      38.889  27.904  29.505  1.00  0.00     0.029 A 
ATOM     40  C   UNL A   1      39.975  28.879  29.535  1.00  0.00     0.049 A 
ATOM     41  H   UNL A   1      41.855  28.703  28.651  1.00  0.00     0.167 HD
ATOM     42  C   UNL A   1      45.789  28.136  26.749  1.00  0.00     0.034 A 
ATOM     43  C   UNL A   1      39.936  30.078  30.150  1.00  0.00     0.034 A 
ATOM     44  C   UNL A   1      45.832  29.448  27.349  1.00  0.00     0.049 A 
ATOM     45  C   UNL A   1      41.155  30.966  30.077  1.00  0.00     0.074 A 
ATOM     46  C   UNL A   1      46.860  30.375  27.327  1.00  0.00     0.029 A 
ATOM     47  N   UNL A   1      44.801  30.020  28.086  1.00  0.00    -0.354 N 
ATOM     48  N   UNL A   1      42.302  30.748  29.476  1.00  0.00    -0.248 NA
ATOM     49  C   UNL A   1      41.066  32.263  30.757  1.00  0.00     0.031 C 
ATOM     50  C   UNL A   1      46.473  31.480  28.096  1.00  0.00     0.029 A 
ATOM     51  C   UNL A   1      45.177  31.275  28.540  1.00  0.00     0.049 A 
ATOM     52  H   UNL A   1      43.931  29.595  28.260  1.00  0.00     0.167 HD
ATOM     53  C   UNL A   1      43.065  31.891  29.694  1.00  0.00     0.074 A 
ATOM     54  C   UNL A   1      42.235  32.806  30.450  1.00  0.00     0.031 C 
ATOM     55  C   UNL A   1      44.340  32.164  29.311  1.00  0.00     0.034 A 
BRANCH  42  56
ATOM     56  C   UNL A   1      47.000  27.637  25.999  1.00  0.00     0.023 A 
ATOM     57  C   UNL A   1      47.217  27.959  24.647  1.00  0.00     0.031 A 
ATOM     58  C   UNL A   1      47.941  26.811  26.639  1.00  0.00     0.131 A 
ATOM     59  C   UNL A   1      48.316  27.413  23.965  1.00  0.00     0.055 A 
ATOM     60  C   UNL A   1      49.070  26.329  25.975  1.00  0.00     0.041 A 
ATOM     61  F   UNL A   1      47.773  26.452  27.922  1.00  0.00    -0.206 F 
ATOM     62  C   UNL A   1      49.257  26.620  24.626  1.00  0.00     0.022 A 
BRANCH  59  63
ATOM     63  S   UNL A   1      48.438  27.658  22.172  1.00  0.00     0.124 S 
ATOM     64  O   UNL A   1      49.596  28.543  22.073  1.00  0.00    -0.237 OA
ATOM     65  O   UNL A   1      48.630  26.299  21.679  1.00  0.00    -0.237 OA
ATOM     66  O   UNL A   1      47.159  28.275  21.822  1.00  0.00    -0.744 OA
ENDBRANCH  59  63
ENDBRANCH  42  56
BRANCH  43  67
ATOM     67  C   UNL A   1      38.736  30.493  30.933  1.00  0.00     0.023 A 
ATOM     68  C   UNL A   1      37.664  31.164  30.326  1.00  0.00     0.031 A 
ATOM     69  C   UNL A   1      38.679  30.284  32.323  1.00  0.00     0.131 A 
ATOM     70  C   UNL A   1      36.608  31.653  31.112  1.00  0.00     0.055 A 
ATOM     71  C   UNL A   1      37.599  30.719  33.092  1.00  0.00     0.041 A 
ATOM     72  F   UNL A   1      39.680  29.651  32.957  1.00  0.00    -0.206 F 
ATOM     73  C   UNL A   1      36.562  31.422  32.489  1.00  0.00     0.022 A 
BRANCH  70  74
ATOM     74  S   UNL A   1      35.347  32.694  30.326  1.00  0.00     0.124 S 
ATOM     75  O   UNL A   1      34.279  32.670  31.318  1.00  0.00    -0.237 OA
ATOM     76  O   UNL A   1      36.054  33.961  30.177  1.00  0.00    -0.237 OA
ATOM     77  O   UNL A   1      35.057  31.993  29.078  1.00  0.00    -0.744 OA
ENDBRANCH  70  74
ENDBRANCH  43  67
BRANCH  55  78
ATOM     78  C   UNL A   1      44.883  33.520  29.690  1.00  0.00     0.023 A 
ATOM     79  C   UNL A   1      44.717  34.640  28.855  1.00  0.00     0.031 A 
ATOM     80  C   UNL A   1      45.617  33.685  30.879  1.00  0.00     0.131 A 
ATOM     81  C   UNL A   1      45.337  35.854  29.181  1.00  0.00     0.055 A 
ATOM     82  C   UNL A   1      46.178  34.913  31.230  1.00  0.00     0.041 A 
ATOM     83  F   UNL A   1      45.808  32.651  31.713  1.00  0.00    -0.206 F 
ATOM     84  C   UNL A   1      46.056  36.002  30.371  1.00  0.00     0.022 A 
BRANCH  81  85
ATOM     85  S   UNL A   1      45.292  37.205  27.972  1.00  0.00     0.124 S 
ATOM     86  O   UNL A   1      46.708  37.526  27.822  1.00  0.00    -0.237 OA
ATOM     87  O   UNL A   1      44.657  36.571  26.821  1.00  0.00    -0.237 OA
ATOM     88  O   UNL A   1      44.490  38.232  28.635  1.00  0.00    -0.744 OA
ENDBRANCH  81  85
ENDBRANCH  55  78
ENDBRANCH  29  30
ENDBRANCH  22  24
ENDBRANCH  21  22
ENDBRANCH  20  21
ENDBRANCH   1  20
TORSDOF 18
ENDMDL
MODEL 2
REMARK VINA RESULT:     -10.9      5.991     11.959
REMARK SMILES [NH3+][C@H](Cc1ccc(O)c(F)c1)C(=O)OCCOC(=O)c1ccc(-c2c3nc(c(-c4cc(S(=O)(=O)[O-])ccc4F)c4ccc([nH]4)c(-c4cc(S(=O)(=O)[O-])ccc4F)c4nc(c(-c5cc(S(=O)(=O)[O-])ccc5F)c5ccc2[nH]5)C=C4)C=C3)cc1
REMARK SMILES IDX 15 1 14 2 12 3 13 4 2 5 1 6 3 10 4 11 5 12 11 13 6 14 9 15
REMARK SMILES IDX 7 16 10 17 8 18 16 20 17 21 18 22 19 23 20 24 21 25 82 26
REMARK SMILES IDX 22 27 81 28 23 29 24 30 25 31 75 32 26 33 80 34 74 35 76 36
REMARK SMILES IDX 27 37 79 38 73 39 72 40 28 42 60 43 40 44 59 45 41 46 44 47
REMARK SMILES IDX 58 48 77 49 42 50 43 51 57 53 78 54 45 55 29 56 30 57 38 58
REMARK SMILES IDX 31 59 37 60 39 61 36 62 32 63 33 64 34 65 35 66 61 67 62 68
REMARK SMILES IDX 70 69 63 70 69 71 71 72 68 73 64 74 65 75 66 76 67 77 46 78
REMARK SMILES IDX 47 79 55 80 48 81 54 82 56 83 53 84 49 85 50 86 51 87 52 88
REMARK H PARENT 1 7 1 8 1 9 8 19 76 41 44 52
REMARK Flexibility Score: inf
ROOT
ATOM      1  C   UNL A   1      33.446  35.088  28.845  1.00  0.00     0.274 C 
ENDROOT
BRANCH   1   2
ATOM      2  O   UNL A   1      32.777  34.972  30.114  1.00  0.00    -0.458 OA
BRANCH   2   3
ATOM      3  C   UNL A   1      32.769  36.050  30.936  1.00  0.00     0.365 C 
ATOM      4  O   UNL A   1      32.627  37.205  30.549  1.00  0.00    -0.245 OA
BRANCH   3   5
ATOM      5  C   UNL A   1      32.972  35.673  32.424  1.00  0.00     0.296 C 
BRANCH   5   6
ATOM      6  N   UNL A   1      31.970  36.336  33.293  1.00  0.00    -0.346 N 
ATOM      7  H   UNL A   1      31.386  35.628  33.740  1.00  0.00     0.345 HD
ATOM      8  H   UNL A   1      31.385  36.951  32.729  1.00  0.00     0.345 HD
ATOM      9  H   UNL A   1      32.448  36.883  34.007  1.00  0.00     0.345 HD
ENDBRANCH   5   6
BRANCH   5  10
ATOM     10  C   UNL A   1      34.413  35.744  32.981  1.00  0.00     0.113 C 
BRANCH  10  11
ATOM     11  C   UNL A   1      35.252  34.499  33.197  1.00  0.00    -0.038 A 
ATOM     12  C   UNL A   1      35.949  34.387  34.417  1.00  0.00     0.008 A 
ATOM     13  C   UNL A   1      35.355  33.444  32.282  1.00  0.00     0.047 A 
ATOM     14  C   UNL A   1      36.676  33.237  34.737  1.00  0.00     0.049 A 
ATOM     15  C   UNL A   1      36.075  32.295  32.607  1.00  0.00     0.165 A 
ATOM     16  C   UNL A   1      36.722  32.183  33.832  1.00  0.00     0.151 A 
ATOM     17  F   UNL A   1      36.103  31.282  31.729  1.00  0.00    -0.203 F 
BRANCH  16  18
ATOM     18  O   UNL A   1      37.385  31.028  34.136  1.00  0.00    -0.505 OA
ATOM     19  H   UNL A   1      37.849  30.954  34.946  1.00  0.00     0.293 HD
ENDBRANCH  16  18
ENDBRANCH  10  11
ENDBRANCH   5  10
ENDBRANCH   3   5
ENDBRANCH   2   3
ENDBRANCH   1   2
BRANCH   1  20
ATOM     20  C   UNL A   1      33.259  33.808  28.030  1.00  0.00     0.275 C 
BRANCH  20  21
ATOM     21  O   UNL A   1      34.511  33.114  27.882  1.00  0.00    -0.458 OA
BRANCH  21  22
ATOM     22  C   UNL A   1      34.433  31.767  27.989  1.00  0.00     0.338 C 
ATOM     23  O   UNL A   1      33.485  31.056  27.700  1.00  0.00    -0.246 OA
BRANCH  22  24
ATOM     24  C   UNL A   1      35.755  31.231  28.350  1.00  0.00     0.060 A 
ATOM     25  C   UNL A   1      35.813  29.910  28.799  1.00  0.00     0.016 A 
ATOM     26  C   UNL A   1      36.909  32.014  28.291  1.00  0.00     0.016 A 
ATOM     27  C   UNL A   1      37.027  29.362  29.196  1.00  0.00     0.010 A 
ATOM     28  C   UNL A   1      38.131  31.462  28.692  1.00  0.00     0.010 A 
ATOM     29  C   UNL A   1      38.195  30.135  29.153  1.00  0.00    -0.014 A 
BRANCH  29  30
ATOM     30  C   UNL A   1      39.465  29.549  29.644  1.00  0.00     0.031 A 
ATOM     31  C   UNL A   1      40.162  30.163  30.824  1.00  0.00     0.074 A 
ATOM     32  C   UNL A   1      39.949  28.435  29.064  1.00  0.00     0.049 A 
ATOM     33  N   UNL A   1      41.286  29.816  31.393  1.00  0.00    -0.248 NA
ATOM     34  C   UNL A   1      39.502  31.322  31.446  1.00  0.00     0.031 C 
ATOM     35  C   UNL A   1      39.327  27.731  27.942  1.00  0.00     0.029 A 
ATOM     36  N   UNL A   1      41.070  27.694  29.342  1.00  0.00    -0.354 N 
ATOM     37  C   UNL A   1      41.473  30.711  32.442  1.00  0.00     0.074 A 
ATOM     38  C   UNL A   1      40.360  31.638  32.405  1.00  0.00     0.031 C 
ATOM     39  C   UNL A   1      40.072  26.658  27.630  1.00  0.00     0.029 A 
ATOM     40  C   UNL A   1      41.247  26.623  28.496  1.00  0.00     0.049 A 
ATOM     41  H   UNL A   1      41.689  27.909  30.077  1.00  0.00     0.167 HD
ATOM     42  C   UNL A   1      42.476  30.748  33.353  1.00  0.00     0.034 A 
ATOM     43  C   UNL A   1      42.255  25.732  28.415  1.00  0.00     0.034 A 
ATOM     44  C   UNL A   1      43.584  29.823  33.365  1.00  0.00     0.049 A 
ATOM     45  C   UNL A   1      43.394  25.841  29.400  1.00  0.00     0.074 A 
ATOM     46  C   UNL A   1      44.667  29.782  34.227  1.00  0.00     0.029 A 
ATOM     47  N   UNL A   1      43.755  28.775  32.468  1.00  0.00    -0.354 N 
ATOM     48  N   UNL A   1      43.567  26.705  30.373  1.00  0.00    -0.248 NA
ATOM     49  C   UNL A   1      44.468  24.847  29.277  1.00  0.00     0.031 C 
ATOM     50  C   UNL A   1      45.518  28.748  33.817  1.00  0.00     0.029 A 
ATOM     51  C   UNL A   1      44.933  28.097  32.742  1.00  0.00     0.049 A 
ATOM     52  H   UNL A   1      43.129  28.547  31.743  1.00  0.00     0.167 HD
ATOM     53  C   UNL A   1      44.763  26.347  30.989  1.00  0.00     0.074 A 
ATOM     54  C   UNL A   1      45.247  25.169  30.298  1.00  0.00     0.031 C 
ATOM     55  C   UNL A   1      45.409  26.937  32.028  1.00  0.00     0.034 A 
BRANCH  42  56
ATOM     56  C   UNL A   1      42.441  31.856  34.378  1.00  0.00     0.023 A 
ATOM     57  C   UNL A   1      41.769  31.708  35.604  1.00  0.00     0.031 A 
ATOM     58  C   UNL A   1      43.070  33.085  34.115  1.00  0.00     0.131 A 
ATOM     59  C   UNL A   1      41.696  32.789  36.497  1.00  0.00     0.055 A 
ATOM     60  C   UNL A   1      43.054  34.133  35.038  1.00  0.00     0.041 A 
ATOM     61  F   UNL A   1      43.706  33.292  32.951  1.00  0.00    -0.206 F 
ATOM     62  C   UNL A   1      42.355  33.992  36.233  1.00  0.00     0.022 A 
BRANCH  59  63
ATOM     63  S   UNL A   1      40.631  32.642  37.958  1.00  0.00     0.124 S 
ATOM     64  O   UNL A   1      39.490  31.904  37.419  1.00  0.00    -0.237 OA
ATOM     65  O   UNL A   1      41.477  31.911  38.895  1.00  0.00    -0.237 OA
ATOM     66  O   UNL A   1      40.351  34.030  38.321  1.00  0.00    -0.744 OA
ENDBRANCH  59  63
ENDBRANCH  42  56
BRANCH  43  67
ATOM     67  C   UNL A   1      42.271  24.697  27.342  1.00  0.00     0.023 A 
ATOM     68  C   UNL A   1      41.501  23.528  27.442  1.00  0.00     0.031 A 
ATOM     69  C   UNL A   1      43.118  24.833  26.227  1.00  0.00     0.131 A 
ATOM     70  C   UNL A   1      41.634  22.516  26.476  1.00  0.00     0.055 A 
ATOM     71  C   UNL A   1      43.203  23.851  25.238  1.00  0.00     0.041 A 
ATOM     72  F   UNL A   1      43.880  25.929  26.082  1.00  0.00    -0.206 F 
ATOM     73  C   UNL A   1      42.470  22.677  25.369  1.00  0.00     0.022 A 
BRANCH  70  74
ATOM     74  S   UNL A   1      40.783  20.937  26.748  1.00  0.00     0.124 S 
ATOM     75  O   UNL A   1      40.789  20.841  28.203  1.00  0.00    -0.237 OA
ATOM     76  O   UNL A   1      39.486  21.184  26.128  1.00  0.00    -0.237 OA
ATOM     77  O   UNL A   1      41.630  19.970  26.054  1.00  0.00    -0.744 OA
ENDBRANCH  70  74
ENDBRANCH  43  67
BRANCH  55  78
ATOM     78  C   UNL A   1      46.694  26.286  32.481  1.00  0.00     0.023 A 
ATOM     79  C   UNL A   1      47.921  26.562  31.851  1.00  0.00     0.031 A 
ATOM     80  C   UNL A   1      46.683  25.342  33.524  1.00  0.00     0.131 A 
ATOM     81  C   UNL A   1      49.071  25.849  32.218  1.00  0.00     0.055 A 
ATOM     82  C   UNL A   1      47.844  24.683  33.928  1.00  0.00     0.041 A 
ATOM     83  F   UNL A   1      45.540  25.039  34.159  1.00  0.00    -0.206 F 
ATOM     84  C   UNL A   1      49.044  24.921  33.263  1.00  0.00     0.022 A 
BRANCH  81  85
ATOM     85  S   UNL A   1      50.579  26.066  31.233  1.00  0.00     0.124 S 
ATOM     86  O   UNL A   1      51.612  26.098  32.263  1.00  0.00    -0.237 OA
ATOM     87  O   UNL A   1      50.566  24.882  30.380  1.00  0.00    -0.237 OA
ATOM     88  O   UNL A   1      50.355  27.333  30.539  1.00  0.00    -0.744 OA
ENDBRANCH  81  85
ENDBRANCH  55  78
ENDBRANCH  29  30
ENDBRANCH  22  24
ENDBRANCH  21  22
ENDBRANCH  20  21
ENDBRANCH   1  20
TORSDOF 18
ENDMDL
MODEL 3
REMARK VINA RESULT:     -10.8      1.506      1.834
REMARK SMILES [NH3+][C@H](Cc1ccc(O)c(F)c1)C(=O)OCCOC(=O)c1ccc(-c2c3nc(c(-c4cc(S(=O)(=O)[O-])ccc4F)c4ccc([nH]4)c(-c4cc(S(=O)(=O)[O-])ccc4F)c4nc(c(-c5cc(S(=O)(=O)[O-])ccc5F)c5ccc2[nH]5)C=C4)C=C3)cc1
REMARK SMILES IDX 15 1 14 2 12 3 13 4 2 5 1 6 3 10 4 11 5 12 11 13 6 14 9 15
REMARK SMILES IDX 7 16 10 17 8 18 16 20 17 21 18 22 19 23 20 24 21 25 82 26
REMARK SMILES IDX 22 27 81 28 23 29 24 30 25 31 75 32 26 33 80 34 74 35 76 36
REMARK SMILES IDX 27 37 79 38 73 39 72 40 28 42 60 43 40 44 59 45 41 46 44 47
REMARK SMILES IDX 58 48 77 49 42 50 43 51 57 53 78 54 45 55 29 56 30 57 38 58
REMARK SMILES IDX 31 59 37 60 39 61 36 62 32 63 33 64 34 65 35 66 61 67 62 68
REMARK SMILES IDX 70 69 63 70 69 71 71 72 68 73 64 74 65 75 66 76 67 77 46 78
REMARK SMILES IDX 47 79 55 80 48 81 54 82 56 83 53 84 49 85 50 86 51 87 52 88
REMARK H PARENT 1 7 1 8 1 9 8 19 76 41 44 52
REMARK Flexibility Score: inf
ROOT
ATOM      1  C   UNL A   1      36.040  21.948  24.316  1.00  0.00     0.274 C 
ENDROOT
BRANCH   1   2
ATOM      2  O   UNL A   1      35.190  22.106  25.466  1.00  0.00    -0.458 OA
BRANCH   2   3
ATOM      3  C   UNL A   1      33.865  22.308  25.263  1.00  0.00     0.365 C 
ATOM      4  O   UNL A   1      33.400  23.319  24.748  1.00  0.00    -0.245 OA
BRANCH   3   5
ATOM      5  C   UNL A   1      32.993  21.131  25.760  1.00  0.00     0.296 C 
BRANCH   5   6
ATOM      6  N   UNL A   1      33.511  20.572  27.033  1.00  0.00    -0.346 N 
ATOM      7  H   UNL A   1      33.635  19.563  26.935  1.00  0.00     0.345 HD
ATOM      8  H   UNL A   1      32.846  20.760  27.782  1.00  0.00     0.345 HD
ATOM      9  H   UNL A   1      34.406  21.005  27.255  1.00  0.00     0.345 HD
ENDBRANCH   5   6
BRANCH   5  10
ATOM     10  C   UNL A   1      32.607  20.050  24.725  1.00  0.00     0.113 C 
BRANCH  10  11
ATOM     11  C   UNL A   1      33.116  18.625  24.824  1.00  0.00    -0.038 A 
ATOM     12  C   UNL A   1      34.428  18.369  24.377  1.00  0.00     0.008 A 
ATOM     13  C   UNL A   1      32.384  17.556  25.357  1.00  0.00     0.047 A 
ATOM     14  C   UNL A   1      35.010  17.105  24.511  1.00  0.00     0.049 A 
ATOM     15  C   UNL A   1      32.969  16.299  25.496  1.00  0.00     0.165 A 
ATOM     16  C   UNL A   1      34.279  16.074  25.088  1.00  0.00     0.151 A 
ATOM     17  F   UNL A   1      32.256  15.315  26.063  1.00  0.00    -0.203 F 
BRANCH  16  18
ATOM     18  O   UNL A   1      34.836  14.841  25.275  1.00  0.00    -0.505 OA
ATOM     19  H   UNL A   1      34.328  14.069  25.121  1.00  0.00     0.293 HD
ENDBRANCH  16  18
ENDBRANCH  10  11
ENDBRANCH   5  10
ENDBRANCH   3   5
ENDBRANCH   2   3
ENDBRANCH   1   2
BRANCH   1  20
ATOM     20  C   UNL A   1      37.238  21.062  24.661  1.00  0.00     0.275 C 
BRANCH  20  21
ATOM     21  O   UNL A   1      37.740  21.378  25.972  1.00  0.00    -0.458 OA
BRANCH  21  22
ATOM     22  C   UNL A   1      39.070  21.182  26.136  1.00  0.00     0.338 C 
ATOM     23  O   UNL A   1      39.720  20.206  25.802  1.00  0.00    -0.246 OA
BRANCH  22  24
ATOM     24  C   UNL A   1      39.686  22.424  26.630  1.00  0.00     0.060 A 
ATOM     25  C   UNL A   1      39.209  23.629  26.112  1.00  0.00     0.016 A 
ATOM     26  C   UNL A   1      40.738  22.410  27.549  1.00  0.00     0.016 A 
ATOM     27  C   UNL A   1      39.782  24.832  26.508  1.00  0.00     0.010 A 
ATOM     28  C   UNL A   1      41.315  23.622  27.945  1.00  0.00     0.010 A 
ATOM     29  C   UNL A   1      40.844  24.839  27.421  1.00  0.00    -0.014 A 
BRANCH  29  30
ATOM     30  C   UNL A   1      41.481  26.130  27.776  1.00  0.00     0.031 A 
ATOM     31  C   UNL A   1      42.901  26.397  27.367  1.00  0.00     0.074 A 
ATOM     32  C   UNL A   1      40.759  27.074  28.408  1.00  0.00     0.049 A 
ATOM     33  N   UNL A   1      43.644  27.448  27.595  1.00  0.00    -0.248 NA
ATOM     34  C   UNL A   1      43.573  25.338  26.598  1.00  0.00     0.031 C 
ATOM     35  C   UNL A   1      39.358  26.936  28.808  1.00  0.00     0.029 A 
ATOM     36  N   UNL A   1      41.099  28.339  28.817  1.00  0.00    -0.354 N 
ATOM     37  C   UNL A   1      44.871  27.183  26.999  1.00  0.00     0.074 A 
ATOM     38  C   UNL A   1      44.781  25.854  26.429  1.00  0.00     0.031 C 
ATOM     39  C   UNL A   1      38.958  28.072  29.402  1.00  0.00     0.029 A 
ATOM     40  C   UNL A   1      40.082  29.001  29.466  1.00  0.00     0.049 A 
ATOM     41  H   UNL A   1      41.987  28.735  28.661  1.00  0.00     0.167 HD
ATOM     42  C   UNL A   1      45.967  27.978  26.928  1.00  0.00     0.034 A 
ATOM     43  C   UNL A   1      40.070  30.208  30.065  1.00  0.00     0.034 A 
ATOM     44  C   UNL A   1      46.042  29.295  27.515  1.00  0.00     0.049 A 
ATOM     45  C   UNL A   1      41.326  31.043  30.031  1.00  0.00     0.074 A 
ATOM     46  C   UNL A   1      47.108  30.178  27.524  1.00  0.00     0.029 A 
ATOM     47  N   UNL A   1      45.007  29.919  28.203  1.00  0.00    -0.354 N 
ATOM     48  N   UNL A   1      42.487  30.770  29.481  1.00  0.00    -0.248 NA
ATOM     49  C   UNL A   1      41.266  32.352  30.693  1.00  0.00     0.031 C 
ATOM     50  C   UNL A   1      46.738  31.309  28.264  1.00  0.00     0.029 A 
ATOM     51  C   UNL A   1      45.417  31.164  28.657  1.00  0.00     0.049 A 
ATOM     52  H   UNL A   1      44.113  29.534  28.346  1.00  0.00     0.167 HD
ATOM     53  C   UNL A   1      43.289  31.883  29.717  1.00  0.00     0.074 A 
ATOM     54  C   UNL A   1      42.468  32.841  30.428  1.00  0.00     0.031 C 
ATOM     55  C   UNL A   1      44.588  32.097  29.383  1.00  0.00     0.034 A 
BRANCH  42  56
ATOM     56  C   UNL A   1      47.185  27.420  26.234  1.00  0.00     0.023 A 
ATOM     57  C   UNL A   1      48.128  26.629  26.914  1.00  0.00     0.031 A 
ATOM     58  C   UNL A   1      47.418  27.700  24.875  1.00  0.00     0.131 A 
ATOM     59  C   UNL A   1      49.285  26.193  26.252  1.00  0.00     0.055 A 
ATOM     60  C   UNL A   1      48.536  27.204  24.203  1.00  0.00     0.041 A 
ATOM     61  F   UNL A   1      46.565  28.470  24.181  1.00  0.00    -0.206 F 
ATOM     62  C   UNL A   1      49.484  26.454  24.894  1.00  0.00     0.022 A 
BRANCH  59  63
ATOM     63  S   UNL A   1      50.586  25.376  27.216  1.00  0.00     0.124 S 
ATOM     64  O   UNL A   1      51.538  25.003  26.173  1.00  0.00    -0.237 OA
ATOM     65  O   UNL A   1      51.018  26.432  28.125  1.00  0.00    -0.237 OA
ATOM     66  O   UNL A   1      49.893  24.255  27.848  1.00  0.00    -0.744 OA
ENDBRANCH  59  63
ENDBRANCH  42  56
BRANCH  43  67
ATOM     67  C   UNL A   1      38.858  30.683  30.793  1.00  0.00     0.023 A 
ATOM     68  C   UNL A   1      37.905  31.503  30.170  1.00  0.00     0.031 A 
ATOM     69  C   UNL A   1      38.673  30.379  32.154  1.00  0.00     0.131 A 
ATOM     70  C   UNL A   1      36.842  32.036  30.918  1.00  0.00     0.055 A 
ATOM     71  C   UNL A   1      37.583  30.862  32.879  1.00  0.00     0.041 A 
ATOM     72  F   UNL A   1      39.556  29.601  32.803  1.00  0.00    -0.206 F 
ATOM     73  C   UNL A   1      36.668  31.710  32.264  1.00  0.00     0.022 A 
BRANCH  70  74
ATOM     74  S   UNL A   1      35.752  33.255  30.133  1.00  0.00     0.124 S 
ATOM     75  O   UNL A   1      36.633  33.843  29.131  1.00  0.00    -0.237 OA
ATOM     76  O   UNL A   1      34.675  32.412  29.624  1.00  0.00    -0.237 OA
ATOM     77  O   UNL A   1      35.380  34.140  31.235  1.00  0.00    -0.744 OA
ENDBRANCH  70  74
ENDBRANCH  43  67
BRANCH  55  78
ATOM     78  C   UNL A   1      45.173  33.434  29.769  1.00  0.00     0.023 A 
ATOM     79  C   UNL A   1      45.116  34.540  28.902  1.00  0.00     0.031 A 
ATOM     80  C   UNL A   1      45.835  33.591  30.999  1.00  0.00     0.131 A 
ATOM     81  C   UNL A   1      45.774  35.730  29.243  1.00  0.00     0.055 A 
ATOM     82  C   UNL A   1      46.433  34.799  31.361  1.00  0.00     0.041 A 
ATOM     83  F   UNL A   1      45.921  32.569  31.865  1.00  0.00    -0.206 F 
ATOM     84  C   UNL A   1      46.421  35.872  30.473  1.00  0.00     0.022 A 
BRANCH  81  85
ATOM     85  S   UNL A   1      45.875  37.053  28.005  1.00  0.00     0.124 S 
ATOM     86  O   UNL A   1      44.520  37.065  27.463  1.00  0.00    -0.237 OA
ATOM     87  O   UNL A   1      46.247  38.208  28.814  1.00  0.00    -0.237 OA
ATOM     88  O   UNL A   1      46.907  36.582  27.083  1.00  0.00    -0.744 OA
ENDBRANCH  81  85
ENDBRANCH  55  78
ENDBRANCH  29  30
ENDBRANCH  22  24
ENDBRANCH  21  22
ENDBRANCH  20  21
ENDBRANCH   1  20
TORSDOF 18
ENDMDL
