MODEL 1
REMARK VINA RESULT:     -11.0      0.000      0.000
REMARK SMILES [NH3+][C@H](Cc1cnc2ccccc2c1)C(=O)OCCOC(=O)c1ccc(-c2c3nc(c(-c4cc(S(=O)(=O)[O-])ccc4F)c4ccc([nH]4)c(-c4cc(S(=O)(=O)[O-])ccc4F)c4nc(c(-c5cc(S(=O)(=O)[O-])ccc5F)c5ccc2[nH]5)C=C4)C=C3)cc1
REMARK SMILES IDX 18 1 17 2 16 3 14 4 15 5 2 6 1 7 3 11 4 12 5 13 13 14 6 15
REMARK SMILES IDX 12 16 7 17 11 18 8 19 10 20 9 21 19 22 20 23 21 24 22 25
REMARK SMILES IDX 23 26 84 27 24 28 83 29 25 30 26 31 27 32 77 33 28 34 82 35
REMARK SMILES IDX 76 36 78 37 29 38 81 39 75 40 74 41 30 43 62 44 42 45 61 46
REMARK SMILES IDX 43 47 46 48 60 49 79 50 44 51 45 52 59 54 80 55 47 56 31 57
REMARK SMILES IDX 32 58 40 59 33 60 39 61 41 62 38 63 34 64 35 65 36 66 37 67
REMARK SMILES IDX 63 68 64 69 72 70 65 71 71 72 73 73 70 74 66 75 67 76 68 77
REMARK SMILES IDX 69 78 48 79 49 80 57 81 50 82 56 83 58 84 55 85 51 86 52 87
REMARK SMILES IDX 53 88 54 89
REMARK H PARENT 1 8 1 9 1 10 78 42 46 53
REMARK Flexibility Score: inf
ROOT
ATOM      1  C   UNL A   1      40.445  19.797  26.134  1.00  0.00     0.275 C 
ENDROOT
BRANCH   1   2
ATOM      2  C   UNL A   1      41.858  19.199  26.147  1.00  0.00     0.274 C 
BRANCH   2   3
ATOM      3  O   UNL A   1      42.638  19.606  25.006  1.00  0.00    -0.458 OA
BRANCH   3   4
ATOM      4  C   UNL A   1      43.945  19.218  25.024  1.00  0.00     0.365 C 
ATOM      5  O   UNL A   1      44.322  18.078  25.274  1.00  0.00    -0.245 OA
BRANCH   4   6
ATOM      6  C   UNL A   1      44.912  20.381  24.742  1.00  0.00     0.296 C 
BRANCH   6   7
ATOM      7  N   UNL A   1      46.233  20.060  25.336  1.00  0.00    -0.346 N 
ATOM      8  H   UNL A   1      46.231  20.310  26.325  1.00  0.00     0.345 HD
ATOM      9  H   UNL A   1      46.959  20.590  24.854  1.00  0.00     0.345 HD
ATOM     10  H   UNL A   1      46.417  19.062  25.237  1.00  0.00     0.345 HD
ENDBRANCH   6   7
BRANCH   6  11
ATOM     11  C   UNL A   1      44.310  21.780  25.067  1.00  0.00     0.114 C 
BRANCH  11  12
ATOM     12  C   UNL A   1      45.094  22.560  26.088  1.00  0.00    -0.022 A 
ATOM     13  C   UNL A   1      46.295  23.167  25.749  1.00  0.00     0.115 A 
ATOM     14  C   UNL A   1      44.572  22.821  27.355  1.00  0.00     0.016 A 
ATOM     15  N   UNL A   1      46.952  24.040  26.543  1.00  0.00    -0.256 NA
ATOM     16  C   UNL A   1      45.213  23.736  28.194  1.00  0.00     0.000 A 
ATOM     17  C   UNL A   1      46.405  24.337  27.735  1.00  0.00     0.070 A 
ATOM     18  C   UNL A   1      44.670  24.090  29.441  1.00  0.00     0.010 A 
ATOM     19  C   UNL A   1      47.006  25.292  28.542  1.00  0.00     0.029 A 
ATOM     20  C   UNL A   1      45.291  25.058  30.225  1.00  0.00     0.001 A 
ATOM     21  C   UNL A   1      46.458  25.664  29.773  1.00  0.00     0.002 A 
ENDBRANCH  11  12
ENDBRANCH   6  11
ENDBRANCH   4   6
ENDBRANCH   3   4
ENDBRANCH   2   3
ENDBRANCH   1   2
BRANCH   1  22
ATOM     22  O   UNL A   1      40.328  20.967  26.967  1.00  0.00    -0.458 OA
BRANCH  22  23
ATOM     23  C   UNL A   1      39.468  21.908  26.509  1.00  0.00     0.338 C 
ATOM     24  O   UNL A   1      38.458  21.713  25.855  1.00  0.00    -0.246 OA
BRANCH  23  25
ATOM     25  C   UNL A   1      39.821  23.235  27.039  1.00  0.00     0.060 A 
ATOM     26  C   UNL A   1      39.182  24.346  26.477  1.00  0.00     0.016 A 
ATOM     27  C   UNL A   1      40.823  23.405  27.995  1.00  0.00     0.016 A 
ATOM     28  C   UNL A   1      39.548  25.633  26.859  1.00  0.00     0.010 A 
ATOM     29  C   UNL A   1      41.193  24.700  28.376  1.00  0.00     0.010 A 
ATOM     30  C   UNL A   1      40.567  25.820  27.799  1.00  0.00    -0.014 A 
BRANCH  30  31
ATOM     31  C   UNL A   1      41.023  27.197  28.106  1.00  0.00     0.031 A 
ATOM     32  C   UNL A   1      42.438  27.595  27.797  1.00  0.00     0.074 A 
ATOM     33  C   UNL A   1      40.159  28.095  28.613  1.00  0.00     0.049 A 
ATOM     34  N   UNL A   1      43.054  28.723  28.034  1.00  0.00    -0.248 NA
ATOM     35  C   UNL A   1      43.267  26.581  27.129  1.00  0.00     0.031 C 
ATOM     36  C   UNL A   1      38.746  27.837  28.895  1.00  0.00     0.029 A 
ATOM     37  N   UNL A   1      40.340  29.405  28.977  1.00  0.00    -0.354 N 
ATOM     38  C   UNL A   1      44.351  28.554  27.561  1.00  0.00     0.074 A 
ATOM     39  C   UNL A   1      44.434  27.200  27.048  1.00  0.00     0.031 C 
ATOM     40  C   UNL A   1      38.189  28.957  29.385  1.00  0.00     0.029 A 
ATOM     41  C   UNL A   1      39.213  29.991  29.499  1.00  0.00     0.049 A 
ATOM     42  H   UNL A   1      41.197  29.879  28.873  1.00  0.00     0.167 HD
ATOM     43  C   UNL A   1      45.373  29.446  27.553  1.00  0.00     0.034 A 
ATOM     44  C   UNL A   1      39.035  31.214  30.035  1.00  0.00     0.034 A 
ATOM     45  C   UNL A   1      45.270  30.788  28.076  1.00  0.00     0.049 A 
ATOM     46  C   UNL A   1      40.205  32.161  30.093  1.00  0.00     0.074 A 
ATOM     47  C   UNL A   1      46.240  31.774  28.125  1.00  0.00     0.029 A 
ATOM     48  N   UNL A   1      44.127  31.330  28.650  1.00  0.00    -0.354 N 
ATOM     49  N   UNL A   1      41.436  31.980  29.672  1.00  0.00    -0.248 NA
ATOM     50  C   UNL A   1      39.962  33.476  30.699  1.00  0.00     0.031 C 
ATOM     51  C   UNL A   1      45.702  32.889  28.782  1.00  0.00     0.029 A 
ATOM     52  C   UNL A   1      44.375  32.625  29.082  1.00  0.00     0.049 A 
ATOM     53  H   UNL A   1      43.265  30.864  28.739  1.00  0.00     0.167 HD
ATOM     54  C   UNL A   1      42.109  33.167  29.945  1.00  0.00     0.074 A 
ATOM     55  C   UNL A   1      41.143  34.059  30.555  1.00  0.00     0.031 C 
ATOM     56  C   UNL A   1      43.405  33.494  29.708  1.00  0.00     0.034 A 
BRANCH  43  57
ATOM     57  C   UNL A   1      46.701  28.961  27.022  1.00  0.00     0.023 A 
ATOM     58  C   UNL A   1      46.897  28.678  25.658  1.00  0.00     0.031 A 
ATOM     59  C   UNL A   1      47.768  28.715  27.904  1.00  0.00     0.131 A 
ATOM     60  C   UNL A   1      48.098  28.090  25.230  1.00  0.00     0.055 A 
ATOM     61  C   UNL A   1      48.989  28.205  27.459  1.00  0.00     0.041 A 
ATOM     62  F   UNL A   1      47.634  28.943  29.220  1.00  0.00    -0.206 F 
ATOM     63  C   UNL A   1      49.154  27.871  26.119  1.00  0.00     0.022 A 
BRANCH  60  64
ATOM     64  S   UNL A   1      48.196  27.460  23.531  1.00  0.00     0.124 S 
ATOM     65  O   UNL A   1      47.135  28.217  22.872  1.00  0.00    -0.237 OA
ATOM     66  O   UNL A   1      49.560  27.802  23.147  1.00  0.00    -0.237 OA
ATOM     67  O   UNL A   1      47.929  26.030  23.680  1.00  0.00    -0.744 OA
ENDBRANCH  60  64
ENDBRANCH  43  57
BRANCH  44  68
ATOM     68  C   UNL A   1      37.714  31.595  30.605  1.00  0.00     0.023 A 
ATOM     69  C   UNL A   1      36.758  32.278  29.836  1.00  0.00     0.031 A 
ATOM     70  C   UNL A   1      37.398  31.302  31.944  1.00  0.00     0.131 A 
ATOM     71  C   UNL A   1      35.543  32.670  30.419  1.00  0.00     0.055 A 
ATOM     72  C   UNL A   1      36.171  31.654  32.506  1.00  0.00     0.041 A 
ATOM     73  F   UNL A   1      38.278  30.650  32.721  1.00  0.00    -0.206 F 
ATOM     74  C   UNL A   1      35.238  32.351  31.745  1.00  0.00     0.022 A 
BRANCH  71  75
ATOM     75  S   UNL A   1      34.382  33.655  29.435  1.00  0.00     0.124 S 
ATOM     76  O   UNL A   1      33.511  34.207  30.465  1.00  0.00    -0.237 OA
ATOM     77  O   UNL A   1      35.273  34.604  28.773  1.00  0.00    -0.237 OA
ATOM     78  O   UNL A   1      33.762  32.669  28.553  1.00  0.00    -0.744 OA
ENDBRANCH  71  75
ENDBRANCH  44  68
BRANCH  56  79
ATOM     79  C   UNL A   1      43.832  34.893  30.079  1.00  0.00     0.023 A 
ATOM     80  C   UNL A   1      43.619  35.984  29.219  1.00  0.00     0.031 A 
ATOM     81  C   UNL A   1      44.482  35.129  31.304  1.00  0.00     0.131 A 
ATOM     82  C   UNL A   1      44.099  37.254  29.573  1.00  0.00     0.055 A 
ATOM     83  C   UNL A   1      44.910  36.404  31.673  1.00  0.00     0.041 A 
ATOM     84  F   UNL A   1      44.713  34.120  32.160  1.00  0.00    -0.206 F 
ATOM     85  C   UNL A   1      44.730  37.473  30.800  1.00  0.00     0.022 A 
BRANCH  82  86
ATOM     86  S   UNL A   1      43.962  38.605  28.370  1.00  0.00     0.124 S 
ATOM     87  O   UNL A   1      44.153  37.905  27.104  1.00  0.00    -0.237 OA
ATOM     88  O   UNL A   1      42.617  39.113  28.622  1.00  0.00    -0.237 OA
ATOM     89  O   UNL A   1      45.046  39.511  28.746  1.00  0.00    -0.744 OA
ENDBRANCH  82  86
ENDBRANCH  56  79
ENDBRANCH  30  31
ENDBRANCH  23  25
ENDBRANCH  22  23
ENDBRANCH   1  22
TORSDOF 17
ENDMDL
MODEL 2
REMARK VINA RESULT:     -10.8      4.797     12.587
REMARK SMILES [NH3+][C@H](Cc1cnc2ccccc2c1)C(=O)OCCOC(=O)c1ccc(-c2c3nc(c(-c4cc(S(=O)(=O)[O-])ccc4F)c4ccc([nH]4)c(-c4cc(S(=O)(=O)[O-])ccc4F)c4nc(c(-c5cc(S(=O)(=O)[O-])ccc5F)c5ccc2[nH]5)C=C4)C=C3)cc1
REMARK SMILES IDX 18 1 17 2 16 3 14 4 15 5 2 6 1 7 3 11 4 12 5 13 13 14 6 15
REMARK SMILES IDX 12 16 7 17 11 18 8 19 10 20 9 21 19 22 20 23 21 24 22 25
REMARK SMILES IDX 23 26 84 27 24 28 83 29 25 30 26 31 27 32 77 33 28 34 82 35
REMARK SMILES IDX 76 36 78 37 29 38 81 39 75 40 74 41 30 43 62 44 42 45 61 46
REMARK SMILES IDX 43 47 46 48 60 49 79 50 44 51 45 52 59 54 80 55 47 56 31 57
REMARK SMILES IDX 32 58 40 59 33 60 39 61 41 62 38 63 34 64 35 65 36 66 37 67
REMARK SMILES IDX 63 68 64 69 72 70 65 71 71 72 73 73 70 74 66 75 67 76 68 77
REMARK SMILES IDX 69 78 48 79 49 80 57 81 50 82 56 83 58 84 55 85 51 86 52 87
REMARK SMILES IDX 53 88 54 89
REMARK H PARENT 1 8 1 9 1 10 78 42 46 53
REMARK Flexibility Score: inf
ROOT
ATOM      1  C   UNL A   1      33.443  34.089  27.992  1.00  0.00     0.275 C 
ENDROOT
BRANCH   1   2
ATOM      2  C   UNL A   1      33.265  35.315  28.898  1.00  0.00     0.274 C 
BRANCH   2   3
ATOM      3  O   UNL A   1      32.615  34.990  30.142  1.00  0.00    -0.458 OA
BRANCH   3   4
ATOM      4  C   UNL A   1      32.723  35.933  31.121  1.00  0.00     0.365 C 
ATOM      5  O   UNL A   1      32.551  37.134  30.942  1.00  0.00    -0.245 OA
BRANCH   4   6
ATOM      6  C   UNL A   1      33.132  35.334  32.478  1.00  0.00     0.296 C 
BRANCH   6   7
ATOM      7  N   UNL A   1      33.567  36.433  33.375  1.00  0.00    -0.346 N 
ATOM      8  H   UNL A   1      33.713  37.281  32.827  1.00  0.00     0.345 HD
ATOM      9  H   UNL A   1      34.439  36.171  33.834  1.00  0.00     0.345 HD
ATOM     10  H   UNL A   1      32.849  36.601  34.079  1.00  0.00     0.345 HD
ENDBRANCH   6   7
BRANCH   6  11
ATOM     11  C   UNL A   1      34.080  34.106  32.353  1.00  0.00     0.114 C 
BRANCH  11  12
ATOM     12  C   UNL A   1      35.524  34.415  32.644  1.00  0.00    -0.022 A 
ATOM     13  C   UNL A   1      35.966  34.578  33.949  1.00  0.00     0.115 A 
ATOM     14  C   UNL A   1      36.483  34.403  31.632  1.00  0.00     0.016 A 
ATOM     15  N   UNL A   1      37.267  34.660  34.302  1.00  0.00    -0.256 NA
ATOM     16  C   UNL A   1      37.840  34.463  31.962  1.00  0.00     0.000 A 
ATOM     17  C   UNL A   1      38.188  34.578  33.325  1.00  0.00     0.070 A 
ATOM     18  C   UNL A   1      38.837  34.364  30.978  1.00  0.00     0.010 A 
ATOM     19  C   UNL A   1      39.535  34.574  33.657  1.00  0.00     0.029 A 
ATOM     20  C   UNL A   1      40.181  34.354  31.341  1.00  0.00     0.001 A 
ATOM     21  C   UNL A   1      40.531  34.454  32.684  1.00  0.00     0.002 A 
ENDBRANCH  11  12
ENDBRANCH   6  11
ENDBRANCH   4   6
ENDBRANCH   3   4
ENDBRANCH   2   3
ENDBRANCH   1   2
BRANCH   1  22
ATOM     22  O   UNL A   1      33.860  32.917  28.717  1.00  0.00    -0.458 OA
BRANCH  22  23
ATOM     23  C   UNL A   1      34.139  31.839  27.946  1.00  0.00     0.338 C 
ATOM     24  O   UNL A   1      33.504  31.452  26.980  1.00  0.00    -0.246 OA
BRANCH  23  25
ATOM     25  C   UNL A   1      35.433  31.250  28.327  1.00  0.00     0.060 A 
ATOM     26  C   UNL A   1      35.438  29.912  28.738  1.00  0.00     0.016 A 
ATOM     27  C   UNL A   1      36.603  32.009  28.378  1.00  0.00     0.016 A 
ATOM     28  C   UNL A   1      36.608  29.328  29.211  1.00  0.00     0.010 A 
ATOM     29  C   UNL A   1      37.779  31.421  28.858  1.00  0.00     0.010 A 
ATOM     30  C   UNL A   1      37.784  30.082  29.290  1.00  0.00    -0.014 A 
BRANCH  30  31
ATOM     31  C   UNL A   1      38.990  29.479  29.905  1.00  0.00     0.031 A 
ATOM     32  C   UNL A   1      39.423  29.920  31.274  1.00  0.00     0.074 A 
ATOM     33  C   UNL A   1      39.661  28.508  29.259  1.00  0.00     0.049 A 
ATOM     34  N   UNL A   1      40.473  29.564  31.968  1.00  0.00    -0.248 NA
ATOM     35  C   UNL A   1      38.553  30.894  31.948  1.00  0.00     0.031 C 
ATOM     36  C   UNL A   1      39.295  27.957  27.953  1.00  0.00     0.029 A 
ATOM     37  N   UNL A   1      40.787  27.810  29.614  1.00  0.00    -0.354 N 
ATOM     38  C   UNL A   1      40.401  30.282  33.157  1.00  0.00     0.074 A 
ATOM     39  C   UNL A   1      39.217  31.113  33.072  1.00  0.00     0.031 C 
ATOM     40  C   UNL A   1      40.181  27.004  27.619  1.00  0.00     0.029 A 
ATOM     41  C   UNL A   1      41.201  26.912  28.659  1.00  0.00     0.049 A 
ATOM     42  H   UNL A   1      41.254  27.941  30.471  1.00  0.00     0.167 HD
ATOM     43  C   UNL A   1      41.244  30.246  34.220  1.00  0.00     0.034 A 
ATOM     44  C   UNL A   1      42.294  26.126  28.618  1.00  0.00     0.034 A 
ATOM     45  C   UNL A   1      42.423  29.415  34.281  1.00  0.00     0.049 A 
ATOM     46  C   UNL A   1      43.262  26.163  29.772  1.00  0.00     0.074 A 
ATOM     47  C   UNL A   1      43.350  29.302  35.302  1.00  0.00     0.029 A 
ATOM     48  N   UNL A   1      42.843  28.558  33.270  1.00  0.00    -0.354 N 
ATOM     49  N   UNL A   1      43.203  26.870  30.877  1.00  0.00    -0.248 NA
ATOM     50  C   UNL A   1      44.444  25.299  29.670  1.00  0.00     0.031 C 
ATOM     51  C   UNL A   1      44.360  28.424  34.885  1.00  0.00     0.029 A 
ATOM     52  C   UNL A   1      44.029  27.935  33.632  1.00  0.00     0.049 A 
ATOM     53  H   UNL A   1      42.368  28.414  32.420  1.00  0.00     0.167 HD
ATOM     54  C   UNL A   1      44.331  26.518  31.613  1.00  0.00     0.074 A 
ATOM     55  C   UNL A   1      45.044  25.529  30.829  1.00  0.00     0.031 C 
ATOM     56  C   UNL A   1      44.738  26.966  32.828  1.00  0.00     0.034 A 
BRANCH  43  57
ATOM     57  C   UNL A   1      40.946  31.188  35.362  1.00  0.00     0.023 A 
ATOM     58  C   UNL A   1      39.810  31.030  36.178  1.00  0.00     0.031 A 
ATOM     59  C   UNL A   1      41.775  32.299  35.599  1.00  0.00     0.131 A 
ATOM     60  C   UNL A   1      39.491  32.009  37.132  1.00  0.00     0.055 A 
ATOM     61  C   UNL A   1      41.495  33.227  36.604  1.00  0.00     0.041 A 
ATOM     62  F   UNL A   1      42.859  32.515  34.839  1.00  0.00    -0.206 F 
ATOM     63  C   UNL A   1      40.338  33.095  37.365  1.00  0.00     0.022 A 
BRANCH  60  64
ATOM     64  S   UNL A   1      37.870  31.931  37.943  1.00  0.00     0.124 S 
ATOM     65  O   UNL A   1      37.402  30.605  37.547  1.00  0.00    -0.237 OA
ATOM     66  O   UNL A   1      38.214  32.094  39.351  1.00  0.00    -0.237 OA
ATOM     67  O   UNL A   1      37.134  33.045  37.347  1.00  0.00    -0.744 OA
ENDBRANCH  60  64
ENDBRANCH  43  57
BRANCH  44  68
ATOM     68  C   UNL A   1      42.559  25.278  27.424  1.00  0.00     0.023 A 
ATOM     69  C   UNL A   1      42.152  23.935  27.380  1.00  0.00     0.031 A 
ATOM     70  C   UNL A   1      43.251  25.796  26.314  1.00  0.00     0.131 A 
ATOM     71  C   UNL A   1      42.464  23.147  26.261  1.00  0.00     0.055 A 
ATOM     72  C   UNL A   1      43.520  25.021  25.186  1.00  0.00     0.041 A 
ATOM     73  F   UNL A   1      43.662  27.074  26.307  1.00  0.00    -0.206 F 
ATOM     74  C   UNL A   1      43.134  23.685  25.158  1.00  0.00     0.022 A 
BRANCH  71  75
ATOM     75  S   UNL A   1      42.030  21.387  26.286  1.00  0.00     0.124 S 
ATOM     76  O   UNL A   1      42.226  21.052  27.691  1.00  0.00    -0.237 OA
ATOM     77  O   UNL A   1      40.647  21.408  25.819  1.00  0.00    -0.237 OA
ATOM     78  O   UNL A   1      42.988  20.786  25.361  1.00  0.00    -0.744 OA
ENDBRANCH  71  75
ENDBRANCH  44  68
BRANCH  56  79
ATOM     79  C   UNL A   1      45.996  26.353  33.391  1.00  0.00     0.023 A 
ATOM     80  C   UNL A   1      45.969  25.159  34.134  1.00  0.00     0.031 A 
ATOM     81  C   UNL A   1      47.236  26.989  33.200  1.00  0.00     0.131 A 
ATOM     82  C   UNL A   1      47.154  24.665  34.702  1.00  0.00     0.055 A 
ATOM     83  C   UNL A   1      48.418  26.463  33.723  1.00  0.00     0.041 A 
ATOM     84  F   UNL A   1      47.316  28.132  32.501  1.00  0.00    -0.206 F 
ATOM     85  C   UNL A   1      48.379  25.302  34.489  1.00  0.00     0.022 A 
BRANCH  82  86
ATOM     86  S   UNL A   1      47.060  23.221  35.795  1.00  0.00     0.124 S 
ATOM     87  O   UNL A   1      48.470  22.922  36.024  1.00  0.00    -0.237 OA
ATOM     88  O   UNL A   1      46.324  23.743  36.942  1.00  0.00    -0.237 OA
ATOM     89  O   UNL A   1      46.339  22.232  34.996  1.00  0.00    -0.744 OA
ENDBRANCH  82  86
ENDBRANCH  56  79
ENDBRANCH  30  31
ENDBRANCH  23  25
ENDBRANCH  22  23
ENDBRANCH   1  22
TORSDOF 17
ENDMDL
MODEL 3
REMARK VINA RESULT:     -10.4      3.380      9.742
REMARK SMILES [NH3+][C@H](Cc1cnc2ccccc2c1)C(=O)OCCOC(=O)c1ccc(-c2c3nc(c(-c4cc(S(=O)(=O)[O-])ccc4F)c4ccc([nH]4)c(-c4cc(S(=O)(=O)[O-])ccc4F)c4nc(c(-c5cc(S(=O)(=O)[O-])ccc5F)c5ccc2[nH]5)C=C4)C=C3)cc1
REMARK SMILES IDX 18 1 17 2 16 3 14 4 15 5 2 6 1 7 3 11 4 12 5 13 13 14 6 15
REMARK SMILES IDX 12 16 7 17 11 18 8 19 10 20 9 21 19 22 20 23 21 24 22 25
REMARK SMILES IDX 23 26 84 27 24 28 83 29 25 30 26 31 27 32 77 33 28 34 82 35
REMARK SMILES IDX 76 36 78 37 29 38 81 39 75 40 74 41 30 43 62 44 42 45 61 46
REMARK SMILES IDX 43 47 46 48 60 49 79 50 44 51 45 52 59 54 80 55 47 56 31 57
REMARK SMILES IDX 32 58 40 59 33 60 39 61 41 62 38 63 34 64 35 65 36 66 37 67
REMARK SMILES IDX 63 68 64 69 72 70 65 71 71 72 73 73 70 74 66 75 67 76 68 77
REMARK SMILES IDX 69 78 48 79 49 80 57 81 50 82 56 83 58 84 55 85 51 86 52 87
REMARK SMILES IDX 53 88 54 89
REMARK H PARENT 1 8 1 9 1 10 78 42 46 53
REMARK Flexibility Score: inf
ROOT
ATOM      1  C   UNL A   1      36.748  20.407  24.827  1.00  0.00     0.275 C 
ENDROOT
BRANCH   1   2
ATOM      2  C   UNL A   1      35.224  20.335  24.995  1.00  0.00     0.274 C 
BRANCH   2   3
ATOM      3  O   UNL A   1      34.538  21.345  24.230  1.00  0.00    -0.458 OA
BRANCH   3   4
ATOM      4  C   UNL A   1      33.178  21.327  24.326  1.00  0.00     0.365 C 
ATOM      5  O   UNL A   1      32.488  20.327  24.154  1.00  0.00    -0.245 OA
BRANCH   4   6
ATOM      6  C   UNL A   1      32.587  22.715  24.627  1.00  0.00     0.296 C 
BRANCH   6   7
ATOM      7  N   UNL A   1      32.306  23.405  23.344  1.00  0.00    -0.346 N 
ATOM      8  H   UNL A   1      33.101  23.291  22.716  1.00  0.00     0.345 HD
ATOM      9  H   UNL A   1      32.152  24.398  23.520  1.00  0.00     0.345 HD
ATOM     10  H   UNL A   1      31.473  23.002  22.916  1.00  0.00     0.345 HD
ENDBRANCH   6   7
BRANCH   6  11
ATOM     11  C   UNL A   1      33.389  23.511  25.698  1.00  0.00     0.114 C 
BRANCH  11  12
ATOM     12  C   UNL A   1      32.880  24.908  25.930  1.00  0.00    -0.022 A 
ATOM     13  C   UNL A   1      31.617  25.125  26.461  1.00  0.00     0.115 A 
ATOM     14  C   UNL A   1      33.709  26.017  25.759  1.00  0.00     0.016 A 
ATOM     15  N   UNL A   1      31.168  26.328  26.879  1.00  0.00    -0.256 NA
ATOM     16  C   UNL A   1      33.287  27.273  26.201  1.00  0.00     0.000 A 
ATOM     17  C   UNL A   1      32.001  27.379  26.773  1.00  0.00     0.070 A 
ATOM     18  C   UNL A   1      34.128  28.396  26.126  1.00  0.00     0.010 A 
ATOM     19  C   UNL A   1      31.607  28.613  27.270  1.00  0.00     0.029 A 
ATOM     20  C   UNL A   1      33.709  29.620  26.640  1.00  0.00     0.001 A 
ATOM     21  C   UNL A   1      32.449  29.728  27.217  1.00  0.00     0.002 A 
ENDBRANCH  11  12
ENDBRANCH   6  11
ENDBRANCH   4   6
ENDBRANCH   3   4
ENDBRANCH   2   3
ENDBRANCH   1   2
BRANCH   1  22
ATOM     22  O   UNL A   1      37.366  21.335  25.738  1.00  0.00    -0.458 OA
BRANCH  22  23
ATOM     23  C   UNL A   1      38.682  21.117  25.968  1.00  0.00     0.338 C 
ATOM     24  O   UNL A   1      39.316  20.118  25.674  1.00  0.00    -0.246 OA
BRANCH  23  25
ATOM     25  C   UNL A   1      39.325  22.330  26.501  1.00  0.00     0.060 A 
ATOM     26  C   UNL A   1      38.802  23.565  26.104  1.00  0.00     0.016 A 
ATOM     27  C   UNL A   1      40.472  22.270  27.293  1.00  0.00     0.016 A 
ATOM     28  C   UNL A   1      39.427  24.748  26.486  1.00  0.00     0.010 A 
ATOM     29  C   UNL A   1      41.103  23.460  27.673  1.00  0.00     0.010 A 
ATOM     30  C   UNL A   1      40.592  24.703  27.260  1.00  0.00    -0.014 A 
BRANCH  30  31
ATOM     31  C   UNL A   1      41.309  25.966  27.559  1.00  0.00     0.031 A 
ATOM     32  C   UNL A   1      40.644  27.013  28.405  1.00  0.00     0.074 A 
ATOM     33  C   UNL A   1      42.566  26.147  27.114  1.00  0.00     0.049 A 
ATOM     34  N   UNL A   1      41.068  28.204  28.739  1.00  0.00    -0.248 NA
ATOM     35  C   UNL A   1      39.322  26.668  28.946  1.00  0.00     0.031 C 
ATOM     36  C   UNL A   1      43.333  25.173  26.337  1.00  0.00     0.029 A 
ATOM     37  N   UNL A   1      43.419  27.212  27.256  1.00  0.00    -0.354 N 
ATOM     38  C   UNL A   1      40.058  28.761  29.518  1.00  0.00     0.074 A 
ATOM     39  C   UNL A   1      38.991  27.783  29.580  1.00  0.00     0.031 C 
ATOM     40  C   UNL A   1      44.546  25.686  26.073  1.00  0.00     0.029 A 
ATOM     41  C   UNL A   1      44.624  27.038  26.617  1.00  0.00     0.049 A 
ATOM     42  H   UNL A   1      43.191  28.022  27.766  1.00  0.00     0.167 HD
ATOM     43  C   UNL A   1      40.030  29.974  30.125  1.00  0.00     0.034 A 
ATOM     44  C   UNL A   1      45.659  27.887  26.464  1.00  0.00     0.034 A 
ATOM     45  C   UNL A   1      41.102  30.937  30.045  1.00  0.00     0.049 A 
ATOM     46  C   UNL A   1      45.572  29.260  27.076  1.00  0.00     0.074 A 
ATOM     47  C   UNL A   1      41.179  32.196  30.615  1.00  0.00     0.029 A 
ATOM     48  N   UNL A   1      42.286  30.750  29.341  1.00  0.00    -0.354 N 
ATOM     49  N   UNL A   1      44.600  29.789  27.783  1.00  0.00    -0.248 NA
ATOM     50  C   UNL A   1      46.721  30.150  26.868  1.00  0.00     0.031 C 
ATOM     51  C   UNL A   1      42.380  32.792  30.206  1.00  0.00     0.029 A 
ATOM     52  C   UNL A   1      43.085  31.880  29.438  1.00  0.00     0.049 A 
ATOM     53  H   UNL A   1      42.523  29.934  28.844  1.00  0.00     0.167 HD
ATOM     54  C   UNL A   1      45.031  31.069  28.122  1.00  0.00     0.074 A 
ATOM     55  C   UNL A   1      46.354  31.224  27.551  1.00  0.00     0.031 C 
ATOM     56  C   UNL A   1      44.395  32.026  28.844  1.00  0.00     0.034 A 
BRANCH  43  57
ATOM     57  C   UNL A   1      38.765  30.338  30.866  1.00  0.00     0.023 A 
ATOM     58  C   UNL A   1      37.690  30.984  30.229  1.00  0.00     0.031 A 
ATOM     59  C   UNL A   1      38.659  30.094  32.247  1.00  0.00     0.131 A 
ATOM     60  C   UNL A   1      36.597  31.437  30.984  1.00  0.00     0.055 A 
ATOM     61  C   UNL A   1      37.533  30.475  32.979  1.00  0.00     0.041 A 
ATOM     62  F   UNL A   1      39.661  29.502  32.915  1.00  0.00    -0.206 F 
ATOM     63  C   UNL A   1      36.501  31.167  32.352  1.00  0.00     0.022 A 
BRANCH  60  64
ATOM     64  S   UNL A   1      35.386  32.529  30.188  1.00  0.00     0.124 S 
ATOM     65  O   UNL A   1      34.408  32.717  31.257  1.00  0.00    -0.237 OA
ATOM     66  O   UNL A   1      36.191  33.694  29.844  1.00  0.00    -0.237 OA
ATOM     67  O   UNL A   1      34.910  31.740  29.052  1.00  0.00    -0.744 OA
ENDBRANCH  60  64
ENDBRANCH  43  57
BRANCH  44  68
ATOM     68  C   UNL A   1      46.843  27.482  25.657  1.00  0.00     0.023 A 
ATOM     69  C   UNL A   1      46.976  27.866  24.314  1.00  0.00     0.031 A 
ATOM     70  C   UNL A   1      47.852  26.677  26.218  1.00  0.00     0.131 A 
ATOM     71  C   UNL A   1      48.078  27.422  23.566  1.00  0.00     0.055 A 
ATOM     72  C   UNL A   1      48.968  26.276  25.484  1.00  0.00     0.041 A 
ATOM     73  F   UNL A   1      47.772  26.283  27.499  1.00  0.00    -0.206 F 
ATOM     74  C   UNL A   1      49.081  26.641  24.146  1.00  0.00     0.022 A 
BRANCH  71  75
ATOM     75  S   UNL A   1      48.158  27.836  21.803  1.00  0.00     0.124 S 
ATOM     76  O   UNL A   1      48.398  26.530  21.201  1.00  0.00    -0.237 OA
ATOM     77  O   UNL A   1      46.840  28.418  21.567  1.00  0.00    -0.237 OA
ATOM     78  O   UNL A   1      49.274  28.776  21.723  1.00  0.00    -0.744 OA
ENDBRANCH  71  75
ENDBRANCH  44  68
BRANCH  56  79
ATOM     79  C   UNL A   1      45.149  33.310  29.083  1.00  0.00     0.023 A 
ATOM     80  C   UNL A   1      45.048  34.403  28.204  1.00  0.00     0.031 A 
ATOM     81  C   UNL A   1      45.999  33.431  30.197  1.00  0.00     0.131 A 
ATOM     82  C   UNL A   1      45.825  35.550  28.425  1.00  0.00     0.055 A 
ATOM     83  C   UNL A   1      46.729  34.595  30.440  1.00  0.00     0.041 A 
ATOM     84  F   UNL A   1      46.134  32.417  31.066  1.00  0.00    -0.206 F 
ATOM     85  C   UNL A   1      46.654  35.658  29.544  1.00  0.00     0.022 A 
BRANCH  82  86
ATOM     86  S   UNL A   1      45.802  36.871  27.182  1.00  0.00     0.124 S 
ATOM     87  O   UNL A   1      46.603  37.908  27.827  1.00  0.00    -0.237 OA
ATOM     88  O   UNL A   1      46.411  36.223  26.025  1.00  0.00    -0.237 OA
ATOM     89  O   UNL A   1      44.382  37.185  27.040  1.00  0.00    -0.744 OA
ENDBRANCH  82  86
ENDBRANCH  56  79
ENDBRANCH  30  31
ENDBRANCH  23  25
ENDBRANCH  22  23
ENDBRANCH   1  22
TORSDOF 17
ENDMDL
