MODEL 1
REMARK VINA RESULT:     -12.9      0.000      0.000
REMARK SMILES CS(=O)(=O)c1ccc(/C=C(/C(=O)OCCOC(=O)c2ccc(-c3c4nc(c(-c5cc(S(=O)(=O)[O-])ccc5F)c5ccc([nH]5)c(-c5cc(S(=O)(=O)[O-])ccc5F)c5nc(c(-c6cc(S(=O)(=O)[O-])ccc6F)c6ccc3[nH]6)C=C5)C=C4)cc2)c2ccc(O)cc2)cc1
REMARK SMILES IDX 15 1 14 2 13 3 11 4 12 5 10 6 9 7 8 8 5 9 6 10 90 11 7 12
REMARK SMILES IDX 89 13 2 14 1 15 3 16 4 17 82 18 83 19 88 20 84 21 87 22
REMARK SMILES IDX 85 23 86 24 16 26 17 27 18 28 19 29 20 30 81 31 21 32 80 33
REMARK SMILES IDX 22 34 23 35 24 36 74 37 25 38 79 39 73 40 75 41 26 42 78 43
REMARK SMILES IDX 72 44 71 45 27 47 59 48 39 49 58 50 40 51 43 52 57 53 76 54
REMARK SMILES IDX 41 55 42 56 56 58 77 59 44 60 28 61 29 62 37 63 30 64 36 65
REMARK SMILES IDX 38 66 35 67 31 68 32 69 33 70 34 71 60 72 61 73 69 74 62 75
REMARK SMILES IDX 68 76 70 77 67 78 63 79 64 80 65 81 66 82 45 83 46 84 54 85
REMARK SMILES IDX 47 86 53 87 55 88 52 89 48 90 49 91 50 92 51 93
REMARK H PARENT 86 25 75 46 43 57
REMARK Flexibility Score: inf
ROOT
ATOM      1  C   UNL A   1      35.497  21.495  24.762  1.00  0.00     0.275 C 
ENDROOT
BRANCH   1   2
ATOM      2  C   UNL A   1      34.752  22.339  25.793  1.00  0.00     0.275 C 
BRANCH   2   3
ATOM      3  O   UNL A   1      33.972  23.363  25.142  1.00  0.00    -0.458 OA
BRANCH   3   4
ATOM      4  C   UNL A   1      32.958  23.880  25.885  1.00  0.00     0.338 C 
ATOM      5  O   UNL A   1      32.524  23.402  26.924  1.00  0.00    -0.246 OA
BRANCH   4   6
ATOM      6  C   UNL A   1      32.427  25.144  25.295  1.00  0.00     0.067 C 
ATOM      7  C   UNL A   1      31.642  25.060  24.196  1.00  0.00     0.024 C 
BRANCH   7   8
ATOM      8  C   UNL A   1      30.791  26.128  23.627  1.00  0.00    -0.025 A 
ATOM      9  C   UNL A   1      29.129  28.269  22.904  1.00  0.00     0.067 A 
ATOM     10  C   UNL A   1      30.455  28.253  22.481  1.00  0.00     0.021 A 
ATOM     11  C   UNL A   1      28.596  27.183  23.599  1.00  0.00     0.021 A 
ATOM     12  C   UNL A   1      31.268  27.170  22.821  1.00  0.00     0.009 A 
ATOM     13  C   UNL A   1      29.428  26.119  23.958  1.00  0.00     0.009 A 
BRANCH   9  14
ATOM     14  S   UNL A   1      28.133  29.705  22.598  1.00  0.00     0.175 S 
ATOM     15  C   UNL A   1      28.958  31.006  23.483  1.00  0.00     0.163 C 
ATOM     16  O   UNL A   1      26.851  29.491  23.244  1.00  0.00    -0.224 OA
ATOM     17  O   UNL A   1      28.209  29.982  21.176  1.00  0.00    -0.224 OA
ENDBRANCH   9  14
ENDBRANCH   7   8
BRANCH   6  18
ATOM     18  C   UNL A   1      32.641  26.403  26.035  1.00  0.00    -0.011 A 
ATOM     19  C   UNL A   1      33.835  27.117  25.838  1.00  0.00     0.013 A 
ATOM     20  C   UNL A   1      31.659  26.932  26.883  1.00  0.00     0.013 A 
ATOM     21  C   UNL A   1      34.016  28.365  26.433  1.00  0.00     0.047 A 
ATOM     22  C   UNL A   1      31.854  28.171  27.502  1.00  0.00     0.047 A 
ATOM     23  C   UNL A   1      33.026  28.880  27.261  1.00  0.00     0.115 A 
BRANCH  23  24
ATOM     24  O   UNL A   1      33.252  30.099  27.820  1.00  0.00    -0.508 OA
ATOM     25  H   UNL A   1      32.536  30.684  27.976  1.00  0.00     0.293 HD
ENDBRANCH  23  24
ENDBRANCH   6  18
ENDBRANCH   4   6
ENDBRANCH   3   4
ENDBRANCH   2   3
ENDBRANCH   1   2
BRANCH   1  26
ATOM     26  O   UNL A   1      36.803  22.055  24.535  1.00  0.00    -0.458 OA
BRANCH  26  27
ATOM     27  C   UNL A   1      37.809  21.524  25.266  1.00  0.00     0.338 C 
ATOM     28  O   UNL A   1      38.135  20.347  25.313  1.00  0.00    -0.246 OA
BRANCH  27  29
ATOM     29  C   UNL A   1      38.508  22.580  26.026  1.00  0.00     0.060 A 
ATOM     30  C   UNL A   1      37.975  23.863  26.108  1.00  0.00     0.016 A 
ATOM     31  C   UNL A   1      39.780  22.328  26.542  1.00  0.00     0.016 A 
ATOM     32  C   UNL A   1      38.763  24.913  26.582  1.00  0.00     0.010 A 
ATOM     33  C   UNL A   1      40.520  23.368  27.122  1.00  0.00     0.010 A 
ATOM     34  C   UNL A   1      40.049  24.693  27.097  1.00  0.00    -0.014 A 
BRANCH  34  35
ATOM     35  C   UNL A   1      40.920  25.835  27.532  1.00  0.00     0.031 A 
ATOM     36  C   UNL A   1      40.390  26.875  28.498  1.00  0.00     0.074 A 
ATOM     37  C   UNL A   1      42.193  25.956  27.098  1.00  0.00     0.049 A 
ATOM     38  N   UNL A   1      40.864  28.061  28.788  1.00  0.00    -0.248 NA
ATOM     39  C   UNL A   1      39.144  26.545  29.208  1.00  0.00     0.031 C 
ATOM     40  C   UNL A   1      42.885  25.017  26.214  1.00  0.00     0.029 A 
ATOM     41  N   UNL A   1      43.141  26.920  27.352  1.00  0.00    -0.354 N 
ATOM     42  C   UNL A   1      39.934  28.651  29.641  1.00  0.00     0.074 A 
ATOM     43  C   UNL A   1      38.869  27.687  29.823  1.00  0.00     0.031 C 
ATOM     44  C   UNL A   1      44.156  25.412  26.054  1.00  0.00     0.029 A 
ATOM     45  C   UNL A   1      44.340  26.700  26.712  1.00  0.00     0.049 A 
ATOM     46  H   UNL A   1      42.978  27.695  27.936  1.00  0.00     0.167 HD
ATOM     47  C   UNL A   1      39.962  29.884  30.210  1.00  0.00     0.034 A 
ATOM     48  C   UNL A   1      45.444  27.464  26.603  1.00  0.00     0.034 A 
ATOM     49  C   UNL A   1      41.073  30.801  30.097  1.00  0.00     0.049 A 
ATOM     50  C   UNL A   1      45.455  28.831  27.232  1.00  0.00     0.074 A 
ATOM     51  C   UNL A   1      41.214  32.061  30.655  1.00  0.00     0.029 A 
ATOM     52  N   UNL A   1      42.248  30.548  29.402  1.00  0.00    -0.354 N 
ATOM     53  N   UNL A   1      44.516  29.426  27.929  1.00  0.00    -0.248 NA
ATOM     54  C   UNL A   1      46.665  29.639  27.035  1.00  0.00     0.031 C 
ATOM     55  C   UNL A   1      42.447  32.588  30.256  1.00  0.00     0.029 A 
ATOM     56  C   UNL A   1      43.108  31.632  29.504  1.00  0.00     0.049 A 
ATOM     57  H   UNL A   1      42.443  29.718  28.908  1.00  0.00     0.167 HD
ATOM     58  C   UNL A   1      45.022  30.682  28.249  1.00  0.00     0.074 A 
ATOM     59  C   UNL A   1      46.360  30.745  27.698  1.00  0.00     0.031 C 
ATOM     60  C   UNL A   1      44.429  31.696  28.929  1.00  0.00     0.034 A 
BRANCH  47  61
ATOM     61  C   UNL A   1      38.728  30.345  30.953  1.00  0.00     0.023 A 
ATOM     62  C   UNL A   1      37.665  31.011  30.320  1.00  0.00     0.031 A 
ATOM     63  C   UNL A   1      38.625  30.113  32.339  1.00  0.00     0.131 A 
ATOM     64  C   UNL A   1      36.580  31.476  31.079  1.00  0.00     0.055 A 
ATOM     65  C   UNL A   1      37.508  30.511  33.075  1.00  0.00     0.041 A 
ATOM     66  F   UNL A   1      39.615  29.498  33.003  1.00  0.00    -0.206 F 
ATOM     67  C   UNL A   1      36.482  31.210  32.447  1.00  0.00     0.022 A 
BRANCH  64  68
ATOM     68  S   UNL A   1      35.356  32.552  30.280  1.00  0.00     0.124 S 
ATOM     69  O   UNL A   1      34.308  32.614  31.296  1.00  0.00    -0.237 OA
ATOM     70  O   UNL A   1      36.111  33.780  30.064  1.00  0.00    -0.237 OA
ATOM     71  O   UNL A   1      34.995  31.819  29.068  1.00  0.00    -0.744 OA
ENDBRANCH  64  68
ENDBRANCH  47  61
BRANCH  48  72
ATOM     72  C   UNL A   1      46.603  26.995  25.789  1.00  0.00     0.023 A 
ATOM     73  C   UNL A   1      46.874  27.548  24.529  1.00  0.00     0.031 A 
ATOM     74  C   UNL A   1      47.443  25.967  26.256  1.00  0.00     0.131 A 
ATOM     75  C   UNL A   1      47.947  27.055  23.769  1.00  0.00     0.055 A 
ATOM     76  C   UNL A   1      48.541  25.521  25.521  1.00  0.00     0.041 A 
ATOM     77  F   UNL A   1      47.223  25.402  27.455  1.00  0.00    -0.206 F 
ATOM     78  C   UNL A   1      48.792  26.059  24.264  1.00  0.00     0.022 A 
BRANCH  75  79
ATOM     79  S   UNL A   1      48.190  27.697  22.090  1.00  0.00     0.124 S 
ATOM     80  O   UNL A   1      46.947  28.426  21.867  1.00  0.00    -0.237 OA
ATOM     81  O   UNL A   1      49.392  28.511  22.248  1.00  0.00    -0.237 OA
ATOM     82  O   UNL A   1      48.360  26.490  21.285  1.00  0.00    -0.744 OA
ENDBRANCH  75  79
ENDBRANCH  48  72
BRANCH  60  83
ATOM     83  C   UNL A   1      45.249  32.944  29.131  1.00  0.00     0.023 A 
ATOM     84  C   UNL A   1      45.073  34.078  28.318  1.00  0.00     0.031 A 
ATOM     85  C   UNL A   1      46.242  32.987  30.124  1.00  0.00     0.131 A 
ATOM     86  C   UNL A   1      45.919  35.187  28.475  1.00  0.00     0.055 A 
ATOM     87  C   UNL A   1      47.045  34.113  30.311  1.00  0.00     0.041 A 
ATOM     88  F   UNL A   1      46.453  31.929  30.925  1.00  0.00    -0.206 F 
ATOM     89  C   UNL A   1      46.896  35.216  29.474  1.00  0.00     0.022 A 
BRANCH  86  90
ATOM     90  S   UNL A   1      45.789  36.556  27.294  1.00  0.00     0.124 S 
ATOM     91  O   UNL A   1      44.466  36.336  26.717  1.00  0.00    -0.237 OA
ATOM     92  O   UNL A   1      45.923  37.727  28.155  1.00  0.00    -0.237 OA
ATOM     93  O   UNL A   1      46.907  36.329  26.380  1.00  0.00    -0.744 OA
ENDBRANCH  86  90
ENDBRANCH  60  83
ENDBRANCH  34  35
ENDBRANCH  27  29
ENDBRANCH  26  27
ENDBRANCH   1  26
TORSDOF 18
ENDMDL
MODEL 2
REMARK VINA RESULT:     -12.9      1.426      1.645
REMARK SMILES CS(=O)(=O)c1ccc(/C=C(/C(=O)OCCOC(=O)c2ccc(-c3c4nc(c(-c5cc(S(=O)(=O)[O-])ccc5F)c5ccc([nH]5)c(-c5cc(S(=O)(=O)[O-])ccc5F)c5nc(c(-c6cc(S(=O)(=O)[O-])ccc6F)c6ccc3[nH]6)C=C5)C=C4)cc2)c2ccc(O)cc2)cc1
REMARK SMILES IDX 15 1 14 2 13 3 11 4 12 5 10 6 9 7 8 8 5 9 6 10 90 11 7 12
REMARK SMILES IDX 89 13 2 14 1 15 3 16 4 17 82 18 83 19 88 20 84 21 87 22
REMARK SMILES IDX 85 23 86 24 16 26 17 27 18 28 19 29 20 30 81 31 21 32 80 33
REMARK SMILES IDX 22 34 23 35 24 36 74 37 25 38 79 39 73 40 75 41 26 42 78 43
REMARK SMILES IDX 72 44 71 45 27 47 59 48 39 49 58 50 40 51 43 52 57 53 76 54
REMARK SMILES IDX 41 55 42 56 56 58 77 59 44 60 28 61 29 62 37 63 30 64 36 65
REMARK SMILES IDX 38 66 35 67 31 68 32 69 33 70 34 71 60 72 61 73 69 74 62 75
REMARK SMILES IDX 68 76 70 77 67 78 63 79 64 80 65 81 66 82 45 83 46 84 54 85
REMARK SMILES IDX 47 86 53 87 55 88 52 89 48 90 49 91 50 92 51 93
REMARK H PARENT 86 25 75 46 43 57
REMARK Flexibility Score: inf
ROOT
ATOM      1  C   UNL A   1      35.698  21.637  25.760  1.00  0.00     0.275 C 
ENDROOT
BRANCH   1   2
ATOM      2  C   UNL A   1      34.458  22.134  25.020  1.00  0.00     0.275 C 
BRANCH   2   3
ATOM      3  O   UNL A   1      34.218  23.526  25.311  1.00  0.00    -0.458 OA
BRANCH   3   4
ATOM      4  C   UNL A   1      32.983  23.811  25.803  1.00  0.00     0.338 C 
ATOM      5  O   UNL A   1      32.376  23.142  26.627  1.00  0.00    -0.246 OA
BRANCH   4   6
ATOM      6  C   UNL A   1      32.437  25.078  25.232  1.00  0.00     0.067 C 
ATOM      7  C   UNL A   1      31.655  25.001  24.130  1.00  0.00     0.024 C 
BRANCH   7   8
ATOM      8  C   UNL A   1      30.791  26.066  23.577  1.00  0.00    -0.025 A 
ATOM      9  C   UNL A   1      29.123  28.212  22.883  1.00  0.00     0.067 A 
ATOM     10  C   UNL A   1      30.427  28.170  22.400  1.00  0.00     0.021 A 
ATOM     11  C   UNL A   1      28.609  27.149  23.625  1.00  0.00     0.021 A 
ATOM     12  C   UNL A   1      31.243  27.084  22.727  1.00  0.00     0.009 A 
ATOM     13  C   UNL A   1      29.444  26.082  23.970  1.00  0.00     0.009 A 
BRANCH   9  14
ATOM     14  S   UNL A   1      28.131  29.654  22.590  1.00  0.00     0.175 S 
ATOM     15  C   UNL A   1      28.960  30.945  23.485  1.00  0.00     0.163 C 
ATOM     16  O   UNL A   1      26.848  29.437  23.235  1.00  0.00    -0.224 OA
ATOM     17  O   UNL A   1      28.207  29.943  21.170  1.00  0.00    -0.224 OA
ENDBRANCH   9  14
ENDBRANCH   7   8
BRANCH   6  18
ATOM     18  C   UNL A   1      32.635  26.327  25.992  1.00  0.00    -0.011 A 
ATOM     19  C   UNL A   1      33.812  27.067  25.795  1.00  0.00     0.013 A 
ATOM     20  C   UNL A   1      31.651  26.822  26.859  1.00  0.00     0.013 A 
ATOM     21  C   UNL A   1      33.975  28.309  26.410  1.00  0.00     0.047 A 
ATOM     22  C   UNL A   1      31.829  28.054  27.498  1.00  0.00     0.047 A 
ATOM     23  C   UNL A   1      32.984  28.789  27.257  1.00  0.00     0.115 A 
BRANCH  23  24
ATOM     24  O   UNL A   1      33.193  30.003  27.835  1.00  0.00    -0.508 OA
ATOM     25  H   UNL A   1      33.564  30.704  27.334  1.00  0.00     0.293 HD
ENDBRANCH  23  24
ENDBRANCH   6  18
ENDBRANCH   4   6
ENDBRANCH   3   4
ENDBRANCH   2   3
ENDBRANCH   1   2
BRANCH   1  26
ATOM     26  O   UNL A   1      36.872  21.936  24.985  1.00  0.00    -0.458 OA
BRANCH  26  27
ATOM     27  C   UNL A   1      38.048  21.529  25.513  1.00  0.00     0.338 C 
ATOM     28  O   UNL A   1      38.556  20.423  25.400  1.00  0.00    -0.246 OA
BRANCH  27  29
ATOM     29  C   UNL A   1      38.684  22.630  26.265  1.00  0.00     0.060 A 
ATOM     30  C   UNL A   1      38.172  23.922  26.196  1.00  0.00     0.016 A 
ATOM     31  C   UNL A   1      39.888  22.401  26.933  1.00  0.00     0.016 A 
ATOM     32  C   UNL A   1      38.927  24.995  26.675  1.00  0.00     0.010 A 
ATOM     33  C   UNL A   1      40.583  23.472  27.513  1.00  0.00     0.010 A 
ATOM     34  C   UNL A   1      40.146  24.796  27.341  1.00  0.00    -0.014 A 
BRANCH  34  35
ATOM     35  C   UNL A   1      40.989  25.957  27.783  1.00  0.00     0.031 A 
ATOM     36  C   UNL A   1      40.409  27.017  28.697  1.00  0.00     0.074 A 
ATOM     37  C   UNL A   1      42.279  26.077  27.402  1.00  0.00     0.049 A 
ATOM     38  N   UNL A   1      40.863  28.214  28.976  1.00  0.00    -0.248 NA
ATOM     39  C   UNL A   1      39.136  26.696  29.360  1.00  0.00     0.031 C 
ATOM     40  C   UNL A   1      43.016  25.120  26.575  1.00  0.00     0.029 A 
ATOM     41  N   UNL A   1      43.208  27.054  27.673  1.00  0.00    -0.354 N 
ATOM     42  C   UNL A   1      39.891  28.819  29.772  1.00  0.00     0.074 A 
ATOM     43  C   UNL A   1      38.826  27.851  29.932  1.00  0.00     0.031 C 
ATOM     44  C   UNL A   1      44.289  25.521  26.461  1.00  0.00     0.029 A 
ATOM     45  C   UNL A   1      44.436  26.827  27.092  1.00  0.00     0.049 A 
ATOM     46  H   UNL A   1      43.014  27.843  28.228  1.00  0.00     0.167 HD
ATOM     47  C   UNL A   1      39.886  30.066  30.309  1.00  0.00     0.034 A 
ATOM     48  C   UNL A   1      45.538  27.597  27.012  1.00  0.00     0.034 A 
ATOM     49  C   UNL A   1      40.995  30.988  30.221  1.00  0.00     0.049 A 
ATOM     50  C   UNL A   1      45.512  28.980  27.604  1.00  0.00     0.074 A 
ATOM     51  C   UNL A   1      41.102  32.264  30.751  1.00  0.00     0.029 A 
ATOM     52  N   UNL A   1      42.201  30.727  29.585  1.00  0.00    -0.354 N 
ATOM     53  N   UNL A   1      44.539  29.585  28.243  1.00  0.00    -0.248 NA
ATOM     54  C   UNL A   1      46.724  29.792  27.439  1.00  0.00     0.031 C 
ATOM     55  C   UNL A   1      42.348  32.790  30.393  1.00  0.00     0.029 A 
ATOM     56  C   UNL A   1      43.048  31.820  29.696  1.00  0.00     0.049 A 
ATOM     57  H   UNL A   1      42.423  29.886  29.122  1.00  0.00     0.167 HD
ATOM     58  C   UNL A   1      45.022  30.853  28.551  1.00  0.00     0.074 A 
ATOM     59  C   UNL A   1      46.383  30.912  28.059  1.00  0.00     0.031 C 
ATOM     60  C   UNL A   1      44.393  31.879  29.178  1.00  0.00     0.034 A 
BRANCH  47  61
ATOM     61  C   UNL A   1      38.618  30.537  30.984  1.00  0.00     0.023 A 
ATOM     62  C   UNL A   1      37.581  31.181  30.289  1.00  0.00     0.031 A 
ATOM     63  C   UNL A   1      38.453  30.336  32.369  1.00  0.00     0.131 A 
ATOM     64  C   UNL A   1      36.460  31.657  30.987  1.00  0.00     0.055 A 
ATOM     65  C   UNL A   1      37.301  30.744  33.045  1.00  0.00     0.041 A 
ATOM     66  F   UNL A   1      39.415  29.743  33.092  1.00  0.00    -0.206 F 
ATOM     67  C   UNL A   1      36.301  31.422  32.355  1.00  0.00     0.022 A 
BRANCH  64  68
ATOM     68  S   UNL A   1      35.268  32.706  30.109  1.00  0.00     0.124 S 
ATOM     69  O   UNL A   1      34.303  33.006  31.164  1.00  0.00    -0.237 OA
ATOM     70  O   UNL A   1      36.097  33.820  29.665  1.00  0.00    -0.237 OA
ATOM     71  O   UNL A   1      34.766  31.838  29.045  1.00  0.00    -0.744 OA
ENDBRANCH  64  68
ENDBRANCH  47  61
BRANCH  48  72
ATOM     72  C   UNL A   1      46.735  27.115  26.262  1.00  0.00     0.023 A 
ATOM     73  C   UNL A   1      47.814  26.514  26.927  1.00  0.00     0.031 A 
ATOM     74  C   UNL A   1      46.822  27.271  24.866  1.00  0.00     0.131 A 
ATOM     75  C   UNL A   1      48.943  26.109  26.197  1.00  0.00     0.055 A 
ATOM     76  C   UNL A   1      47.922  26.816  24.140  1.00  0.00     0.041 A 
ATOM     77  F   UNL A   1      45.817  27.844  24.183  1.00  0.00    -0.206 F 
ATOM     78  C   UNL A   1      48.996  26.240  24.808  1.00  0.00     0.022 A 
BRANCH  75  79
ATOM     79  S   UNL A   1      50.374  25.459  27.102  1.00  0.00     0.124 S 
ATOM     80  O   UNL A   1      51.347  25.278  26.031  1.00  0.00    -0.237 OA
ATOM     81  O   UNL A   1      50.652  26.537  28.046  1.00  0.00    -0.237 OA
ATOM     82  O   UNL A   1      49.867  24.226  27.701  1.00  0.00    -0.744 OA
ENDBRANCH  75  79
ENDBRANCH  48  72
BRANCH  60  83
ATOM     83  C   UNL A   1      45.195  33.139  29.383  1.00  0.00     0.023 A 
ATOM     84  C   UNL A   1      45.181  34.180  28.438  1.00  0.00     0.031 A 
ATOM     85  C   UNL A   1      46.010  33.283  30.519  1.00  0.00     0.131 A 
ATOM     86  C   UNL A   1      46.012  35.296  28.618  1.00  0.00     0.055 A 
ATOM     87  C   UNL A   1      46.795  34.420  30.718  1.00  0.00     0.041 A 
ATOM     88  F   UNL A   1      46.062  32.316  31.449  1.00  0.00    -0.206 F 
ATOM     89  C   UNL A   1      46.810  35.428  29.758  1.00  0.00     0.022 A 
BRANCH  86  90
ATOM     90  S   UNL A   1      46.110  36.533  27.295  1.00  0.00     0.124 S 
ATOM     91  O   UNL A   1      46.965  37.553  27.895  1.00  0.00    -0.237 OA
ATOM     92  O   UNL A   1      46.698  35.772  26.198  1.00  0.00    -0.237 OA
ATOM     93  O   UNL A   1      44.718  36.932  27.095  1.00  0.00    -0.744 OA
ENDBRANCH  86  90
ENDBRANCH  60  83
ENDBRANCH  34  35
ENDBRANCH  27  29
ENDBRANCH  26  27
ENDBRANCH   1  26
TORSDOF 18
ENDMDL
MODEL 3
REMARK VINA RESULT:     -12.6      5.210     10.293
REMARK SMILES CS(=O)(=O)c1ccc(/C=C(/C(=O)OCCOC(=O)c2ccc(-c3c4nc(c(-c5cc(S(=O)(=O)[O-])ccc5F)c5ccc([nH]5)c(-c5cc(S(=O)(=O)[O-])ccc5F)c5nc(c(-c6cc(S(=O)(=O)[O-])ccc6F)c6ccc3[nH]6)C=C5)C=C4)cc2)c2ccc(O)cc2)cc1
REMARK SMILES IDX 15 1 14 2 13 3 11 4 12 5 10 6 9 7 8 8 5 9 6 10 90 11 7 12
REMARK SMILES IDX 89 13 2 14 1 15 3 16 4 17 82 18 83 19 88 20 84 21 87 22
REMARK SMILES IDX 85 23 86 24 16 26 17 27 18 28 19 29 20 30 81 31 21 32 80 33
REMARK SMILES IDX 22 34 23 35 24 36 74 37 25 38 79 39 73 40 75 41 26 42 78 43
REMARK SMILES IDX 72 44 71 45 27 47 59 48 39 49 58 50 40 51 43 52 57 53 76 54
REMARK SMILES IDX 41 55 42 56 56 58 77 59 44 60 28 61 29 62 37 63 30 64 36 65
REMARK SMILES IDX 38 66 35 67 31 68 32 69 33 70 34 71 60 72 61 73 69 74 62 75
REMARK SMILES IDX 68 76 70 77 67 78 63 79 64 80 65 81 66 82 45 83 46 84 54 85
REMARK SMILES IDX 47 86 53 87 55 88 52 89 48 90 49 91 50 92 51 93
REMARK H PARENT 86 25 75 46 43 57
REMARK Flexibility Score: inf
ROOT
ATOM      1  C   UNL A   1      32.138  29.079  24.993  1.00  0.00     0.275 C 
ENDROOT
BRANCH   1   2
ATOM      2  C   UNL A   1      32.591  28.235  23.805  1.00  0.00     0.275 C 
BRANCH   2   3
ATOM      3  O   UNL A   1      32.742  26.854  24.192  1.00  0.00    -0.458 OA
BRANCH   3   4
ATOM      4  C   UNL A   1      33.275  26.041  23.241  1.00  0.00     0.338 C 
ATOM      5  O   UNL A   1      33.638  26.393  22.129  1.00  0.00    -0.246 OA
BRANCH   4   6
ATOM      6  C   UNL A   1      33.395  24.632  23.722  1.00  0.00     0.067 C 
ATOM      7  C   UNL A   1      32.305  23.834  23.650  1.00  0.00     0.024 C 
BRANCH   7   8
ATOM      8  C   UNL A   1      32.270  22.362  23.793  1.00  0.00    -0.025 A 
ATOM      9  C   UNL A   1      32.526  19.569  23.870  1.00  0.00     0.067 A 
ATOM     10  C   UNL A   1      32.576  20.298  25.055  1.00  0.00     0.021 A 
ATOM     11  C   UNL A   1      32.251  20.205  22.660  1.00  0.00     0.021 A 
ATOM     12  C   UNL A   1      32.419  21.685  25.011  1.00  0.00     0.009 A 
ATOM     13  C   UNL A   1      32.126  21.597  22.626  1.00  0.00     0.009 A 
BRANCH   9  14
ATOM     14  S   UNL A   1      32.867  17.828  23.903  1.00  0.00     0.175 S 
ATOM     15  C   UNL A   1      34.604  17.728  24.260  1.00  0.00     0.163 C 
ATOM     16  O   UNL A   1      32.674  17.322  22.556  1.00  0.00    -0.224 OA
ATOM     17  O   UNL A   1      32.125  17.269  25.017  1.00  0.00    -0.224 OA
ENDBRANCH   9  14
ENDBRANCH   7   8
BRANCH   6  18
ATOM     18  C   UNL A   1      34.734  24.133  24.090  1.00  0.00    -0.011 A 
ATOM     19  C   UNL A   1      35.246  24.426  25.364  1.00  0.00     0.013 A 
ATOM     20  C   UNL A   1      35.480  23.325  23.221  1.00  0.00     0.013 A 
ATOM     21  C   UNL A   1      36.456  23.872  25.782  1.00  0.00     0.047 A 
ATOM     22  C   UNL A   1      36.708  22.794  23.631  1.00  0.00     0.047 A 
ATOM     23  C   UNL A   1      37.177  23.063  24.912  1.00  0.00     0.115 A 
BRANCH  23  24
ATOM     24  O   UNL A   1      38.352  22.550  25.366  1.00  0.00    -0.508 OA
ATOM     25  H   UNL A   1      39.096  23.110  25.477  1.00  0.00     0.293 HD
ENDBRANCH  23  24
ENDBRANCH   6  18
ENDBRANCH   4   6
ENDBRANCH   3   4
ENDBRANCH   2   3
ENDBRANCH   1   2
BRANCH   1  26
ATOM     26  O   UNL A   1      33.197  29.973  25.379  1.00  0.00    -0.458 OA
BRANCH  26  27
ATOM     27  C   UNL A   1      32.932  30.786  26.426  1.00  0.00     0.338 C 
ATOM     28  O   UNL A   1      31.958  31.514  26.558  1.00  0.00    -0.246 OA
BRANCH  27  29
ATOM     29  C   UNL A   1      33.997  30.680  27.445  1.00  0.00     0.060 A 
ATOM     30  C   UNL A   1      34.703  31.809  27.849  1.00  0.00     0.016 A 
ATOM     31  C   UNL A   1      34.392  29.421  27.897  1.00  0.00     0.016 A 
ATOM     32  C   UNL A   1      35.877  31.664  28.592  1.00  0.00     0.010 A 
ATOM     33  C   UNL A   1      35.507  29.296  28.738  1.00  0.00     0.010 A 
ATOM     34  C   UNL A   1      36.306  30.410  29.051  1.00  0.00    -0.014 A 
BRANCH  34  35
ATOM     35  C   UNL A   1      37.608  30.252  29.781  1.00  0.00     0.031 A 
ATOM     36  C   UNL A   1      38.760  29.510  29.135  1.00  0.00     0.074 A 
ATOM     37  C   UNL A   1      37.796  30.781  31.010  1.00  0.00     0.049 A 
ATOM     38  N   UNL A   1      39.853  29.035  29.679  1.00  0.00    -0.248 NA
ATOM     39  C   UNL A   1      38.650  29.244  27.693  1.00  0.00     0.031 C 
ATOM     40  C   UNL A   1      36.818  31.576  31.754  1.00  0.00     0.029 A 
ATOM     41  N   UNL A   1      38.885  30.738  31.849  1.00  0.00    -0.354 N 
ATOM     42  C   UNL A   1      40.515  28.339  28.669  1.00  0.00     0.074 A 
ATOM     43  C   UNL A   1      39.699  28.461  27.479  1.00  0.00     0.031 C 
ATOM     44  C   UNL A   1      37.370  31.997  32.901  1.00  0.00     0.029 A 
ATOM     45  C   UNL A   1      38.692  31.399  33.041  1.00  0.00     0.049 A 
ATOM     46  H   UNL A   1      39.724  30.277  31.619  1.00  0.00     0.167 HD
ATOM     47  C   UNL A   1      41.688  27.657  28.732  1.00  0.00     0.034 A 
ATOM     48  C   UNL A   1      39.451  31.470  34.152  1.00  0.00     0.034 A 
ATOM     49  C   UNL A   1      42.540  27.621  29.899  1.00  0.00     0.049 A 
ATOM     50  C   UNL A   1      40.743  30.701  34.209  1.00  0.00     0.074 A 
ATOM     51  C   UNL A   1      43.759  26.983  30.059  1.00  0.00     0.029 A 
ATOM     52  N   UNL A   1      42.278  28.272  31.097  1.00  0.00    -0.354 N 
ATOM     53  N   UNL A   1      41.293  29.944  33.289  1.00  0.00    -0.248 NA
ATOM     54  C   UNL A   1      41.500  30.775  35.464  1.00  0.00     0.031 C 
ATOM     55  C   UNL A   1      44.207  27.205  31.366  1.00  0.00     0.029 A 
ATOM     56  C   UNL A   1      43.303  28.038  32.003  1.00  0.00     0.049 A 
ATOM     57  H   UNL A   1      41.481  28.822  31.277  1.00  0.00     0.167 HD
ATOM     58  C   UNL A   1      42.461  29.447  33.859  1.00  0.00     0.074 A 
ATOM     59  C   UNL A   1      42.551  30.017  35.188  1.00  0.00     0.031 C 
ATOM     60  C   UNL A   1      43.371  28.589  33.335  1.00  0.00     0.034 A 
BRANCH  47  61
ATOM     61  C   UNL A   1      42.091  26.836  27.528  1.00  0.00     0.023 A 
ATOM     62  C   UNL A   1      41.869  25.451  27.445  1.00  0.00     0.031 A 
ATOM     63  C   UNL A   1      42.722  27.466  26.438  1.00  0.00     0.131 A 
ATOM     64  C   UNL A   1      42.331  24.734  26.329  1.00  0.00     0.055 A 
ATOM     65  C   UNL A   1      43.111  26.760  25.298  1.00  0.00     0.041 A 
ATOM     66  F   UNL A   1      42.978  28.783  26.465  1.00  0.00    -0.206 F 
ATOM     67  C   UNL A   1      42.928  25.382  25.245  1.00  0.00     0.022 A 
BRANCH  64  68
ATOM     68  S   UNL A   1      42.261  22.922  26.370  1.00  0.00     0.124 S 
ATOM     69  O   UNL A   1      42.640  22.580  25.001  1.00  0.00    -0.237 OA
ATOM     70  O   UNL A   1      43.234  22.592  27.403  1.00  0.00    -0.237 OA
ATOM     71  O   UNL A   1      40.868  22.640  26.711  1.00  0.00    -0.744 OA
ENDBRANCH  64  68
ENDBRANCH  47  61
BRANCH  48  72
ATOM     72  C   UNL A   1      38.966  32.228  35.342  1.00  0.00     0.023 A 
ATOM     73  C   UNL A   1      38.382  31.568  36.433  1.00  0.00     0.031 A 
ATOM     74  C   UNL A   1      39.063  33.631  35.392  1.00  0.00     0.131 A 
ATOM     75  C   UNL A   1      37.899  32.313  37.521  1.00  0.00     0.055 A 
ATOM     76  C   UNL A   1      38.632  34.362  36.499  1.00  0.00     0.041 A 
ATOM     77  F   UNL A   1      39.610  34.311  34.371  1.00  0.00    -0.206 F 
ATOM     78  C   UNL A   1      38.036  33.703  37.568  1.00  0.00     0.022 A 
BRANCH  75  79
ATOM     79  S   UNL A   1      37.030  31.442  38.853  1.00  0.00     0.124 S 
ATOM     80  O   UNL A   1      35.762  32.160  38.901  1.00  0.00    -0.237 OA
ATOM     81  O   UNL A   1      36.975  30.078  38.338  1.00  0.00    -0.237 OA
ATOM     82  O   UNL A   1      37.902  31.634  40.010  1.00  0.00    -0.744 OA
ENDBRANCH  75  79
ENDBRANCH  48  72
BRANCH  60  83
ATOM     83  C   UNL A   1      44.555  28.245  34.202  1.00  0.00     0.023 A 
ATOM     84  C   UNL A   1      44.541  27.126  35.053  1.00  0.00     0.031 A 
ATOM     85  C   UNL A   1      45.694  29.067  34.203  1.00  0.00     0.131 A 
ATOM     86  C   UNL A   1      45.624  26.892  35.915  1.00  0.00     0.055 A 
ATOM     87  C   UNL A   1      46.791  28.799  35.025  1.00  0.00     0.041 A 
ATOM     88  F   UNL A   1      45.757  30.150  33.412  1.00  0.00    -0.206 F 
ATOM     89  C   UNL A   1      46.754  27.715  35.897  1.00  0.00     0.022 A 
BRANCH  86  90
ATOM     90  S   UNL A   1      45.497  25.551  37.129  1.00  0.00     0.124 S 
ATOM     91  O   UNL A   1      46.752  25.686  37.863  1.00  0.00    -0.237 OA
ATOM     92  O   UNL A   1      44.287  25.906  37.863  1.00  0.00    -0.237 OA
ATOM     93  O   UNL A   1      45.390  24.350  36.303  1.00  0.00    -0.744 OA
ENDBRANCH  86  90
ENDBRANCH  60  83
ENDBRANCH  34  35
ENDBRANCH  27  29
ENDBRANCH  26  27
ENDBRANCH   1  26
TORSDOF 18
ENDMDL
