MODEL 1
REMARK VINA RESULT:     -11.9      0.000      0.000
REMARK SMILES Cc1ccc(N2C(=O)N=C(OCCOC(=O)c3ccc(-c4c5nc(c(-c6cc(S(=O)(=O)[O-])ccc6F)c6ccc([nH]6)c(-c6cc(S(=O)(=O)[O-])ccc6F)c6nc(c(-c7cc(S(=O)(=O)[O-])ccc7F)c7ccc4[nH]7)C=C6)C=C5)cc3)/C(=C\c3ccccc3OCc3cccc(C(=O)[O-])c3)C2=O)cc1
REMARK SMILES IDX 12 1 11 2 10 3 6 4 7 5 99 6 8 7 9 8 80 9 100 10 81 11 5 12
REMARK SMILES IDX 1 13 2 14 3 15 102 16 4 17 101 18 82 19 83 20 87 21 84 22
REMARK SMILES IDX 86 23 85 24 88 25 89 26 90 27 91 28 98 29 92 30 94 31 93 32
REMARK SMILES IDX 95 33 96 34 97 35 13 36 14 37 15 38 16 39 17 40 18 41 79 42
REMARK SMILES IDX 19 43 78 44 20 45 21 46 22 47 72 48 23 49 77 50 71 51 73 52
REMARK SMILES IDX 24 53 76 54 70 55 69 56 25 58 57 59 37 60 56 61 38 62 41 63
REMARK SMILES IDX 55 64 74 65 39 66 40 67 54 69 75 70 42 71 26 72 27 73 35 74
REMARK SMILES IDX 28 75 34 76 36 77 33 78 29 79 30 80 31 81 32 82 58 83 59 84
REMARK SMILES IDX 67 85 60 86 66 87 68 88 65 89 61 90 62 91 63 92 64 93 43 94
REMARK SMILES IDX 44 95 52 96 45 97 51 98 53 99 50 100 46 101 47 102 48 103
REMARK SMILES IDX 49 104
REMARK H PARENT 73 57 41 68
REMARK Flexibility Score: inf
ROOT
ATOM      1  C   UNL A   1      47.191  29.240  26.169  1.00  0.00     0.273 C 
ENDROOT
BRANCH   1   2
ATOM      2  O   UNL A   1      46.120  29.214  27.043  1.00  0.00    -0.473 OA
BRANCH   2   3
ATOM      3  C   UNL A   1      45.437  30.354  26.997  1.00  0.00     0.231 C 
ATOM      4  N   UNL A   1      44.261  33.748  27.125  1.00  0.00    -0.226 N 
ATOM      5  C   UNL A   1      44.857  33.015  25.581  1.00  0.00     0.358 C 
ATOM      6  C   UNL A   1      44.133  32.850  28.610  1.00  0.00     0.272 C 
ATOM      7  O   UNL A   1      44.837  33.799  24.598  1.00  0.00    -0.245 OA
ATOM      8  N   UNL A   1      45.597  31.193  25.789  1.00  0.00    -0.156 NA
ATOM      9  C   UNL A   1      44.428  30.962  28.515  1.00  0.00     0.103 C 
ATOM     10  O   UNL A   1      43.680  33.292  29.662  1.00  0.00    -0.268 OA
ATOM     11  C   UNL A   1      43.223  30.373  28.848  1.00  0.00     0.031 C 
BRANCH   4  12
ATOM     12  C   UNL A   1      43.756  35.165  27.144  1.00  0.00     0.054 A 
ATOM     13  C   UNL A   1      42.019  39.245  27.100  1.00  0.00     0.044 C 
ATOM     14  C   UNL A   1      42.627  37.867  27.121  1.00  0.00    -0.051 A 
ATOM     15  C   UNL A   1      44.003  37.650  27.181  1.00  0.00     0.005 A 
ATOM     16  C   UNL A   1      41.823  36.738  27.071  1.00  0.00     0.005 A 
ATOM     17  C   UNL A   1      44.551  36.327  27.210  1.00  0.00     0.027 A 
ATOM     18  C   UNL A   1      42.378  35.437  27.080  1.00  0.00     0.027 A 
ENDBRANCH   4  12
BRANCH  11  19
ATOM     19  C   UNL A   1      42.512  29.330  28.079  1.00  0.00     0.018 A 
ATOM     20  C   UNL A   1      43.251  28.438  27.258  1.00  0.00     0.012 A 
ATOM     21  C   UNL A   1      41.140  29.301  27.986  1.00  0.00     0.127 A 
ATOM     22  C   UNL A   1      42.752  27.935  26.047  1.00  0.00     0.001 A 
ATOM     23  C   UNL A   1      40.691  28.880  26.655  1.00  0.00     0.047 A 
ATOM     24  C   UNL A   1      41.495  28.311  25.660  1.00  0.00     0.004 A 
BRANCH  21  25
ATOM     25  O   UNL A   1      40.174  29.799  28.871  1.00  0.00    -0.488 OA
BRANCH  25  26
ATOM     26  C   UNL A   1      38.920  30.699  29.661  1.00  0.00     0.265 C 
BRANCH  26  27
ATOM     27  C   UNL A   1      38.900  32.020  30.793  1.00  0.00    -0.010 A 
ATOM     28  C   UNL A   1      39.990  32.750  31.240  1.00  0.00     0.007 A 
ATOM     29  C   UNL A   1      37.748  32.710  31.254  1.00  0.00     0.017 A 
ATOM     30  C   UNL A   1      39.796  33.916  32.092  1.00  0.00     0.001 A 
ATOM     31  C   UNL A   1      37.396  33.565  32.338  1.00  0.00    -0.002 A 
ATOM     32  C   UNL A   1      38.523  34.300  32.661  1.00  0.00     0.010 A 
BRANCH  31  33
ATOM     33  C   UNL A   1      35.729  34.003  32.782  1.00  0.00     0.071 C 
ATOM     34  O   UNL A   1      35.420  33.182  33.703  1.00  0.00    -0.545 OA
ATOM     35  O   UNL A   1      34.501  35.383  31.986  1.00  0.00    -0.545 OA
ENDBRANCH  31  33
ENDBRANCH  26  27
ENDBRANCH  25  26
ENDBRANCH  21  25
ENDBRANCH  11  19
ENDBRANCH   2   3
ENDBRANCH   1   2
BRANCH   1  36
ATOM     36  C   UNL A   1      47.037  28.188  25.057  1.00  0.00     0.274 C 
BRANCH  36  37
ATOM     37  O   UNL A   1      46.020  27.008  25.194  1.00  0.00    -0.458 OA
BRANCH  37  38
ATOM     38  C   UNL A   1      45.755  25.712  25.627  1.00  0.00     0.338 C 
ATOM     39  O   UNL A   1      45.294  24.902  24.827  1.00  0.00    -0.246 OA
BRANCH  38  40
ATOM     40  C   UNL A   1      45.985  25.137  27.078  1.00  0.00     0.060 A 
ATOM     41  C   UNL A   1      47.415  25.819  28.010  1.00  0.00     0.016 A 
ATOM     42  C   UNL A   1      44.617  24.471  28.344  1.00  0.00     0.016 A 
ATOM     43  C   UNL A   1      47.212  25.941  29.844  1.00  0.00     0.010 A 
ATOM     44  C   UNL A   1      44.628  24.945  29.996  1.00  0.00     0.010 A 
ATOM     45  C   UNL A   1      45.699  25.555  30.745  1.00  0.00    -0.014 A 
BRANCH  45  46
ATOM     46  C   UNL A   1      44.683  25.359  32.172  1.00  0.00     0.031 A 
ATOM     47  C   UNL A   1      44.470  26.680  32.635  1.00  0.00     0.074 A 
ATOM     48  C   UNL A   1      44.529  24.474  33.366  1.00  0.00     0.049 A 
ATOM     49  N   UNL A   1      44.051  27.089  34.174  1.00  0.00    -0.248 NA
ATOM     50  C   UNL A   1      44.444  28.336  31.466  1.00  0.00     0.031 C 
ATOM     51  C   UNL A   1      43.450  24.254  34.387  1.00  0.00     0.029 A 
ATOM     52  N   UNL A   1      45.347  23.446  33.905  1.00  0.00    -0.354 N 
ATOM     53  C   UNL A   1      43.437  28.843  34.237  1.00  0.00     0.074 A 
ATOM     54  C   UNL A   1      43.788  29.563  32.424  1.00  0.00     0.031 C 
ATOM     55  C   UNL A   1      43.791  23.311  35.334  1.00  0.00     0.029 A 
ATOM     56  C   UNL A   1      45.136  22.806  35.104  1.00  0.00     0.049 A 
ATOM     57  H   UNL A   1      46.130  23.168  33.376  1.00  0.00     0.167 HD
ATOM     58  C   UNL A   1      42.298  28.830  35.022  1.00  0.00     0.034 A 
ATOM     59  C   UNL A   1      46.142  22.270  35.906  1.00  0.00     0.034 A 
ATOM     60  C   UNL A   1      42.435  27.714  35.986  1.00  0.00     0.049 A 
ATOM     61  C   UNL A   1      46.218  23.279  37.025  1.00  0.00     0.074 A 
ATOM     62  C   UNL A   1      41.769  26.514  36.210  1.00  0.00     0.029 A 
ATOM     63  N   UNL A   1      43.638  27.590  36.671  1.00  0.00    -0.354 N 
ATOM     64  N   UNL A   1      45.520  24.375  36.957  1.00  0.00    -0.248 NA
ATOM     65  C   UNL A   1      46.978  23.183  38.264  1.00  0.00     0.031 C 
ATOM     66  C   UNL A   1      42.564  25.719  37.094  1.00  0.00     0.029 A 
ATOM     67  C   UNL A   1      43.730  26.410  37.374  1.00  0.00     0.049 A 
ATOM     68  H   UNL A   1      44.348  28.272  36.655  1.00  0.00     0.167 HD
ATOM     69  C   UNL A   1      45.607  25.072  38.105  1.00  0.00     0.074 A 
ATOM     70  C   UNL A   1      46.556  24.296  38.896  1.00  0.00     0.031 C 
ATOM     71  C   UNL A   1      44.874  26.211  38.260  1.00  0.00     0.034 A 
BRANCH  58  72
ATOM     72  C   UNL A   1      40.948  29.441  34.713  1.00  0.00     0.023 A 
ATOM     73  C   UNL A   1      40.478  30.454  35.576  1.00  0.00     0.031 A 
ATOM     74  C   UNL A   1      40.058  29.093  33.683  1.00  0.00     0.131 A 
ATOM     75  C   UNL A   1      39.235  31.082  35.398  1.00  0.00     0.055 A 
ATOM     76  C   UNL A   1      38.810  29.715  33.498  1.00  0.00     0.041 A 
ATOM     77  F   UNL A   1      40.336  28.130  32.804  1.00  0.00    -0.206 F 
ATOM     78  C   UNL A   1      38.397  30.727  34.351  1.00  0.00     0.022 A 
BRANCH  75  79
ATOM     79  S   UNL A   1      38.786  32.424  36.526  1.00  0.00     0.124 S 
ATOM     80  O   UNL A   1      39.281  31.925  37.805  1.00  0.00    -0.237 OA
ATOM     81  O   UNL A   1      39.499  33.561  35.955  1.00  0.00    -0.237 OA
ATOM     82  O   UNL A   1      37.330  32.489  36.407  1.00  0.00    -0.744 OA
ENDBRANCH  75  79
ENDBRANCH  58  72
BRANCH  59  83
ATOM     83  C   UNL A   1      47.400  21.481  35.374  1.00  0.00     0.023 A 
ATOM     84  C   UNL A   1      48.325  22.130  34.503  1.00  0.00     0.031 A 
ATOM     85  C   UNL A   1      47.902  20.294  35.976  1.00  0.00     0.131 A 
ATOM     86  C   UNL A   1      49.713  21.789  34.484  1.00  0.00     0.055 A 
ATOM     87  C   UNL A   1      49.303  20.011  36.020  1.00  0.00     0.041 A 
ATOM     88  F   UNL A   1      47.129  19.576  36.800  1.00  0.00    -0.206 F 
ATOM     89  C   UNL A   1      50.220  20.812  35.337  1.00  0.00     0.022 A 
BRANCH  86  90
ATOM     90  S   UNL A   1      50.901  22.733  33.454  1.00  0.00     0.124 S 
ATOM     91  O   UNL A   1      51.599  21.676  32.733  1.00  0.00    -0.237 OA
ATOM     92  O   UNL A   1      50.033  23.591  32.655  1.00  0.00    -0.237 OA
ATOM     93  O   UNL A   1      51.722  23.443  34.430  1.00  0.00    -0.744 OA
ENDBRANCH  86  90
ENDBRANCH  59  83
BRANCH  71  94
ATOM     94  C   UNL A   1      45.138  27.235  39.317  1.00  0.00     0.023 A 
ATOM     95  C   UNL A   1      45.675  28.478  39.003  1.00  0.00     0.031 A 
ATOM     96  C   UNL A   1      44.798  27.033  40.676  1.00  0.00     0.131 A 
ATOM     97  C   UNL A   1      46.027  29.377  40.006  1.00  0.00     0.055 A 
ATOM     98  C   UNL A   1      44.996  27.999  41.655  1.00  0.00     0.041 A 
ATOM     99  F   UNL A   1      44.255  25.897  41.134  1.00  0.00    -0.206 F 
ATOM    100  C   UNL A   1      45.663  29.165  41.332  1.00  0.00     0.022 A 
BRANCH  97 101
ATOM    101  S   UNL A   1      47.089  30.747  39.522  1.00  0.00     0.124 S 
ATOM    102  O   UNL A   1      47.219  31.482  40.778  1.00  0.00    -0.237 OA
ATOM    103  O   UNL A   1      48.296  30.062  39.068  1.00  0.00    -0.237 OA
ATOM    104  O   UNL A   1      46.319  31.420  38.481  1.00  0.00    -0.744 OA
ENDBRANCH  97 101
ENDBRANCH  71  94
ENDBRANCH  45  46
ENDBRANCH  38  40
ENDBRANCH  37  38
ENDBRANCH  36  37
ENDBRANCH   1  36
TORSDOF 19
ENDMDL
MODEL 2
REMARK VINA RESULT:     -11.4      3.239      5.754
REMARK SMILES Cc1ccc(N2C(=O)N=C(OCCOC(=O)c3ccc(-c4c5nc(c(-c6cc(S(=O)(=O)[O-])ccc6F)c6ccc([nH]6)c(-c6cc(S(=O)(=O)[O-])ccc6F)c6nc(c(-c7cc(S(=O)(=O)[O-])ccc7F)c7ccc4[nH]7)C=C6)C=C5)cc3)/C(=C\c3ccccc3OCc3cccc(C(=O)[O-])c3)C2=O)cc1
REMARK SMILES IDX 12 1 11 2 10 3 6 4 7 5 99 6 8 7 9 8 80 9 100 10 81 11 5 12
REMARK SMILES IDX 1 13 2 14 3 15 102 16 4 17 101 18 82 19 83 20 87 21 84 22
REMARK SMILES IDX 86 23 85 24 88 25 89 26 90 27 91 28 98 29 92 30 94 31 93 32
REMARK SMILES IDX 95 33 96 34 97 35 13 36 14 37 15 38 16 39 17 40 18 41 79 42
REMARK SMILES IDX 19 43 78 44 20 45 21 46 22 47 72 48 23 49 77 50 71 51 73 52
REMARK SMILES IDX 24 53 76 54 70 55 69 56 25 58 57 59 37 60 56 61 38 62 41 63
REMARK SMILES IDX 55 64 74 65 39 66 40 67 54 69 75 70 42 71 26 72 27 73 35 74
REMARK SMILES IDX 28 75 34 76 36 77 33 78 29 79 30 80 31 81 32 82 58 83 59 84
REMARK SMILES IDX 67 85 60 86 66 87 68 88 65 89 61 90 62 91 63 92 64 93 43 94
REMARK SMILES IDX 44 95 52 96 45 97 51 98 53 99 50 100 46 101 47 102 48 103
REMARK SMILES IDX 49 104
REMARK H PARENT 73 57 41 68
REMARK Flexibility Score: inf
ROOT
ATOM      1  C   UNL A   1      47.198  26.426  25.186  1.00  0.00     0.273 C 
ENDROOT
BRANCH   1   2
ATOM      2  O   UNL A   1      46.837  26.066  26.471  1.00  0.00    -0.473 OA
BRANCH   2   3
ATOM      3  C   UNL A   1      45.547  26.301  26.690  1.00  0.00     0.231 C 
ATOM      4  N   UNL A   1      42.330  27.503  27.750  1.00  0.00    -0.226 N 
ATOM      5  C   UNL A   1      43.073  28.050  26.193  1.00  0.00     0.358 C 
ATOM      6  C   UNL A   1      43.065  26.310  28.782  1.00  0.00     0.272 C 
ATOM      7  O   UNL A   1      42.379  28.884  25.556  1.00  0.00    -0.245 OA
ATOM      8  N   UNL A   1      44.910  27.378  25.899  1.00  0.00    -0.156 NA
ATOM      9  C   UNL A   1      44.605  25.400  28.101  1.00  0.00     0.103 C 
ATOM     10  O   UNL A   1      42.567  25.869  29.814  1.00  0.00    -0.268 OA
ATOM     11  C   UNL A   1      44.235  24.074  27.972  1.00  0.00     0.031 C 
BRANCH   4  12
ATOM     12  C   UNL A   1      40.973  28.008  28.159  1.00  0.00     0.054 A 
ATOM     13  C   UNL A   1      37.103  29.679  29.535  1.00  0.00     0.044 C 
ATOM     14  C   UNL A   1      38.407  29.097  29.056  1.00  0.00    -0.051 A 
ATOM     15  C   UNL A   1      38.496  27.850  28.437  1.00  0.00     0.005 A 
ATOM     16  C   UNL A   1      39.596  29.791  29.226  1.00  0.00     0.005 A 
ATOM     17  C   UNL A   1      39.750  27.328  27.984  1.00  0.00     0.027 A 
ATOM     18  C   UNL A   1      40.830  29.255  28.791  1.00  0.00     0.027 A 
ENDBRANCH   4  12
BRANCH  11  19
ATOM     19  C   UNL A   1      44.394  23.229  26.769  1.00  0.00     0.018 A 
ATOM     20  C   UNL A   1      45.689  23.018  26.228  1.00  0.00     0.012 A 
ATOM     21  C   UNL A   1      43.314  22.783  26.044  1.00  0.00     0.127 A 
ATOM     22  C   UNL A   1      45.921  22.877  24.851  1.00  0.00     0.001 A 
ATOM     23  C   UNL A   1      43.589  22.776  24.603  1.00  0.00     0.047 A 
ATOM     24  C   UNL A   1      44.845  22.931  24.007  1.00  0.00     0.004 A 
BRANCH  21  25
ATOM     25  O   UNL A   1      41.993  22.555  26.456  1.00  0.00    -0.488 OA
BRANCH  25  26
ATOM     26  C   UNL A   1      40.394  21.937  26.713  1.00  0.00     0.265 C 
BRANCH  26  27
ATOM     27  C   UNL A   1      38.799  22.463  26.258  1.00  0.00    -0.010 A 
ATOM     28  C   UNL A   1      38.349  23.770  26.168  1.00  0.00     0.007 A 
ATOM     29  C   UNL A   1      37.785  21.655  25.683  1.00  0.00     0.017 A 
ATOM     30  C   UNL A   1      37.019  24.056  25.645  1.00  0.00     0.001 A 
ATOM     31  C   UNL A   1      36.372  21.709  25.500  1.00  0.00    -0.002 A 
ATOM     32  C   UNL A   1      36.031  23.041  25.347  1.00  0.00     0.010 A 
BRANCH  31  33
ATOM     33  C   UNL A   1      35.362  20.332  24.999  1.00  0.00     0.071 C 
ATOM     34  O   UNL A   1      34.178  20.796  24.982  1.00  0.00    -0.545 OA
ATOM     35  O   UNL A   1      35.874  18.421  24.636  1.00  0.00    -0.545 OA
ENDBRANCH  31  33
ENDBRANCH  26  27
ENDBRANCH  25  26
ENDBRANCH  21  25
ENDBRANCH  11  19
ENDBRANCH   2   3
ENDBRANCH   1   2
BRANCH   1  36
ATOM     36  C   UNL A   1      48.508  25.744  24.755  1.00  0.00     0.274 C 
BRANCH  36  37
ATOM     37  O   UNL A   1      49.704  25.589  25.750  1.00  0.00    -0.458 OA
BRANCH  37  38
ATOM     38  C   UNL A   1      50.402  26.073  26.853  1.00  0.00     0.338 C 
ATOM     39  O   UNL A   1      51.630  26.093  26.816  1.00  0.00    -0.246 OA
BRANCH  38  40
ATOM     40  C   UNL A   1      49.781  26.617  28.198  1.00  0.00     0.060 A 
ATOM     41  C   UNL A   1      48.934  28.246  28.105  1.00  0.00     0.016 A 
ATOM     42  C   UNL A   1      49.042  25.562  29.700  1.00  0.00     0.016 A 
ATOM     43  C   UNL A   1      47.490  28.481  29.235  1.00  0.00     0.010 A 
ATOM     44  C   UNL A   1      47.536  25.974  30.420  1.00  0.00     0.010 A 
ATOM     45  C   UNL A   1      46.800  27.209  30.310  1.00  0.00    -0.014 A 
BRANCH  45  46
ATOM     46  C   UNL A   1      45.702  26.549  31.520  1.00  0.00     0.031 A 
ATOM     47  C   UNL A   1      45.199  27.687  32.197  1.00  0.00     0.074 A 
ATOM     48  C   UNL A   1      45.598  25.415  32.489  1.00  0.00     0.049 A 
ATOM     49  N   UNL A   1      44.560  27.684  33.714  1.00  0.00    -0.248 NA
ATOM     50  C   UNL A   1      44.980  29.529  31.377  1.00  0.00     0.031 C 
ATOM     51  C   UNL A   1      44.484  24.810  33.292  1.00  0.00     0.029 A 
ATOM     52  N   UNL A   1      46.537  24.443  32.926  1.00  0.00    -0.354 N 
ATOM     53  C   UNL A   1      43.625  29.259  34.030  1.00  0.00     0.074 A 
ATOM     54  C   UNL A   1      44.014  30.398  32.456  1.00  0.00     0.031 C 
ATOM     55  C   UNL A   1      44.899  23.754  34.076  1.00  0.00     0.029 A 
ATOM     56  C   UNL A   1      46.331  23.536  33.939  1.00  0.00     0.049 A 
ATOM     57  H   UNL A   1      47.407  24.417  32.465  1.00  0.00     0.167 HD
ATOM     58  C   UNL A   1      42.437  28.892  34.636  1.00  0.00     0.034 A 
ATOM     59  C   UNL A   1      47.334  23.012  34.751  1.00  0.00     0.034 A 
ATOM     60  C   UNL A   1      42.684  27.634  35.376  1.00  0.00     0.049 A 
ATOM     61  C   UNL A   1      47.108  23.757  36.043  1.00  0.00     0.074 A 
ATOM     62  C   UNL A   1      42.235  26.321  35.271  1.00  0.00     0.029 A 
ATOM     63  N   UNL A   1      43.814  27.563  36.181  1.00  0.00    -0.354 N 
ATOM     64  N   UNL A   1      46.227  24.713  36.095  1.00  0.00    -0.248 NA
ATOM     65  C   UNL A   1      47.746  23.522  37.332  1.00  0.00     0.031 C 
ATOM     66  C   UNL A   1      43.073  25.496  36.085  1.00  0.00     0.029 A 
ATOM     67  C   UNL A   1      44.055  26.292  36.649  1.00  0.00     0.049 A 
ATOM     68  H   UNL A   1      44.381  28.339  36.394  1.00  0.00     0.167 HD
ATOM     69  C   UNL A   1      46.068  25.153  37.356  1.00  0.00     0.074 A 
ATOM     70  C   UNL A   1      47.061  24.390  38.104  1.00  0.00     0.031 C 
ATOM     71  C   UNL A   1      45.122  26.097  37.627  1.00  0.00     0.034 A 
BRANCH  58  72
ATOM     72  C   UNL A   1      41.033  29.327  34.269  1.00  0.00     0.023 A 
ATOM     73  C   UNL A   1      40.317  30.085  35.220  1.00  0.00     0.031 A 
ATOM     74  C   UNL A   1      40.314  29.030  33.100  1.00  0.00     0.131 A 
ATOM     75  C   UNL A   1      39.004  30.530  34.998  1.00  0.00     0.055 A 
ATOM     76  C   UNL A   1      38.998  29.469  32.869  1.00  0.00     0.041 A 
ATOM     77  F   UNL A   1      40.835  28.292  32.118  1.00  0.00    -0.206 F 
ATOM     78  C   UNL A   1      38.339  30.238  33.816  1.00  0.00     0.022 A 
BRANCH  75  79
ATOM     79  S   UNL A   1      38.226  31.565  36.263  1.00  0.00     0.124 S 
ATOM     80  O   UNL A   1      39.335  32.416  36.685  1.00  0.00    -0.237 OA
ATOM     81  O   UNL A   1      37.158  32.218  35.515  1.00  0.00    -0.237 OA
ATOM     82  O   UNL A   1      37.775  30.594  37.258  1.00  0.00    -0.744 OA
ENDBRANCH  75  79
ENDBRANCH  58  72
BRANCH  59  83
ATOM     83  C   UNL A   1      48.765  22.571  34.253  1.00  0.00     0.023 A 
ATOM     84  C   UNL A   1      49.781  23.555  34.061  1.00  0.00     0.031 A 
ATOM     85  C   UNL A   1      49.253  21.237  34.330  1.00  0.00     0.131 A 
ATOM     86  C   UNL A   1      51.167  23.255  34.241  1.00  0.00     0.055 A 
ATOM     87  C   UNL A   1      50.631  20.957  34.593  1.00  0.00     0.041 A 
ATOM     88  F   UNL A   1      48.403  20.215  34.489  1.00  0.00    -0.206 F 
ATOM     89  C   UNL A   1      51.579  21.983  34.630  1.00  0.00     0.022 A 
BRANCH  86  90
ATOM     90  S   UNL A   1      52.438  24.571  34.121  1.00  0.00     0.124 S 
ATOM     91  O   UNL A   1      52.144  25.173  32.827  1.00  0.00    -0.237 OA
ATOM     92  O   UNL A   1      52.166  25.398  35.292  1.00  0.00    -0.237 OA
ATOM     93  O   UNL A   1      53.702  23.843  34.175  1.00  0.00    -0.744 OA
ENDBRANCH  86  90
ENDBRANCH  59  83
BRANCH  71  94
ATOM     94  C   UNL A   1      45.082  26.899  38.887  1.00  0.00     0.023 A 
ATOM     95  C   UNL A   1      45.285  28.274  38.877  1.00  0.00     0.031 A 
ATOM     96  C   UNL A   1      44.772  26.329  40.146  1.00  0.00     0.131 A 
ATOM     97  C   UNL A   1      45.364  28.993  40.067  1.00  0.00     0.055 A 
ATOM     98  C   UNL A   1      44.686  27.077  41.313  1.00  0.00     0.041 A 
ATOM     99  F   UNL A   1      44.532  25.022  40.318  1.00  0.00    -0.206 F 
ATOM    100  C   UNL A   1      45.034  28.414  41.288  1.00  0.00     0.022 A 
BRANCH  97 101
ATOM    101  S   UNL A   1      46.046  30.655  39.959  1.00  0.00     0.124 S 
ATOM    102  O   UNL A   1      44.840  31.477  40.040  1.00  0.00    -0.237 OA
ATOM    103  O   UNL A   1      46.924  30.711  41.123  1.00  0.00    -0.237 OA
ATOM    104  O   UNL A   1      46.719  30.660  38.664  1.00  0.00    -0.744 OA
ENDBRANCH  97 101
ENDBRANCH  71  94
ENDBRANCH  45  46
ENDBRANCH  38  40
ENDBRANCH  37  38
ENDBRANCH  36  37
ENDBRANCH   1  36
TORSDOF 19
ENDMDL
MODEL 3
REMARK VINA RESULT:     -11.2      6.403     12.498
REMARK SMILES Cc1ccc(N2C(=O)N=C(OCCOC(=O)c3ccc(-c4c5nc(c(-c6cc(S(=O)(=O)[O-])ccc6F)c6ccc([nH]6)c(-c6cc(S(=O)(=O)[O-])ccc6F)c6nc(c(-c7cc(S(=O)(=O)[O-])ccc7F)c7ccc4[nH]7)C=C6)C=C5)cc3)/C(=C\c3ccccc3OCc3cccc(C(=O)[O-])c3)C2=O)cc1
REMARK SMILES IDX 12 1 11 2 10 3 6 4 7 5 99 6 8 7 9 8 80 9 100 10 81 11 5 12
REMARK SMILES IDX 1 13 2 14 3 15 102 16 4 17 101 18 82 19 83 20 87 21 84 22
REMARK SMILES IDX 86 23 85 24 88 25 89 26 90 27 91 28 98 29 92 30 94 31 93 32
REMARK SMILES IDX 95 33 96 34 97 35 13 36 14 37 15 38 16 39 17 40 18 41 79 42
REMARK SMILES IDX 19 43 78 44 20 45 21 46 22 47 72 48 23 49 77 50 71 51 73 52
REMARK SMILES IDX 24 53 76 54 70 55 69 56 25 58 57 59 37 60 56 61 38 62 41 63
REMARK SMILES IDX 55 64 74 65 39 66 40 67 54 69 75 70 42 71 26 72 27 73 35 74
REMARK SMILES IDX 28 75 34 76 36 77 33 78 29 79 30 80 31 81 32 82 58 83 59 84
REMARK SMILES IDX 67 85 60 86 66 87 68 88 65 89 61 90 62 91 63 92 64 93 43 94
REMARK SMILES IDX 44 95 52 96 45 97 51 98 53 99 50 100 46 101 47 102 48 103
REMARK SMILES IDX 49 104
REMARK H PARENT 73 57 41 68
REMARK Flexibility Score: inf
ROOT
ATOM      1  C   UNL A   1      47.441  38.543  28.175  1.00  0.00     0.273 C 
ENDROOT
BRANCH   1   2
ATOM      2  O   UNL A   1      46.342  38.571  27.336  1.00  0.00    -0.473 OA
BRANCH   2   3
ATOM      3  C   UNL A   1      46.325  39.683  26.607  1.00  0.00     0.231 C 
ATOM      4  N   UNL A   1      47.053  42.680  24.761  1.00  0.00    -0.226 N 
ATOM      5  C   UNL A   1      46.885  41.080  23.932  1.00  0.00     0.358 C 
ATOM      6  C   UNL A   1      46.790  42.893  26.468  1.00  0.00     0.272 C 
ATOM      7  O   UNL A   1      47.066  41.124  22.688  1.00  0.00    -0.245 OA
ATOM      8  N   UNL A   1      46.641  39.555  25.167  1.00  0.00    -0.156 NA
ATOM      9  C   UNL A   1      46.078  41.401  27.432  1.00  0.00     0.103 C 
ATOM     10  O   UNL A   1      46.836  43.968  27.059  1.00  0.00    -0.268 OA
ATOM     11  C   UNL A   1      44.832  41.799  27.880  1.00  0.00     0.031 C 
BRANCH   4  12
ATOM     12  C   UNL A   1      47.337  43.921  23.960  1.00  0.00     0.054 A 
ATOM     13  C   UNL A   1      47.940  47.528  21.452  1.00  0.00     0.044 C 
ATOM     14  C   UNL A   1      47.753  46.307  22.313  1.00  0.00    -0.051 A 
ATOM     15  C   UNL A   1      48.791  45.738  23.051  1.00  0.00     0.005 A 
ATOM     16  C   UNL A   1      46.517  45.684  22.399  1.00  0.00     0.005 A 
ATOM     17  C   UNL A   1      48.580  44.582  23.869  1.00  0.00     0.027 A 
ATOM     18  C   UNL A   1      46.327  44.531  23.195  1.00  0.00     0.027 A 
ENDBRANCH   4  12
BRANCH  11  19
ATOM     19  C   UNL A   1      43.559  41.066  27.708  1.00  0.00     0.018 A 
ATOM     20  C   UNL A   1      43.019  40.335  28.798  1.00  0.00     0.012 A 
ATOM     21  C   UNL A   1      42.966  40.916  26.476  1.00  0.00     0.127 A 
ATOM     22  C   UNL A   1      42.308  39.137  28.628  1.00  0.00     0.001 A 
ATOM     23  C   UNL A   1      42.347  39.595  26.326  1.00  0.00     0.047 A 
ATOM     24  C   UNL A   1      42.120  38.674  27.354  1.00  0.00     0.004 A 
BRANCH  21  25
ATOM     25  O   UNL A   1      43.057  41.726  25.335  1.00  0.00    -0.488 OA
BRANCH  25  26
ATOM     26  C   UNL A   1      43.583  42.668  23.978  1.00  0.00     0.265 C 
BRANCH  26  27
ATOM     27  C   UNL A   1      42.968  42.935  22.373  1.00  0.00    -0.010 A 
ATOM     28  C   UNL A   1      41.654  42.806  21.952  1.00  0.00     0.007 A 
ATOM     29  C   UNL A   1      43.666  43.552  21.302  1.00  0.00     0.017 A 
ATOM     30  C   UNL A   1      41.272  43.193  20.600  1.00  0.00     0.001 A 
ATOM     31  C   UNL A   1      43.561  43.632  19.883  1.00  0.00    -0.002 A 
ATOM     32  C   UNL A   1      42.215  43.568  19.569  1.00  0.00     0.010 A 
BRANCH  31  33
ATOM     33  C   UNL A   1      44.833  44.259  18.807  1.00  0.00     0.071 C 
ATOM     34  O   UNL A   1      45.921  43.898  19.358  1.00  0.00    -0.545 OA
ATOM     35  O   UNL A   1      44.679  45.385  17.147  1.00  0.00    -0.545 OA
ENDBRANCH  31  33
ENDBRANCH  26  27
ENDBRANCH  25  26
ENDBRANCH  21  25
ENDBRANCH  11  19
ENDBRANCH   2   3
ENDBRANCH   1   2
BRANCH   1  36
ATOM     36  C   UNL A   1      48.096  37.151  28.198  1.00  0.00     0.274 C 
BRANCH  36  37
ATOM     37  O   UNL A   1      47.350  35.896  27.639  1.00  0.00    -0.458 OA
BRANCH  37  38
ATOM     38  C   UNL A   1      46.933  35.154  26.537  1.00  0.00     0.338 C 
ATOM     39  O   UNL A   1      47.048  35.644  25.416  1.00  0.00    -0.246 OA
BRANCH  38  40
ATOM     40  C   UNL A   1      46.306  33.707  26.556  1.00  0.00     0.060 A 
ATOM     41  C   UNL A   1      47.449  32.328  26.972  1.00  0.00     0.016 A 
ATOM     42  C   UNL A   1      44.450  33.201  27.019  1.00  0.00     0.016 A 
ATOM     43  C   UNL A   1      46.710  30.902  27.889  1.00  0.00     0.010 A 
ATOM     44  C   UNL A   1      44.124  31.887  28.078  1.00  0.00     0.010 A 
ATOM     45  C   UNL A   1      45.013  30.829  28.492  1.00  0.00    -0.014 A 
BRANCH  45  46
ATOM     46  C   UNL A   1      43.617  30.097  29.281  1.00  0.00     0.031 A 
ATOM     47  C   UNL A   1      42.845  29.574  28.215  1.00  0.00     0.074 A 
ATOM     48  C   UNL A   1      42.658  30.352  30.398  1.00  0.00     0.049 A 
ATOM     49  N   UNL A   1      41.232  29.251  28.282  1.00  0.00    -0.248 NA
ATOM     50  C   UNL A   1      43.590  28.930  26.443  1.00  0.00     0.031 C 
ATOM     51  C   UNL A   1      41.657  29.517  31.144  1.00  0.00     0.029 A 
ATOM     52  N   UNL A   1      42.422  31.491  31.214  1.00  0.00    -0.354 N 
ATOM     53  C   UNL A   1      40.725  28.173  26.855  1.00  0.00     0.074 A 
ATOM     54  C   UNL A   1      42.335  28.076  25.703  1.00  0.00     0.031 C 
ATOM     55  C   UNL A   1      40.980  30.228  32.112  1.00  0.00     0.029 A 
ATOM     56  C   UNL A   1      41.396  31.623  32.121  1.00  0.00     0.049 A 
ATOM     57  H   UNL A   1      43.044  32.248  31.122  1.00  0.00     0.167 HD
ATOM     58  C   UNL A   1      39.902  27.193  27.379  1.00  0.00     0.034 A 
ATOM     59  C   UNL A   1      40.801  32.831  32.476  1.00  0.00     0.034 A 
ATOM     60  C   UNL A   1      39.236  27.762  28.573  1.00  0.00     0.049 A 
ATOM     61  C   UNL A   1      39.483  32.754  31.747  1.00  0.00     0.074 A 
ATOM     62  C   UNL A   1      39.263  27.500  29.938  1.00  0.00     0.029 A 
ATOM     63  N   UNL A   1      38.668  29.025  28.461  1.00  0.00    -0.354 N 
ATOM     64  N   UNL A   1      39.252  31.769  30.929  1.00  0.00    -0.248 NA
ATOM     65  C   UNL A   1      38.346  33.658  31.860  1.00  0.00     0.031 C 
ATOM     66  C   UNL A   1      38.637  28.593  30.616  1.00  0.00     0.029 A 
ATOM     67  C   UNL A   1      38.268  29.538  29.674  1.00  0.00     0.049 A 
ATOM     68  H   UNL A   1      38.563  29.503  27.606  1.00  0.00     0.167 HD
ATOM     69  C   UNL A   1      37.979  31.795  30.492  1.00  0.00     0.074 A 
ATOM     70  C   UNL A   1      37.447  33.017  31.086  1.00  0.00     0.031 C 
ATOM     71  C   UNL A   1      37.520  30.792  29.691  1.00  0.00     0.034 A 
BRANCH  58  72
ATOM     72  C   UNL A   1      39.982  25.697  27.161  1.00  0.00     0.023 A 
ATOM     73  C   UNL A   1      41.267  25.118  27.078  1.00  0.00     0.031 A 
ATOM     74  C   UNL A   1      38.923  24.792  26.980  1.00  0.00     0.131 A 
ATOM     75  C   UNL A   1      41.465  23.745  26.864  1.00  0.00     0.055 A 
ATOM     76  C   UNL A   1      39.111  23.415  26.761  1.00  0.00     0.041 A 
ATOM     77  F   UNL A   1      37.648  25.184  26.993  1.00  0.00    -0.206 F 
ATOM     78  C   UNL A   1      40.390  22.881  26.717  1.00  0.00     0.022 A 
BRANCH  75  79
ATOM     79  S   UNL A   1      43.162  23.116  26.861  1.00  0.00     0.124 S 
ATOM     80  O   UNL A   1      43.452  23.013  28.288  1.00  0.00    -0.237 OA
ATOM     81  O   UNL A   1      43.025  21.857  26.136  1.00  0.00    -0.237 OA
ATOM     82  O   UNL A   1      43.904  24.156  26.150  1.00  0.00    -0.744 OA
ENDBRANCH  75  79
ENDBRANCH  58  72
BRANCH  59  83
ATOM     83  C   UNL A   1      41.574  34.186  32.713  1.00  0.00     0.023 A 
ATOM     84  C   UNL A   1      41.795  34.650  34.044  1.00  0.00     0.031 A 
ATOM     85  C   UNL A   1      42.398  34.808  31.735  1.00  0.00     0.131 A 
ATOM     86  C   UNL A   1      42.941  35.431  34.391  1.00  0.00     0.055 A 
ATOM     87  C   UNL A   1      43.587  35.516  32.097  1.00  0.00     0.041 A 
ATOM     88  F   UNL A   1      42.278  34.479  30.443  1.00  0.00    -0.206 F 
ATOM     89  C   UNL A   1      43.901  35.756  33.436  1.00  0.00     0.022 A 
BRANCH  86  90
ATOM     90  S   UNL A   1      43.269  35.897  36.135  1.00  0.00     0.124 S 
ATOM     91  O   UNL A   1      43.816  37.242  36.001  1.00  0.00    -0.237 OA
ATOM     92  O   UNL A   1      41.954  35.796  36.756  1.00  0.00    -0.237 OA
ATOM     93  O   UNL A   1      44.231  34.896  36.588  1.00  0.00    -0.744 OA
ENDBRANCH  86  90
ENDBRANCH  59  83
BRANCH  71  94
ATOM     94  C   UNL A   1      36.269  30.881  28.878  1.00  0.00     0.023 A 
ATOM     95  C   UNL A   1      35.662  32.102  28.615  1.00  0.00     0.031 A 
ATOM     96  C   UNL A   1      35.668  29.749  28.276  1.00  0.00     0.131 A 
ATOM     97  C   UNL A   1      34.435  32.163  27.959  1.00  0.00     0.055 A 
ATOM     98  C   UNL A   1      34.533  29.830  27.479  1.00  0.00     0.041 A 
ATOM     99  F   UNL A   1      36.144  28.504  28.419  1.00  0.00    -0.206 F 
ATOM    100  C   UNL A   1      33.876  31.040  27.358  1.00  0.00     0.022 A 
BRANCH  97 101
ATOM    101  S   UNL A   1      33.550  33.728  28.052  1.00  0.00     0.124 S 
ATOM    102  O   UNL A   1      33.442  33.924  29.496  1.00  0.00    -0.237 OA
ATOM    103  O   UNL A   1      34.454  34.641  27.360  1.00  0.00    -0.237 OA
ATOM    104  O   UNL A   1      32.293  33.447  27.364  1.00  0.00    -0.744 OA
ENDBRANCH  97 101
ENDBRANCH  71  94
ENDBRANCH  45  46
ENDBRANCH  38  40
ENDBRANCH  37  38
ENDBRANCH  36  37
ENDBRANCH   1  36
TORSDOF 19
ENDMDL
