MODEL 1
REMARK VINA RESULT:     -12.3      0.000      0.000
REMARK SMILES Nc1nc(N2CCOC[C@H]2C(=O)OCCOC(=O)c2ccc(-c3c4nc(c(-c5cc(S(=O)(=O)[O-])ccc5F)c5ccc([nH]5)c(-c5cc(S(=O)(=O)[O-])ccc5F)c5nc(c(-c6cc(S(=O)(=O)[O-])ccc6F)c6ccc3[nH]6)C=C5)C=C4)cc2)ccc1[N+](=O)[O-]
REMARK SMILES IDX 15 1 14 2 13 3 11 4 12 5 10 6 5 7 6 8 7 9 9 10 8 11 4 12
REMARK SMILES IDX 2 13 3 14 84 15 83 16 82 17 1 18 85 21 86 22 87 23 16 24
REMARK SMILES IDX 17 25 18 26 19 27 20 28 81 29 21 30 80 31 22 32 23 33 24 34
REMARK SMILES IDX 74 35 25 36 79 37 73 38 75 39 26 40 78 41 72 42 71 43 27 45
REMARK SMILES IDX 59 46 39 47 58 48 40 49 43 50 57 51 76 52 41 53 42 54 56 56
REMARK SMILES IDX 77 57 44 58 28 59 29 60 37 61 30 62 36 63 38 64 35 65 31 66
REMARK SMILES IDX 32 67 33 68 34 69 60 70 61 71 69 72 62 73 68 74 70 75 67 76
REMARK SMILES IDX 63 77 64 78 65 79 66 80 45 81 46 82 54 83 47 84 53 85 55 86
REMARK SMILES IDX 52 87 48 88 49 89 50 90 51 91
REMARK H PARENT 1 19 1 20 75 44 43 55
REMARK Flexibility Score: inf
ROOT
ATOM      1  C   UNL A   1      36.571  21.505  24.390  1.00  0.00     0.275 C 
ENDROOT
BRANCH   1   2
ATOM      2  C   UNL A   1      36.152  22.853  23.817  1.00  0.00     0.274 C 
BRANCH   2   3
ATOM      3  O   UNL A   1      34.843  23.215  24.298  1.00  0.00    -0.460 OA
BRANCH   3   4
ATOM      4  C   UNL A   1      33.918  23.511  23.345  1.00  0.00     0.331 C 
ATOM      5  O   UNL A   1      34.033  24.436  22.543  1.00  0.00    -0.250 OA
BRANCH   4   6
ATOM      6  C   UNL A   1      32.665  22.633  23.387  1.00  0.00     0.220 C 
ATOM      7  N   UNL A   1      32.505  21.763  24.570  1.00  0.00    -0.339 N 
ATOM      8  C   UNL A   1      32.140  22.403  25.829  1.00  0.00     0.147 C 
ATOM      9  C   UNL A   1      30.954  23.347  25.606  1.00  0.00     0.181 C 
ATOM     10  C   UNL A   1      31.452  23.583  23.300  1.00  0.00     0.197 C 
ATOM     11  O   UNL A   1      31.204  24.277  24.542  1.00  0.00    -0.377 OA
BRANCH   7  12
ATOM     12  C   UNL A   1      32.603  20.397  24.448  1.00  0.00     0.132 A 
ATOM     13  C   UNL A   1      32.481  18.480  23.097  1.00  0.00     0.204 A 
ATOM     14  N   UNL A   1      32.249  19.812  23.283  1.00  0.00    -0.207 NA
ATOM     15  C   UNL A   1      33.006  17.687  24.117  1.00  0.00     0.311 A 
ATOM     16  C   UNL A   1      33.273  18.267  25.357  1.00  0.00     0.093 A 
ATOM     17  C   UNL A   1      33.074  19.632  25.512  1.00  0.00     0.054 A 
BRANCH  13  18
ATOM     18  N   UNL A   1      32.082  17.989  21.871  1.00  0.00    -0.378 N 
ATOM     19  H   UNL A   1      31.754  17.064  21.794  1.00  0.00     0.158 HD
ATOM     20  H   UNL A   1      32.126  18.564  21.073  1.00  0.00     0.158 HD
ENDBRANCH  13  18
BRANCH  15  21
ATOM     21  N   UNL A   1      33.394  16.297  23.901  1.00  0.00     0.066 N 
ATOM     22  O   UNL A   1      34.099  16.055  22.906  1.00  0.00    -0.258 OA
ATOM     23  O   UNL A   1      32.920  15.431  24.649  1.00  0.00    -0.258 OA
ENDBRANCH  15  21
ENDBRANCH   7  12
ENDBRANCH   4   6
ENDBRANCH   3   4
ENDBRANCH   2   3
ENDBRANCH   1   2
BRANCH   1  24
ATOM     24  O   UNL A   1      37.115  21.698  25.703  1.00  0.00    -0.458 OA
BRANCH  24  25
ATOM     25  C   UNL A   1      38.427  21.403  25.848  1.00  0.00     0.338 C 
ATOM     26  O   UNL A   1      38.982  20.338  25.654  1.00  0.00    -0.246 OA
BRANCH  25  27
ATOM     27  C   UNL A   1      39.109  22.595  26.369  1.00  0.00     0.060 A 
ATOM     28  C   UNL A   1      38.619  23.869  26.079  1.00  0.00     0.016 A 
ATOM     29  C   UNL A   1      40.290  22.434  27.088  1.00  0.00     0.016 A 
ATOM     30  C   UNL A   1      39.318  24.998  26.501  1.00  0.00     0.010 A 
ATOM     31  C   UNL A   1      40.970  23.563  27.544  1.00  0.00     0.010 A 
ATOM     32  C   UNL A   1      40.496  24.853  27.241  1.00  0.00    -0.014 A 
BRANCH  32  33
ATOM     33  C   UNL A   1      41.282  26.041  27.652  1.00  0.00     0.031 A 
ATOM     34  C   UNL A   1      40.631  27.093  28.503  1.00  0.00     0.074 A 
ATOM     35  C   UNL A   1      42.559  26.182  27.253  1.00  0.00     0.049 A 
ATOM     36  N   UNL A   1      41.061  28.284  28.824  1.00  0.00    -0.248 NA
ATOM     37  C   UNL A   1      39.310  26.755  29.051  1.00  0.00     0.031 C 
ATOM     38  C   UNL A   1      43.317  25.196  26.480  1.00  0.00     0.029 A 
ATOM     39  N   UNL A   1      43.443  27.215  27.433  1.00  0.00    -0.354 N 
ATOM     40  C   UNL A   1      40.051  28.855  29.591  1.00  0.00     0.074 A 
ATOM     41  C   UNL A   1      38.976  27.885  29.656  1.00  0.00     0.031 C 
ATOM     42  C   UNL A   1      44.553  25.671  26.259  1.00  0.00     0.029 A 
ATOM     43  C   UNL A   1      44.652  27.019  26.810  1.00  0.00     0.049 A 
ATOM     44  H   UNL A   1      43.230  28.021  27.958  1.00  0.00     0.167 HD
ATOM     45  C   UNL A   1      40.028  30.073  30.188  1.00  0.00     0.034 A 
ATOM     46  C   UNL A   1      45.704  27.849  26.667  1.00  0.00     0.034 A 
ATOM     47  C   UNL A   1      41.116  31.019  30.113  1.00  0.00     0.049 A 
ATOM     48  C   UNL A   1      45.619  29.236  27.252  1.00  0.00     0.074 A 
ATOM     49  C   UNL A   1      41.206  32.281  30.676  1.00  0.00     0.029 A 
ATOM     50  N   UNL A   1      42.307  30.807  29.427  1.00  0.00    -0.354 N 
ATOM     51  N   UNL A   1      44.642  29.786  27.937  1.00  0.00    -0.248 NA
ATOM     52  C   UNL A   1      46.774  30.116  27.036  1.00  0.00     0.031 C 
ATOM     53  C   UNL A   1      42.421  32.854  30.279  1.00  0.00     0.029 A 
ATOM     54  C   UNL A   1      43.123  31.924  29.529  1.00  0.00     0.049 A 
ATOM     55  H   UNL A   1      42.537  29.984  28.941  1.00  0.00     0.167 HD
ATOM     56  C   UNL A   1      45.079  31.069  28.257  1.00  0.00     0.074 A 
ATOM     57  C   UNL A   1      46.410  31.203  27.700  1.00  0.00     0.031 C 
ATOM     58  C   UNL A   1      44.443  32.045  28.954  1.00  0.00     0.034 A 
BRANCH  45  59
ATOM     59  C   UNL A   1      38.763  30.459  30.917  1.00  0.00     0.023 A 
ATOM     60  C   UNL A   1      37.672  31.038  30.247  1.00  0.00     0.031 A 
ATOM     61  C   UNL A   1      38.670  30.302  32.311  1.00  0.00     0.131 A 
ATOM     62  C   UNL A   1      36.577  31.521  30.980  1.00  0.00     0.055 A 
ATOM     63  C   UNL A   1      37.541  30.707  33.025  1.00  0.00     0.041 A 
ATOM     64  F   UNL A   1      39.688  29.773  33.009  1.00  0.00    -0.206 F 
ATOM     65  C   UNL A   1      36.493  31.339  32.362  1.00  0.00     0.022 A 
BRANCH  62  66
ATOM     66  S   UNL A   1      35.348  32.545  30.124  1.00  0.00     0.124 S 
ATOM     67  O   UNL A   1      34.950  31.666  29.027  1.00  0.00    -0.237 OA
ATOM     68  O   UNL A   1      34.347  32.766  31.160  1.00  0.00    -0.237 OA
ATOM     69  O   UNL A   1      36.107  33.727  29.723  1.00  0.00    -0.744 OA
ENDBRANCH  62  66
ENDBRANCH  45  59
BRANCH  46  70
ATOM     70  C   UNL A   1      46.908  27.418  25.902  1.00  0.00     0.023 A 
ATOM     71  C   UNL A   1      47.080  27.795  24.560  1.00  0.00     0.031 A 
ATOM     72  C   UNL A   1      47.884  26.591  26.486  1.00  0.00     0.131 A 
ATOM     73  C   UNL A   1      48.183  27.316  23.836  1.00  0.00     0.055 A 
ATOM     74  C   UNL A   1      49.006  26.160  25.776  1.00  0.00     0.041 A 
ATOM     75  F   UNL A   1      47.766  26.200  27.764  1.00  0.00    -0.206 F 
ATOM     76  C   UNL A   1      49.153  26.512  24.439  1.00  0.00     0.022 A 
BRANCH  73  77
ATOM     77  S   UNL A   1      48.292  27.699  22.066  1.00  0.00     0.124 S 
ATOM     78  O   UNL A   1      49.438  28.601  22.027  1.00  0.00    -0.237 OA
ATOM     79  O   UNL A   1      48.497  26.377  21.483  1.00  0.00    -0.237 OA
ATOM     80  O   UNL A   1      47.001  28.315  21.770  1.00  0.00    -0.744 OA
ENDBRANCH  73  77
ENDBRANCH  46  70
BRANCH  58  81
ATOM     81  C   UNL A   1      45.210  33.323  29.189  1.00  0.00     0.023 A 
ATOM     82  C   UNL A   1      45.125  34.411  28.303  1.00  0.00     0.031 A 
ATOM     83  C   UNL A   1      46.053  33.443  30.308  1.00  0.00     0.131 A 
ATOM     84  C   UNL A   1      45.913  35.551  28.522  1.00  0.00     0.055 A 
ATOM     85  C   UNL A   1      46.790  34.601  30.552  1.00  0.00     0.041 A 
ATOM     86  F   UNL A   1      46.173  32.432  31.184  1.00  0.00    -0.206 F 
ATOM     87  C   UNL A   1      46.732  35.659  29.649  1.00  0.00     0.022 A 
BRANCH  84  88
ATOM     88  S   UNL A   1      45.920  36.862  27.267  1.00  0.00     0.124 S 
ATOM     89  O   UNL A   1      44.495  37.103  27.073  1.00  0.00    -0.237 OA
ATOM     90  O   UNL A   1      46.663  37.928  27.932  1.00  0.00    -0.237 OA
ATOM     91  O   UNL A   1      46.604  36.246  26.131  1.00  0.00    -0.744 OA
ENDBRANCH  84  88
ENDBRANCH  58  81
ENDBRANCH  32  33
ENDBRANCH  25  27
ENDBRANCH  24  25
ENDBRANCH   1  24
TORSDOF 17
ENDMDL
MODEL 2
REMARK VINA RESULT:     -12.0      5.764     10.697
REMARK SMILES Nc1nc(N2CCOC[C@H]2C(=O)OCCOC(=O)c2ccc(-c3c4nc(c(-c5cc(S(=O)(=O)[O-])ccc5F)c5ccc([nH]5)c(-c5cc(S(=O)(=O)[O-])ccc5F)c5nc(c(-c6cc(S(=O)(=O)[O-])ccc6F)c6ccc3[nH]6)C=C5)C=C4)cc2)ccc1[N+](=O)[O-]
REMARK SMILES IDX 15 1 14 2 13 3 11 4 12 5 10 6 5 7 6 8 7 9 9 10 8 11 4 12
REMARK SMILES IDX 2 13 3 14 84 15 83 16 82 17 1 18 85 21 86 22 87 23 16 24
REMARK SMILES IDX 17 25 18 26 19 27 20 28 81 29 21 30 80 31 22 32 23 33 24 34
REMARK SMILES IDX 74 35 25 36 79 37 73 38 75 39 26 40 78 41 72 42 71 43 27 45
REMARK SMILES IDX 59 46 39 47 58 48 40 49 43 50 57 51 76 52 41 53 42 54 56 56
REMARK SMILES IDX 77 57 44 58 28 59 29 60 37 61 30 62 36 63 38 64 35 65 31 66
REMARK SMILES IDX 32 67 33 68 34 69 60 70 61 71 69 72 62 73 68 74 70 75 67 76
REMARK SMILES IDX 63 77 64 78 65 79 66 80 45 81 46 82 54 83 47 84 53 85 55 86
REMARK SMILES IDX 52 87 48 88 49 89 50 90 51 91
REMARK H PARENT 1 19 1 20 75 44 43 55
REMARK Flexibility Score: inf
ROOT
ATOM      1  C   UNL A   1      31.830  29.920  25.630  1.00  0.00     0.275 C 
ENDROOT
BRANCH   1   2
ATOM      2  C   UNL A   1      31.536  28.675  26.457  1.00  0.00     0.274 C 
BRANCH   2   3
ATOM      3  O   UNL A   1      32.244  27.541  25.922  1.00  0.00    -0.460 OA
BRANCH   3   4
ATOM      4  C   UNL A   1      31.586  26.351  25.967  1.00  0.00     0.331 C 
ATOM      5  O   UNL A   1      31.760  25.505  26.842  1.00  0.00    -0.250 OA
BRANCH   4   6
ATOM      6  C   UNL A   1      30.642  26.105  24.787  1.00  0.00     0.220 C 
ATOM      7  N   UNL A   1      30.978  26.782  23.518  1.00  0.00    -0.339 N 
ATOM      8  C   UNL A   1      32.114  26.264  22.761  1.00  0.00     0.147 C 
ATOM      9  C   UNL A   1      31.994  24.743  22.624  1.00  0.00     0.181 C 
ATOM     10  C   UNL A   1      30.616  24.581  24.547  1.00  0.00     0.197 C 
ATOM     11  O   UNL A   1      31.814  24.104  23.896  1.00  0.00    -0.377 OA
BRANCH   7  12
ATOM     12  C   UNL A   1      30.181  27.794  23.037  1.00  0.00     0.132 A 
ATOM     13  C   UNL A   1      28.063  28.796  22.893  1.00  0.00     0.204 A 
ATOM     14  N   UNL A   1      28.846  27.732  23.232  1.00  0.00    -0.207 NA
ATOM     15  C   UNL A   1      28.601  29.923  22.273  1.00  0.00     0.311 A 
ATOM     16  C   UNL A   1      29.962  29.946  21.972  1.00  0.00     0.093 A 
ATOM     17  C   UNL A   1      30.751  28.873  22.366  1.00  0.00     0.054 A 
BRANCH  13  18
ATOM     18  N   UNL A   1      26.716  28.624  23.138  1.00  0.00    -0.378 N 
ATOM     19  H   UNL A   1      26.076  28.616  22.390  1.00  0.00     0.158 HD
ATOM     20  H   UNL A   1      26.394  28.511  24.062  1.00  0.00     0.158 HD
ENDBRANCH  13  18
BRANCH  15  21
ATOM     21  N   UNL A   1      27.814  31.128  22.028  1.00  0.00     0.066 N 
ATOM     22  O   UNL A   1      27.991  31.707  20.943  1.00  0.00    -0.258 OA
ATOM     23  O   UNL A   1      27.103  31.562  22.944  1.00  0.00    -0.258 OA
ENDBRANCH  15  21
ENDBRANCH   7  12
ENDBRANCH   4   6
ENDBRANCH   3   4
ENDBRANCH   2   3
ENDBRANCH   1   2
BRANCH   1  24
ATOM     24  O   UNL A   1      33.167  30.365  25.904  1.00  0.00    -0.458 OA
BRANCH  24  25
ATOM     25  C   UNL A   1      33.301  31.229  26.935  1.00  0.00     0.338 C 
ATOM     26  O   UNL A   1      32.558  32.139  27.254  1.00  0.00    -0.246 OA
BRANCH  25  27
ATOM     27  C   UNL A   1      34.576  30.946  27.607  1.00  0.00     0.060 A 
ATOM     28  C   UNL A   1      34.886  29.645  28.007  1.00  0.00     0.016 A 
ATOM     29  C   UNL A   1      35.429  32.005  27.905  1.00  0.00     0.016 A 
ATOM     30  C   UNL A   1      36.055  29.396  28.723  1.00  0.00     0.010 A 
ATOM     31  C   UNL A   1      36.619  31.749  28.587  1.00  0.00     0.010 A 
ATOM     32  C   UNL A   1      36.933  30.446  29.013  1.00  0.00    -0.014 A 
BRANCH  32  33
ATOM     33  C   UNL A   1      38.155  30.209  29.819  1.00  0.00     0.031 A 
ATOM     34  C   UNL A   1      39.209  29.277  29.297  1.00  0.00     0.074 A 
ATOM     35  C   UNL A   1      38.308  30.811  31.013  1.00  0.00     0.049 A 
ATOM     36  N   UNL A   1      40.257  28.785  29.902  1.00  0.00    -0.248 NA
ATOM     37  C   UNL A   1      39.046  28.829  27.906  1.00  0.00     0.031 C 
ATOM     38  C   UNL A   1      37.383  31.786  31.593  1.00  0.00     0.029 A 
ATOM     39  N   UNL A   1      39.294  30.683  31.957  1.00  0.00    -0.354 N 
ATOM     40  C   UNL A   1      40.868  27.945  28.977  1.00  0.00     0.074 A 
ATOM     41  C   UNL A   1      40.050  27.974  27.781  1.00  0.00     0.031 C 
ATOM     42  C   UNL A   1      37.850  32.172  32.791  1.00  0.00     0.029 A 
ATOM     43  C   UNL A   1      39.065  31.421  33.094  1.00  0.00     0.049 A 
ATOM     44  H   UNL A   1      40.090  30.116  31.833  1.00  0.00     0.167 HD
ATOM     45  C   UNL A   1      42.009  27.224  29.114  1.00  0.00     0.034 A 
ATOM     46  C   UNL A   1      39.738  31.456  34.261  1.00  0.00     0.034 A 
ATOM     47  C   UNL A   1      42.810  27.217  30.315  1.00  0.00     0.049 A 
ATOM     48  C   UNL A   1      40.946  30.570  34.430  1.00  0.00     0.074 A 
ATOM     49  C   UNL A   1      43.982  26.526  30.569  1.00  0.00     0.029 A 
ATOM     50  N   UNL A   1      42.518  27.937  31.468  1.00  0.00    -0.354 N 
ATOM     51  N   UNL A   1      41.492  29.743  33.567  1.00  0.00    -0.248 NA
ATOM     52  C   UNL A   1      41.621  30.614  35.732  1.00  0.00     0.031 C 
ATOM     53  C   UNL A   1      44.363  26.779  31.893  1.00  0.00     0.029 A 
ATOM     54  C   UNL A   1      43.470  27.685  32.445  1.00  0.00     0.049 A 
ATOM     55  H   UNL A   1      41.747  28.539  31.576  1.00  0.00     0.167 HD
ATOM     56  C   UNL A   1      42.593  29.190  34.215  1.00  0.00     0.074 A 
ATOM     57  C   UNL A   1      42.637  29.787  35.536  1.00  0.00     0.031 C 
ATOM     58  C   UNL A   1      43.490  28.279  33.761  1.00  0.00     0.034 A 
BRANCH  45  59
ATOM     59  C   UNL A   1      42.409  26.344  27.955  1.00  0.00     0.023 A 
ATOM     60  C   UNL A   1      41.857  25.064  27.773  1.00  0.00     0.031 A 
ATOM     61  C   UNL A   1      43.403  26.765  27.053  1.00  0.00     0.131 A 
ATOM     62  C   UNL A   1      42.365  24.218  26.774  1.00  0.00     0.055 A 
ATOM     63  C   UNL A   1      43.844  25.951  26.008  1.00  0.00     0.041 A 
ATOM     64  F   UNL A   1      43.982  27.968  27.188  1.00  0.00    -0.206 F 
ATOM     65  C   UNL A   1      43.337  24.661  25.876  1.00  0.00     0.022 A 
BRANCH  62  66
ATOM     66  S   UNL A   1      41.859  22.476  26.778  1.00  0.00     0.124 S 
ATOM     67  O   UNL A   1      42.781  21.906  27.757  1.00  0.00    -0.237 OA
ATOM     68  O   UNL A   1      40.462  22.556  27.189  1.00  0.00    -0.237 OA
ATOM     69  O   UNL A   1      42.082  22.052  25.399  1.00  0.00    -0.744 OA
ENDBRANCH  62  66
ENDBRANCH  45  59
BRANCH  46  70
ATOM     70  C   UNL A   1      39.265  32.319  35.380  1.00  0.00     0.023 A 
ATOM     71  C   UNL A   1      39.737  33.634  35.524  1.00  0.00     0.031 A 
ATOM     72  C   UNL A   1      38.366  31.831  36.345  1.00  0.00     0.131 A 
ATOM     73  C   UNL A   1      39.337  34.402  36.628  1.00  0.00     0.055 A 
ATOM     74  C   UNL A   1      37.930  32.617  37.412  1.00  0.00     0.041 A 
ATOM     75  F   UNL A   1      37.886  30.580  36.255  1.00  0.00    -0.206 F 
ATOM     76  C   UNL A   1      38.427  33.908  37.565  1.00  0.00     0.022 A 
BRANCH  73  77
ATOM     77  S   UNL A   1      40.083  36.039  36.864  1.00  0.00     0.124 S 
ATOM     78  O   UNL A   1      41.489  35.701  37.048  1.00  0.00    -0.237 OA
ATOM     79  O   UNL A   1      39.742  36.709  35.613  1.00  0.00    -0.237 OA
ATOM     80  O   UNL A   1      39.403  36.555  38.050  1.00  0.00    -0.744 OA
ENDBRANCH  73  77
ENDBRANCH  46  70
BRANCH  58  81
ATOM     81  C   UNL A   1      44.621  27.916  34.692  1.00  0.00     0.023 A 
ATOM     82  C   UNL A   1      44.531  26.830  35.579  1.00  0.00     0.031 A 
ATOM     83  C   UNL A   1      45.800  28.683  34.700  1.00  0.00     0.131 A 
ATOM     84  C   UNL A   1      45.578  26.575  36.478  1.00  0.00     0.055 A 
ATOM     85  C   UNL A   1      46.862  28.390  35.555  1.00  0.00     0.041 A 
ATOM     86  F   UNL A   1      45.937  29.733  33.874  1.00  0.00    -0.206 F 
ATOM     87  C   UNL A   1      46.749  27.338  36.460  1.00  0.00     0.022 A 
BRANCH  84  88
ATOM     88  S   UNL A   1      45.357  25.283  37.732  1.00  0.00     0.124 S 
ATOM     89  O   UNL A   1      44.566  25.975  38.744  1.00  0.00    -0.237 OA
ATOM     90  O   UNL A   1      44.664  24.237  36.985  1.00  0.00    -0.237 OA
ATOM     91  O   UNL A   1      46.724  24.955  38.132  1.00  0.00    -0.744 OA
ENDBRANCH  84  88
ENDBRANCH  58  81
ENDBRANCH  32  33
ENDBRANCH  25  27
ENDBRANCH  24  25
ENDBRANCH   1  24
TORSDOF 17
ENDMDL
MODEL 3
REMARK VINA RESULT:     -11.7      1.556      1.804
REMARK SMILES Nc1nc(N2CCOC[C@H]2C(=O)OCCOC(=O)c2ccc(-c3c4nc(c(-c5cc(S(=O)(=O)[O-])ccc5F)c5ccc([nH]5)c(-c5cc(S(=O)(=O)[O-])ccc5F)c5nc(c(-c6cc(S(=O)(=O)[O-])ccc6F)c6ccc3[nH]6)C=C5)C=C4)cc2)ccc1[N+](=O)[O-]
REMARK SMILES IDX 15 1 14 2 13 3 11 4 12 5 10 6 5 7 6 8 7 9 9 10 8 11 4 12
REMARK SMILES IDX 2 13 3 14 84 15 83 16 82 17 1 18 85 21 86 22 87 23 16 24
REMARK SMILES IDX 17 25 18 26 19 27 20 28 81 29 21 30 80 31 22 32 23 33 24 34
REMARK SMILES IDX 74 35 25 36 79 37 73 38 75 39 26 40 78 41 72 42 71 43 27 45
REMARK SMILES IDX 59 46 39 47 58 48 40 49 43 50 57 51 76 52 41 53 42 54 56 56
REMARK SMILES IDX 77 57 44 58 28 59 29 60 37 61 30 62 36 63 38 64 35 65 31 66
REMARK SMILES IDX 32 67 33 68 34 69 60 70 61 71 69 72 62 73 68 74 70 75 67 76
REMARK SMILES IDX 63 77 64 78 65 79 66 80 45 81 46 82 54 83 47 84 53 85 55 86
REMARK SMILES IDX 52 87 48 88 49 89 50 90 51 91
REMARK H PARENT 1 19 1 20 75 44 43 55
REMARK Flexibility Score: inf
ROOT
ATOM      1  C   UNL A   1      36.792  21.714  24.303  1.00  0.00     0.275 C 
ENDROOT
BRANCH   1   2
ATOM      2  C   UNL A   1      36.485  23.020  23.582  1.00  0.00     0.274 C 
BRANCH   2   3
ATOM      3  O   UNL A   1      35.307  22.876  22.765  1.00  0.00    -0.460 OA
BRANCH   3   4
ATOM      4  C   UNL A   1      34.221  23.600  23.150  1.00  0.00     0.331 C 
ATOM      5  O   UNL A   1      34.266  24.790  23.456  1.00  0.00    -0.250 OA
BRANCH   4   6
ATOM      6  C   UNL A   1      32.924  22.794  23.243  1.00  0.00     0.220 C 
ATOM      7  N   UNL A   1      32.738  21.976  24.458  1.00  0.00    -0.339 N 
ATOM      8  C   UNL A   1      32.429  22.678  25.700  1.00  0.00     0.147 C 
ATOM      9  C   UNL A   1      31.292  23.677  25.461  1.00  0.00     0.181 C 
ATOM     10  C   UNL A   1      31.762  23.805  23.140  1.00  0.00     0.197 C 
ATOM     11  O   UNL A   1      31.573  24.554  24.361  1.00  0.00    -0.377 OA
BRANCH   7  12
ATOM     12  C   UNL A   1      32.760  20.603  24.384  1.00  0.00     0.132 A 
ATOM     13  C   UNL A   1      32.453  18.648  23.121  1.00  0.00     0.204 A 
ATOM     14  N   UNL A   1      32.299  19.995  23.269  1.00  0.00    -0.207 NA
ATOM     15  C   UNL A   1      33.006  17.866  24.134  1.00  0.00     0.311 A 
ATOM     16  C   UNL A   1      33.385  18.475  25.329  1.00  0.00     0.093 A 
ATOM     17  C   UNL A   1      33.264  19.853  25.444  1.00  0.00     0.054 A 
BRANCH  13  18
ATOM     18  N   UNL A   1      31.947  18.134  21.944  1.00  0.00    -0.378 N 
ATOM     19  H   UNL A   1      31.794  18.727  21.173  1.00  0.00     0.158 HD
ATOM     20  H   UNL A   1      31.739  17.175  21.876  1.00  0.00     0.158 HD
ENDBRANCH  13  18
BRANCH  15  21
ATOM     21  N   UNL A   1      33.310  16.450  23.947  1.00  0.00     0.066 N 
ATOM     22  O   UNL A   1      32.871  15.661  24.802  1.00  0.00    -0.258 OA
ATOM     23  O   UNL A   1      34.067  16.128  23.022  1.00  0.00    -0.258 OA
ENDBRANCH  15  21
ENDBRANCH   7  12
ENDBRANCH   4   6
ENDBRANCH   3   4
ENDBRANCH   2   3
ENDBRANCH   1   2
BRANCH   1  24
ATOM     24  O   UNL A   1      37.225  22.004  25.640  1.00  0.00    -0.458 OA
BRANCH  24  25
ATOM     25  C   UNL A   1      38.512  21.700  25.922  1.00  0.00     0.338 C 
ATOM     26  O   UNL A   1      39.076  20.629  25.793  1.00  0.00    -0.246 OA
BRANCH  25  27
ATOM     27  C   UNL A   1      39.147  22.889  26.505  1.00  0.00     0.060 A 
ATOM     28  C   UNL A   1      38.678  24.165  26.185  1.00  0.00     0.016 A 
ATOM     29  C   UNL A   1      40.266  22.725  27.316  1.00  0.00     0.016 A 
ATOM     30  C   UNL A   1      39.338  25.292  26.670  1.00  0.00     0.010 A 
ATOM     31  C   UNL A   1      40.903  23.853  27.834  1.00  0.00     0.010 A 
ATOM     32  C   UNL A   1      40.453  25.144  27.502  1.00  0.00    -0.014 A 
BRANCH  32  33
ATOM     33  C   UNL A   1      41.199  26.330  27.984  1.00  0.00     0.031 A 
ATOM     34  C   UNL A   1      40.477  27.379  28.780  1.00  0.00     0.074 A 
ATOM     35  C   UNL A   1      42.506  26.473  27.696  1.00  0.00     0.049 A 
ATOM     36  N   UNL A   1      40.877  28.569  29.141  1.00  0.00    -0.248 NA
ATOM     37  C   UNL A   1      39.114  27.039  29.211  1.00  0.00     0.031 C 
ATOM     38  C   UNL A   1      43.328  25.491  26.988  1.00  0.00     0.029 A 
ATOM     39  N   UNL A   1      43.370  27.506  27.956  1.00  0.00    -0.354 N 
ATOM     40  C   UNL A   1      39.804  29.137  29.821  1.00  0.00     0.074 A 
ATOM     41  C   UNL A   1      38.728  28.166  29.789  1.00  0.00     0.031 C 
ATOM     42  C   UNL A   1      44.578  25.967  26.876  1.00  0.00     0.029 A 
ATOM     43  C   UNL A   1      44.629  27.313  27.439  1.00  0.00     0.049 A 
ATOM     44  H   UNL A   1      43.113  28.310  28.464  1.00  0.00     0.167 HD
ATOM     45  C   UNL A   1      39.729  30.352  30.419  1.00  0.00     0.034 A 
ATOM     46  C   UNL A   1      45.689  28.144  27.390  1.00  0.00     0.034 A 
ATOM     47  C   UNL A   1      40.819  31.299  30.441  1.00  0.00     0.049 A 
ATOM     48  C   UNL A   1      45.552  29.529  27.971  1.00  0.00     0.074 A 
ATOM     49  C   UNL A   1      40.859  32.558  31.014  1.00  0.00     0.029 A 
ATOM     50  N   UNL A   1      42.064  31.090  29.859  1.00  0.00    -0.354 N 
ATOM     51  N   UNL A   1      44.520  30.076  28.571  1.00  0.00    -0.248 NA
ATOM     52  C   UNL A   1      46.721  30.410  27.858  1.00  0.00     0.031 C 
ATOM     53  C   UNL A   1      42.103  33.133  30.726  1.00  0.00     0.029 A 
ATOM     54  C   UNL A   1      42.868  32.207  30.035  1.00  0.00     0.049 A 
ATOM     55  H   UNL A   1      42.336  30.269  29.391  1.00  0.00     0.167 HD
ATOM     56  C   UNL A   1      44.927  31.357  28.932  1.00  0.00     0.074 A 
ATOM     57  C   UNL A   1      46.300  31.495  28.492  1.00  0.00     0.031 C 
ATOM     58  C   UNL A   1      44.232  32.330  29.576  1.00  0.00     0.034 A 
BRANCH  45  59
ATOM     59  C   UNL A   1      38.406  30.734  31.037  1.00  0.00     0.023 A 
ATOM     60  C   UNL A   1      37.381  31.328  30.280  1.00  0.00     0.031 A 
ATOM     61  C   UNL A   1      38.189  30.560  32.415  1.00  0.00     0.131 A 
ATOM     62  C   UNL A   1      36.227  31.806  30.920  1.00  0.00     0.055 A 
ATOM     63  C   UNL A   1      37.003  30.962  33.032  1.00  0.00     0.041 A 
ATOM     64  F   UNL A   1      39.139  30.018  33.193  1.00  0.00    -0.206 F 
ATOM     65  C   UNL A   1      36.020  31.607  32.286  1.00  0.00     0.022 A 
BRANCH  62  66
ATOM     66  S   UNL A   1      35.082  32.846  29.972  1.00  0.00     0.124 S 
ATOM     67  O   UNL A   1      34.168  33.302  31.016  1.00  0.00    -0.237 OA
ATOM     68  O   UNL A   1      35.969  33.860  29.412  1.00  0.00    -0.237 OA
ATOM     69  O   UNL A   1      34.501  31.920  29.003  1.00  0.00    -0.744 OA
ENDBRANCH  62  66
ENDBRANCH  45  59
BRANCH  46  70
ATOM     70  C   UNL A   1      46.954  27.717  26.729  1.00  0.00     0.023 A 
ATOM     71  C   UNL A   1      47.128  27.866  25.343  1.00  0.00     0.031 A 
ATOM     72  C   UNL A   1      47.991  27.116  27.464  1.00  0.00     0.131 A 
ATOM     73  C   UNL A   1      48.297  27.388  24.731  1.00  0.00     0.055 A 
ATOM     74  C   UNL A   1      49.174  26.689  26.858  1.00  0.00     0.041 A 
ATOM     75  F   UNL A   1      47.875  26.948  28.790  1.00  0.00    -0.206 F 
ATOM     76  C   UNL A   1      49.326  26.813  25.480  1.00  0.00     0.022 A 
BRANCH  73  77
ATOM     77  S   UNL A   1      48.422  27.461  22.923  1.00  0.00     0.124 S 
ATOM     78  O   UNL A   1      49.685  28.167  22.740  1.00  0.00    -0.237 OA
ATOM     79  O   UNL A   1      48.419  26.048  22.562  1.00  0.00    -0.237 OA
ATOM     80  O   UNL A   1      47.227  28.205  22.529  1.00  0.00    -0.744 OA
ENDBRANCH  73  77
ENDBRANCH  46  70
BRANCH  58  81
ATOM     81  C   UNL A   1      44.976  33.608  29.880  1.00  0.00     0.023 A 
ATOM     82  C   UNL A   1      45.690  33.782  31.078  1.00  0.00     0.031 A 
ATOM     83  C   UNL A   1      44.952  34.672  28.962  1.00  0.00     0.131 A 
ATOM     84  C   UNL A   1      46.305  35.014  31.351  1.00  0.00     0.055 A 
ATOM     85  C   UNL A   1      45.614  35.874  29.212  1.00  0.00     0.041 A 
ATOM     86  F   UNL A   1      44.282  34.559  27.803  1.00  0.00    -0.206 F 
ATOM     87  C   UNL A   1      46.284  36.054  30.419  1.00  0.00     0.022 A 
BRANCH  84  88
ATOM     88  S   UNL A   1      47.062  35.269  32.980  1.00  0.00     0.124 S 
ATOM     89  O   UNL A   1      46.006  35.974  33.698  1.00  0.00    -0.237 OA
ATOM     90  O   UNL A   1      47.329  33.902  33.419  1.00  0.00    -0.237 OA
ATOM     91  O   UNL A   1      48.251  36.067  32.685  1.00  0.00    -0.744 OA
ENDBRANCH  84  88
ENDBRANCH  58  81
ENDBRANCH  32  33
ENDBRANCH  25  27
ENDBRANCH  24  25
ENDBRANCH   1  24
TORSDOF 17
ENDMDL
