MODEL 1
REMARK VINA RESULT:     -11.8      0.000      0.000
REMARK SMILES CC[C@@](C)(NC(=O)Nc1cccc(C[NH2+]C)c1)C(=O)OCCOC(=O)c1ccc(-c2c3nc(c(-c4cc(S(=O)(=O)[O-])ccc4F)c4ccc([nH]4)c(-c4cc(S(=O)(=O)[O-])ccc4F)c4nc(c(-c5cc(S(=O)(=O)[O-])ccc5F)c5ccc2[nH]5)C=C4)C=C3)cc1
REMARK SMILES IDX 21 1 20 2 18 3 19 4 3 5 4 6 2 7 1 8 5 9 6 10 7 12 8 13 9 15
REMARK SMILES IDX 10 16 17 17 11 18 13 19 12 20 14 21 15 22 16 23 22 26 23 27
REMARK SMILES IDX 24 28 25 29 26 30 27 31 88 32 28 33 87 34 29 35 30 36 31 37
REMARK SMILES IDX 81 38 32 39 86 40 80 41 82 42 33 43 85 44 79 45 78 46 34 48
REMARK SMILES IDX 66 49 46 50 65 51 47 52 50 53 64 54 83 55 48 56 49 57 63 59
REMARK SMILES IDX 84 60 51 61 35 62 36 63 44 64 37 65 43 66 45 67 42 68 38 69
REMARK SMILES IDX 39 70 40 71 41 72 67 73 68 74 76 75 69 76 75 77 77 78 74 79
REMARK SMILES IDX 70 80 71 81 72 82 73 83 52 84 53 85 61 86 54 87 60 88 62 89
REMARK SMILES IDX 59 90 55 91 56 92 57 93 58 94
REMARK H PARENT 5 11 8 14 15 24 15 25 82 47 50 58
REMARK Flexibility Score: inf
ROOT
ATOM      1  C   UNL A   1      34.311  20.890  24.445  1.00  0.00     0.274 C 
ENDROOT
BRANCH   1   2
ATOM      2  O   UNL A   1      33.256  21.138  25.464  1.00  0.00    -0.460 OA
BRANCH   2   3
ATOM      3  C   UNL A   1      33.204  22.281  26.289  1.00  0.00     0.331 C 
ATOM      4  O   UNL A   1      33.877  22.373  27.313  1.00  0.00    -0.249 OA
BRANCH   3   5
ATOM      5  C   UNL A   1      32.064  23.448  25.786  1.00  0.00     0.136 C 
ATOM      6  C   UNL A   1      32.623  24.814  26.207  1.00  0.00     0.047 C 
BRANCH   5   7
ATOM      7  C   UNL A   1      31.147  23.738  24.499  1.00  0.00     0.037 C 
ATOM      8  C   UNL A   1      31.253  23.165  23.103  1.00  0.00     0.007 C 
ENDBRANCH   5   7
BRANCH   5   9
ATOM      9  N   UNL A   1      31.033  22.993  26.651  1.00  0.00    -0.322 N 
ATOM     10  C   UNL A   1      29.993  23.790  26.915  1.00  0.00     0.320 C 
ATOM     11  H   UNL A   1      31.085  22.096  27.054  1.00  0.00     0.166 HD
ATOM     12  O   UNL A   1      29.105  23.258  27.588  1.00  0.00    -0.248 OA
ATOM     13  N   UNL A   1      29.833  25.071  26.431  1.00  0.00    -0.308 N 
ATOM     14  H   UNL A   1      29.017  25.377  26.891  1.00  0.00     0.171 HD
BRANCH  13  15
ATOM     15  C   UNL A   1      30.191  26.206  25.630  1.00  0.00     0.043 A 
ATOM     16  C   UNL A   1      29.584  26.265  24.355  1.00  0.00     0.026 A 
ATOM     17  C   UNL A   1      31.082  27.238  25.883  1.00  0.00     0.035 A 
ATOM     18  C   UNL A   1      29.806  27.302  23.439  1.00  0.00     0.003 A 
ATOM     19  C   UNL A   1      31.295  28.325  25.001  1.00  0.00     0.008 A 
ATOM     20  C   UNL A   1      30.660  28.343  23.766  1.00  0.00     0.010 A 
BRANCH  19  21
ATOM     21  C   UNL A   1      32.120  29.495  25.483  1.00  0.00     0.297 C 
BRANCH  21  22
ATOM     22  N   UNL A   1      33.549  29.341  25.214  1.00  0.00    -0.345 N 
ATOM     23  C   UNL A   1      34.220  28.894  26.432  1.00  0.00     0.331 C 
ATOM     24  H   UNL A   1      33.938  30.236  24.919  1.00  0.00     0.346 HD
ATOM     25  H   UNL A   1      33.685  28.654  24.474  1.00  0.00     0.346 HD
ENDBRANCH  21  22
ENDBRANCH  19  21
ENDBRANCH  13  15
ENDBRANCH   5   9
ENDBRANCH   3   5
ENDBRANCH   2   3
ENDBRANCH   1   2
BRANCH   1  26
ATOM     26  C   UNL A   1      35.735  20.303  25.006  1.00  0.00     0.275 C 
BRANCH  26  27
ATOM     27  O   UNL A   1      36.813  21.301  25.325  1.00  0.00    -0.458 OA
BRANCH  27  28
ATOM     28  C   UNL A   1      38.158  20.979  25.447  1.00  0.00     0.338 C 
ATOM     29  O   UNL A   1      38.632  19.898  25.130  1.00  0.00    -0.246 OA
BRANCH  28  30
ATOM     30  C   UNL A   1      38.981  22.125  26.106  1.00  0.00     0.060 A 
ATOM     31  C   UNL A   1      38.762  23.493  25.840  1.00  0.00     0.016 A 
ATOM     32  C   UNL A   1      40.025  21.868  26.993  1.00  0.00     0.016 A 
ATOM     33  C   UNL A   1      39.345  24.554  26.550  1.00  0.00     0.010 A 
ATOM     34  C   UNL A   1      40.725  22.939  27.627  1.00  0.00     0.010 A 
ATOM     35  C   UNL A   1      40.369  24.294  27.440  1.00  0.00    -0.014 A 
BRANCH  35  36
ATOM     36  C   UNL A   1      41.233  25.429  27.889  1.00  0.00     0.031 A 
ATOM     37  C   UNL A   1      40.585  26.496  28.731  1.00  0.00     0.074 A 
ATOM     38  C   UNL A   1      42.563  25.512  27.680  1.00  0.00     0.049 A 
ATOM     39  N   UNL A   1      40.989  27.707  29.012  1.00  0.00    -0.248 NA
ATOM     40  C   UNL A   1      39.299  26.129  29.339  1.00  0.00     0.031 C 
ATOM     41  C   UNL A   1      43.406  24.472  27.096  1.00  0.00     0.029 A 
ATOM     42  N   UNL A   1      43.441  26.550  27.927  1.00  0.00    -0.354 N 
ATOM     43  C   UNL A   1      39.969  28.275  29.766  1.00  0.00     0.074 A 
ATOM     44  C   UNL A   1      38.947  27.263  29.922  1.00  0.00     0.031 C 
ATOM     45  C   UNL A   1      44.661  24.946  26.972  1.00  0.00     0.029 A 
ATOM     46  C   UNL A   1      44.697  26.348  27.395  1.00  0.00     0.049 A 
ATOM     47  H   UNL A   1      43.193  27.356  28.434  1.00  0.00     0.167 HD
ATOM     48  C   UNL A   1      39.880  29.537  30.254  1.00  0.00     0.034 A 
ATOM     49  C   UNL A   1      45.720  27.210  27.194  1.00  0.00     0.034 A 
ATOM     50  C   UNL A   1      40.918  30.527  30.104  1.00  0.00     0.049 A 
ATOM     51  C   UNL A   1      45.564  28.662  27.605  1.00  0.00     0.074 A 
ATOM     52  C   UNL A   1      40.921  31.845  30.526  1.00  0.00     0.029 A 
ATOM     53  N   UNL A   1      42.139  30.308  29.480  1.00  0.00    -0.354 N 
ATOM     54  N   UNL A   1      44.548  29.249  28.194  1.00  0.00    -0.248 NA
ATOM     55  C   UNL A   1      46.682  29.571  27.305  1.00  0.00     0.031 C 
ATOM     56  C   UNL A   1      42.107  32.442  30.087  1.00  0.00     0.029 A 
ATOM     57  C   UNL A   1      42.886  31.475  29.472  1.00  0.00     0.049 A 
ATOM     58  H   UNL A   1      42.430  29.449  29.097  1.00  0.00     0.167 HD
ATOM     59  C   UNL A   1      44.915  30.586  28.356  1.00  0.00     0.074 A 
ATOM     60  C   UNL A   1      46.247  30.721  27.806  1.00  0.00     0.031 C 
ATOM     61  C   UNL A   1      44.216  31.605  28.918  1.00  0.00     0.034 A 
BRANCH  48  62
ATOM     62  C   UNL A   1      38.561  29.939  30.868  1.00  0.00     0.023 A 
ATOM     63  C   UNL A   1      37.569  30.622  30.146  1.00  0.00     0.031 A 
ATOM     64  C   UNL A   1      38.338  29.710  32.239  1.00  0.00     0.131 A 
ATOM     65  C   UNL A   1      36.450  31.139  30.818  1.00  0.00     0.055 A 
ATOM     66  C   UNL A   1      37.177  30.143  32.881  1.00  0.00     0.041 A 
ATOM     67  F   UNL A   1      39.262  29.086  32.987  1.00  0.00    -0.206 F 
ATOM     68  C   UNL A   1      36.235  30.883  32.174  1.00  0.00     0.022 A 
BRANCH  65  69
ATOM     69  S   UNL A   1      35.384  32.316  29.939  1.00  0.00     0.124 S 
ATOM     70  O   UNL A   1      36.313  33.408  29.661  1.00  0.00    -0.237 OA
ATOM     71  O   UNL A   1      34.945  31.541  28.784  1.00  0.00    -0.237 OA
ATOM     72  O   UNL A   1      34.341  32.628  30.916  1.00  0.00    -0.744 OA
ENDBRANCH  65  69
ENDBRANCH  48  62
BRANCH  49  73
ATOM     73  C   UNL A   1      46.938  26.776  26.434  1.00  0.00     0.023 A 
ATOM     74  C   UNL A   1      48.058  26.216  27.071  1.00  0.00     0.031 A 
ATOM     75  C   UNL A   1      47.012  26.981  25.043  1.00  0.00     0.131 A 
ATOM     76  C   UNL A   1      49.207  25.902  26.322  1.00  0.00     0.055 A 
ATOM     77  C   UNL A   1      48.136  26.620  24.296  1.00  0.00     0.041 A 
ATOM     78  F   UNL A   1      45.984  27.535  24.382  1.00  0.00    -0.206 F 
ATOM     79  C   UNL A   1      49.245  26.084  24.938  1.00  0.00     0.022 A 
BRANCH  76  80
ATOM     80  S   UNL A   1      50.689  25.306  27.188  1.00  0.00     0.124 S 
ATOM     81  O   UNL A   1      50.145  24.224  27.999  1.00  0.00    -0.237 OA
ATOM     82  O   UNL A   1      51.550  24.909  26.079  1.00  0.00    -0.237 OA
ATOM     83  O   UNL A   1      51.142  26.478  27.934  1.00  0.00    -0.744 OA
ENDBRANCH  76  80
ENDBRANCH  49  73
BRANCH  61  84
ATOM     84  C   UNL A   1      44.894  32.951  29.038  1.00  0.00     0.023 A 
ATOM     85  C   UNL A   1      44.891  33.889  27.991  1.00  0.00     0.031 A 
ATOM     86  C   UNL A   1      45.513  33.314  30.249  1.00  0.00     0.131 A 
ATOM     87  C   UNL A   1      45.517  35.135  28.168  1.00  0.00     0.055 A 
ATOM     88  C   UNL A   1      46.088  34.572  30.435  1.00  0.00     0.041 A 
ATOM     89  F   UNL A   1      45.546  32.457  31.282  1.00  0.00    -0.206 F 
ATOM     90  C   UNL A   1      46.098  35.489  29.390  1.00  0.00     0.022 A 
BRANCH  87  91
ATOM     91  S   UNL A   1      45.612  36.280  26.762  1.00  0.00     0.124 S 
ATOM     92  O   UNL A   1      46.880  36.958  27.008  1.00  0.00    -0.237 OA
ATOM     93  O   UNL A   1      45.581  35.376  25.618  1.00  0.00    -0.237 OA
ATOM     94  O   UNL A   1      44.422  37.116  26.920  1.00  0.00    -0.744 OA
ENDBRANCH  87  91
ENDBRANCH  61  84
ENDBRANCH  35  36
ENDBRANCH  28  30
ENDBRANCH  27  28
ENDBRANCH  26  27
ENDBRANCH   1  26
TORSDOF 19
ENDMDL
MODEL 2
REMARK VINA RESULT:     -11.7      4.777      9.861
REMARK SMILES CC[C@@](C)(NC(=O)Nc1cccc(C[NH2+]C)c1)C(=O)OCCOC(=O)c1ccc(-c2c3nc(c(-c4cc(S(=O)(=O)[O-])ccc4F)c4ccc([nH]4)c(-c4cc(S(=O)(=O)[O-])ccc4F)c4nc(c(-c5cc(S(=O)(=O)[O-])ccc5F)c5ccc2[nH]5)C=C4)C=C3)cc1
REMARK SMILES IDX 21 1 20 2 18 3 19 4 3 5 4 6 2 7 1 8 5 9 6 10 7 12 8 13 9 15
REMARK SMILES IDX 10 16 17 17 11 18 13 19 12 20 14 21 15 22 16 23 22 26 23 27
REMARK SMILES IDX 24 28 25 29 26 30 27 31 88 32 28 33 87 34 29 35 30 36 31 37
REMARK SMILES IDX 81 38 32 39 86 40 80 41 82 42 33 43 85 44 79 45 78 46 34 48
REMARK SMILES IDX 66 49 46 50 65 51 47 52 50 53 64 54 83 55 48 56 49 57 63 59
REMARK SMILES IDX 84 60 51 61 35 62 36 63 44 64 37 65 43 66 45 67 42 68 38 69
REMARK SMILES IDX 39 70 40 71 41 72 67 73 68 74 76 75 69 76 75 77 77 78 74 79
REMARK SMILES IDX 70 80 71 81 72 82 73 83 52 84 53 85 61 86 54 87 60 88 62 89
REMARK SMILES IDX 59 90 55 91 56 92 57 93 58 94
REMARK H PARENT 5 11 8 14 15 24 15 25 82 47 50 58
REMARK Flexibility Score: inf
ROOT
ATOM      1  C   UNL A   1      33.021  28.900  24.360  1.00  0.00     0.274 C 
ENDROOT
BRANCH   1   2
ATOM      2  O   UNL A   1      32.710  27.691  23.551  1.00  0.00    -0.460 OA
BRANCH   2   3
ATOM      3  C   UNL A   1      33.137  26.386  23.879  1.00  0.00     0.331 C 
ATOM      4  O   UNL A   1      34.252  26.167  24.343  1.00  0.00    -0.249 OA
BRANCH   3   5
ATOM      5  C   UNL A   1      32.011  25.168  23.478  1.00  0.00     0.136 C 
ATOM      6  C   UNL A   1      31.652  25.374  22.000  1.00  0.00     0.047 C 
BRANCH   5   7
ATOM      7  C   UNL A   1      31.807  23.598  23.753  1.00  0.00     0.037 C 
ATOM      8  C   UNL A   1      32.293  22.416  22.944  1.00  0.00     0.007 C 
ENDBRANCH   5   7
BRANCH   5   9
ATOM      9  N   UNL A   1      30.998  25.644  24.353  1.00  0.00    -0.322 N 
ATOM     10  C   UNL A   1      31.023  25.296  25.644  1.00  0.00     0.320 C 
ATOM     11  H   UNL A   1      30.282  26.226  24.011  1.00  0.00     0.166 HD
ATOM     12  O   UNL A   1      30.163  25.850  26.335  1.00  0.00    -0.248 OA
ATOM     13  N   UNL A   1      31.959  24.465  26.223  1.00  0.00    -0.308 N 
ATOM     14  H   UNL A   1      31.622  24.366  27.143  1.00  0.00     0.171 HD
BRANCH  13  15
ATOM     15  C   UNL A   1      33.150  23.665  26.232  1.00  0.00     0.043 A 
ATOM     16  C   UNL A   1      32.968  22.309  26.588  1.00  0.00     0.026 A 
ATOM     17  C   UNL A   1      34.470  24.018  25.996  1.00  0.00     0.035 A 
ATOM     18  C   UNL A   1      34.013  21.377  26.643  1.00  0.00     0.003 A 
ATOM     19  C   UNL A   1      35.541  23.093  25.996  1.00  0.00     0.008 A 
ATOM     20  C   UNL A   1      35.306  21.767  26.337  1.00  0.00     0.010 A 
BRANCH  19  21
ATOM     21  C   UNL A   1      36.895  23.556  25.509  1.00  0.00     0.297 C 
BRANCH  21  22
ATOM     22  N   UNL A   1      37.425  22.740  24.419  1.00  0.00    -0.345 N 
ATOM     23  C   UNL A   1      36.556  22.877  23.252  1.00  0.00     0.331 C 
ATOM     24  H   UNL A   1      37.456  21.763  24.708  1.00  0.00     0.346 HD
ATOM     25  H   UNL A   1      38.366  23.053  24.185  1.00  0.00     0.346 HD
ENDBRANCH  21  22
ENDBRANCH  19  21
ENDBRANCH  13  15
ENDBRANCH   5   9
ENDBRANCH   3   5
ENDBRANCH   2   3
ENDBRANCH   1   2
BRANCH   1  26
ATOM     26  C   UNL A   1      31.803  29.477  25.295  1.00  0.00     0.275 C 
BRANCH  26  27
ATOM     27  O   UNL A   1      32.148  29.889  26.699  1.00  0.00    -0.458 OA
BRANCH  27  28
ATOM     28  C   UNL A   1      32.673  31.128  27.037  1.00  0.00     0.338 C 
ATOM     29  O   UNL A   1      32.120  32.192  26.799  1.00  0.00    -0.246 OA
BRANCH  28  30
ATOM     30  C   UNL A   1      34.083  31.014  27.688  1.00  0.00     0.060 A 
ATOM     31  C   UNL A   1      34.598  29.815  28.225  1.00  0.00     0.016 A 
ATOM     32  C   UNL A   1      34.930  32.114  27.812  1.00  0.00     0.016 A 
ATOM     33  C   UNL A   1      35.924  29.624  28.642  1.00  0.00     0.010 A 
ATOM     34  C   UNL A   1      36.241  31.968  28.359  1.00  0.00     0.010 A 
ATOM     35  C   UNL A   1      36.766  30.715  28.748  1.00  0.00    -0.014 A 
BRANCH  35  36
ATOM     36  C   UNL A   1      38.023  30.574  29.546  1.00  0.00     0.031 A 
ATOM     37  C   UNL A   1      39.110  29.706  28.970  1.00  0.00     0.074 A 
ATOM     38  C   UNL A   1      38.289  31.244  30.686  1.00  0.00     0.049 A 
ATOM     39  N   UNL A   1      40.157  29.175  29.545  1.00  0.00    -0.248 NA
ATOM     40  C   UNL A   1      38.988  29.404  27.537  1.00  0.00     0.031 C 
ATOM     41  C   UNL A   1      37.467  32.299  31.272  1.00  0.00     0.029 A 
ATOM     42  N   UNL A   1      39.340  31.112  31.572  1.00  0.00    -0.354 N 
ATOM     43  C   UNL A   1      40.776  28.411  28.562  1.00  0.00     0.074 A 
ATOM     44  C   UNL A   1      40.002  28.577  27.351  1.00  0.00     0.031 C 
ATOM     45  C   UNL A   1      38.009  32.672  32.448  1.00  0.00     0.029 A 
ATOM     46  C   UNL A   1      39.173  31.831  32.736  1.00  0.00     0.049 A 
ATOM     47  H   UNL A   1      40.133  30.557  31.390  1.00  0.00     0.167 HD
ATOM     48  C   UNL A   1      41.870  27.618  28.672  1.00  0.00     0.034 A 
ATOM     49  C   UNL A   1      39.823  31.758  33.921  1.00  0.00     0.034 A 
ATOM     50  C   UNL A   1      42.639  27.480  29.884  1.00  0.00     0.049 A 
ATOM     51  C   UNL A   1      40.953  30.762  34.092  1.00  0.00     0.074 A 
ATOM     52  C   UNL A   1      43.743  26.679  30.119  1.00  0.00     0.029 A 
ATOM     53  N   UNL A   1      42.382  28.158  31.068  1.00  0.00    -0.354 N 
ATOM     54  N   UNL A   1      41.461  29.929  33.211  1.00  0.00    -0.248 NA
ATOM     55  C   UNL A   1      41.584  30.679  35.419  1.00  0.00     0.031 C 
ATOM     56  C   UNL A   1      44.102  26.813  31.465  1.00  0.00     0.029 A 
ATOM     57  C   UNL A   1      43.281  27.767  32.047  1.00  0.00     0.049 A 
ATOM     58  H   UNL A   1      41.664  28.820  31.195  1.00  0.00     0.167 HD
ATOM     59  C   UNL A   1      42.483  29.245  33.871  1.00  0.00     0.074 A 
ATOM     60  C   UNL A   1      42.524  29.761  35.222  1.00  0.00     0.031 C 
ATOM     61  C   UNL A   1      43.316  28.284  33.397  1.00  0.00     0.034 A 
BRANCH  48  62
ATOM     62  C   UNL A   1      42.201  26.745  27.485  1.00  0.00     0.023 A 
ATOM     63  C   UNL A   1      41.961  25.361  27.476  1.00  0.00     0.031 A 
ATOM     64  C   UNL A   1      42.858  27.307  26.375  1.00  0.00     0.131 A 
ATOM     65  C   UNL A   1      42.465  24.575  26.429  1.00  0.00     0.055 A 
ATOM     66  C   UNL A   1      43.272  26.532  25.291  1.00  0.00     0.041 A 
ATOM     67  F   UNL A   1      43.139  28.620  26.339  1.00  0.00    -0.206 F 
ATOM     68  C   UNL A   1      43.096  25.152  25.325  1.00  0.00     0.022 A 
BRANCH  65  69
ATOM     69  S   UNL A   1      42.460  22.770  26.625  1.00  0.00     0.124 S 
ATOM     70  O   UNL A   1      43.853  22.505  26.972  1.00  0.00    -0.237 OA
ATOM     71  O   UNL A   1      41.487  22.573  27.693  1.00  0.00    -0.237 OA
ATOM     72  O   UNL A   1      42.050  22.284  25.308  1.00  0.00    -0.744 OA
ENDBRANCH  65  69
ENDBRANCH  48  62
BRANCH  49  73
ATOM     73  C   UNL A   1      39.335  32.543  35.102  1.00  0.00     0.023 A 
ATOM     74  C   UNL A   1      39.822  33.827  35.401  1.00  0.00     0.031 A 
ATOM     75  C   UNL A   1      38.403  31.974  35.992  1.00  0.00     0.131 A 
ATOM     76  C   UNL A   1      39.391  34.486  36.568  1.00  0.00     0.055 A 
ATOM     77  C   UNL A   1      37.941  32.653  37.121  1.00  0.00     0.041 A 
ATOM     78  F   UNL A   1      37.921  30.741  35.773  1.00  0.00    -0.206 F 
ATOM     79  C   UNL A   1      38.442  33.914  37.418  1.00  0.00     0.022 A 
BRANCH  76  80
ATOM     80  S   UNL A   1      40.136  36.085  37.003  1.00  0.00     0.124 S 
ATOM     81  O   UNL A   1      41.493  35.692  37.363  1.00  0.00    -0.237 OA
ATOM     82  O   UNL A   1      39.993  36.835  35.760  1.00  0.00    -0.237 OA
ATOM     83  O   UNL A   1      39.308  36.557  38.110  1.00  0.00    -0.744 OA
ENDBRANCH  76  80
ENDBRANCH  49  73
BRANCH  61  84
ATOM     84  C   UNL A   1      44.399  27.765  34.316  1.00  0.00     0.023 A 
ATOM     85  C   UNL A   1      44.180  26.703  35.210  1.00  0.00     0.031 A 
ATOM     86  C   UNL A   1      45.691  28.322  34.254  1.00  0.00     0.131 A 
ATOM     87  C   UNL A   1      45.232  26.247  36.024  1.00  0.00     0.055 A 
ATOM     88  C   UNL A   1      46.744  27.830  35.027  1.00  0.00     0.041 A 
ATOM     89  F   UNL A   1      45.956  29.338  33.418  1.00  0.00    -0.206 F 
ATOM     90  C   UNL A   1      46.516  26.791  35.923  1.00  0.00     0.022 A 
BRANCH  87  91
ATOM     91  S   UNL A   1      44.894  24.962  37.260  1.00  0.00     0.124 S 
ATOM     92  O   UNL A   1      44.391  23.870  36.433  1.00  0.00    -0.237 OA
ATOM     93  O   UNL A   1      46.205  24.754  37.864  1.00  0.00    -0.237 OA
ATOM     94  O   UNL A   1      43.902  25.581  38.138  1.00  0.00    -0.744 OA
ENDBRANCH  87  91
ENDBRANCH  61  84
ENDBRANCH  35  36
ENDBRANCH  28  30
ENDBRANCH  27  28
ENDBRANCH  26  27
ENDBRANCH   1  26
TORSDOF 19
ENDMDL
MODEL 3
REMARK VINA RESULT:     -11.6      1.638      2.018
REMARK SMILES CC[C@@](C)(NC(=O)Nc1cccc(C[NH2+]C)c1)C(=O)OCCOC(=O)c1ccc(-c2c3nc(c(-c4cc(S(=O)(=O)[O-])ccc4F)c4ccc([nH]4)c(-c4cc(S(=O)(=O)[O-])ccc4F)c4nc(c(-c5cc(S(=O)(=O)[O-])ccc5F)c5ccc2[nH]5)C=C4)C=C3)cc1
REMARK SMILES IDX 21 1 20 2 18 3 19 4 3 5 4 6 2 7 1 8 5 9 6 10 7 12 8 13 9 15
REMARK SMILES IDX 10 16 17 17 11 18 13 19 12 20 14 21 15 22 16 23 22 26 23 27
REMARK SMILES IDX 24 28 25 29 26 30 27 31 88 32 28 33 87 34 29 35 30 36 31 37
REMARK SMILES IDX 81 38 32 39 86 40 80 41 82 42 33 43 85 44 79 45 78 46 34 48
REMARK SMILES IDX 66 49 46 50 65 51 47 52 50 53 64 54 83 55 48 56 49 57 63 59
REMARK SMILES IDX 84 60 51 61 35 62 36 63 44 64 37 65 43 66 45 67 42 68 38 69
REMARK SMILES IDX 39 70 40 71 41 72 67 73 68 74 76 75 69 76 75 77 77 78 74 79
REMARK SMILES IDX 70 80 71 81 72 82 73 83 52 84 53 85 61 86 54 87 60 88 62 89
REMARK SMILES IDX 59 90 55 91 56 92 57 93 58 94
REMARK H PARENT 5 11 8 14 15 24 15 25 82 47 50 58
REMARK Flexibility Score: inf
ROOT
ATOM      1  C   UNL A   1      35.235  21.069  25.445  1.00  0.00     0.274 C 
ENDROOT
BRANCH   1   2
ATOM      2  O   UNL A   1      34.748  22.351  26.020  1.00  0.00    -0.460 OA
BRANCH   2   3
ATOM      3  C   UNL A   1      33.581  22.476  26.804  1.00  0.00     0.331 C 
ATOM      4  O   UNL A   1      33.482  21.947  27.907  1.00  0.00    -0.249 OA
BRANCH   3   5
ATOM      5  C   UNL A   1      32.319  23.331  26.036  1.00  0.00     0.136 C 
ATOM      6  C   UNL A   1      32.568  24.820  26.315  1.00  0.00     0.047 C 
BRANCH   5   7
ATOM      7  C   UNL A   1      31.527  23.283  24.639  1.00  0.00     0.037 C 
ATOM      8  C   UNL A   1      32.077  23.214  23.232  1.00  0.00     0.007 C 
ENDBRANCH   5   7
BRANCH   5   9
ATOM      9  N   UNL A   1      31.290  22.790  26.853  1.00  0.00    -0.322 N 
ATOM     10  C   UNL A   1      30.156  23.475  27.026  1.00  0.00     0.320 C 
ATOM     11  H   UNL A   1      31.413  21.916  27.289  1.00  0.00     0.166 HD
ATOM     12  O   UNL A   1      29.289  22.868  27.663  1.00  0.00    -0.248 OA
ATOM     13  N   UNL A   1      29.889  24.717  26.490  1.00  0.00    -0.308 N 
ATOM     14  H   UNL A   1      29.018  24.944  26.888  1.00  0.00     0.171 HD
BRANCH  13  15
ATOM     15  C   UNL A   1      30.173  25.862  25.672  1.00  0.00     0.043 A 
ATOM     16  C   UNL A   1      29.550  25.872  24.404  1.00  0.00     0.026 A 
ATOM     17  C   UNL A   1      31.007  26.946  25.904  1.00  0.00     0.035 A 
ATOM     18  C   UNL A   1      29.703  26.910  23.475  1.00  0.00     0.003 A 
ATOM     19  C   UNL A   1      31.147  28.033  25.009  1.00  0.00     0.008 A 
ATOM     20  C   UNL A   1      30.499  28.001  23.781  1.00  0.00     0.010 A 
BRANCH  19  21
ATOM     21  C   UNL A   1      31.910  29.253  25.470  1.00  0.00     0.297 C 
BRANCH  21  22
ATOM     22  N   UNL A   1      32.964  29.658  24.542  1.00  0.00    -0.345 N 
ATOM     23  C   UNL A   1      33.905  28.553  24.375  1.00  0.00     0.331 C 
ATOM     24  H   UNL A   1      33.454  30.470  24.916  1.00  0.00     0.346 HD
ATOM     25  H   UNL A   1      32.552  29.897  23.640  1.00  0.00     0.346 HD
ENDBRANCH  21  22
ENDBRANCH  19  21
ENDBRANCH  13  15
ENDBRANCH   5   9
ENDBRANCH   3   5
ENDBRANCH   2   3
ENDBRANCH   1   2
BRANCH   1  26
ATOM     26  C   UNL A   1      36.685  21.125  24.680  1.00  0.00     0.275 C 
BRANCH  26  27
ATOM     27  O   UNL A   1      37.696  22.113  25.191  1.00  0.00    -0.458 OA
BRANCH  27  28
ATOM     28  C   UNL A   1      38.826  21.764  25.916  1.00  0.00     0.338 C 
ATOM     29  O   UNL A   1      39.208  20.613  26.072  1.00  0.00    -0.246 OA
BRANCH  28  30
ATOM     30  C   UNL A   1      39.510  22.998  26.573  1.00  0.00     0.060 A 
ATOM     31  C   UNL A   1      39.287  24.327  26.154  1.00  0.00     0.016 A 
ATOM     32  C   UNL A   1      40.426  22.867  27.616  1.00  0.00     0.016 A 
ATOM     33  C   UNL A   1      39.729  25.471  26.836  1.00  0.00     0.010 A 
ATOM     34  C   UNL A   1      40.994  24.020  28.239  1.00  0.00     0.010 A 
ATOM     35  C   UNL A   1      40.625  25.335  27.879  1.00  0.00    -0.014 A 
BRANCH  35  36
ATOM     36  C   UNL A   1      41.380  26.543  28.336  1.00  0.00     0.031 A 
ATOM     37  C   UNL A   1      40.613  27.581  29.112  1.00  0.00     0.074 A 
ATOM     38  C   UNL A   1      42.709  26.718  28.192  1.00  0.00     0.049 A 
ATOM     39  N   UNL A   1      40.913  28.825  29.376  1.00  0.00    -0.248 NA
ATOM     40  C   UNL A   1      39.327  27.136  29.666  1.00  0.00     0.031 C 
ATOM     41  C   UNL A   1      43.655  25.729  27.683  1.00  0.00     0.029 A 
ATOM     42  N   UNL A   1      43.495  27.825  28.451  1.00  0.00    -0.354 N 
ATOM     43  C   UNL A   1      39.816  29.337  30.061  1.00  0.00     0.074 A 
ATOM     44  C   UNL A   1      38.863  28.256  30.196  1.00  0.00     0.031 C 
ATOM     45  C   UNL A   1      44.877  26.291  27.608  1.00  0.00     0.029 A 
ATOM     46  C   UNL A   1      44.788  27.703  27.989  1.00  0.00     0.049 A 
ATOM     47  H   UNL A   1      43.164  28.624  28.920  1.00  0.00     0.167 HD
ATOM     48  C   UNL A   1      39.610  30.601  30.505  1.00  0.00     0.034 A 
ATOM     49  C   UNL A   1      45.756  28.633  27.813  1.00  0.00     0.034 A 
ATOM     50  C   UNL A   1      40.580  31.661  30.377  1.00  0.00     0.049 A 
ATOM     51  C   UNL A   1      45.473  30.079  28.171  1.00  0.00     0.074 A 
ATOM     52  C   UNL A   1      40.465  32.986  30.759  1.00  0.00     0.029 A 
ATOM     53  N   UNL A   1      41.844  31.516  29.822  1.00  0.00    -0.354 N 
ATOM     54  N   UNL A   1      44.387  30.605  28.691  1.00  0.00    -0.248 NA
ATOM     55  C   UNL A   1      46.537  31.060  27.900  1.00  0.00     0.031 C 
ATOM     56  C   UNL A   1      41.626  33.658  30.362  1.00  0.00     0.029 A 
ATOM     57  C   UNL A   1      42.505  32.735  29.815  1.00  0.00     0.049 A 
ATOM     58  H   UNL A   1      42.217  30.671  29.480  1.00  0.00     0.167 HD
ATOM     59  C   UNL A   1      44.647  31.969  28.830  1.00  0.00     0.074 A 
ATOM     60  C   UNL A   1      45.993  32.187  28.344  1.00  0.00     0.031 C 
ATOM     61  C   UNL A   1      43.848  32.948  29.326  1.00  0.00     0.034 A 
BRANCH  48  62
ATOM     62  C   UNL A   1      38.235  30.920  31.040  1.00  0.00     0.023 A 
ATOM     63  C   UNL A   1      37.233  31.505  30.247  1.00  0.00     0.031 A 
ATOM     64  C   UNL A   1      37.959  30.717  32.405  1.00  0.00     0.131 A 
ATOM     65  C   UNL A   1      36.047  31.955  30.845  1.00  0.00     0.055 A 
ATOM     66  C   UNL A   1      36.738  31.080  32.974  1.00  0.00     0.041 A 
ATOM     67  F   UNL A   1      38.888  30.187  33.219  1.00  0.00    -0.206 F 
ATOM     68  C   UNL A   1      35.782  31.725  32.197  1.00  0.00     0.022 A 
BRANCH  65  69
ATOM     69  S   UNL A   1      34.943  33.021  29.876  1.00  0.00     0.124 S 
ATOM     70  O   UNL A   1      34.301  32.055  28.989  1.00  0.00    -0.237 OA
ATOM     71  O   UNL A   1      34.091  33.608  30.904  1.00  0.00    -0.237 OA
ATOM     72  O   UNL A   1      35.857  33.951  29.215  1.00  0.00    -0.744 OA
ENDBRANCH  65  69
ENDBRANCH  48  62
BRANCH  49  73
ATOM     73  C   UNL A   1      47.039  28.269  27.129  1.00  0.00     0.023 A 
ATOM     74  C   UNL A   1      47.132  28.131  25.734  1.00  0.00     0.031 A 
ATOM     75  C   UNL A   1      48.191  27.990  27.891  1.00  0.00     0.131 A 
ATOM     76  C   UNL A   1      48.340  27.707  25.150  1.00  0.00     0.055 A 
ATOM     77  C   UNL A   1      49.401  27.619  27.303  1.00  0.00     0.041 A 
ATOM     78  F   UNL A   1      48.157  28.080  29.230  1.00  0.00    -0.206 F 
ATOM     79  C   UNL A   1      49.478  27.468  25.924  1.00  0.00     0.022 A 
BRANCH  76  80
ATOM     80  S   UNL A   1      48.396  27.405  23.359  1.00  0.00     0.124 S 
ATOM     81  O   UNL A   1      47.223  28.139  22.898  1.00  0.00    -0.237 OA
ATOM     82  O   UNL A   1      49.691  27.971  22.996  1.00  0.00    -0.237 OA
ATOM     83  O   UNL A   1      48.304  25.951  23.255  1.00  0.00    -0.744 OA
ENDBRANCH  76  80
ENDBRANCH  49  73
BRANCH  61  84
ATOM     84  C   UNL A   1      44.419  34.343  29.438  1.00  0.00     0.023 A 
ATOM     85  C   UNL A   1      44.121  35.355  28.508  1.00  0.00     0.031 A 
ATOM     86  C   UNL A   1      45.242  34.673  30.531  1.00  0.00     0.131 A 
ATOM     87  C   UNL A   1      44.662  36.641  28.677  1.00  0.00     0.055 A 
ATOM     88  C   UNL A   1      45.734  35.966  30.721  1.00  0.00     0.041 A 
ATOM     89  F   UNL A   1      45.561  33.747  31.449  1.00  0.00    -0.206 F 
ATOM     90  C   UNL A   1      45.451  36.956  29.788  1.00  0.00     0.022 A 
BRANCH  87  91
ATOM     91  S   UNL A   1      44.367  37.894  27.398  1.00  0.00     0.124 S 
ATOM     92  O   UNL A   1      43.243  37.322  26.666  1.00  0.00    -0.237 OA
ATOM     93  O   UNL A   1      44.076  39.086  28.187  1.00  0.00    -0.237 OA
ATOM     94  O   UNL A   1      45.629  37.936  26.660  1.00  0.00    -0.744 OA
ENDBRANCH  87  91
ENDBRANCH  61  84
ENDBRANCH  35  36
ENDBRANCH  28  30
ENDBRANCH  27  28
ENDBRANCH  26  27
ENDBRANCH   1  26
TORSDOF 19
ENDMDL
