MODEL 1
REMARK VINA RESULT:     -10.7      0.000      0.000
REMARK SMILES CS(=O)(=O)c1ccc(C(=O)OCCOC(=O)c2ccc(-c3c4nc(c(-c5cc(S(=O)(=O)[O-])ccc5F)c5ccc([nH]5)c(-c5cc(S(=O)(=O)[O-])ccc5F)c5nc(c(-c6cc(S(=O)(=O)[O-])ccc6F)c6ccc3[nH]6)C=C5)C=C4)cc2)o1
REMARK SMILES IDX 13 1 12 2 11 3 9 4 10 5 8 6 5 7 6 8 80 9 7 10 2 11 1 12 3 13
REMARK SMILES IDX 4 14 14 15 15 16 16 17 17 18 18 19 79 20 19 21 78 22 20 23
REMARK SMILES IDX 21 24 22 25 72 26 23 27 77 28 71 29 73 30 24 31 76 32 70 33
REMARK SMILES IDX 69 34 25 36 57 37 37 38 56 39 38 40 41 41 55 42 74 43 39 44
REMARK SMILES IDX 40 45 54 47 75 48 42 49 26 50 27 51 35 52 28 53 34 54 36 55
REMARK SMILES IDX 33 56 29 57 30 58 31 59 32 60 58 61 59 62 67 63 60 64 66 65
REMARK SMILES IDX 68 66 65 67 61 68 62 69 63 70 64 71 43 72 44 73 52 74 45 75
REMARK SMILES IDX 51 76 53 77 50 78 46 79 47 80 48 81 49 82
REMARK H PARENT 73 35 41 46
REMARK Flexibility Score: inf
ROOT
ATOM      1  C   UNL A   1      34.257  33.107  28.741  1.00  0.00     0.275 C 
ENDROOT
BRANCH   1   2
ATOM      2  C   UNL A   1      33.258  34.203  28.351  1.00  0.00     0.275 C 
BRANCH   2   3
ATOM      3  O   UNL A   1      32.631  34.780  29.512  1.00  0.00    -0.456 OA
BRANCH   3   4
ATOM      4  C   UNL A   1      33.048  36.043  29.836  1.00  0.00     0.374 C 
ATOM      5  O   UNL A   1      32.990  37.000  29.081  1.00  0.00    -0.242 OA
BRANCH   4   6
ATOM      6  C   UNL A   1      33.479  36.080  31.216  1.00  0.00     0.213 A 
ATOM      7  C   UNL A   1      34.689  35.310  32.934  1.00  0.00     0.218 A 
ATOM      8  C   UNL A   1      34.143  36.530  33.314  1.00  0.00     0.064 A 
ATOM      9  O   UNL A   1      34.212  35.022  31.673  1.00  0.00    -0.438 OA
ATOM     10  C   UNL A   1      33.383  37.021  32.221  1.00  0.00     0.059 A 
BRANCH   7  11
ATOM     11  S   UNL A   1      35.857  34.197  33.716  1.00  0.00     0.208 S 
ATOM     12  C   UNL A   1      35.857  32.753  32.694  1.00  0.00     0.167 C 
ATOM     13  O   UNL A   1      35.248  33.868  34.988  1.00  0.00    -0.221 OA
ATOM     14  O   UNL A   1      37.142  34.851  33.597  1.00  0.00    -0.221 OA
ENDBRANCH   7  11
ENDBRANCH   4   6
ENDBRANCH   3   4
ENDBRANCH   2   3
ENDBRANCH   1   2
BRANCH   1  15
ATOM     15  O   UNL A   1      34.699  32.336  27.607  1.00  0.00    -0.458 OA
BRANCH  15  16
ATOM     16  C   UNL A   1      34.538  30.994  27.722  1.00  0.00     0.338 C 
ATOM     17  O   UNL A   1      33.530  30.361  27.444  1.00  0.00    -0.246 OA
BRANCH  16  18
ATOM     18  C   UNL A   1      35.811  30.360  28.114  1.00  0.00     0.060 A 
ATOM     19  C   UNL A   1      35.863  29.721  29.355  1.00  0.00     0.016 A 
ATOM     20  C   UNL A   1      36.956  30.433  27.316  1.00  0.00     0.016 A 
ATOM     21  C   UNL A   1      37.049  29.147  29.804  1.00  0.00     0.010 A 
ATOM     22  C   UNL A   1      38.153  29.864  27.772  1.00  0.00     0.010 A 
ATOM     23  C   UNL A   1      38.208  29.222  29.022  1.00  0.00    -0.014 A 
BRANCH  23  24
ATOM     24  C   UNL A   1      39.478  28.672  29.556  1.00  0.00     0.031 A 
ATOM     25  C   UNL A   1      40.083  29.260  30.799  1.00  0.00     0.074 A 
ATOM     26  C   UNL A   1      40.059  27.618  28.954  1.00  0.00     0.049 A 
ATOM     27  N   UNL A   1      41.191  28.939  31.417  1.00  0.00    -0.248 NA
ATOM     28  C   UNL A   1      39.339  30.361  31.428  1.00  0.00     0.031 C 
ATOM     29  C   UNL A   1      39.537  26.934  27.770  1.00  0.00     0.029 A 
ATOM     30  N   UNL A   1      41.209  26.933  29.255  1.00  0.00    -0.354 N 
ATOM     31  C   UNL A   1      41.281  29.796  32.508  1.00  0.00     0.074 A 
ATOM     32  C   UNL A   1      40.130  30.675  32.443  1.00  0.00     0.031 C 
ATOM     33  C   UNL A   1      40.364  25.925  27.448  1.00  0.00     0.029 A 
ATOM     34  C   UNL A   1      41.491  25.913  28.377  1.00  0.00     0.049 A 
ATOM     35  H   UNL A   1      41.779  27.152  30.028  1.00  0.00     0.167 HD
ATOM     36  C   UNL A   1      42.230  29.840  33.475  1.00  0.00     0.034 A 
ATOM     37  C   UNL A   1      42.547  25.078  28.318  1.00  0.00     0.034 A 
ATOM     38  C   UNL A   1      43.375  28.959  33.521  1.00  0.00     0.049 A 
ATOM     39  C   UNL A   1      43.628  25.193  29.363  1.00  0.00     0.074 A 
ATOM     40  C   UNL A   1      44.395  28.915  34.455  1.00  0.00     0.029 A 
ATOM     41  N   UNL A   1      43.655  27.972  32.584  1.00  0.00    -0.354 N 
ATOM     42  N   UNL A   1      43.709  26.018  30.382  1.00  0.00    -0.248 NA
ATOM     43  C   UNL A   1      44.758  24.262  29.251  1.00  0.00     0.031 C 
ATOM     44  C   UNL A   1      45.321  27.946  34.053  1.00  0.00     0.029 A 
ATOM     45  C   UNL A   1      44.847  27.335  32.903  1.00  0.00     0.049 A 
ATOM     46  H   UNL A   1      43.091  27.754  31.808  1.00  0.00     0.167 HD
ATOM     47  C   UNL A   1      44.887  25.688  31.044  1.00  0.00     0.074 A 
ATOM     48  C   UNL A   1      45.477  24.582  30.317  1.00  0.00     0.031 C 
ATOM     49  C   UNL A   1      45.432  26.246  32.156  1.00  0.00     0.034 A 
BRANCH  36  50
ATOM     50  C   UNL A   1      42.096  30.916  34.525  1.00  0.00     0.023 A 
ATOM     51  C   UNL A   1      42.589  32.218  34.323  1.00  0.00     0.031 A 
ATOM     52  C   UNL A   1      41.498  30.624  35.764  1.00  0.00     0.131 A 
ATOM     53  C   UNL A   1      42.535  33.157  35.365  1.00  0.00     0.055 A 
ATOM     54  C   UNL A   1      41.382  31.583  36.771  1.00  0.00     0.041 A 
ATOM     55  F   UNL A   1      41.029  29.392  36.022  1.00  0.00    -0.206 F 
ATOM     56  C   UNL A   1      41.916  32.854  36.580  1.00  0.00     0.022 A 
BRANCH  53  57
ATOM     57  S   UNL A   1      43.403  34.737  35.161  1.00  0.00     0.124 S 
ATOM     58  O   UNL A   1      44.711  34.298  34.680  1.00  0.00    -0.237 OA
ATOM     59  O   UNL A   1      42.567  35.435  34.191  1.00  0.00    -0.237 OA
ATOM     60  O   UNL A   1      43.403  35.305  36.507  1.00  0.00    -0.744 OA
ENDBRANCH  53  57
ENDBRANCH  36  50
BRANCH  37  61
ATOM     61  C   UNL A   1      42.664  24.090  27.207  1.00  0.00     0.023 A 
ATOM     62  C   UNL A   1      42.049  22.831  27.278  1.00  0.00     0.031 A 
ATOM     63  C   UNL A   1      43.442  24.384  26.072  1.00  0.00     0.131 A 
ATOM     64  C   UNL A   1      42.252  21.897  26.250  1.00  0.00     0.055 A 
ATOM     65  C   UNL A   1      43.601  23.469  25.030  1.00  0.00     0.041 A 
ATOM     66  F   UNL A   1      44.057  25.572  25.957  1.00  0.00    -0.206 F 
ATOM     67  C   UNL A   1      43.013  22.212  25.121  1.00  0.00     0.022 A 
BRANCH  64  68
ATOM     68  S   UNL A   1      41.572  20.225  26.444  1.00  0.00     0.124 S 
ATOM     69  O   UNL A   1      40.143  20.462  26.271  1.00  0.00    -0.237 OA
ATOM     70  O   UNL A   1      42.238  19.497  25.369  1.00  0.00    -0.237 OA
ATOM     71  O   UNL A   1      41.982  19.846  27.796  1.00  0.00    -0.744 OA
ENDBRANCH  64  68
ENDBRANCH  37  61
BRANCH  49  72
ATOM     72  C   UNL A   1      46.714  25.635  32.665  1.00  0.00     0.023 A 
ATOM     73  C   UNL A   1      46.715  24.640  33.658  1.00  0.00     0.031 A 
ATOM     74  C   UNL A   1      47.952  26.072  32.161  1.00  0.00     0.131 A 
ATOM     75  C   UNL A   1      47.932  24.150  34.154  1.00  0.00     0.055 A 
ATOM     76  C   UNL A   1      49.160  25.544  32.623  1.00  0.00     0.041 A 
ATOM     77  F   UNL A   1      48.009  27.020  31.213  1.00  0.00    -0.206 F 
ATOM     78  C   UNL A   1      49.154  24.586  33.634  1.00  0.00     0.022 A 
BRANCH  75  79
ATOM     79  S   UNL A   1      47.904  22.988  35.549  1.00  0.00     0.124 S 
ATOM     80  O   UNL A   1      47.094  23.706  36.527  1.00  0.00    -0.237 OA
ATOM     81  O   UNL A   1      47.289  21.805  34.957  1.00  0.00    -0.237 OA
ATOM     82  O   UNL A   1      49.315  22.840  35.901  1.00  0.00    -0.744 OA
ENDBRANCH  75  79
ENDBRANCH  49  72
ENDBRANCH  23  24
ENDBRANCH  16  18
ENDBRANCH  15  16
ENDBRANCH   1  15
TORSDOF 15
ENDMDL
MODEL 2
REMARK VINA RESULT:     -10.5      4.147     11.760
REMARK SMILES CS(=O)(=O)c1ccc(C(=O)OCCOC(=O)c2ccc(-c3c4nc(c(-c5cc(S(=O)(=O)[O-])ccc5F)c5ccc([nH]5)c(-c5cc(S(=O)(=O)[O-])ccc5F)c5nc(c(-c6cc(S(=O)(=O)[O-])ccc6F)c6ccc3[nH]6)C=C5)C=C4)cc2)o1
REMARK SMILES IDX 13 1 12 2 11 3 9 4 10 5 8 6 5 7 6 8 80 9 7 10 2 11 1 12 3 13
REMARK SMILES IDX 4 14 14 15 15 16 16 17 17 18 18 19 79 20 19 21 78 22 20 23
REMARK SMILES IDX 21 24 22 25 72 26 23 27 77 28 71 29 73 30 24 31 76 32 70 33
REMARK SMILES IDX 69 34 25 36 57 37 37 38 56 39 38 40 41 41 55 42 74 43 39 44
REMARK SMILES IDX 40 45 54 47 75 48 42 49 26 50 27 51 35 52 28 53 34 54 36 55
REMARK SMILES IDX 33 56 29 57 30 58 31 59 32 60 58 61 59 62 67 63 60 64 66 65
REMARK SMILES IDX 68 66 65 67 61 68 62 69 63 70 64 71 43 72 44 73 52 74 45 75
REMARK SMILES IDX 51 76 53 77 50 78 46 79 47 80 48 81 49 82
REMARK H PARENT 73 35 41 46
REMARK Flexibility Score: inf
ROOT
ATOM      1  C   UNL A   1      40.667  20.019  26.263  1.00  0.00     0.275 C 
ENDROOT
BRANCH   1   2
ATOM      2  C   UNL A   1      42.123  19.576  26.451  1.00  0.00     0.275 C 
BRANCH   2   3
ATOM      3  O   UNL A   1      43.001  20.706  26.602  1.00  0.00    -0.456 OA
BRANCH   3   4
ATOM      4  C   UNL A   1      43.716  21.047  25.486  1.00  0.00     0.374 C 
ATOM      5  O   UNL A   1      44.138  20.244  24.669  1.00  0.00    -0.242 OA
BRANCH   4   6
ATOM      6  C   UNL A   1      43.818  22.487  25.386  1.00  0.00     0.213 A 
ATOM      7  C   UNL A   1      44.992  24.377  25.147  1.00  0.00     0.218 A 
ATOM      8  C   UNL A   1      43.645  24.696  25.018  1.00  0.00     0.064 A 
ATOM      9  O   UNL A   1      45.069  23.032  25.442  1.00  0.00    -0.438 OA
ATOM     10  C   UNL A   1      42.902  23.495  25.163  1.00  0.00     0.059 A 
BRANCH   7  11
ATOM     11  S   UNL A   1      46.498  25.327  24.939  1.00  0.00     0.208 S 
ATOM     12  C   UNL A   1      47.259  25.320  26.536  1.00  0.00     0.167 C 
ATOM     13  O   UNL A   1      46.042  26.670  24.646  1.00  0.00    -0.221 OA
ATOM     14  O   UNL A   1      47.314  24.550  24.031  1.00  0.00    -0.221 OA
ENDBRANCH   7  11
ENDBRANCH   4   6
ENDBRANCH   3   4
ENDBRANCH   2   3
ENDBRANCH   1   2
BRANCH   1  15
ATOM     15  O   UNL A   1      40.312  21.122  27.119  1.00  0.00    -0.458 OA
BRANCH  15  16
ATOM     16  C   UNL A   1      39.560  22.089  26.536  1.00  0.00     0.338 C 
ATOM     17  O   UNL A   1      38.640  21.912  25.751  1.00  0.00    -0.246 OA
BRANCH  16  18
ATOM     18  C   UNL A   1      39.916  23.412  27.083  1.00  0.00     0.060 A 
ATOM     19  C   UNL A   1      39.396  24.539  26.444  1.00  0.00     0.016 A 
ATOM     20  C   UNL A   1      40.789  23.559  28.164  1.00  0.00     0.016 A 
ATOM     21  C   UNL A   1      39.735  25.817  26.882  1.00  0.00     0.010 A 
ATOM     22  C   UNL A   1      41.139  24.845  28.599  1.00  0.00     0.010 A 
ATOM     23  C   UNL A   1      40.617  25.983  27.956  1.00  0.00    -0.014 A 
BRANCH  23  24
ATOM     24  C   UNL A   1      41.025  27.353  28.353  1.00  0.00     0.031 A 
ATOM     25  C   UNL A   1      42.472  27.750  28.288  1.00  0.00     0.074 A 
ATOM     26  C   UNL A   1      40.092  28.250  28.724  1.00  0.00     0.049 A 
ATOM     27  N   UNL A   1      43.037  28.887  28.606  1.00  0.00    -0.248 NA
ATOM     28  C   UNL A   1      43.407  26.726  27.802  1.00  0.00     0.031 C 
ATOM     29  C   UNL A   1      38.653  27.991  28.778  1.00  0.00     0.029 A 
ATOM     30  N   UNL A   1      40.212  29.558  29.119  1.00  0.00    -0.354 N 
ATOM     31  C   UNL A   1      44.395  28.718  28.360  1.00  0.00     0.074 A 
ATOM     32  C   UNL A   1      44.569  27.355  27.900  1.00  0.00     0.031 C 
ATOM     33  C   UNL A   1      38.023  29.108  29.180  1.00  0.00     0.029 A 
ATOM     34  C   UNL A   1      39.014  30.148  29.448  1.00  0.00     0.049 A 
ATOM     35  H   UNL A   1      41.075  30.030  29.163  1.00  0.00     0.167 HD
ATOM     36  C   UNL A   1      45.399  29.619  28.498  1.00  0.00     0.034 A 
ATOM     37  C   UNL A   1      38.748  31.379  29.927  1.00  0.00     0.034 A 
ATOM     38  C   UNL A   1      45.208  30.974  28.964  1.00  0.00     0.049 A 
ATOM     39  C   UNL A   1      39.890  32.341  30.142  1.00  0.00     0.074 A 
ATOM     40  C   UNL A   1      46.154  31.970  29.139  1.00  0.00     0.029 A 
ATOM     41  N   UNL A   1      43.986  31.520  29.338  1.00  0.00    -0.354 N 
ATOM     42  N   UNL A   1      41.172  32.165  29.919  1.00  0.00    -0.248 NA
ATOM     43  C   UNL A   1      39.547  33.667  30.670  1.00  0.00     0.031 C 
ATOM     44  C   UNL A   1      45.516  33.095  29.674  1.00  0.00     0.029 A 
ATOM     45  C   UNL A   1      44.159  32.828  29.770  1.00  0.00     0.049 A 
ATOM     46  H   UNL A   1      43.122  31.050  29.300  1.00  0.00     0.167 HD
ATOM     47  C   UNL A   1      41.785  33.367  30.259  1.00  0.00     0.074 A 
ATOM     48  C   UNL A   1      40.730  34.263  30.688  1.00  0.00     0.031 C 
ATOM     49  C   UNL A   1      43.099  33.703  30.216  1.00  0.00     0.034 A 
BRANCH  36  50
ATOM     50  C   UNL A   1      46.799  29.143  28.197  1.00  0.00     0.023 A 
ATOM     51  C   UNL A   1      47.627  28.591  29.192  1.00  0.00     0.031 A 
ATOM     52  C   UNL A   1      47.329  29.279  26.901  1.00  0.00     0.131 A 
ATOM     53  C   UNL A   1      48.957  28.257  28.891  1.00  0.00     0.055 A 
ATOM     54  C   UNL A   1      48.629  28.878  26.590  1.00  0.00     0.041 A 
ATOM     55  F   UNL A   1      46.593  29.818  25.916  1.00  0.00    -0.206 F 
ATOM     56  C   UNL A   1      49.456  28.377  27.591  1.00  0.00     0.022 A 
BRANCH  53  57
ATOM     57  S   UNL A   1      50.067  27.789  30.247  1.00  0.00     0.124 S 
ATOM     58  O   UNL A   1      51.291  27.449  29.525  1.00  0.00    -0.237 OA
ATOM     59  O   UNL A   1      50.116  29.004  31.051  1.00  0.00    -0.237 OA
ATOM     60  O   UNL A   1      49.388  26.655  30.870  1.00  0.00    -0.744 OA
ENDBRANCH  53  57
ENDBRANCH  36  50
BRANCH  37  61
ATOM     61  C   UNL A   1      37.352  31.762  30.285  1.00  0.00     0.023 A 
ATOM     62  C   UNL A   1      36.451  32.231  29.318  1.00  0.00     0.031 A 
ATOM     63  C   UNL A   1      36.919  31.707  31.622  1.00  0.00     0.131 A 
ATOM     64  C   UNL A   1      35.172  32.663  29.707  1.00  0.00     0.055 A 
ATOM     65  C   UNL A   1      35.630  32.091  31.996  1.00  0.00     0.041 A 
ATOM     66  F   UNL A   1      37.744  31.271  32.588  1.00  0.00    -0.206 F 
ATOM     67  C   UNL A   1      34.753  32.584  31.037  1.00  0.00     0.022 A 
BRANCH  64  68
ATOM     68  S   UNL A   1      34.087  33.409  28.458  1.00  0.00     0.124 S 
ATOM     69  O   UNL A   1      33.488  32.231  27.840  1.00  0.00    -0.237 OA
ATOM     70  O   UNL A   1      33.198  34.228  29.276  1.00  0.00    -0.237 OA
ATOM     71  O   UNL A   1      35.011  34.157  27.607  1.00  0.00    -0.744 OA
ENDBRANCH  64  68
ENDBRANCH  37  61
BRANCH  49  72
ATOM     72  C   UNL A   1      43.454  35.114  30.613  1.00  0.00     0.023 A 
ATOM     73  C   UNL A   1      43.602  35.487  31.961  1.00  0.00     0.031 A 
ATOM     74  C   UNL A   1      43.627  36.102  29.628  1.00  0.00     0.131 A 
ATOM     75  C   UNL A   1      43.862  36.826  32.290  1.00  0.00     0.055 A 
ATOM     76  C   UNL A   1      43.936  37.423  29.959  1.00  0.00     0.041 A 
ATOM     77  F   UNL A   1      43.496  35.801  28.326  1.00  0.00    -0.206 F 
ATOM     78  C   UNL A   1      44.043  37.793  31.297  1.00  0.00     0.022 A 
BRANCH  75  79
ATOM     79  S   UNL A   1      43.884  37.308  34.039  1.00  0.00     0.124 S 
ATOM     80  O   UNL A   1      44.902  38.352  34.055  1.00  0.00    -0.237 OA
ATOM     81  O   UNL A   1      42.511  37.753  34.258  1.00  0.00    -0.237 OA
ATOM     82  O   UNL A   1      44.251  36.073  34.732  1.00  0.00    -0.744 OA
ENDBRANCH  75  79
ENDBRANCH  49  72
ENDBRANCH  23  24
ENDBRANCH  16  18
ENDBRANCH  15  16
ENDBRANCH   1  15
TORSDOF 15
ENDMDL
MODEL 3
REMARK VINA RESULT:     -10.3      1.420      1.601
REMARK SMILES CS(=O)(=O)c1ccc(C(=O)OCCOC(=O)c2ccc(-c3c4nc(c(-c5cc(S(=O)(=O)[O-])ccc5F)c5ccc([nH]5)c(-c5cc(S(=O)(=O)[O-])ccc5F)c5nc(c(-c6cc(S(=O)(=O)[O-])ccc6F)c6ccc3[nH]6)C=C5)C=C4)cc2)o1
REMARK SMILES IDX 13 1 12 2 11 3 9 4 10 5 8 6 5 7 6 8 80 9 7 10 2 11 1 12 3 13
REMARK SMILES IDX 4 14 14 15 15 16 16 17 17 18 18 19 79 20 19 21 78 22 20 23
REMARK SMILES IDX 21 24 22 25 72 26 23 27 77 28 71 29 73 30 24 31 76 32 70 33
REMARK SMILES IDX 69 34 25 36 57 37 37 38 56 39 38 40 41 41 55 42 74 43 39 44
REMARK SMILES IDX 40 45 54 47 75 48 42 49 26 50 27 51 35 52 28 53 34 54 36 55
REMARK SMILES IDX 33 56 29 57 30 58 31 59 32 60 58 61 59 62 67 63 60 64 66 65
REMARK SMILES IDX 68 66 65 67 61 68 62 69 63 70 64 71 43 72 44 73 52 74 45 75
REMARK SMILES IDX 51 76 53 77 50 78 46 79 47 80 48 81 49 82
REMARK H PARENT 73 35 41 46
REMARK Flexibility Score: inf
ROOT
ATOM      1  C   UNL A   1      33.101  32.942  27.741  1.00  0.00     0.275 C 
ENDROOT
BRANCH   1   2
ATOM      2  C   UNL A   1      33.331  34.405  28.139  1.00  0.00     0.275 C 
BRANCH   2   3
ATOM      3  O   UNL A   1      32.746  34.701  29.420  1.00  0.00    -0.456 OA
BRANCH   3   4
ATOM      4  C   UNL A   1      32.949  35.974  29.879  1.00  0.00     0.374 C 
ATOM      5  O   UNL A   1      32.671  36.983  29.250  1.00  0.00    -0.242 OA
BRANCH   4   6
ATOM      6  C   UNL A   1      33.456  35.936  31.233  1.00  0.00     0.213 A 
ATOM      7  C   UNL A   1      34.789  35.102  32.825  1.00  0.00     0.218 A 
ATOM      8  C   UNL A   1      34.219  36.269  33.319  1.00  0.00     0.064 A 
ATOM      9  O   UNL A   1      34.253  34.880  31.574  1.00  0.00    -0.438 OA
ATOM     10  C   UNL A   1      33.380  36.801  32.305  1.00  0.00     0.059 A 
BRANCH   7  11
ATOM     11  S   UNL A   1      36.041  33.988  33.463  1.00  0.00     0.208 S 
ATOM     12  C   UNL A   1      36.846  33.344  32.026  1.00  0.00     0.167 C 
ATOM     13  O   UNL A   1      35.290  32.922  34.094  1.00  0.00    -0.221 OA
ATOM     14  O   UNL A   1      36.972  34.834  34.178  1.00  0.00    -0.221 OA
ENDBRANCH   7  11
ENDBRANCH   4   6
ENDBRANCH   3   4
ENDBRANCH   2   3
ENDBRANCH   1   2
BRANCH   1  15
ATOM     15  O   UNL A   1      34.066  32.053  28.335  1.00  0.00    -0.458 OA
BRANCH  15  16
ATOM     16  C   UNL A   1      34.287  30.900  27.653  1.00  0.00     0.338 C 
ATOM     17  O   UNL A   1      33.582  30.440  26.768  1.00  0.00    -0.246 OA
BRANCH  16  18
ATOM     18  C   UNL A   1      35.589  30.323  28.036  1.00  0.00     0.060 A 
ATOM     19  C   UNL A   1      35.677  29.686  29.277  1.00  0.00     0.016 A 
ATOM     20  C   UNL A   1      36.724  30.447  27.231  1.00  0.00     0.016 A 
ATOM     21  C   UNL A   1      36.890  29.165  29.717  1.00  0.00     0.010 A 
ATOM     22  C   UNL A   1      37.948  29.931  27.678  1.00  0.00     0.010 A 
ATOM     23  C   UNL A   1      38.039  29.291  28.928  1.00  0.00    -0.014 A 
BRANCH  23  24
ATOM     24  C   UNL A   1      39.336  28.797  29.453  1.00  0.00     0.031 A 
ATOM     25  C   UNL A   1      39.950  29.447  30.660  1.00  0.00     0.074 A 
ATOM     26  C   UNL A   1      39.935  27.738  28.876  1.00  0.00     0.049 A 
ATOM     27  N   UNL A   1      41.079  29.181  31.264  1.00  0.00    -0.248 NA
ATOM     28  C   UNL A   1      39.187  30.549  31.265  1.00  0.00     0.031 C 
ATOM     29  C   UNL A   1      39.407  26.997  27.730  1.00  0.00     0.029 A 
ATOM     30  N   UNL A   1      41.110  27.098  29.176  1.00  0.00    -0.354 N 
ATOM     31  C   UNL A   1      41.168  30.080  32.321  1.00  0.00     0.074 A 
ATOM     32  C   UNL A   1      39.990  30.922  32.250  1.00  0.00     0.031 C 
ATOM     33  C   UNL A   1      40.256  26.000  27.426  1.00  0.00     0.029 A 
ATOM     34  C   UNL A   1      41.403  26.055  28.329  1.00  0.00     0.049 A 
ATOM     35  H   UNL A   1      41.690  27.361  29.928  1.00  0.00     0.167 HD
ATOM     36  C   UNL A   1      42.135  30.185  33.265  1.00  0.00     0.034 A 
ATOM     37  C   UNL A   1      42.481  25.248  28.277  1.00  0.00     0.034 A 
ATOM     38  C   UNL A   1      43.306  29.340  33.317  1.00  0.00     0.049 A 
ATOM     39  C   UNL A   1      43.581  25.432  29.293  1.00  0.00     0.074 A 
ATOM     40  C   UNL A   1      44.347  29.359  34.230  1.00  0.00     0.029 A 
ATOM     41  N   UNL A   1      43.595  28.326  32.410  1.00  0.00    -0.354 N 
ATOM     42  N   UNL A   1      43.659  26.296  30.280  1.00  0.00    -0.248 NA
ATOM     43  C   UNL A   1      44.735  24.530  29.189  1.00  0.00     0.031 C 
ATOM     44  C   UNL A   1      45.292  28.401  33.842  1.00  0.00     0.029 A 
ATOM     45  C   UNL A   1      44.811  27.736  32.725  1.00  0.00     0.049 A 
ATOM     46  H   UNL A   1      43.021  28.065  31.655  1.00  0.00     0.167 HD
ATOM     47  C   UNL A   1      44.860  26.024  30.927  1.00  0.00     0.074 A 
ATOM     48  C   UNL A   1      45.466  24.909  30.227  1.00  0.00     0.031 C 
ATOM     49  C   UNL A   1      45.412  26.637  32.005  1.00  0.00     0.034 A 
BRANCH  36  50
ATOM     50  C   UNL A   1      41.992  31.294  34.278  1.00  0.00     0.023 A 
ATOM     51  C   UNL A   1      41.012  31.257  35.287  1.00  0.00     0.031 A 
ATOM     52  C   UNL A   1      42.825  32.425  34.211  1.00  0.00     0.131 A 
ATOM     53  C   UNL A   1      40.846  32.358  36.143  1.00  0.00     0.055 A 
ATOM     54  C   UNL A   1      42.703  33.485  35.111  1.00  0.00     0.041 A 
ATOM     55  F   UNL A   1      43.763  32.526  33.257  1.00  0.00    -0.206 F 
ATOM     56  C   UNL A   1      41.700  33.462  36.076  1.00  0.00     0.022 A 
BRANCH  53  57
ATOM     57  S   UNL A   1      39.418  32.386  37.261  1.00  0.00     0.124 S 
ATOM     58  O   UNL A   1      38.695  33.566  36.789  1.00  0.00    -0.237 OA
ATOM     59  O   UNL A   1      38.783  31.100  36.998  1.00  0.00    -0.237 OA
ATOM     60  O   UNL A   1      40.021  32.525  38.585  1.00  0.00    -0.744 OA
ENDBRANCH  53  57
ENDBRANCH  36  50
BRANCH  37  61
ATOM     61  C   UNL A   1      42.604  24.225  27.199  1.00  0.00     0.023 A 
ATOM     62  C   UNL A   1      41.993  22.966  27.312  1.00  0.00     0.031 A 
ATOM     63  C   UNL A   1      43.381  24.483  26.056  1.00  0.00     0.131 A 
ATOM     64  C   UNL A   1      42.201  21.998  26.316  1.00  0.00     0.055 A 
ATOM     65  C   UNL A   1      43.545  23.534  25.046  1.00  0.00     0.041 A 
ATOM     66  F   UNL A   1      43.992  25.669  25.902  1.00  0.00    -0.206 F 
ATOM     67  C   UNL A   1      42.962  22.279  25.179  1.00  0.00     0.022 A 
BRANCH  64  68
ATOM     68  S   UNL A   1      41.528  20.331  26.567  1.00  0.00     0.124 S 
ATOM     69  O   UNL A   1      40.092  20.587  26.573  1.00  0.00    -0.237 OA
ATOM     70  O   UNL A   1      42.048  19.614  25.407  1.00  0.00    -0.237 OA
ATOM     71  O   UNL A   1      42.094  19.925  27.852  1.00  0.00    -0.744 OA
ENDBRANCH  64  68
ENDBRANCH  37  61
BRANCH  49  72
ATOM     72  C   UNL A   1      46.722  26.082  32.507  1.00  0.00     0.023 A 
ATOM     73  C   UNL A   1      46.769  25.036  33.445  1.00  0.00     0.031 A 
ATOM     74  C   UNL A   1      47.937  26.623  32.054  1.00  0.00     0.131 A 
ATOM     75  C   UNL A   1      48.007  24.598  33.940  1.00  0.00     0.055 A 
ATOM     76  C   UNL A   1      49.168  26.148  32.512  1.00  0.00     0.041 A 
ATOM     77  F   UNL A   1      47.950  27.624  31.159  1.00  0.00    -0.206 F 
ATOM     78  C   UNL A   1      49.206  25.138  33.469  1.00  0.00     0.022 A 
BRANCH  75  79
ATOM     79  S   UNL A   1      48.030  23.362  35.269  1.00  0.00     0.124 S 
ATOM     80  O   UNL A   1      48.974  23.948  36.214  1.00  0.00    -0.237 OA
ATOM     81  O   UNL A   1      46.634  23.336  35.695  1.00  0.00    -0.237 OA
ATOM     82  O   UNL A   1      48.495  22.147  34.602  1.00  0.00    -0.744 OA
ENDBRANCH  75  79
ENDBRANCH  49  72
ENDBRANCH  23  24
ENDBRANCH  16  18
ENDBRANCH  15  16
ENDBRANCH   1  15
TORSDOF 15
ENDMDL
