MODEL 1
REMARK VINA RESULT:     -11.1      0.000      0.000
REMARK SMILES CC[C@@]1(CO)CCCN(c2nc(-c3ccc(C)s3)ccc2C(=O)OCCOC(=O)c2ccc(-c3c4nc(c(-c5cc(S(=O)(=O)[O-])ccc5F)c5ccc([nH]5)c(-c5cc(S(=O)(=O)[O-])ccc5F)c5nc(c(-c6cc(S(=O)(=O)[O-])ccc6F)c6ccc3[nH]6)C=C5)C=C4)cc2)C1
REMARK SMILES IDX 25 1 24 2 22 3 23 4 21 5 10 6 11 7 12 8 20 9 19 10 9 11 3 12
REMARK SMILES IDX 6 13 93 14 7 15 8 16 2 17 1 18 4 19 5 20 13 22 14 23 18 24
REMARK SMILES IDX 15 25 16 26 17 27 26 28 27 29 28 30 29 31 30 32 31 33 92 34
REMARK SMILES IDX 32 35 91 36 33 37 34 38 35 39 85 40 36 41 90 42 84 43 86 44
REMARK SMILES IDX 37 45 89 46 83 47 82 48 38 50 70 51 50 52 69 53 51 54 54 55
REMARK SMILES IDX 68 56 87 57 52 58 53 59 67 61 88 62 55 63 39 64 40 65 48 66
REMARK SMILES IDX 41 67 47 68 49 69 46 70 42 71 43 72 44 73 45 74 71 75 72 76
REMARK SMILES IDX 80 77 73 78 79 79 81 80 78 81 74 82 75 83 76 84 77 85 56 86
REMARK SMILES IDX 57 87 65 88 58 89 64 90 66 91 63 92 59 93 60 94 61 95 62 96
REMARK H PARENT 5 21 86 49 54 60
REMARK Flexibility Score: inf
ROOT
ATOM      1  C   UNL A   1      34.261  21.836  24.269  1.00  0.00     0.275 C 
ENDROOT
BRANCH   1   2
ATOM      2  O   UNL A   1      34.200  23.266  24.450  1.00  0.00    -0.458 OA
BRANCH   2   3
ATOM      3  C   UNL A   1      33.327  23.707  25.399  1.00  0.00     0.342 C 
ATOM      4  O   UNL A   1      33.345  23.395  26.576  1.00  0.00    -0.246 OA
BRANCH   3   5
ATOM      5  C   UNL A   1      32.258  24.515  24.767  1.00  0.00     0.102 A 
ATOM      6  C   UNL A   1      32.340  25.909  24.715  1.00  0.00     0.143 A 
ATOM      7  N   UNL A   1      31.279  26.661  24.358  1.00  0.00    -0.229 NA
ATOM      8  C   UNL A   1      30.151  26.052  23.944  1.00  0.00     0.083 A 
ATOM      9  C   UNL A   1      31.074  23.895  24.341  1.00  0.00     0.022 A 
ATOM     10  C   UNL A   1      30.006  24.676  23.903  1.00  0.00     0.031 A 
BRANCH   6  11
ATOM     11  N   UNL A   1      33.522  26.606  24.866  1.00  0.00    -0.355 N 
ATOM     12  C   UNL A   1      33.777  28.638  26.361  1.00  0.00     0.011 C 
ATOM     13  C   UNL A   1      34.536  29.286  25.186  1.00  0.00     0.013 C 
ATOM     14  C   UNL A   1      33.841  27.096  26.204  1.00  0.00     0.127 C 
ATOM     15  C   UNL A   1      34.030  28.823  23.824  1.00  0.00     0.022 C 
ATOM     16  C   UNL A   1      33.972  27.311  23.671  1.00  0.00     0.118 C 
BRANCH  12  17
ATOM     17  C   UNL A   1      34.497  28.971  27.709  1.00  0.00     0.008 C 
ATOM     18  C   UNL A   1      35.859  29.648  27.604  1.00  0.00     0.004 C 
ENDBRANCH  12  17
BRANCH  12  19
ATOM     19  C   UNL A   1      32.327  29.162  26.376  1.00  0.00     0.164 C 
BRANCH  19  20
ATOM     20  O   UNL A   1      31.429  28.216  26.947  1.00  0.00    -0.396 OA
ATOM     21  H   UNL A   1      30.624  28.672  27.241  1.00  0.00     0.210 HD
ENDBRANCH  19  20
ENDBRANCH  12  19
ENDBRANCH   6  11
BRANCH   8  22
ATOM     22  C   UNL A   1      29.091  26.984  23.596  1.00  0.00     0.053 A 
ATOM     23  C   UNL A   1      27.736  26.885  23.835  1.00  0.00     0.022 A 
ATOM     24  S   UNL A   1      29.495  28.479  22.863  1.00  0.00    -0.139 S 
ATOM     25  C   UNL A   1      27.038  28.071  23.465  1.00  0.00     0.016 A 
ATOM     26  C   UNL A   1      27.879  29.032  22.940  1.00  0.00     0.002 A 
ATOM     27  C   UNL A   1      27.552  30.413  22.490  1.00  0.00     0.056 C 
ENDBRANCH   8  22
ENDBRANCH   3   5
ENDBRANCH   2   3
ENDBRANCH   1   2
BRANCH   1  28
ATOM     28  C   UNL A   1      35.484  21.238  24.960  1.00  0.00     0.275 C 
BRANCH  28  29
ATOM     29  O   UNL A   1      36.666  21.992  24.630  1.00  0.00    -0.458 OA
BRANCH  29  30
ATOM     30  C   UNL A   1      37.818  21.556  25.191  1.00  0.00     0.338 C 
ATOM     31  O   UNL A   1      38.387  20.498  24.956  1.00  0.00    -0.246 OA
BRANCH  30  32
ATOM     32  C   UNL A   1      38.364  22.551  26.140  1.00  0.00     0.060 A 
ATOM     33  C   UNL A   1      37.757  23.793  26.254  1.00  0.00     0.016 A 
ATOM     34  C   UNL A   1      39.628  22.358  26.708  1.00  0.00     0.016 A 
ATOM     35  C   UNL A   1      38.499  24.865  26.763  1.00  0.00     0.010 A 
ATOM     36  C   UNL A   1      40.306  23.422  27.336  1.00  0.00     0.010 A 
ATOM     37  C   UNL A   1      39.799  24.731  27.297  1.00  0.00    -0.014 A 
BRANCH  37  38
ATOM     38  C   UNL A   1      40.639  25.957  27.649  1.00  0.00     0.031 A 
ATOM     39  C   UNL A   1      40.130  27.024  28.622  1.00  0.00     0.074 A 
ATOM     40  C   UNL A   1      41.939  26.068  27.277  1.00  0.00     0.049 A 
ATOM     41  N   UNL A   1      40.664  28.183  28.939  1.00  0.00    -0.248 NA
ATOM     42  C   UNL A   1      38.879  26.750  29.346  1.00  0.00     0.031 C 
ATOM     43  C   UNL A   1      42.676  25.098  26.469  1.00  0.00     0.029 A 
ATOM     44  N   UNL A   1      42.903  27.007  27.593  1.00  0.00    -0.354 N 
ATOM     45  C   UNL A   1      39.782  28.799  29.828  1.00  0.00     0.074 A 
ATOM     46  C   UNL A   1      38.691  27.871  30.029  1.00  0.00     0.031 C 
ATOM     47  C   UNL A   1      43.983  25.388  26.506  1.00  0.00     0.029 A 
ATOM     48  C   UNL A   1      44.163  26.696  27.123  1.00  0.00     0.049 A 
ATOM     49  H   UNL A   1      42.709  27.823  28.108  1.00  0.00     0.167 HD
ATOM     50  C   UNL A   1      39.854  30.027  30.406  1.00  0.00     0.034 A 
ATOM     51  C   UNL A   1      45.322  27.393  27.092  1.00  0.00     0.034 A 
ATOM     52  C   UNL A   1      40.961  30.943  30.249  1.00  0.00     0.049 A 
ATOM     53  C   UNL A   1      45.330  28.815  27.595  1.00  0.00     0.074 A 
ATOM     54  C   UNL A   1      41.078  32.242  30.723  1.00  0.00     0.029 A 
ATOM     55  N   UNL A   1      42.147  30.663  29.588  1.00  0.00    -0.354 N 
ATOM     56  N   UNL A   1      44.397  29.467  28.249  1.00  0.00    -0.248 NA
ATOM     57  C   UNL A   1      46.526  29.618  27.300  1.00  0.00     0.031 C 
ATOM     58  C   UNL A   1      42.290  32.775  30.268  1.00  0.00     0.029 A 
ATOM     59  C   UNL A   1      42.976  31.778  29.597  1.00  0.00     0.049 A 
ATOM     60  H   UNL A   1      42.370  29.799  29.172  1.00  0.00     0.167 HD
ATOM     61  C   UNL A   1      44.896  30.755  28.433  1.00  0.00     0.074 A 
ATOM     62  C   UNL A   1      46.224  30.777  27.864  1.00  0.00     0.031 C 
ATOM     63  C   UNL A   1      44.293  31.825  29.009  1.00  0.00     0.034 A 
BRANCH  50  64
ATOM     64  C   UNL A   1      38.637  30.527  31.155  1.00  0.00     0.023 A 
ATOM     65  C   UNL A   1      37.602  31.261  30.551  1.00  0.00     0.031 A 
ATOM     66  C   UNL A   1      38.520  30.236  32.529  1.00  0.00     0.131 A 
ATOM     67  C   UNL A   1      36.519  31.708  31.329  1.00  0.00     0.055 A 
ATOM     68  C   UNL A   1      37.409  30.620  33.279  1.00  0.00     0.041 A 
ATOM     69  F   UNL A   1      39.490  29.560  33.167  1.00  0.00    -0.206 F 
ATOM     70  C   UNL A   1      36.403  31.369  32.681  1.00  0.00     0.022 A 
BRANCH  67  71
ATOM     71  S   UNL A   1      35.316  32.852  30.592  1.00  0.00     0.124 S 
ATOM     72  O   UNL A   1      36.183  33.922  30.106  1.00  0.00    -0.237 OA
ATOM     73  O   UNL A   1      34.681  32.027  29.572  1.00  0.00    -0.237 OA
ATOM     74  O   UNL A   1      34.460  33.221  31.718  1.00  0.00    -0.744 OA
ENDBRANCH  67  71
ENDBRANCH  50  64
BRANCH  51  75
ATOM     75  C   UNL A   1      46.541  26.833  26.415  1.00  0.00     0.023 A 
ATOM     76  C   UNL A   1      47.588  26.246  27.147  1.00  0.00     0.031 A 
ATOM     77  C   UNL A   1      46.713  26.951  25.021  1.00  0.00     0.131 A 
ATOM     78  C   UNL A   1      48.756  25.825  26.484  1.00  0.00     0.055 A 
ATOM     79  C   UNL A   1      47.828  26.439  24.360  1.00  0.00     0.041 A 
ATOM     80  F   UNL A   1      45.785  27.562  24.267  1.00  0.00    -0.206 F 
ATOM     81  C   UNL A   1      48.865  25.883  25.093  1.00  0.00     0.022 A 
BRANCH  78  82
ATOM     82  S   UNL A   1      50.198  25.330  27.470  1.00  0.00     0.124 S 
ATOM     83  O   UNL A   1      50.408  26.513  28.298  1.00  0.00    -0.237 OA
ATOM     84  O   UNL A   1      49.707  24.142  28.158  1.00  0.00    -0.237 OA
ATOM     85  O   UNL A   1      51.229  25.085  26.463  1.00  0.00    -0.744 OA
ENDBRANCH  78  82
ENDBRANCH  51  75
BRANCH  63  86
ATOM     86  C   UNL A   1      45.077  33.116  29.074  1.00  0.00     0.023 A 
ATOM     87  C   UNL A   1      45.072  34.039  28.011  1.00  0.00     0.031 A 
ATOM     88  C   UNL A   1      45.851  33.424  30.208  1.00  0.00     0.131 A 
ATOM     89  C   UNL A   1      45.865  35.195  28.082  1.00  0.00     0.055 A 
ATOM     90  C   UNL A   1      46.589  34.606  30.297  1.00  0.00     0.041 A 
ATOM     91  F   UNL A   1      45.900  32.581  31.252  1.00  0.00    -0.206 F 
ATOM     92  C   UNL A   1      46.610  35.494  29.225  1.00  0.00     0.022 A 
BRANCH  89  93
ATOM     93  S   UNL A   1      45.986  36.265  26.620  1.00  0.00     0.124 S 
ATOM     94  O   UNL A   1      44.818  37.125  26.776  1.00  0.00    -0.237 OA
ATOM     95  O   UNL A   1      47.282  36.908  26.808  1.00  0.00    -0.237 OA
ATOM     96  O   UNL A   1      45.918  35.327  25.500  1.00  0.00    -0.744 OA
ENDBRANCH  89  93
ENDBRANCH  63  86
ENDBRANCH  37  38
ENDBRANCH  30  32
ENDBRANCH  29  30
ENDBRANCH  28  29
ENDBRANCH   1  28
TORSDOF 19
ENDMDL
MODEL 2
REMARK VINA RESULT:     -11.1      1.850      2.085
REMARK SMILES CC[C@@]1(CO)CCCN(c2nc(-c3ccc(C)s3)ccc2C(=O)OCCOC(=O)c2ccc(-c3c4nc(c(-c5cc(S(=O)(=O)[O-])ccc5F)c5ccc([nH]5)c(-c5cc(S(=O)(=O)[O-])ccc5F)c5nc(c(-c6cc(S(=O)(=O)[O-])ccc6F)c6ccc3[nH]6)C=C5)C=C4)cc2)C1
REMARK SMILES IDX 25 1 24 2 22 3 23 4 21 5 10 6 11 7 12 8 20 9 19 10 9 11 3 12
REMARK SMILES IDX 6 13 93 14 7 15 8 16 2 17 1 18 4 19 5 20 13 22 14 23 18 24
REMARK SMILES IDX 15 25 16 26 17 27 26 28 27 29 28 30 29 31 30 32 31 33 92 34
REMARK SMILES IDX 32 35 91 36 33 37 34 38 35 39 85 40 36 41 90 42 84 43 86 44
REMARK SMILES IDX 37 45 89 46 83 47 82 48 38 50 70 51 50 52 69 53 51 54 54 55
REMARK SMILES IDX 68 56 87 57 52 58 53 59 67 61 88 62 55 63 39 64 40 65 48 66
REMARK SMILES IDX 41 67 47 68 49 69 46 70 42 71 43 72 44 73 45 74 71 75 72 76
REMARK SMILES IDX 80 77 73 78 79 79 81 80 78 81 74 82 75 83 76 84 77 85 56 86
REMARK SMILES IDX 57 87 65 88 58 89 64 90 66 91 63 92 59 93 60 94 61 95 62 96
REMARK H PARENT 5 21 86 49 54 60
REMARK Flexibility Score: inf
ROOT
ATOM      1  C   UNL A   1      35.148  23.121  23.807  1.00  0.00     0.275 C 
ENDROOT
BRANCH   1   2
ATOM      2  O   UNL A   1      33.723  22.946  23.941  1.00  0.00    -0.458 OA
BRANCH   2   3
ATOM      3  C   UNL A   1      33.131  23.652  24.945  1.00  0.00     0.342 C 
ATOM      4  O   UNL A   1      33.337  23.498  26.134  1.00  0.00    -0.246 OA
BRANCH   3   5
ATOM      5  C   UNL A   1      32.089  24.546  24.389  1.00  0.00     0.102 A 
ATOM      6  C   UNL A   1      32.202  25.936  24.483  1.00  0.00     0.143 A 
ATOM      7  N   UNL A   1      31.163  26.746  24.194  1.00  0.00    -0.229 NA
ATOM      8  C   UNL A   1      30.027  26.209  23.707  1.00  0.00     0.083 A 
ATOM      9  C   UNL A   1      30.897  24.002  23.888  1.00  0.00     0.022 A 
ATOM     10  C   UNL A   1      29.852  24.849  23.522  1.00  0.00     0.031 A 
BRANCH   6  11
ATOM     11  N   UNL A   1      33.397  26.585  24.717  1.00  0.00    -0.355 N 
ATOM     12  C   UNL A   1      33.607  28.678  26.134  1.00  0.00     0.011 C 
ATOM     13  C   UNL A   1      34.508  29.230  25.012  1.00  0.00     0.013 C 
ATOM     14  C   UNL A   1      33.608  27.129  26.057  1.00  0.00     0.127 C 
ATOM     15  C   UNL A   1      34.114  28.721  23.629  1.00  0.00     0.022 C 
ATOM     16  C   UNL A   1      33.996  27.207  23.542  1.00  0.00     0.118 C 
BRANCH  12  17
ATOM     17  C   UNL A   1      34.208  29.047  27.530  1.00  0.00     0.008 C 
ATOM     18  C   UNL A   1      35.693  29.392  27.563  1.00  0.00     0.004 C 
ENDBRANCH  12  17
BRANCH  12  19
ATOM     19  C   UNL A   1      32.190  29.267  25.980  1.00  0.00     0.164 C 
BRANCH  19  20
ATOM     20  O   UNL A   1      31.737  29.877  27.183  1.00  0.00    -0.396 OA
ATOM     21  H   UNL A   1      32.407  29.764  27.875  1.00  0.00     0.210 HD
ENDBRANCH  19  20
ENDBRANCH  12  19
ENDBRANCH   6  11
BRANCH   8  22
ATOM     22  C   UNL A   1      28.993  27.197  23.446  1.00  0.00     0.053 A 
ATOM     23  C   UNL A   1      27.642  27.130  23.717  1.00  0.00     0.022 A 
ATOM     24  S   UNL A   1      29.431  28.719  22.795  1.00  0.00    -0.139 S 
ATOM     25  C   UNL A   1      26.978  28.360  23.439  1.00  0.00     0.016 A 
ATOM     26  C   UNL A   1      27.839  29.321  22.951  1.00  0.00     0.002 A 
ATOM     27  C   UNL A   1      27.550  30.739  22.595  1.00  0.00     0.056 C 
ENDBRANCH   8  22
ENDBRANCH   3   5
ENDBRANCH   2   3
ENDBRANCH   1   2
BRANCH   1  28
ATOM     28  C   UNL A   1      35.915  21.947  24.411  1.00  0.00     0.275 C 
BRANCH  28  29
ATOM     29  O   UNL A   1      37.334  22.169  24.311  1.00  0.00    -0.458 OA
BRANCH  29  30
ATOM     30  C   UNL A   1      38.090  21.579  25.267  1.00  0.00     0.338 C 
ATOM     31  O   UNL A   1      38.327  20.383  25.372  1.00  0.00    -0.246 OA
BRANCH  30  32
ATOM     32  C   UNL A   1      38.655  22.580  26.199  1.00  0.00     0.060 A 
ATOM     33  C   UNL A   1      37.996  23.785  26.391  1.00  0.00     0.016 A 
ATOM     34  C   UNL A   1      39.965  22.440  26.666  1.00  0.00     0.016 A 
ATOM     35  C   UNL A   1      38.719  24.883  26.872  1.00  0.00     0.010 A 
ATOM     36  C   UNL A   1      40.635  23.524  27.271  1.00  0.00     0.010 A 
ATOM     37  C   UNL A   1      40.060  24.805  27.304  1.00  0.00    -0.014 A 
BRANCH  37  38
ATOM     38  C   UNL A   1      40.862  26.064  27.626  1.00  0.00     0.031 A 
ATOM     39  C   UNL A   1      40.345  27.111  28.617  1.00  0.00     0.074 A 
ATOM     40  C   UNL A   1      42.141  26.228  27.205  1.00  0.00     0.049 A 
ATOM     41  N   UNL A   1      40.842  28.291  28.914  1.00  0.00    -0.248 NA
ATOM     42  C   UNL A   1      39.134  26.787  29.387  1.00  0.00     0.031 C 
ATOM     43  C   UNL A   1      42.888  25.289  26.370  1.00  0.00     0.029 A 
ATOM     44  N   UNL A   1      43.077  27.207  27.486  1.00  0.00    -0.354 N 
ATOM     45  C   UNL A   1      39.969  28.871  29.836  1.00  0.00     0.074 A 
ATOM     46  C   UNL A   1      38.925  27.900  30.076  1.00  0.00     0.031 C 
ATOM     47  C   UNL A   1      44.182  25.633  26.359  1.00  0.00     0.029 A 
ATOM     48  C   UNL A   1      44.331  26.948  26.970  1.00  0.00     0.049 A 
ATOM     49  H   UNL A   1      42.868  28.015  28.008  1.00  0.00     0.167 HD
ATOM     50  C   UNL A   1      40.012  30.102  30.411  1.00  0.00     0.034 A 
ATOM     51  C   UNL A   1      45.458  27.692  26.896  1.00  0.00     0.034 A 
ATOM     52  C   UNL A   1      41.074  31.063  30.214  1.00  0.00     0.049 A 
ATOM     53  C   UNL A   1      45.426  29.114  27.400  1.00  0.00     0.074 A 
ATOM     54  C   UNL A   1      41.154  32.366  30.683  1.00  0.00     0.029 A 
ATOM     55  N   UNL A   1      42.245  30.831  29.509  1.00  0.00    -0.354 N 
ATOM     56  N   UNL A   1      44.491  29.727  28.088  1.00  0.00    -0.248 NA
ATOM     57  C   UNL A   1      46.576  29.965  27.061  1.00  0.00     0.031 C 
ATOM     58  C   UNL A   1      42.325  32.948  30.184  1.00  0.00     0.029 A 
ATOM     59  C   UNL A   1      43.026  31.979  29.488  1.00  0.00     0.049 A 
ATOM     60  H   UNL A   1      42.488  29.977  29.085  1.00  0.00     0.167 HD
ATOM     61  C   UNL A   1      44.943  31.035  28.254  1.00  0.00     0.074 A 
ATOM     62  C   UNL A   1      46.247  31.111  27.636  1.00  0.00     0.031 C 
ATOM     63  C   UNL A   1      44.318  32.080  28.852  1.00  0.00     0.034 A 
BRANCH  50  64
ATOM     64  C   UNL A   1      38.803  30.553  31.205  1.00  0.00     0.023 A 
ATOM     65  C   UNL A   1      37.716  31.238  30.638  1.00  0.00     0.031 A 
ATOM     66  C   UNL A   1      38.751  30.262  32.583  1.00  0.00     0.131 A 
ATOM     67  C   UNL A   1      36.644  31.642  31.456  1.00  0.00     0.055 A 
ATOM     68  C   UNL A   1      37.654  30.601  33.373  1.00  0.00     0.041 A 
ATOM     69  F   UNL A   1      39.773  29.631  33.185  1.00  0.00    -0.206 F 
ATOM     70  C   UNL A   1      36.595  31.304  32.812  1.00  0.00     0.022 A 
BRANCH  67  71
ATOM     71  S   UNL A   1      35.367  32.730  30.763  1.00  0.00     0.124 S 
ATOM     72  O   UNL A   1      36.051  34.020  30.748  1.00  0.00    -0.237 OA
ATOM     73  O   UNL A   1      35.110  32.125  29.462  1.00  0.00    -0.237 OA
ATOM     74  O   UNL A   1      34.271  32.629  31.725  1.00  0.00    -0.744 OA
ENDBRANCH  67  71
ENDBRANCH  50  64
BRANCH  51  75
ATOM     75  C   UNL A   1      46.673  27.182  26.175  1.00  0.00     0.023 A 
ATOM     76  C   UNL A   1      47.035  27.663  24.904  1.00  0.00     0.031 A 
ATOM     77  C   UNL A   1      47.451  26.138  26.717  1.00  0.00     0.131 A 
ATOM     78  C   UNL A   1      48.121  27.087  24.221  1.00  0.00     0.055 A 
ATOM     79  C   UNL A   1      48.586  25.644  26.079  1.00  0.00     0.041 A 
ATOM     80  F   UNL A   1      47.123  25.583  27.895  1.00  0.00    -0.206 F 
ATOM     81  C   UNL A   1      48.921  26.109  24.816  1.00  0.00     0.022 A 
BRANCH  78  82
ATOM     82  S   UNL A   1      48.398  27.526  22.480  1.00  0.00     0.124 S 
ATOM     83  O   UNL A   1      47.209  28.317  22.184  1.00  0.00    -0.237 OA
ATOM     84  O   UNL A   1      49.659  28.257  22.545  1.00  0.00    -0.237 OA
ATOM     85  O   UNL A   1      48.465  26.228  21.811  1.00  0.00    -0.744 OA
ENDBRANCH  78  82
ENDBRANCH  51  75
BRANCH  63  86
ATOM     86  C   UNL A   1      45.050  33.403  28.888  1.00  0.00     0.023 A 
ATOM     87  C   UNL A   1      45.936  33.730  29.931  1.00  0.00     0.031 A 
ATOM     88  C   UNL A   1      44.851  34.355  27.872  1.00  0.00     0.131 A 
ATOM     89  C   UNL A   1      46.547  34.994  29.963  1.00  0.00     0.055 A 
ATOM     90  C   UNL A   1      45.508  35.587  27.877  1.00  0.00     0.041 A 
ATOM     91  F   UNL A   1      44.014  34.102  26.853  1.00  0.00    -0.206 F 
ATOM     92  C   UNL A   1      46.352  35.918  28.933  1.00  0.00     0.022 A 
BRANCH  89  93
ATOM     93  S   UNL A   1      47.530  35.455  31.417  1.00  0.00     0.124 S 
ATOM     94  O   UNL A   1      48.652  36.166  30.813  1.00  0.00    -0.237 OA
ATOM     95  O   UNL A   1      46.594  36.273  32.182  1.00  0.00    -0.237 OA
ATOM     96  O   UNL A   1      47.868  34.169  32.026  1.00  0.00    -0.744 OA
ENDBRANCH  89  93
ENDBRANCH  63  86
ENDBRANCH  37  38
ENDBRANCH  30  32
ENDBRANCH  29  30
ENDBRANCH  28  29
ENDBRANCH   1  28
TORSDOF 19
ENDMDL
MODEL 3
REMARK VINA RESULT:     -11.0      1.217      2.903
REMARK SMILES CC[C@@]1(CO)CCCN(c2nc(-c3ccc(C)s3)ccc2C(=O)OCCOC(=O)c2ccc(-c3c4nc(c(-c5cc(S(=O)(=O)[O-])ccc5F)c5ccc([nH]5)c(-c5cc(S(=O)(=O)[O-])ccc5F)c5nc(c(-c6cc(S(=O)(=O)[O-])ccc6F)c6ccc3[nH]6)C=C5)C=C4)cc2)C1
REMARK SMILES IDX 25 1 24 2 22 3 23 4 21 5 10 6 11 7 12 8 20 9 19 10 9 11 3 12
REMARK SMILES IDX 6 13 93 14 7 15 8 16 2 17 1 18 4 19 5 20 13 22 14 23 18 24
REMARK SMILES IDX 15 25 16 26 17 27 26 28 27 29 28 30 29 31 30 32 31 33 92 34
REMARK SMILES IDX 32 35 91 36 33 37 34 38 35 39 85 40 36 41 90 42 84 43 86 44
REMARK SMILES IDX 37 45 89 46 83 47 82 48 38 50 70 51 50 52 69 53 51 54 54 55
REMARK SMILES IDX 68 56 87 57 52 58 53 59 67 61 88 62 55 63 39 64 40 65 48 66
REMARK SMILES IDX 41 67 47 68 49 69 46 70 42 71 43 72 44 73 45 74 71 75 72 76
REMARK SMILES IDX 80 77 73 78 79 79 81 80 78 81 74 82 75 83 76 84 77 85 56 86
REMARK SMILES IDX 57 87 65 88 58 89 64 90 66 91 63 92 59 93 60 94 61 95 62 96
REMARK H PARENT 5 21 86 49 54 60
REMARK Flexibility Score: inf
ROOT
ATOM      1  C   UNL A   1      34.896  22.589  23.066  1.00  0.00     0.275 C 
ENDROOT
BRANCH   1   2
ATOM      2  O   UNL A   1      33.637  23.169  23.466  1.00  0.00    -0.458 OA
BRANCH   2   3
ATOM      3  C   UNL A   1      33.357  24.395  22.942  1.00  0.00     0.342 C 
ATOM      4  O   UNL A   1      33.184  24.638  21.762  1.00  0.00    -0.246 OA
BRANCH   3   5
ATOM      5  C   UNL A   1      33.432  25.427  24.003  1.00  0.00     0.102 A 
ATOM      6  C   UNL A   1      32.653  26.586  23.941  1.00  0.00     0.143 A 
ATOM      7  N   UNL A   1      32.880  27.629  24.766  1.00  0.00    -0.229 NA
ATOM      8  C   UNL A   1      33.807  27.509  25.736  1.00  0.00     0.083 A 
ATOM      9  C   UNL A   1      34.398  25.321  25.013  1.00  0.00     0.022 A 
ATOM     10  C   UNL A   1      34.578  26.373  25.910  1.00  0.00     0.031 A 
BRANCH   6  11
ATOM     11  N   UNL A   1      31.519  26.698  23.162  1.00  0.00    -0.355 N 
ATOM     12  C   UNL A   1      30.185  28.840  22.917  1.00  0.00     0.011 C 
ATOM     13  C   UNL A   1      28.930  27.967  23.115  1.00  0.00     0.013 C 
ATOM     14  C   UNL A   1      31.343  27.941  22.414  1.00  0.00     0.127 C 
ATOM     15  C   UNL A   1      29.175  26.773  24.033  1.00  0.00     0.022 C 
ATOM     16  C   UNL A   1      30.375  25.927  23.635  1.00  0.00     0.118 C 
BRANCH  12  17
ATOM     17  C   UNL A   1      29.928  29.894  21.792  1.00  0.00     0.008 C 
ATOM     18  C   UNL A   1      28.471  30.241  21.503  1.00  0.00     0.004 C 
ENDBRANCH  12  17
BRANCH  12  19
ATOM     19  C   UNL A   1      30.528  29.540  24.249  1.00  0.00     0.164 C 
BRANCH  19  20
ATOM     20  O   UNL A   1      30.177  30.919  24.227  1.00  0.00    -0.396 OA
ATOM     21  H   UNL A   1      30.359  31.285  23.347  1.00  0.00     0.210 HD
ENDBRANCH  19  20
ENDBRANCH  12  19
ENDBRANCH   6  11
BRANCH   8  22
ATOM     22  C   UNL A   1      33.947  28.709  26.546  1.00  0.00     0.053 A 
ATOM     23  C   UNL A   1      34.992  29.085  27.364  1.00  0.00     0.022 A 
ATOM     24  S   UNL A   1      32.739  29.920  26.468  1.00  0.00    -0.139 S 
ATOM     25  C   UNL A   1      34.820  30.401  27.882  1.00  0.00     0.016 A 
ATOM     26  C   UNL A   1      33.643  30.982  27.456  1.00  0.00     0.002 A 
ATOM     27  C   UNL A   1      33.127  32.353  27.728  1.00  0.00     0.056 C 
ENDBRANCH   8  22
ENDBRANCH   3   5
ENDBRANCH   2   3
ENDBRANCH   1   2
BRANCH   1  28
ATOM     28  C   UNL A   1      35.639  21.991  24.259  1.00  0.00     0.275 C 
BRANCH  28  29
ATOM     29  O   UNL A   1      37.012  22.426  24.264  1.00  0.00    -0.458 OA
BRANCH  29  30
ATOM     30  C   UNL A   1      37.826  21.791  25.140  1.00  0.00     0.338 C 
ATOM     31  O   UNL A   1      38.092  20.597  25.152  1.00  0.00    -0.246 OA
BRANCH  30  32
ATOM     32  C   UNL A   1      38.417  22.740  26.109  1.00  0.00     0.060 A 
ATOM     33  C   UNL A   1      37.834  23.986  26.290  1.00  0.00     0.016 A 
ATOM     34  C   UNL A   1      39.694  22.505  26.629  1.00  0.00     0.016 A 
ATOM     35  C   UNL A   1      38.610  25.026  26.816  1.00  0.00     0.010 A 
ATOM     36  C   UNL A   1      40.409  23.534  27.276  1.00  0.00     0.010 A 
ATOM     37  C   UNL A   1      39.923  24.851  27.303  1.00  0.00    -0.014 A 
BRANCH  37  38
ATOM     38  C   UNL A   1      40.793  26.049  27.676  1.00  0.00     0.031 A 
ATOM     39  C   UNL A   1      40.321  27.099  28.685  1.00  0.00     0.074 A 
ATOM     40  C   UNL A   1      42.090  26.144  27.286  1.00  0.00     0.049 A 
ATOM     41  N   UNL A   1      40.883  28.238  29.025  1.00  0.00    -0.248 NA
ATOM     42  C   UNL A   1      39.076  26.832  29.420  1.00  0.00     0.031 C 
ATOM     43  C   UNL A   1      42.795  25.181  26.441  1.00  0.00     0.029 A 
ATOM     44  N   UNL A   1      43.077  27.054  27.613  1.00  0.00    -0.354 N 
ATOM     45  C   UNL A   1      40.028  28.847  29.944  1.00  0.00     0.074 A 
ATOM     46  C   UNL A   1      38.921  27.937  30.136  1.00  0.00     0.031 C 
ATOM     47  C   UNL A   1      44.107  25.444  26.466  1.00  0.00     0.029 A 
ATOM     48  C   UNL A   1      44.324  26.730  27.116  1.00  0.00     0.049 A 
ATOM     49  H   UNL A   1      42.908  27.859  28.153  1.00  0.00     0.167 HD
ATOM     50  C   UNL A   1      40.134  30.057  30.554  1.00  0.00     0.034 A 
ATOM     51  C   UNL A   1      45.496  27.405  27.086  1.00  0.00     0.034 A 
ATOM     52  C   UNL A   1      41.258  30.954  30.405  1.00  0.00     0.049 A 
ATOM     53  C   UNL A   1      45.542  28.811  27.628  1.00  0.00     0.074 A 
ATOM     54  C   UNL A   1      41.409  32.237  30.912  1.00  0.00     0.029 A 
ATOM     55  N   UNL A   1      42.428  30.668  29.718  1.00  0.00    -0.354 N 
ATOM     56  N   UNL A   1      44.632  29.463  28.314  1.00  0.00    -0.248 NA
ATOM     57  C   UNL A   1      46.749  29.597  27.336  1.00  0.00     0.031 C 
ATOM     58  C   UNL A   1      42.625  32.757  30.454  1.00  0.00     0.029 A 
ATOM     59  C   UNL A   1      43.279  31.765  29.746  1.00  0.00     0.049 A 
ATOM     60  H   UNL A   1      42.626  29.812  29.276  1.00  0.00     0.167 HD
ATOM     61  C   UNL A   1      45.160  30.736  28.525  1.00  0.00     0.074 A 
ATOM     62  C   UNL A   1      46.480  30.747  27.936  1.00  0.00     0.031 C 
ATOM     63  C   UNL A   1      44.589  31.802  29.139  1.00  0.00     0.034 A 
BRANCH  50  64
ATOM     64  C   UNL A   1      38.939  30.561  31.335  1.00  0.00     0.023 A 
ATOM     65  C   UNL A   1      37.938  31.376  30.780  1.00  0.00     0.031 A 
ATOM     66  C   UNL A   1      38.808  30.189  32.688  1.00  0.00     0.131 A 
ATOM     67  C   UNL A   1      36.874  31.820  31.586  1.00  0.00     0.055 A 
ATOM     68  C   UNL A   1      37.713  30.573  33.462  1.00  0.00     0.041 A 
ATOM     69  F   UNL A   1      39.746  29.433  33.280  1.00  0.00    -0.206 F 
ATOM     70  C   UNL A   1      36.742  31.402  32.914  1.00  0.00     0.022 A 
BRANCH  67  71
ATOM     71  S   UNL A   1      35.723  33.059  30.925  1.00  0.00     0.124 S 
ATOM     72  O   UNL A   1      35.965  34.193  31.813  1.00  0.00    -0.237 OA
ATOM     73  O   UNL A   1      36.181  33.212  29.550  1.00  0.00    -0.237 OA
ATOM     74  O   UNL A   1      34.414  32.428  31.079  1.00  0.00    -0.744 OA
ENDBRANCH  67  71
ENDBRANCH  50  64
BRANCH  51  75
ATOM     75  C   UNL A   1      46.693  26.838  26.376  1.00  0.00     0.023 A 
ATOM     76  C   UNL A   1      47.746  26.223  27.077  1.00  0.00     0.031 A 
ATOM     77  C   UNL A   1      46.840  26.978  24.981  1.00  0.00     0.131 A 
ATOM     78  C   UNL A   1      48.894  25.796  26.384  1.00  0.00     0.055 A 
ATOM     79  C   UNL A   1      47.934  26.461  24.289  1.00  0.00     0.041 A 
ATOM     80  F   UNL A   1      45.906  27.615  24.256  1.00  0.00    -0.206 F 
ATOM     81  C   UNL A   1      48.976  25.877  24.992  1.00  0.00     0.022 A 
BRANCH  78  82
ATOM     82  S   UNL A   1      50.348  25.264  27.332  1.00  0.00     0.124 S 
ATOM     83  O   UNL A   1      51.281  24.914  26.268  1.00  0.00    -0.237 OA
ATOM     84  O   UNL A   1      50.668  26.461  28.102  1.00  0.00    -0.237 OA
ATOM     85  O   UNL A   1      49.847  24.136  28.116  1.00  0.00    -0.744 OA
ENDBRANCH  78  82
ENDBRANCH  51  75
BRANCH  63  86
ATOM     86  C   UNL A   1      45.401  33.075  29.226  1.00  0.00     0.023 A 
ATOM     87  C   UNL A   1      45.257  34.110  28.284  1.00  0.00     0.031 A 
ATOM     88  C   UNL A   1      46.341  33.250  30.258  1.00  0.00     0.131 A 
ATOM     89  C   UNL A   1      46.076  35.248  28.362  1.00  0.00     0.055 A 
ATOM     90  C   UNL A   1      47.109  34.411  30.365  1.00  0.00     0.041 A 
ATOM     91  F   UNL A   1      46.527  32.295  31.184  1.00  0.00    -0.206 F 
ATOM     92  C   UNL A   1      46.988  35.413  29.407  1.00  0.00     0.022 A 
BRANCH  89  93
ATOM     93  S   UNL A   1      45.999  36.474  27.026  1.00  0.00     0.124 S 
ATOM     94  O   UNL A   1      45.787  37.715  27.763  1.00  0.00    -0.237 OA
ATOM     95  O   UNL A   1      47.304  36.325  26.389  1.00  0.00    -0.237 OA
ATOM     96  O   UNL A   1      44.863  36.033  26.218  1.00  0.00    -0.744 OA
ENDBRANCH  89  93
ENDBRANCH  63  86
ENDBRANCH  37  38
ENDBRANCH  30  32
ENDBRANCH  29  30
ENDBRANCH  28  29
ENDBRANCH   1  28
TORSDOF 19
ENDMDL
