MODEL 1
REMARK VINA RESULT:     -12.8      0.000      0.000
REMARK SMILES CC(=O)Oc1ccc2oc(N)c([C@@H]3[NH2+][C@@H](C(=O)OCCOC(=O)c4ccc(-c5c6nc(c(-c7cc(S(=O)(=O)[O-])ccc7F)c7ccc([nH]7)c(-c7cc(S(=O)(=O)[O-])ccc7F)c7nc(c(-c8cc(S(=O)(=O)[O-])ccc8F)c8ccc5[nH]8)C=C7)C=C6)cc4)C(C)(C)S3)c(=O)c2c1
REMARK SMILES IDX 19 1 18 2 16 3 17 4 15 5 13 6 14 7 90 8 87 11 88 12 89 13
REMARK SMILES IDX 12 14 5 15 6 16 94 17 7 18 93 19 8 20 91 21 9 22 92 23 10 24
REMARK SMILES IDX 4 25 2 26 1 27 3 28 11 29 20 32 21 33 22 34 23 35 24 36
REMARK SMILES IDX 25 37 86 38 26 39 85 40 27 41 28 42 29 43 79 44 30 45 84 46
REMARK SMILES IDX 78 47 80 48 31 49 83 50 77 51 76 52 32 54 64 55 44 56 63 57
REMARK SMILES IDX 45 58 48 59 62 60 81 61 46 62 47 63 61 65 82 66 49 67 33 68
REMARK SMILES IDX 34 69 42 70 35 71 41 72 43 73 40 74 36 75 37 76 38 77 39 78
REMARK SMILES IDX 65 79 66 80 74 81 67 82 73 83 75 84 72 85 68 86 69 87 70 88
REMARK SMILES IDX 71 89 50 90 51 91 59 92 52 93 58 94 60 95 57 96 53 97 54 98
REMARK SMILES IDX 55 99 56 100
REMARK H PARENT 14 9 14 10 11 30 11 31 80 53 48 64
REMARK Flexibility Score: inf
ROOT
ATOM      1  C   UNL A   1      36.504  22.541  23.909  1.00  0.00     0.274 C 
ENDROOT
BRANCH   1   2
ATOM      2  O   UNL A   1      35.081  22.296  23.913  1.00  0.00    -0.458 OA
BRANCH   2   3
ATOM      3  C   UNL A   1      34.317  23.342  23.518  1.00  0.00     0.366 C 
ATOM      4  O   UNL A   1      34.411  23.867  22.409  1.00  0.00    -0.245 OA
BRANCH   3   5
ATOM      5  C   UNL A   1      33.331  23.860  24.577  1.00  0.00     0.310 C 
ATOM      6  C   UNL A   1      32.483  25.792  25.680  1.00  0.00     0.284 C 
ATOM      7  N   UNL A   1      33.533  25.325  24.763  1.00  0.00    -0.318 N 
ATOM      8  S   UNL A   1      32.197  24.457  26.881  1.00  0.00    -0.081 SA
ATOM      9  H   UNL A   1      34.453  25.502  25.165  1.00  0.00     0.348 HD
ATOM     10  H   UNL A   1      33.480  25.815  23.870  1.00  0.00     0.348 HD
ATOM     11  C   UNL A   1      33.200  23.198  25.967  1.00  0.00     0.079 C 
ATOM     12  C   UNL A   1      34.504  22.996  26.745  1.00  0.00     0.030 C 
ATOM     13  C   UNL A   1      32.386  21.901  25.974  1.00  0.00     0.030 C 
BRANCH   6  14
ATOM     14  C   UNL A   1      31.230  26.292  24.986  1.00  0.00     0.128 A 
ATOM     15  C   UNL A   1      29.267  29.912  22.283  1.00  0.00     0.131 A 
ATOM     16  C   UNL A   1      28.015  29.313  22.430  1.00  0.00     0.051 A 
ATOM     17  C   UNL A   1      30.425  29.295  22.756  1.00  0.00     0.063 A 
ATOM     18  C   UNL A   1      27.913  28.108  23.121  1.00  0.00     0.052 A 
ATOM     19  C   UNL A   1      30.308  28.088  23.451  1.00  0.00     0.069 A 
ATOM     20  C   UNL A   1      29.061  27.516  23.648  1.00  0.00     0.140 A 
ATOM     21  C   UNL A   1      31.480  27.404  24.014  1.00  0.00     0.205 A 
ATOM     22  O   UNL A   1      28.894  26.374  24.371  1.00  0.00    -0.440 OA
ATOM     23  O   UNL A   1      32.608  27.798  23.735  1.00  0.00    -0.288 OA
ATOM     24  C   UNL A   1      29.940  25.909  25.149  1.00  0.00     0.205 A 
BRANCH  15  25
ATOM     25  O   UNL A   1      29.398  31.118  21.588  1.00  0.00    -0.427 OA
BRANCH  25  26
ATOM     26  C   UNL A   1      28.403  32.051  21.861  1.00  0.00     0.308 C 
ATOM     27  C   UNL A   1      27.825  32.536  20.565  1.00  0.00     0.139 C 
ATOM     28  O   UNL A   1      28.055  32.463  22.960  1.00  0.00    -0.252 OA
ENDBRANCH  25  26
ENDBRANCH  15  25
BRANCH  24  29
ATOM     29  N   UNL A   1      29.482  25.032  26.090  1.00  0.00    -0.369 N 
ATOM     30  H   UNL A   1      29.429  24.071  25.883  1.00  0.00     0.159 HD
ATOM     31  H   UNL A   1      29.202  25.360  26.975  1.00  0.00     0.159 HD
ENDBRANCH  24  29
ENDBRANCH   6  14
ENDBRANCH   3   5
ENDBRANCH   2   3
ENDBRANCH   1   2
BRANCH   1  32
ATOM     32  C   UNL A   1      37.280  21.417  24.599  1.00  0.00     0.275 C 
BRANCH  32  33
ATOM     33  O   UNL A   1      37.673  21.787  25.934  1.00  0.00    -0.458 OA
BRANCH  33  34
ATOM     34  C   UNL A   1      38.988  21.625  26.208  1.00  0.00     0.338 C 
ATOM     35  O   UNL A   1      39.656  20.624  26.022  1.00  0.00    -0.246 OA
BRANCH  34  36
ATOM     36  C   UNL A   1      39.549  22.880  26.721  1.00  0.00     0.060 A 
ATOM     37  C   UNL A   1      40.503  22.846  27.735  1.00  0.00     0.016 A 
ATOM     38  C   UNL A   1      39.190  24.090  26.121  1.00  0.00     0.016 A 
ATOM     39  C   UNL A   1      41.069  24.044  28.175  1.00  0.00     0.010 A 
ATOM     40  C   UNL A   1      39.779  25.280  26.540  1.00  0.00     0.010 A 
ATOM     41  C   UNL A   1      40.709  25.270  27.585  1.00  0.00    -0.014 A 
BRANCH  41  42
ATOM     42  C   UNL A   1      41.323  26.534  28.056  1.00  0.00     0.031 A 
ATOM     43  C   UNL A   1      42.750  26.862  27.720  1.00  0.00     0.074 A 
ATOM     44  C   UNL A   1      40.585  27.388  28.790  1.00  0.00     0.049 A 
ATOM     45  N   UNL A   1      43.400  27.979  27.917  1.00  0.00    -0.248 NA
ATOM     46  C   UNL A   1      43.555  25.801  27.095  1.00  0.00     0.031 C 
ATOM     47  C   UNL A   1      39.217  27.131  29.240  1.00  0.00     0.029 A 
ATOM     48  N   UNL A   1      40.869  28.641  29.273  1.00  0.00    -0.354 N 
ATOM     49  C   UNL A   1      44.682  27.764  27.425  1.00  0.00     0.074 A 
ATOM     50  C   UNL A   1      44.739  26.388  26.985  1.00  0.00     0.031 C 
ATOM     51  C   UNL A   1      38.763  28.212  29.893  1.00  0.00     0.029 A 
ATOM     52  C   UNL A   1      39.812  29.231  29.927  1.00  0.00     0.049 A 
ATOM     53  H   UNL A   1      41.745  29.076  29.163  1.00  0.00     0.167 HD
ATOM     54  C   UNL A   1      45.704  28.647  27.321  1.00  0.00     0.034 A 
ATOM     55  C   UNL A   1      39.691  30.460  30.469  1.00  0.00     0.034 A 
ATOM     56  C   UNL A   1      45.622  30.015  27.763  1.00  0.00     0.049 A 
ATOM     57  C   UNL A   1      40.836  31.431  30.331  1.00  0.00     0.074 A 
ATOM     58  C   UNL A   1      46.574  31.010  27.638  1.00  0.00     0.029 A 
ATOM     59  N   UNL A   1      44.537  30.580  28.419  1.00  0.00    -0.354 N 
ATOM     60  N   UNL A   1      41.994  31.261  29.735  1.00  0.00    -0.248 NA
ATOM     61  C   UNL A   1      40.658  32.768  30.916  1.00  0.00     0.031 C 
ATOM     62  C   UNL A   1      46.094  32.155  28.276  1.00  0.00     0.029 A 
ATOM     63  C   UNL A   1      44.810  31.901  28.734  1.00  0.00     0.049 A 
ATOM     64  H   UNL A   1      43.697  30.112  28.629  1.00  0.00     0.167 HD
ATOM     65  C   UNL A   1      42.670  32.472  29.851  1.00  0.00     0.074 A 
ATOM     66  C   UNL A   1      41.781  33.375  30.552  1.00  0.00     0.031 C 
ATOM     67  C   UNL A   1      43.914  32.801  29.420  1.00  0.00     0.034 A 
BRANCH  54  68
ATOM     68  C   UNL A   1      46.989  28.196  26.672  1.00  0.00     0.023 A 
ATOM     69  C   UNL A   1      47.110  28.188  25.270  1.00  0.00     0.031 A 
ATOM     70  C   UNL A   1      48.036  27.644  27.434  1.00  0.00     0.131 A 
ATOM     71  C   UNL A   1      48.236  27.605  24.672  1.00  0.00     0.055 A 
ATOM     72  C   UNL A   1      49.174  27.105  26.834  1.00  0.00     0.041 A 
ATOM     73  F   UNL A   1      47.965  27.621  28.775  1.00  0.00    -0.206 F 
ATOM     74  C   UNL A   1      49.271  27.072  25.447  1.00  0.00     0.022 A 
BRANCH  71  75
ATOM     75  S   UNL A   1      48.369  27.452  22.870  1.00  0.00     0.124 S 
ATOM     76  O   UNL A   1      48.280  26.005  22.685  1.00  0.00    -0.237 OA
ATOM     77  O   UNL A   1      47.209  28.211  22.412  1.00  0.00    -0.237 OA
ATOM     78  O   UNL A   1      49.669  28.037  22.563  1.00  0.00    -0.744 OA
ENDBRANCH  71  75
ENDBRANCH  54  68
BRANCH  55  79
ATOM     79  C   UNL A   1      38.391  30.851  31.091  1.00  0.00     0.023 A 
ATOM     80  C   UNL A   1      37.363  31.424  30.321  1.00  0.00     0.031 A 
ATOM     81  C   UNL A   1      38.207  30.767  32.482  1.00  0.00     0.131 A 
ATOM     82  C   UNL A   1      36.230  31.953  30.954  1.00  0.00     0.055 A 
ATOM     83  C   UNL A   1      37.046  31.231  33.101  1.00  0.00     0.041 A 
ATOM     84  F   UNL A   1      39.167  30.245  33.260  1.00  0.00    -0.206 F 
ATOM     85  C   UNL A   1      36.057  31.844  32.337  1.00  0.00     0.022 A 
BRANCH  82  86
ATOM     86  S   UNL A   1      35.010  32.921  30.023  1.00  0.00     0.124 S 
ATOM     87  O   UNL A   1      34.578  31.971  29.004  1.00  0.00    -0.237 OA
ATOM     88  O   UNL A   1      34.025  33.232  31.056  1.00  0.00    -0.237 OA
ATOM     89  O   UNL A   1      35.777  34.064  29.537  1.00  0.00    -0.744 OA
ENDBRANCH  82  86
ENDBRANCH  55  79
BRANCH  67  90
ATOM     90  C   UNL A   1      44.427  34.200  29.678  1.00  0.00     0.023 A 
ATOM     91  C   UNL A   1      44.324  35.183  28.676  1.00  0.00     0.031 A 
ATOM     92  C   UNL A   1      45.166  34.504  30.835  1.00  0.00     0.131 A 
ATOM     93  C   UNL A   1      44.991  36.405  28.826  1.00  0.00     0.055 A 
ATOM     94  C   UNL A   1      45.785  35.743  31.003  1.00  0.00     0.041 A 
ATOM     95  F   UNL A   1      45.303  33.596  31.814  1.00  0.00    -0.206 F 
ATOM     96  C   UNL A   1      45.714  36.694  29.988  1.00  0.00     0.022 A 
BRANCH  93  97
ATOM     97  S   UNL A   1      45.031  37.623  27.482  1.00  0.00     0.124 S 
ATOM     98  O   UNL A   1      45.491  38.823  28.175  1.00  0.00    -0.237 OA
ATOM     99  O   UNL A   1      45.995  37.030  26.557  1.00  0.00    -0.237 OA
ATOM    100  O   UNL A   1      43.653  37.670  27.006  1.00  0.00    -0.744 OA
ENDBRANCH  93  97
ENDBRANCH  67  90
ENDBRANCH  41  42
ENDBRANCH  34  36
ENDBRANCH  33  34
ENDBRANCH  32  33
ENDBRANCH   1  32
TORSDOF 18
ENDMDL
MODEL 2
REMARK VINA RESULT:     -12.4      4.849     10.281
REMARK SMILES CC(=O)Oc1ccc2oc(N)c([C@@H]3[NH2+][C@@H](C(=O)OCCOC(=O)c4ccc(-c5c6nc(c(-c7cc(S(=O)(=O)[O-])ccc7F)c7ccc([nH]7)c(-c7cc(S(=O)(=O)[O-])ccc7F)c7nc(c(-c8cc(S(=O)(=O)[O-])ccc8F)c8ccc5[nH]8)C=C7)C=C6)cc4)C(C)(C)S3)c(=O)c2c1
REMARK SMILES IDX 19 1 18 2 16 3 17 4 15 5 13 6 14 7 90 8 87 11 88 12 89 13
REMARK SMILES IDX 12 14 5 15 6 16 94 17 7 18 93 19 8 20 91 21 9 22 92 23 10 24
REMARK SMILES IDX 4 25 2 26 1 27 3 28 11 29 20 32 21 33 22 34 23 35 24 36
REMARK SMILES IDX 25 37 86 38 26 39 85 40 27 41 28 42 29 43 79 44 30 45 84 46
REMARK SMILES IDX 78 47 80 48 31 49 83 50 77 51 76 52 32 54 64 55 44 56 63 57
REMARK SMILES IDX 45 58 48 59 62 60 81 61 46 62 47 63 61 65 82 66 49 67 33 68
REMARK SMILES IDX 34 69 42 70 35 71 41 72 43 73 40 74 36 75 37 76 38 77 39 78
REMARK SMILES IDX 65 79 66 80 74 81 67 82 73 83 75 84 72 85 68 86 69 87 70 88
REMARK SMILES IDX 71 89 50 90 51 91 59 92 52 93 58 94 60 95 57 96 53 97 54 98
REMARK SMILES IDX 55 99 56 100
REMARK H PARENT 14 9 14 10 11 30 11 31 80 53 48 64
REMARK Flexibility Score: inf
ROOT
ATOM      1  C   UNL A   1      31.711  28.498  27.081  1.00  0.00     0.274 C 
ENDROOT
BRANCH   1   2
ATOM      2  O   UNL A   1      31.171  27.639  26.053  1.00  0.00    -0.458 OA
BRANCH   2   3
ATOM      3  C   UNL A   1      31.586  26.350  26.105  1.00  0.00     0.366 C 
ATOM      4  O   UNL A   1      31.462  25.640  27.101  1.00  0.00    -0.245 OA
BRANCH   3   5
ATOM      5  C   UNL A   1      32.263  25.837  24.824  1.00  0.00     0.310 C 
ATOM      6  C   UNL A   1      33.962  24.420  23.944  1.00  0.00     0.284 C 
ATOM      7  N   UNL A   1      33.434  24.992  25.192  1.00  0.00    -0.318 N 
ATOM      8  S   UNL A   1      33.750  25.682  22.652  1.00  0.00    -0.081 SA
ATOM      9  H   UNL A   1      34.148  25.562  25.645  1.00  0.00     0.348 HD
ATOM     10  H   UNL A   1      33.161  24.255  25.842  1.00  0.00     0.348 HD
ATOM     11  C   UNL A   1      32.679  26.789  23.680  1.00  0.00     0.079 C 
ATOM     12  C   UNL A   1      33.525  28.001  24.083  1.00  0.00     0.030 C 
ATOM     13  C   UNL A   1      31.524  27.238  22.780  1.00  0.00     0.030 C 
BRANCH   6  14
ATOM     14  C   UNL A   1      33.389  23.060  23.594  1.00  0.00     0.128 A 
ATOM     15  C   UNL A   1      33.050  18.336  24.948  1.00  0.00     0.131 A 
ATOM     16  C   UNL A   1      32.418  18.056  23.735  1.00  0.00     0.051 A 
ATOM     17  C   UNL A   1      33.362  19.644  25.318  1.00  0.00     0.063 A 
ATOM     18  C   UNL A   1      32.154  19.097  22.849  1.00  0.00     0.052 A 
ATOM     19  C   UNL A   1      33.094  20.679  24.417  1.00  0.00     0.069 A 
ATOM     20  C   UNL A   1      32.518  20.401  23.187  1.00  0.00     0.140 A 
ATOM     21  C   UNL A   1      33.434  22.076  24.722  1.00  0.00     0.205 A 
ATOM     22  O   UNL A   1      32.296  21.369  22.256  1.00  0.00    -0.440 OA
ATOM     23  O   UNL A   1      33.807  22.380  25.851  1.00  0.00    -0.288 OA
ATOM     24  C   UNL A   1      32.891  22.609  22.417  1.00  0.00     0.205 A 
BRANCH  15  25
ATOM     25  O   UNL A   1      33.320  17.310  25.859  1.00  0.00    -0.427 OA
BRANCH  25  26
ATOM     26  C   UNL A   1      33.737  16.117  25.276  1.00  0.00     0.308 C 
ATOM     27  C   UNL A   1      35.206  16.206  24.989  1.00  0.00     0.139 C 
ATOM     28  O   UNL A   1      33.043  15.149  24.993  1.00  0.00    -0.252 OA
ENDBRANCH  25  26
ENDBRANCH  15  25
BRANCH  24  29
ATOM     29  N   UNL A   1      32.905  23.288  21.232  1.00  0.00    -0.369 N 
ATOM     30  H   UNL A   1      33.730  23.731  20.929  1.00  0.00     0.159 HD
ATOM     31  H   UNL A   1      32.090  23.335  20.681  1.00  0.00     0.159 HD
ENDBRANCH  24  29
ENDBRANCH   6  14
ENDBRANCH   3   5
ENDBRANCH   2   3
ENDBRANCH   1   2
BRANCH   1  32
ATOM     32  C   UNL A   1      31.850  29.944  26.603  1.00  0.00     0.275 C 
BRANCH  32  33
ATOM     33  O   UNL A   1      33.230  30.335  26.490  1.00  0.00    -0.458 OA
BRANCH  33  34
ATOM     34  C   UNL A   1      33.613  31.328  27.325  1.00  0.00     0.338 C 
ATOM     35  O   UNL A   1      33.006  32.357  27.566  1.00  0.00    -0.246 OA
BRANCH  34  36
ATOM     36  C   UNL A   1      34.876  30.971  27.981  1.00  0.00     0.060 A 
ATOM     37  C   UNL A   1      35.050  29.686  28.490  1.00  0.00     0.016 A 
ATOM     38  C   UNL A   1      35.925  31.894  28.003  1.00  0.00     0.016 A 
ATOM     39  C   UNL A   1      36.277  29.343  29.062  1.00  0.00     0.010 A 
ATOM     40  C   UNL A   1      37.158  31.539  28.545  1.00  0.00     0.010 A 
ATOM     41  C   UNL A   1      37.338  30.267  29.098  1.00  0.00    -0.014 A 
BRANCH  41  42
ATOM     42  C   UNL A   1      38.638  29.888  29.700  1.00  0.00     0.031 A 
ATOM     43  C   UNL A   1      39.059  30.450  31.028  1.00  0.00     0.074 A 
ATOM     44  C   UNL A   1      39.440  29.030  29.042  1.00  0.00     0.049 A 
ATOM     45  N   UNL A   1      40.082  30.117  31.770  1.00  0.00    -0.248 NA
ATOM     46  C   UNL A   1      38.236  31.532  31.592  1.00  0.00     0.031 C 
ATOM     47  C   UNL A   1      39.165  28.487  27.711  1.00  0.00     0.029 A 
ATOM     48  N   UNL A   1      40.633  28.453  29.400  1.00  0.00    -0.354 N 
ATOM     49  C   UNL A   1      40.018  30.931  32.894  1.00  0.00     0.074 A 
ATOM     50  C   UNL A   1      38.896  31.822  32.705  1.00  0.00     0.031 C 
ATOM     51  C   UNL A   1      40.136  27.621  27.385  1.00  0.00     0.029 A 
ATOM     52  C   UNL A   1      41.113  27.560  28.471  1.00  0.00     0.049 A 
ATOM     53  H   UNL A   1      41.101  28.659  30.242  1.00  0.00     0.167 HD
ATOM     54  C   UNL A   1      40.805  30.909  33.996  1.00  0.00     0.034 A 
ATOM     55  C   UNL A   1      42.202  26.763  28.500  1.00  0.00     0.034 A 
ATOM     56  C   UNL A   1      41.915  30.008  34.164  1.00  0.00     0.049 A 
ATOM     57  C   UNL A   1      43.057  26.746  29.742  1.00  0.00     0.074 A 
ATOM     58  C   UNL A   1      42.730  29.856  35.271  1.00  0.00     0.029 A 
ATOM     59  N   UNL A   1      42.373  29.115  33.205  1.00  0.00    -0.354 N 
ATOM     60  N   UNL A   1      42.902  27.419  30.858  1.00  0.00    -0.248 NA
ATOM     61  C   UNL A   1      44.222  25.850  29.743  1.00  0.00     0.031 C 
ATOM     62  C   UNL A   1      43.720  28.923  34.958  1.00  0.00     0.029 A 
ATOM     63  C   UNL A   1      43.480  28.433  33.684  1.00  0.00     0.049 A 
ATOM     64  H   UNL A   1      41.971  28.986  32.316  1.00  0.00     0.167 HD
ATOM     65  C   UNL A   1      43.930  27.010  31.702  1.00  0.00     0.074 A 
ATOM     66  C   UNL A   1      44.688  26.012  30.975  1.00  0.00     0.031 C 
ATOM     67  C   UNL A   1      44.222  27.428  32.960  1.00  0.00     0.034 A 
BRANCH  54  68
ATOM     68  C   UNL A   1      40.486  31.848  35.134  1.00  0.00     0.023 A 
ATOM     69  C   UNL A   1      39.490  31.514  36.070  1.00  0.00     0.031 A 
ATOM     70  C   UNL A   1      41.066  33.128  35.206  1.00  0.00     0.131 A 
ATOM     71  C   UNL A   1      39.078  32.463  37.016  1.00  0.00     0.055 A 
ATOM     72  C   UNL A   1      40.682  34.053  36.178  1.00  0.00     0.041 A 
ATOM     73  F   UNL A   1      42.015  33.498  34.331  1.00  0.00    -0.206 F 
ATOM     74  C   UNL A   1      39.675  33.727  37.079  1.00  0.00     0.022 A 
BRANCH  71  75
ATOM     75  S   UNL A   1      37.707  32.122  38.152  1.00  0.00     0.124 S 
ATOM     76  O   UNL A   1      37.393  30.730  37.835  1.00  0.00    -0.237 OA
ATOM     77  O   UNL A   1      38.328  32.339  39.455  1.00  0.00    -0.237 OA
ATOM     78  O   UNL A   1      36.685  33.089  37.770  1.00  0.00    -0.744 OA
ENDBRANCH  71  75
ENDBRANCH  54  68
BRANCH  55  79
ATOM     79  C   UNL A   1      42.460  25.850  27.347  1.00  0.00     0.023 A 
ATOM     80  C   UNL A   1      41.933  24.547  27.323  1.00  0.00     0.031 A 
ATOM     81  C   UNL A   1      43.335  26.228  26.314  1.00  0.00     0.131 A 
ATOM     82  C   UNL A   1      42.339  23.648  26.327  1.00  0.00     0.055 A 
ATOM     83  C   UNL A   1      43.683  25.353  25.285  1.00  0.00     0.041 A 
ATOM     84  F   UNL A   1      43.878  27.455  26.304  1.00  0.00    -0.206 F 
ATOM     85  C   UNL A   1      43.198  24.048  25.298  1.00  0.00     0.022 A 
BRANCH  82  86
ATOM     86  S   UNL A   1      41.881  21.895  26.412  1.00  0.00     0.124 S 
ATOM     87  O   UNL A   1      42.245  21.550  27.782  1.00  0.00    -0.237 OA
ATOM     88  O   UNL A   1      40.447  21.948  26.133  1.00  0.00    -0.237 OA
ATOM     89  O   UNL A   1      42.691  21.277  25.367  1.00  0.00    -0.744 OA
ENDBRANCH  82  86
ENDBRANCH  55  79
BRANCH  67  90
ATOM     90  C   UNL A   1      45.412  26.825  33.670  1.00  0.00     0.023 A 
ATOM     91  C   UNL A   1      46.700  27.352  33.454  1.00  0.00     0.031 A 
ATOM     92  C   UNL A   1      45.295  25.636  34.410  1.00  0.00     0.131 A 
ATOM     93  C   UNL A   1      47.824  26.664  33.931  1.00  0.00     0.055 A 
ATOM     94  C   UNL A   1      46.414  24.982  34.928  1.00  0.00     0.041 A 
ATOM     95  F   UNL A   1      44.090  25.087  34.633  1.00  0.00    -0.206 F 
ATOM     96  C   UNL A   1      47.687  25.487  34.674  1.00  0.00     0.022 A 
BRANCH  93  97
ATOM     97  S   UNL A   1      49.503  27.215  33.519  1.00  0.00     0.124 S 
ATOM     98  O   UNL A   1      49.281  28.611  33.153  1.00  0.00    -0.237 OA
ATOM     99  O   UNL A   1      50.213  27.007  34.779  1.00  0.00    -0.237 OA
ATOM    100  O   UNL A   1      49.902  26.341  32.422  1.00  0.00    -0.744 OA
ENDBRANCH  93  97
ENDBRANCH  67  90
ENDBRANCH  41  42
ENDBRANCH  34  36
ENDBRANCH  33  34
ENDBRANCH  32  33
ENDBRANCH   1  32
TORSDOF 18
ENDMDL
MODEL 3
REMARK VINA RESULT:     -12.3      1.942      2.227
REMARK SMILES CC(=O)Oc1ccc2oc(N)c([C@@H]3[NH2+][C@@H](C(=O)OCCOC(=O)c4ccc(-c5c6nc(c(-c7cc(S(=O)(=O)[O-])ccc7F)c7ccc([nH]7)c(-c7cc(S(=O)(=O)[O-])ccc7F)c7nc(c(-c8cc(S(=O)(=O)[O-])ccc8F)c8ccc5[nH]8)C=C7)C=C6)cc4)C(C)(C)S3)c(=O)c2c1
REMARK SMILES IDX 19 1 18 2 16 3 17 4 15 5 13 6 14 7 90 8 87 11 88 12 89 13
REMARK SMILES IDX 12 14 5 15 6 16 94 17 7 18 93 19 8 20 91 21 9 22 92 23 10 24
REMARK SMILES IDX 4 25 2 26 1 27 3 28 11 29 20 32 21 33 22 34 23 35 24 36
REMARK SMILES IDX 25 37 86 38 26 39 85 40 27 41 28 42 29 43 79 44 30 45 84 46
REMARK SMILES IDX 78 47 80 48 31 49 83 50 77 51 76 52 32 54 64 55 44 56 63 57
REMARK SMILES IDX 45 58 48 59 62 60 81 61 46 62 47 63 61 65 82 66 49 67 33 68
REMARK SMILES IDX 34 69 42 70 35 71 41 72 43 73 40 74 36 75 37 76 38 77 39 78
REMARK SMILES IDX 65 79 66 80 74 81 67 82 73 83 75 84 72 85 68 86 69 87 70 88
REMARK SMILES IDX 71 89 50 90 51 91 59 92 52 93 58 94 60 95 57 96 53 97 54 98
REMARK SMILES IDX 55 99 56 100
REMARK H PARENT 14 9 14 10 11 30 11 31 80 53 48 64
REMARK Flexibility Score: inf
ROOT
ATOM      1  C   UNL A   1      36.185  22.445  23.775  1.00  0.00     0.274 C 
ENDROOT
BRANCH   1   2
ATOM      2  O   UNL A   1      34.753  22.257  23.805  1.00  0.00    -0.458 OA
BRANCH   2   3
ATOM      3  C   UNL A   1      34.025  23.316  23.376  1.00  0.00     0.366 C 
ATOM      4  O   UNL A   1      34.110  23.779  22.240  1.00  0.00    -0.245 OA
BRANCH   3   5
ATOM      5  C   UNL A   1      33.093  23.931  24.433  1.00  0.00     0.310 C 
ATOM      6  C   UNL A   1      32.363  25.954  25.454  1.00  0.00     0.284 C 
ATOM      7  N   UNL A   1      33.364  25.393  24.535  1.00  0.00    -0.318 N 
ATOM      8  S   UNL A   1      32.055  24.697  26.732  1.00  0.00    -0.081 SA
ATOM      9  H   UNL A   1      34.302  25.550  24.902  1.00  0.00     0.348 HD
ATOM     10  H   UNL A   1      33.306  25.838  23.619  1.00  0.00     0.348 HD
ATOM     11  C   UNL A   1      32.976  23.349  25.859  1.00  0.00     0.079 C 
ATOM     12  C   UNL A   1      34.292  23.130  26.612  1.00  0.00     0.030 C 
ATOM     13  C   UNL A   1      32.107  22.091  25.958  1.00  0.00     0.030 C 
BRANCH   6  14
ATOM     14  C   UNL A   1      31.112  26.472  24.769  1.00  0.00     0.128 A 
ATOM     15  C   UNL A   1      29.158  30.166  22.162  1.00  0.00     0.131 A 
ATOM     16  C   UNL A   1      27.906  29.562  22.285  1.00  0.00     0.051 A 
ATOM     17  C   UNL A   1      30.315  29.538  22.622  1.00  0.00     0.063 A 
ATOM     18  C   UNL A   1      27.802  28.338  22.940  1.00  0.00     0.052 A 
ATOM     19  C   UNL A   1      30.195  28.310  23.281  1.00  0.00     0.069 A 
ATOM     20  C   UNL A   1      28.948  27.732  23.456  1.00  0.00     0.140 A 
ATOM     21  C   UNL A   1      31.366  27.612  23.830  1.00  0.00     0.205 A 
ATOM     22  O   UNL A   1      28.779  26.569  24.145  1.00  0.00    -0.440 OA
ATOM     23  O   UNL A   1      32.494  28.015  23.569  1.00  0.00    -0.288 OA
ATOM     24  C   UNL A   1      29.822  26.084  24.915  1.00  0.00     0.205 A 
BRANCH  15  25
ATOM     25  O   UNL A   1      29.290  31.392  21.502  1.00  0.00    -0.427 OA
BRANCH  25  26
ATOM     26  C   UNL A   1      28.320  32.333  21.834  1.00  0.00     0.308 C 
ATOM     27  C   UNL A   1      27.672  32.825  20.574  1.00  0.00     0.139 C 
ATOM     28  O   UNL A   1      28.040  32.745  22.952  1.00  0.00    -0.252 OA
ENDBRANCH  25  26
ENDBRANCH  15  25
BRANCH  24  29
ATOM     29  N   UNL A   1      29.360  25.179  25.827  1.00  0.00    -0.369 N 
ATOM     30  H   UNL A   1      28.488  25.319  26.261  1.00  0.00     0.159 HD
ATOM     31  H   UNL A   1      29.900  24.387  26.053  1.00  0.00     0.159 HD
ENDBRANCH  24  29
ENDBRANCH   6  14
ENDBRANCH   3   5
ENDBRANCH   2   3
ENDBRANCH   1   2
BRANCH   1  32
ATOM     32  C   UNL A   1      36.933  21.226  24.317  1.00  0.00     0.275 C 
BRANCH  32  33
ATOM     33  O   UNL A   1      37.349  21.422  25.681  1.00  0.00    -0.458 OA
BRANCH  33  34
ATOM     34  C   UNL A   1      38.655  21.165  25.923  1.00  0.00     0.338 C 
ATOM     35  O   UNL A   1      39.249  20.125  25.700  1.00  0.00    -0.246 OA
BRANCH  34  36
ATOM     36  C   UNL A   1      39.311  22.366  26.452  1.00  0.00     0.060 A 
ATOM     37  C   UNL A   1      40.389  22.235  27.325  1.00  0.00     0.016 A 
ATOM     38  C   UNL A   1      38.909  23.625  26.001  1.00  0.00     0.016 A 
ATOM     39  C   UNL A   1      41.039  23.386  27.778  1.00  0.00     0.010 A 
ATOM     40  C   UNL A   1      39.578  24.769  26.429  1.00  0.00     0.010 A 
ATOM     41  C   UNL A   1      40.636  24.660  27.337  1.00  0.00    -0.014 A 
BRANCH  41  42
ATOM     42  C   UNL A   1      41.340  25.873  27.819  1.00  0.00     0.031 A 
ATOM     43  C   UNL A   1      42.765  26.138  27.423  1.00  0.00     0.074 A 
ATOM     44  C   UNL A   1      40.685  26.737  28.617  1.00  0.00     0.049 A 
ATOM     45  N   UNL A   1      43.483  27.211  27.625  1.00  0.00    -0.248 NA
ATOM     46  C   UNL A   1      43.481  25.059  26.724  1.00  0.00     0.031 C 
ATOM     47  C   UNL A   1      39.329  26.536  29.126  1.00  0.00     0.029 A 
ATOM     48  N   UNL A   1      41.059  27.955  29.127  1.00  0.00    -0.354 N 
ATOM     49  C   UNL A   1      44.726  26.947  27.062  1.00  0.00     0.074 A 
ATOM     50  C   UNL A   1      44.688  25.587  26.574  1.00  0.00     0.031 C 
ATOM     51  C   UNL A   1      38.966  27.615  29.837  1.00  0.00     0.029 A 
ATOM     52  C   UNL A   1      40.068  28.575  29.852  1.00  0.00     0.049 A 
ATOM     53  H   UNL A   1      41.951  28.348  28.988  1.00  0.00     0.167 HD
ATOM     54  C   UNL A   1      45.787  27.779  26.937  1.00  0.00     0.034 A 
ATOM     55  C   UNL A   1      40.039  29.789  30.440  1.00  0.00     0.034 A 
ATOM     56  C   UNL A   1      45.801  29.133  27.428  1.00  0.00     0.049 A 
ATOM     57  C   UNL A   1      41.228  30.703  30.278  1.00  0.00     0.074 A 
ATOM     58  C   UNL A   1      46.798  30.081  27.289  1.00  0.00     0.029 A 
ATOM     59  N   UNL A   1      44.781  29.730  28.156  1.00  0.00    -0.354 N 
ATOM     60  N   UNL A   1      42.344  30.494  29.620  1.00  0.00    -0.248 NA
ATOM     61  C   UNL A   1      41.150  32.026  30.915  1.00  0.00     0.031 C 
ATOM     62  C   UNL A   1      46.412  31.225  27.988  1.00  0.00     0.029 A 
ATOM     63  C   UNL A   1      45.140  31.023  28.501  1.00  0.00     0.049 A 
ATOM     64  H   UNL A   1      43.928  29.299  28.392  1.00  0.00     0.167 HD
ATOM     65  C   UNL A   1      43.089  31.664  29.742  1.00  0.00     0.074 A 
ATOM     66  C   UNL A   1      42.286  32.586  30.516  1.00  0.00     0.031 C 
ATOM     67  C   UNL A   1      44.327  31.943  29.260  1.00  0.00     0.034 A 
BRANCH  54  68
ATOM     68  C   UNL A   1      47.014  27.285  26.210  1.00  0.00     0.023 A 
ATOM     69  C   UNL A   1      48.017  26.586  26.905  1.00  0.00     0.031 A 
ATOM     70  C   UNL A   1      47.252  27.631  24.867  1.00  0.00     0.131 A 
ATOM     71  C   UNL A   1      49.228  26.287  26.266  1.00  0.00     0.055 A 
ATOM     72  C   UNL A   1      48.442  27.292  24.222  1.00  0.00     0.041 A 
ATOM     73  F   UNL A   1      46.329  28.305  24.161  1.00  0.00    -0.206 F 
ATOM     74  C   UNL A   1      49.441  26.629  24.926  1.00  0.00     0.022 A 
BRANCH  71  75
ATOM     75  S   UNL A   1      50.597  25.508  27.164  1.00  0.00     0.124 S 
ATOM     76  O   UNL A   1      51.563  25.272  26.092  1.00  0.00    -0.237 OA
ATOM     77  O   UNL A   1      50.968  26.548  28.119  1.00  0.00    -0.237 OA
ATOM     78  O   UNL A   1      50.004  24.306  27.737  1.00  0.00    -0.744 OA
ENDBRANCH  71  75
ENDBRANCH  54  68
BRANCH  55  79
ATOM     79  C   UNL A   1      38.794  30.225  31.139  1.00  0.00     0.023 A 
ATOM     80  C   UNL A   1      37.756  30.866  30.438  1.00  0.00     0.031 A 
ATOM     81  C   UNL A   1      38.678  30.113  32.535  1.00  0.00     0.131 A 
ATOM     82  C   UNL A   1      36.685  31.431  31.142  1.00  0.00     0.055 A 
ATOM     83  C   UNL A   1      37.574  30.615  33.225  1.00  0.00     0.041 A 
ATOM     84  F   UNL A   1      39.650  29.525  33.249  1.00  0.00    -0.206 F 
ATOM     85  C   UNL A   1      36.578  31.294  32.530  1.00  0.00     0.022 A 
BRANCH  82  86
ATOM     86  S   UNL A   1      35.468  32.480  30.300  1.00  0.00     0.124 S 
ATOM     87  O   UNL A   1      36.245  33.682  30.017  1.00  0.00    -0.237 OA
ATOM     88  O   UNL A   1      35.121  31.663  29.140  1.00  0.00    -0.237 OA
ATOM     89  O   UNL A   1      34.404  32.634  31.288  1.00  0.00    -0.744 OA
ENDBRANCH  82  86
ENDBRANCH  55  79
BRANCH  67  90
ATOM     90  C   UNL A   1      44.927  33.302  29.539  1.00  0.00     0.023 A 
ATOM     91  C   UNL A   1      45.603  33.537  30.751  1.00  0.00     0.031 A 
ATOM     92  C   UNL A   1      44.678  34.398  28.693  1.00  0.00     0.131 A 
ATOM     93  C   UNL A   1      45.964  34.843  31.108  1.00  0.00     0.055 A 
ATOM     94  C   UNL A   1      45.086  35.689  29.029  1.00  0.00     0.041 A 
ATOM     95  F   UNL A   1      44.026  34.228  27.532  1.00  0.00    -0.206 F 
ATOM     96  C   UNL A   1      45.717  35.919  30.249  1.00  0.00     0.022 A 
BRANCH  93  97
ATOM     97  S   UNL A   1      46.673  35.207  32.737  1.00  0.00     0.124 S 
ATOM     98  O   UNL A   1      45.601  34.784  33.634  1.00  0.00    -0.237 OA
ATOM     99  O   UNL A   1      47.866  34.362  32.751  1.00  0.00    -0.237 OA
ATOM    100  O   UNL A   1      46.922  36.644  32.702  1.00  0.00    -0.744 OA
ENDBRANCH  93  97
ENDBRANCH  67  90
ENDBRANCH  41  42
ENDBRANCH  34  36
ENDBRANCH  33  34
ENDBRANCH  32  33
ENDBRANCH   1  32
TORSDOF 18
ENDMDL
