MODEL 1
REMARK VINA RESULT:     -11.0      0.000      0.000
REMARK SMILES CC(C)(C[NH2+]Cc1ccc2c(c1)OCO2)C(=O)OCCOC(=O)c1ccc(-c2c3nc(c(-c4cc(S(=O)(=O)[O-])ccc4F)c4ccc([nH]4)c(-c4cc(S(=O)(=O)[O-])ccc4F)c4nc(c(-c5cc(S(=O)(=O)[O-])ccc5F)c5ccc2[nH]5)C=C4)C=C3)cc1
REMARK SMILES IDX 19 1 18 2 16 3 17 4 2 5 1 6 3 7 4 8 5 9 6 12 7 13 8 14 12 15
REMARK SMILES IDX 9 16 11 17 10 18 13 19 15 20 14 21 20 22 21 23 22 24 23 25
REMARK SMILES IDX 24 26 25 27 86 28 26 29 85 30 27 31 28 32 29 33 79 34 30 35
REMARK SMILES IDX 84 36 78 37 80 38 31 39 83 40 77 41 76 42 32 44 64 45 44 46
REMARK SMILES IDX 63 47 45 48 48 49 62 50 81 51 46 52 47 53 61 55 82 56 49 57
REMARK SMILES IDX 33 58 34 59 42 60 35 61 41 62 43 63 40 64 36 65 37 66 38 67
REMARK SMILES IDX 39 68 65 69 66 70 74 71 67 72 73 73 75 74 72 75 68 76 69 77
REMARK SMILES IDX 70 78 71 79 50 80 51 81 59 82 52 83 58 84 60 85 57 86 53 87
REMARK SMILES IDX 54 88 55 89 56 90
REMARK H PARENT 5 10 5 11 80 43 48 54
REMARK Flexibility Score: inf
ROOT
ATOM      1  C   UNL A   1      32.774  29.298  24.191  1.00  0.00     0.274 C 
ENDROOT
BRANCH   1   2
ATOM      2  O   UNL A   1      33.558  28.238  24.776  1.00  0.00    -0.461 OA
BRANCH   2   3
ATOM      3  C   UNL A   1      33.569  27.056  24.097  1.00  0.00     0.317 C 
ATOM      4  O   UNL A   1      33.728  26.962  22.885  1.00  0.00    -0.251 OA
BRANCH   3   5
ATOM      5  C   UNL A   1      33.246  25.859  24.994  1.00  0.00     0.111 C 
ATOM      6  C   UNL A   1      32.705  26.331  26.359  1.00  0.00     0.029 C 
ATOM      7  C   UNL A   1      34.590  25.152  25.245  1.00  0.00     0.029 C 
BRANCH   5   8
ATOM      8  C   UNL A   1      32.264  24.853  24.346  1.00  0.00     0.279 C 
BRANCH   8   9
ATOM      9  N   UNL A   1      31.301  25.432  23.398  1.00  0.00    -0.342 N 
ATOM     10  H   UNL A   1      31.185  24.789  22.615  1.00  0.00     0.346 HD
ATOM     11  H   UNL A   1      31.669  26.333  23.092  1.00  0.00     0.346 HD
BRANCH   9  12
ATOM     12  C   UNL A   1      29.984  25.672  24.011  1.00  0.00     0.297 C 
BRANCH  12  13
ATOM     13  C   UNL A   1      29.299  26.895  23.441  1.00  0.00     0.010 A 
ATOM     14  C   UNL A   1      27.951  27.180  23.772  1.00  0.00     0.013 A 
ATOM     15  C   UNL A   1      30.026  27.810  22.661  1.00  0.00     0.060 A 
ATOM     16  C   UNL A   1      27.345  28.374  23.366  1.00  0.00     0.051 A 
ATOM     17  C   UNL A   1      29.402  28.976  22.277  1.00  0.00     0.166 A 
ATOM     18  C   UNL A   1      28.101  29.254  22.625  1.00  0.00     0.165 A 
ATOM     19  O   UNL A   1      29.972  29.978  21.559  1.00  0.00    -0.454 OA
ATOM     20  O   UNL A   1      27.692  30.470  22.171  1.00  0.00    -0.454 OA
ATOM     21  C   UNL A   1      28.890  30.926  21.502  1.00  0.00     0.468 C 
ENDBRANCH  12  13
ENDBRANCH   9  12
ENDBRANCH   8   9
ENDBRANCH   5   8
ENDBRANCH   3   5
ENDBRANCH   2   3
ENDBRANCH   1   2
BRANCH   1  22
ATOM     22  C   UNL A   1      31.841  29.904  25.239  1.00  0.00     0.275 C 
BRANCH  22  23
ATOM     23  O   UNL A   1      32.510  29.895  26.507  1.00  0.00    -0.458 OA
BRANCH  23  24
ATOM     24  C   UNL A   1      32.894  31.102  26.985  1.00  0.00     0.338 C 
ATOM     25  O   UNL A   1      32.290  32.155  26.868  1.00  0.00    -0.246 OA
BRANCH  24  26
ATOM     26  C   UNL A   1      34.211  30.957  27.655  1.00  0.00     0.060 A 
ATOM     27  C   UNL A   1      35.019  32.071  27.897  1.00  0.00     0.016 A 
ATOM     28  C   UNL A   1      34.660  29.692  28.028  1.00  0.00     0.016 A 
ATOM     29  C   UNL A   1      36.280  31.927  28.476  1.00  0.00     0.010 A 
ATOM     30  C   UNL A   1      35.888  29.557  28.687  1.00  0.00     0.010 A 
ATOM     31  C   UNL A   1      36.717  30.672  28.914  1.00  0.00    -0.014 A 
BRANCH  31  32
ATOM     32  C   UNL A   1      38.030  30.512  29.604  1.00  0.00     0.031 A 
ATOM     33  C   UNL A   1      39.105  29.661  28.981  1.00  0.00     0.074 A 
ATOM     34  C   UNL A   1      38.254  31.096  30.799  1.00  0.00     0.049 A 
ATOM     35  N   UNL A   1      40.204  29.190  29.511  1.00  0.00    -0.248 NA
ATOM     36  C   UNL A   1      38.899  29.274  27.577  1.00  0.00     0.031 C 
ATOM     37  C   UNL A   1      37.326  31.989  31.496  1.00  0.00     0.029 A 
ATOM     38  N   UNL A   1      39.332  31.017  31.649  1.00  0.00    -0.354 N 
ATOM     39  C   UNL A   1      40.796  28.405  28.527  1.00  0.00     0.074 A 
ATOM     40  C   UNL A   1      39.925  28.459  27.370  1.00  0.00     0.031 C 
ATOM     41  C   UNL A   1      37.879  32.388  32.651  1.00  0.00     0.029 A 
ATOM     42  C   UNL A   1      39.155  31.706  32.828  1.00  0.00     0.049 A 
ATOM     43  H   UNL A   1      40.152  30.516  31.434  1.00  0.00     0.167 HD
ATOM     44  C   UNL A   1      41.955  27.701  28.588  1.00  0.00     0.034 A 
ATOM     45  C   UNL A   1      39.900  31.740  33.951  1.00  0.00     0.034 A 
ATOM     46  C   UNL A   1      42.828  27.689  29.737  1.00  0.00     0.049 A 
ATOM     47  C   UNL A   1      41.152  30.905  34.018  1.00  0.00     0.074 A 
ATOM     48  C   UNL A   1      44.036  27.031  29.896  1.00  0.00     0.029 A 
ATOM     49  N   UNL A   1      42.591  28.369  30.925  1.00  0.00    -0.354 N 
ATOM     50  N   UNL A   1      41.668  30.113  33.107  1.00  0.00    -0.248 NA
ATOM     51  C   UNL A   1      41.910  30.951  35.276  1.00  0.00     0.031 C 
ATOM     52  C   UNL A   1      44.497  27.264  31.198  1.00  0.00     0.029 A 
ATOM     53  C   UNL A   1      43.614  28.124  31.830  1.00  0.00     0.049 A 
ATOM     54  H   UNL A   1      41.809  28.941  31.101  1.00  0.00     0.167 HD
ATOM     55  C   UNL A   1      42.817  29.576  33.679  1.00  0.00     0.074 A 
ATOM     56  C   UNL A   1      42.930  30.152  35.003  1.00  0.00     0.031 C 
ATOM     57  C   UNL A   1      43.699  28.685  33.158  1.00  0.00     0.034 A 
BRANCH  44  58
ATOM     58  C   UNL A   1      42.306  26.837  27.400  1.00  0.00     0.023 A 
ATOM     59  C   UNL A   1      41.926  25.486  27.317  1.00  0.00     0.031 A 
ATOM     60  C   UNL A   1      43.061  27.374  26.341  1.00  0.00     0.131 A 
ATOM     61  C   UNL A   1      42.361  24.702  26.236  1.00  0.00     0.055 A 
ATOM     62  C   UNL A   1      43.426  26.609  25.232  1.00  0.00     0.041 A 
ATOM     63  F   UNL A   1      43.470  28.653  26.374  1.00  0.00    -0.206 F 
ATOM     64  C   UNL A   1      43.089  25.260  25.182  1.00  0.00     0.022 A 
BRANCH  61  65
ATOM     65  S   UNL A   1      42.081  22.911  26.293  1.00  0.00     0.124 S 
ATOM     66  O   UNL A   1      40.624  22.841  26.375  1.00  0.00    -0.237 OA
ATOM     67  O   UNL A   1      42.672  22.458  25.040  1.00  0.00    -0.237 OA
ATOM     68  O   UNL A   1      42.785  22.491  27.502  1.00  0.00    -0.744 OA
ENDBRANCH  61  65
ENDBRANCH  44  58
BRANCH  45  69
ATOM     69  C   UNL A   1      39.444  32.524  35.135  1.00  0.00     0.023 A 
ATOM     70  C   UNL A   1      38.784  31.903  36.207  1.00  0.00     0.031 A 
ATOM     71  C   UNL A   1      39.635  33.917  35.194  1.00  0.00     0.131 A 
ATOM     72  C   UNL A   1      38.310  32.678  37.277  1.00  0.00     0.055 A 
ATOM     73  C   UNL A   1      39.210  34.675  36.286  1.00  0.00     0.041 A 
ATOM     74  F   UNL A   1      40.256  34.561  34.193  1.00  0.00    -0.206 F 
ATOM     75  C   UNL A   1      38.533  34.056  37.332  1.00  0.00     0.022 A 
BRANCH  72  76
ATOM     76  S   UNL A   1      37.329  31.867  38.571  1.00  0.00     0.124 S 
ATOM     77  O   UNL A   1      37.178  30.521  38.031  1.00  0.00    -0.237 OA
ATOM     78  O   UNL A   1      38.198  31.998  39.736  1.00  0.00    -0.237 OA
ATOM     79  O   UNL A   1      36.105  32.663  38.618  1.00  0.00    -0.744 OA
ENDBRANCH  72  76
ENDBRANCH  45  69
BRANCH  57  80
ATOM     80  C   UNL A   1      44.874  28.310  34.025  1.00  0.00     0.023 A 
ATOM     81  C   UNL A   1      44.831  27.194  34.881  1.00  0.00     0.031 A 
ATOM     82  C   UNL A   1      46.039  29.096  34.017  1.00  0.00     0.131 A 
ATOM     83  C   UNL A   1      45.912  26.929  35.734  1.00  0.00     0.055 A 
ATOM     84  C   UNL A   1      47.133  28.794  34.828  1.00  0.00     0.041 A 
ATOM     85  F   UNL A   1      46.131  30.173  33.221  1.00  0.00    -0.206 F 
ATOM     86  C   UNL A   1      47.068  27.713  35.703  1.00  0.00     0.022 A 
BRANCH  83  87
ATOM     87  S   UNL A   1      45.753  25.595  36.953  1.00  0.00     0.124 S 
ATOM     88  O   UNL A   1      47.147  25.230  37.186  1.00  0.00    -0.237 OA
ATOM     89  O   UNL A   1      45.074  26.260  38.060  1.00  0.00    -0.237 OA
ATOM     90  O   UNL A   1      44.957  24.586  36.256  1.00  0.00    -0.744 OA
ENDBRANCH  83  87
ENDBRANCH  57  80
ENDBRANCH  31  32
ENDBRANCH  24  26
ENDBRANCH  23  24
ENDBRANCH  22  23
ENDBRANCH   1  22
TORSDOF 18
ENDMDL
MODEL 2
REMARK VINA RESULT:     -10.8      5.565     10.440
REMARK SMILES CC(C)(C[NH2+]Cc1ccc2c(c1)OCO2)C(=O)OCCOC(=O)c1ccc(-c2c3nc(c(-c4cc(S(=O)(=O)[O-])ccc4F)c4ccc([nH]4)c(-c4cc(S(=O)(=O)[O-])ccc4F)c4nc(c(-c5cc(S(=O)(=O)[O-])ccc5F)c5ccc2[nH]5)C=C4)C=C3)cc1
REMARK SMILES IDX 19 1 18 2 16 3 17 4 2 5 1 6 3 7 4 8 5 9 6 12 7 13 8 14 12 15
REMARK SMILES IDX 9 16 11 17 10 18 13 19 15 20 14 21 20 22 21 23 22 24 23 25
REMARK SMILES IDX 24 26 25 27 86 28 26 29 85 30 27 31 28 32 29 33 79 34 30 35
REMARK SMILES IDX 84 36 78 37 80 38 31 39 83 40 77 41 76 42 32 44 64 45 44 46
REMARK SMILES IDX 63 47 45 48 48 49 62 50 81 51 46 52 47 53 61 55 82 56 49 57
REMARK SMILES IDX 33 58 34 59 42 60 35 61 41 62 43 63 40 64 36 65 37 66 38 67
REMARK SMILES IDX 39 68 65 69 66 70 74 71 67 72 73 73 75 74 72 75 68 76 69 77
REMARK SMILES IDX 70 78 71 79 50 80 51 81 59 82 52 83 58 84 60 85 57 86 53 87
REMARK SMILES IDX 54 88 55 89 56 90
REMARK H PARENT 5 10 5 11 80 43 48 54
REMARK Flexibility Score: inf
ROOT
ATOM      1  C   UNL A   1      35.116  21.474  26.231  1.00  0.00     0.274 C 
ENDROOT
BRANCH   1   2
ATOM      2  O   UNL A   1      34.860  22.875  26.002  1.00  0.00    -0.461 OA
BRANCH   2   3
ATOM      3  C   UNL A   1      33.550  23.253  26.005  1.00  0.00     0.317 C 
ATOM      4  O   UNL A   1      32.667  22.661  26.615  1.00  0.00    -0.251 OA
BRANCH   3   5
ATOM      5  C   UNL A   1      33.276  24.432  25.070  1.00  0.00     0.111 C 
ATOM      6  C   UNL A   1      34.429  25.456  25.130  1.00  0.00     0.029 C 
ATOM      7  C   UNL A   1      32.015  25.119  25.625  1.00  0.00     0.029 C 
BRANCH   5   8
ATOM      8  C   UNL A   1      33.011  24.007  23.605  1.00  0.00     0.279 C 
BRANCH   8   9
ATOM      9  N   UNL A   1      33.279  22.594  23.301  1.00  0.00    -0.342 N 
ATOM     10  H   UNL A   1      33.714  22.160  24.115  1.00  0.00     0.346 HD
ATOM     11  H   UNL A   1      33.892  22.562  22.486  1.00  0.00     0.346 HD
BRANCH   9  12
ATOM     12  C   UNL A   1      32.054  21.849  22.966  1.00  0.00     0.297 C 
BRANCH  12  13
ATOM     13  C   UNL A   1      32.171  20.375  23.285  1.00  0.00     0.010 A 
ATOM     14  C   UNL A   1      32.280  19.423  22.243  1.00  0.00     0.013 A 
ATOM     15  C   UNL A   1      32.274  19.951  24.621  1.00  0.00     0.060 A 
ATOM     16  C   UNL A   1      32.525  18.074  22.520  1.00  0.00     0.051 A 
ATOM     17  C   UNL A   1      32.516  18.616  24.862  1.00  0.00     0.166 A 
ATOM     18  C   UNL A   1      32.645  17.704  23.841  1.00  0.00     0.165 A 
ATOM     19  O   UNL A   1      32.681  18.051  26.086  1.00  0.00    -0.454 OA
ATOM     20  O   UNL A   1      32.912  16.450  24.297  1.00  0.00    -0.454 OA
ATOM     21  C   UNL A   1      32.941  16.682  25.724  1.00  0.00     0.468 C 
ENDBRANCH  12  13
ENDBRANCH   9  12
ENDBRANCH   8   9
ENDBRANCH   5   8
ENDBRANCH   3   5
ENDBRANCH   2   3
ENDBRANCH   1   2
BRANCH   1  22
ATOM     22  C   UNL A   1      35.988  20.907  25.110  1.00  0.00     0.275 C 
BRANCH  22  23
ATOM     23  O   UNL A   1      37.155  21.728  24.979  1.00  0.00    -0.458 OA
BRANCH  23  24
ATOM     24  C   UNL A   1      38.283  21.255  25.561  1.00  0.00     0.338 C 
ATOM     25  O   UNL A   1      38.608  20.086  25.669  1.00  0.00    -0.246 OA
BRANCH  24  26
ATOM     26  C   UNL A   1      39.063  22.399  26.096  1.00  0.00     0.060 A 
ATOM     27  C   UNL A   1      40.214  22.187  26.860  1.00  0.00     0.016 A 
ATOM     28  C   UNL A   1      38.633  23.702  25.855  1.00  0.00     0.016 A 
ATOM     29  C   UNL A   1      40.916  23.261  27.409  1.00  0.00     0.010 A 
ATOM     30  C   UNL A   1      39.385  24.782  26.334  1.00  0.00     0.010 A 
ATOM     31  C   UNL A   1      40.532  24.576  27.122  1.00  0.00    -0.014 A 
BRANCH  31  32
ATOM     32  C   UNL A   1      41.315  25.736  27.639  1.00  0.00     0.031 A 
ATOM     33  C   UNL A   1      40.642  26.771  28.499  1.00  0.00     0.074 A 
ATOM     34  C   UNL A   1      42.616  25.885  27.314  1.00  0.00     0.049 A 
ATOM     35  N   UNL A   1      41.055  27.964  28.842  1.00  0.00    -0.248 NA
ATOM     36  C   UNL A   1      39.315  26.419  29.026  1.00  0.00     0.031 C 
ATOM     37  C   UNL A   1      43.412  24.935  26.533  1.00  0.00     0.029 A 
ATOM     38  N   UNL A   1      43.500  26.901  27.592  1.00  0.00    -0.354 N 
ATOM     39  C   UNL A   1      40.019  28.529  29.578  1.00  0.00     0.074 A 
ATOM     40  C   UNL A   1      38.954  27.547  29.622  1.00  0.00     0.031 C 
ATOM     41  C   UNL A   1      44.664  25.403  26.412  1.00  0.00     0.029 A 
ATOM     42  C   UNL A   1      44.739  26.727  27.018  1.00  0.00     0.049 A 
ATOM     43  H   UNL A   1      43.268  27.679  28.150  1.00  0.00     0.167 HD
ATOM     44  C   UNL A   1      39.961  29.756  30.156  1.00  0.00     0.034 A 
ATOM     45  C   UNL A   1      45.797  27.558  26.931  1.00  0.00     0.034 A 
ATOM     46  C   UNL A   1      41.047  30.707  30.133  1.00  0.00     0.049 A 
ATOM     47  C   UNL A   1      45.690  28.936  27.528  1.00  0.00     0.074 A 
ATOM     48  C   UNL A   1      41.104  31.966  30.707  1.00  0.00     0.029 A 
ATOM     49  N   UNL A   1      42.269  30.505  29.505  1.00  0.00    -0.354 N 
ATOM     50  N   UNL A   1      44.681  29.486  28.164  1.00  0.00    -0.248 NA
ATOM     51  C   UNL A   1      46.858  29.814  27.377  1.00  0.00     0.031 C 
ATOM     52  C   UNL A   1      42.335  32.546  30.375  1.00  0.00     0.029 A 
ATOM     53  C   UNL A   1      43.075  31.625  29.653  1.00  0.00     0.049 A 
ATOM     54  H   UNL A   1      42.528  29.686  29.024  1.00  0.00     0.167 HD
ATOM     55  C   UNL A   1      45.098  30.771  28.497  1.00  0.00     0.074 A 
ATOM     56  C   UNL A   1      46.457  30.904  28.013  1.00  0.00     0.031 C 
ATOM     57  C   UNL A   1      44.419  31.753  29.142  1.00  0.00     0.034 A 
BRANCH  44  58
ATOM     58  C   UNL A   1      38.658  30.157  30.805  1.00  0.00     0.023 A 
ATOM     59  C   UNL A   1      37.677  30.897  30.121  1.00  0.00     0.031 A 
ATOM     60  C   UNL A   1      38.407  29.814  32.147  1.00  0.00     0.131 A 
ATOM     61  C   UNL A   1      36.525  31.327  30.800  1.00  0.00     0.055 A 
ATOM     62  C   UNL A   1      37.226  30.181  32.794  1.00  0.00     0.041 A 
ATOM     63  F   UNL A   1      39.315  29.127  32.857  1.00  0.00    -0.206 F 
ATOM     64  C   UNL A   1      36.282  30.955  32.125  1.00  0.00     0.022 A 
BRANCH  61  65
ATOM     65  S   UNL A   1      35.414  32.497  29.971  1.00  0.00     0.124 S 
ATOM     66  O   UNL A   1      36.311  33.618  29.703  1.00  0.00    -0.237 OA
ATOM     67  O   UNL A   1      34.971  31.740  28.806  1.00  0.00    -0.237 OA
ATOM     68  O   UNL A   1      34.382  32.760  30.972  1.00  0.00    -0.744 OA
ENDBRANCH  61  65
ENDBRANCH  44  58
BRANCH  45  69
ATOM     69  C   UNL A   1      47.018  27.147  26.179  1.00  0.00     0.023 A 
ATOM     70  C   UNL A   1      47.220  27.545  24.849  1.00  0.00     0.031 A 
ATOM     71  C   UNL A   1      47.988  26.320  26.776  1.00  0.00     0.131 A 
ATOM     72  C   UNL A   1      48.349  27.090  24.148  1.00  0.00     0.055 A 
ATOM     73  C   UNL A   1      49.134  25.914  26.092  1.00  0.00     0.041 A 
ATOM     74  F   UNL A   1      47.840  25.906  28.044  1.00  0.00    -0.206 F 
ATOM     75  C   UNL A   1      49.314  26.290  24.765  1.00  0.00     0.022 A 
BRANCH  72  76
ATOM     76  S   UNL A   1      48.502  27.497  22.386  1.00  0.00     0.124 S 
ATOM     77  O   UNL A   1      48.655  26.176  21.787  1.00  0.00    -0.237 OA
ATOM     78  O   UNL A   1      47.239  28.178  22.122  1.00  0.00    -0.237 OA
ATOM     79  O   UNL A   1      49.688  28.348  22.335  1.00  0.00    -0.744 OA
ENDBRANCH  72  76
ENDBRANCH  45  69
BRANCH  57  80
ATOM     80  C   UNL A   1      45.161  33.044  29.380  1.00  0.00     0.023 A 
ATOM     81  C   UNL A   1      45.067  34.123  28.482  1.00  0.00     0.031 A 
ATOM     82  C   UNL A   1      45.995  33.185  30.502  1.00  0.00     0.131 A 
ATOM     83  C   UNL A   1      45.839  35.275  28.693  1.00  0.00     0.055 A 
ATOM     84  C   UNL A   1      46.718  34.356  30.736  1.00  0.00     0.041 A 
ATOM     85  F   UNL A   1      46.123  32.185  31.388  1.00  0.00    -0.206 F 
ATOM     86  C   UNL A   1      46.652  35.404  29.822  1.00  0.00     0.022 A 
BRANCH  83  87
ATOM     87  S   UNL A   1      45.835  36.572  27.424  1.00  0.00     0.124 S 
ATOM     88  O   UNL A   1      44.665  36.213  26.628  1.00  0.00    -0.237 OA
ATOM     89  O   UNL A   1      45.716  37.788  28.220  1.00  0.00    -0.237 OA
ATOM     90  O   UNL A   1      47.121  36.396  26.750  1.00  0.00    -0.744 OA
ENDBRANCH  83  87
ENDBRANCH  57  80
ENDBRANCH  31  32
ENDBRANCH  24  26
ENDBRANCH  23  24
ENDBRANCH  22  23
ENDBRANCH   1  22
TORSDOF 18
ENDMDL
MODEL 3
REMARK VINA RESULT:     -10.8      5.149      9.735
REMARK SMILES CC(C)(C[NH2+]Cc1ccc2c(c1)OCO2)C(=O)OCCOC(=O)c1ccc(-c2c3nc(c(-c4cc(S(=O)(=O)[O-])ccc4F)c4ccc([nH]4)c(-c4cc(S(=O)(=O)[O-])ccc4F)c4nc(c(-c5cc(S(=O)(=O)[O-])ccc5F)c5ccc2[nH]5)C=C4)C=C3)cc1
REMARK SMILES IDX 19 1 18 2 16 3 17 4 2 5 1 6 3 7 4 8 5 9 6 12 7 13 8 14 12 15
REMARK SMILES IDX 9 16 11 17 10 18 13 19 15 20 14 21 20 22 21 23 22 24 23 25
REMARK SMILES IDX 24 26 25 27 86 28 26 29 85 30 27 31 28 32 29 33 79 34 30 35
REMARK SMILES IDX 84 36 78 37 80 38 31 39 83 40 77 41 76 42 32 44 64 45 44 46
REMARK SMILES IDX 63 47 45 48 48 49 62 50 81 51 46 52 47 53 61 55 82 56 49 57
REMARK SMILES IDX 33 58 34 59 42 60 35 61 41 62 43 63 40 64 36 65 37 66 38 67
REMARK SMILES IDX 39 68 65 69 66 70 74 71 67 72 73 73 75 74 72 75 68 76 69 77
REMARK SMILES IDX 70 78 71 79 50 80 51 81 59 82 52 83 58 84 60 85 57 86 53 87
REMARK SMILES IDX 54 88 55 89 56 90
REMARK H PARENT 5 10 5 11 80 43 48 54
REMARK Flexibility Score: inf
ROOT
ATOM      1  C   UNL A   1      34.912  20.956  24.671  1.00  0.00     0.274 C 
ENDROOT
BRANCH   1   2
ATOM      2  O   UNL A   1      34.078  20.950  25.847  1.00  0.00    -0.461 OA
BRANCH   2   3
ATOM      3  C   UNL A   1      32.828  21.473  25.698  1.00  0.00     0.317 C 
ATOM      4  O   UNL A   1      31.994  21.045  24.908  1.00  0.00    -0.251 OA
BRANCH   3   5
ATOM      5  C   UNL A   1      32.612  22.731  26.543  1.00  0.00     0.111 C 
ATOM      6  C   UNL A   1      33.257  23.959  25.868  1.00  0.00     0.029 C 
ATOM      7  C   UNL A   1      33.362  22.479  27.864  1.00  0.00     0.029 C 
BRANCH   5   8
ATOM      8  C   UNL A   1      31.123  23.012  26.858  1.00  0.00     0.279 C 
BRANCH   8   9
ATOM      9  N   UNL A   1      30.354  23.633  25.771  1.00  0.00    -0.342 N 
ATOM     10  H   UNL A   1      29.691  22.949  25.406  1.00  0.00     0.346 HD
ATOM     11  H   UNL A   1      31.015  23.933  25.054  1.00  0.00     0.346 HD
BRANCH   9  12
ATOM     12  C   UNL A   1      29.609  24.822  26.216  1.00  0.00     0.297 C 
BRANCH  12  13
ATOM     13  C   UNL A   1      30.106  26.092  25.560  1.00  0.00     0.010 A 
ATOM     14  C   UNL A   1      31.048  26.918  26.221  1.00  0.00     0.013 A 
ATOM     15  C   UNL A   1      29.711  26.407  24.249  1.00  0.00     0.060 A 
ATOM     16  C   UNL A   1      31.619  28.020  25.575  1.00  0.00     0.051 A 
ATOM     17  C   UNL A   1      30.292  27.498  23.641  1.00  0.00     0.166 A 
ATOM     18  C   UNL A   1      31.224  28.279  24.282  1.00  0.00     0.165 A 
ATOM     19  O   UNL A   1      30.053  27.914  22.370  1.00  0.00    -0.454 OA
ATOM     20  O   UNL A   1      31.692  29.282  23.492  1.00  0.00    -0.454 OA
ATOM     21  C   UNL A   1      30.948  29.038  22.276  1.00  0.00     0.468 C 
ENDBRANCH  12  13
ENDBRANCH   9  12
ENDBRANCH   8   9
ENDBRANCH   5   8
ENDBRANCH   3   5
ENDBRANCH   2   3
ENDBRANCH   1   2
BRANCH   1  22
ATOM     22  C   UNL A   1      36.260  20.302  24.977  1.00  0.00     0.275 C 
BRANCH  22  23
ATOM     23  O   UNL A   1      37.093  21.261  25.640  1.00  0.00    -0.458 OA
BRANCH  23  24
ATOM     24  C   UNL A   1      38.395  20.919  25.783  1.00  0.00     0.338 C 
ATOM     25  O   UNL A   1      38.883  19.820  25.584  1.00  0.00    -0.246 OA
BRANCH  24  26
ATOM     26  C   UNL A   1      39.152  22.100  26.270  1.00  0.00     0.060 A 
ATOM     27  C   UNL A   1      40.310  21.944  27.036  1.00  0.00     0.016 A 
ATOM     28  C   UNL A   1      38.691  23.383  25.979  1.00  0.00     0.016 A 
ATOM     29  C   UNL A   1      40.989  23.054  27.539  1.00  0.00     0.010 A 
ATOM     30  C   UNL A   1      39.421  24.497  26.412  1.00  0.00     0.010 A 
ATOM     31  C   UNL A   1      40.575  24.347  27.203  1.00  0.00    -0.014 A 
BRANCH  31  32
ATOM     32  C   UNL A   1      41.334  25.544  27.670  1.00  0.00     0.031 A 
ATOM     33  C   UNL A   1      40.636  26.607  28.475  1.00  0.00     0.074 A 
ATOM     34  C   UNL A   1      42.635  25.700  27.349  1.00  0.00     0.049 A 
ATOM     35  N   UNL A   1      41.026  27.822  28.764  1.00  0.00    -0.248 NA
ATOM     36  C   UNL A   1      39.310  26.257  29.007  1.00  0.00     0.031 C 
ATOM     37  C   UNL A   1      43.454  24.729  26.621  1.00  0.00     0.029 A 
ATOM     38  N   UNL A   1      43.499  26.744  27.586  1.00  0.00    -0.354 N 
ATOM     39  C   UNL A   1      39.974  28.403  29.464  1.00  0.00     0.074 A 
ATOM     40  C   UNL A   1      38.926  27.406  29.546  1.00  0.00     0.031 C 
ATOM     41  C   UNL A   1      44.699  25.211  26.487  1.00  0.00     0.029 A 
ATOM     42  C   UNL A   1      44.746  26.564  27.030  1.00  0.00     0.049 A 
ATOM     43  H   UNL A   1      43.250  27.543  28.104  1.00  0.00     0.167 HD
ATOM     44  C   UNL A   1      39.890  29.655  29.983  1.00  0.00     0.034 A 
ATOM     45  C   UNL A   1      45.790  27.407  26.912  1.00  0.00     0.034 A 
ATOM     46  C   UNL A   1      40.960  30.622  29.923  1.00  0.00     0.049 A 
ATOM     47  C   UNL A   1      45.655  28.810  27.443  1.00  0.00     0.074 A 
ATOM     48  C   UNL A   1      40.991  31.908  30.437  1.00  0.00     0.029 A 
ATOM     49  N   UNL A   1      42.191  30.412  29.315  1.00  0.00    -0.354 N 
ATOM     50  N   UNL A   1      44.632  29.372  28.043  1.00  0.00    -0.248 NA
ATOM     51  C   UNL A   1      46.810  29.700  27.260  1.00  0.00     0.031 C 
ATOM     52  C   UNL A   1      42.215  32.493  30.088  1.00  0.00     0.029 A 
ATOM     53  C   UNL A   1      42.977  31.551  29.417  1.00  0.00     0.049 A 
ATOM     54  H   UNL A   1      42.467  29.575  28.876  1.00  0.00     0.167 HD
ATOM     55  C   UNL A   1      45.024  30.679  28.318  1.00  0.00     0.074 A 
ATOM     56  C   UNL A   1      46.385  30.813  27.840  1.00  0.00     0.031 C 
ATOM     57  C   UNL A   1      44.323  31.678  28.910  1.00  0.00     0.034 A 
BRANCH  44  58
ATOM     58  C   UNL A   1      38.574  30.064  30.601  1.00  0.00     0.023 A 
ATOM     59  C   UNL A   1      37.576  30.727  29.867  1.00  0.00     0.031 A 
ATOM     60  C   UNL A   1      38.329  29.808  31.963  1.00  0.00     0.131 A 
ATOM     61  C   UNL A   1      36.410  31.171  30.514  1.00  0.00     0.055 A 
ATOM     62  C   UNL A   1      37.137  30.186  32.582  1.00  0.00     0.041 A 
ATOM     63  F   UNL A   1      39.255  29.197  32.720  1.00  0.00    -0.206 F 
ATOM     64  C   UNL A   1      36.174  30.886  31.861  1.00  0.00     0.022 A 
BRANCH  61  65
ATOM     65  S   UNL A   1      35.269  32.250  29.605  1.00  0.00     0.124 S 
ATOM     66  O   UNL A   1      34.407  32.739  30.678  1.00  0.00    -0.237 OA
ATOM     67  O   UNL A   1      36.168  33.231  29.010  1.00  0.00    -0.237 OA
ATOM     68  O   UNL A   1      34.621  31.344  28.659  1.00  0.00    -0.744 OA
ENDBRANCH  61  65
ENDBRANCH  44  58
BRANCH  45  69
ATOM     69  C   UNL A   1      47.025  26.983  26.191  1.00  0.00     0.023 A 
ATOM     70  C   UNL A   1      48.083  26.357  26.868  1.00  0.00     0.031 A 
ATOM     71  C   UNL A   1      47.177  27.230  24.814  1.00  0.00     0.131 A 
ATOM     72  C   UNL A   1      49.258  26.027  26.174  1.00  0.00     0.055 A 
ATOM     73  C   UNL A   1      48.325  26.852  24.117  1.00  0.00     0.041 A 
ATOM     74  F   UNL A   1      46.198  27.831  24.119  1.00  0.00    -0.206 F 
ATOM     75  C   UNL A   1      49.380  26.255  24.801  1.00  0.00     0.022 A 
BRANCH  72  76
ATOM     76  S   UNL A   1      50.663  25.359  27.109  1.00  0.00     0.124 S 
ATOM     77  O   UNL A   1      51.083  26.520  27.885  1.00  0.00    -0.237 OA
ATOM     78  O   UNL A   1      50.039  24.276  27.861  1.00  0.00    -0.237 OA
ATOM     79  O   UNL A   1      51.594  24.934  26.066  1.00  0.00    -0.744 OA
ENDBRANCH  72  76
ENDBRANCH  45  69
BRANCH  57  80
ATOM     80  C   UNL A   1      45.040  32.992  29.093  1.00  0.00     0.023 A 
ATOM     81  C   UNL A   1      45.037  33.978  28.089  1.00  0.00     0.031 A 
ATOM     82  C   UNL A   1      45.761  33.247  30.272  1.00  0.00     0.131 A 
ATOM     83  C   UNL A   1      45.787  35.150  28.262  1.00  0.00     0.055 A 
ATOM     84  C   UNL A   1      46.460  34.440  30.460  1.00  0.00     0.041 A 
ATOM     85  F   UNL A   1      45.800  32.339  31.259  1.00  0.00    -0.206 F 
ATOM     86  C   UNL A   1      46.486  35.394  29.446  1.00  0.00     0.022 A 
BRANCH  83  87
ATOM     87  S   UNL A   1      45.910  36.318  26.878  1.00  0.00     0.124 S 
ATOM     88  O   UNL A   1      47.153  37.020  27.184  1.00  0.00    -0.237 OA
ATOM     89  O   UNL A   1      45.946  35.431  25.722  1.00  0.00    -0.237 OA
ATOM     90  O   UNL A   1      44.697  37.125  27.002  1.00  0.00    -0.744 OA
ENDBRANCH  83  87
ENDBRANCH  57  80
ENDBRANCH  31  32
ENDBRANCH  24  26
ENDBRANCH  23  24
ENDBRANCH  22  23
ENDBRANCH   1  22
TORSDOF 18
ENDMDL
