MODEL 1
REMARK VINA RESULT:     -12.0      0.000      0.000
REMARK SMILES C[C@H]1[C@H](C(=O)OCCOC(=O)c2ccc(-c3c4nc(c(-c5cc(S(=O)(=O)[O-])ccc5F)c5ccc([nH]5)c(-c5cc(S(=O)(=O)[O-])ccc5F)c5nc(c(-c6cc(S(=O)(=O)[O-])ccc6F)c6ccc3[nH]6)C=C5)C=C4)cc2)CCN1C(=O)Nc1ccc(F)cc1
REMARK SMILES IDX 8 1 7 2 6 3 4 4 5 5 3 6 1 7 2 8 77 9 75 10 76 11 78 12 79 13
REMARK SMILES IDX 80 14 81 16 82 17 87 18 83 19 86 20 84 21 85 22 9 23 10 24
REMARK SMILES IDX 11 25 12 26 13 27 74 28 14 29 73 30 15 31 16 32 17 33 67 34
REMARK SMILES IDX 18 35 72 36 66 37 68 38 19 39 71 40 65 41 64 42 20 44 52 45
REMARK SMILES IDX 32 46 51 47 33 48 36 49 50 50 69 51 34 52 35 53 49 55 70 56
REMARK SMILES IDX 37 57 21 58 22 59 30 60 23 61 29 62 31 63 28 64 24 65 25 66
REMARK SMILES IDX 26 67 27 68 53 69 54 70 62 71 55 72 61 73 63 74 60 75 56 76
REMARK SMILES IDX 57 77 58 78 59 79 38 80 39 81 47 82 40 83 46 84 48 85 45 86
REMARK SMILES IDX 41 87 42 88 43 89 44 90
REMARK H PARENT 80 15 68 43 36 54
REMARK Flexibility Score: inf
ROOT
ATOM      1  C   UNL A   1      37.051  21.249  24.601  1.00  0.00     0.275 C 
ENDROOT
BRANCH   1   2
ATOM      2  C   UNL A   1      36.723  22.311  23.546  1.00  0.00     0.274 C 
BRANCH   2   3
ATOM      3  O   UNL A   1      36.059  23.455  24.118  1.00  0.00    -0.462 OA
BRANCH   3   4
ATOM      4  C   UNL A   1      34.767  23.647  23.744  1.00  0.00     0.311 C 
ATOM      5  O   UNL A   1      34.404  24.460  22.902  1.00  0.00    -0.252 OA
BRANCH   4   6
ATOM      6  C   UNL A   1      33.778  22.815  24.534  1.00  0.00     0.123 C 
ATOM      7  C   UNL A   1      33.731  22.636  27.060  1.00  0.00     0.032 C 
ATOM      8  C   UNL A   1      33.271  23.454  25.847  1.00  0.00     0.098 C 
ATOM      9  N   UNL A   1      31.806  23.468  25.725  1.00  0.00    -0.321 N 
ATOM     10  C   UNL A   1      32.536  22.558  23.685  1.00  0.00     0.039 C 
ATOM     11  C   UNL A   1      31.399  22.550  24.679  1.00  0.00     0.122 C 
BRANCH   9  12
ATOM     12  C   UNL A   1      30.841  23.974  26.554  1.00  0.00     0.322 C 
ATOM     13  O   UNL A   1      30.272  23.249  27.379  1.00  0.00    -0.248 OA
ATOM     14  N   UNL A   1      30.581  25.301  26.633  1.00  0.00    -0.308 N 
ATOM     15  H   UNL A   1      30.302  25.582  27.535  1.00  0.00     0.171 HD
BRANCH  14  16
ATOM     16  C   UNL A   1      30.621  26.361  25.722  1.00  0.00     0.043 A 
ATOM     17  C   UNL A   1      29.817  26.251  24.580  1.00  0.00     0.029 A 
ATOM     18  C   UNL A   1      31.451  27.472  25.875  1.00  0.00     0.029 A 
ATOM     19  C   UNL A   1      29.759  27.295  23.656  1.00  0.00     0.041 A 
ATOM     20  C   UNL A   1      31.401  28.512  24.943  1.00  0.00     0.041 A 
ATOM     21  C   UNL A   1      30.542  28.424  23.854  1.00  0.00     0.123 A 
ATOM     22  F   UNL A   1      30.479  29.434  22.978  1.00  0.00    -0.207 F 
ENDBRANCH  14  16
ENDBRANCH   9  12
ENDBRANCH   4   6
ENDBRANCH   3   4
ENDBRANCH   2   3
ENDBRANCH   1   2
BRANCH   1  23
ATOM     23  O   UNL A   1      37.536  21.831  25.824  1.00  0.00    -0.458 OA
BRANCH  23  24
ATOM     24  C   UNL A   1      38.843  21.597  26.081  1.00  0.00     0.338 C 
ATOM     25  O   UNL A   1      39.485  20.607  25.781  1.00  0.00    -0.246 OA
BRANCH  24  26
ATOM     26  C   UNL A   1      39.458  22.783  26.682  1.00  0.00     0.060 A 
ATOM     27  C   UNL A   1      39.060  24.040  26.219  1.00  0.00     0.016 A 
ATOM     28  C   UNL A   1      40.492  22.654  27.608  1.00  0.00     0.016 A 
ATOM     29  C   UNL A   1      39.711  25.184  26.665  1.00  0.00     0.010 A 
ATOM     30  C   UNL A   1      41.130  23.805  28.071  1.00  0.00     0.010 A 
ATOM     31  C   UNL A   1      40.751  25.073  27.593  1.00  0.00    -0.014 A 
BRANCH  31  32
ATOM     32  C   UNL A   1      41.469  26.280  28.056  1.00  0.00     0.031 A 
ATOM     33  C   UNL A   1      40.724  27.337  28.813  1.00  0.00     0.074 A 
ATOM     34  C   UNL A   1      42.776  26.427  27.768  1.00  0.00     0.049 A 
ATOM     35  N   UNL A   1      41.096  28.550  29.124  1.00  0.00    -0.248 NA
ATOM     36  C   UNL A   1      39.375  26.980  29.273  1.00  0.00     0.031 C 
ATOM     37  C   UNL A   1      43.608  25.424  27.101  1.00  0.00     0.029 A 
ATOM     38  N   UNL A   1      43.625  27.482  27.979  1.00  0.00    -0.354 N 
ATOM     39  C   UNL A   1      40.017  29.117  29.792  1.00  0.00     0.074 A 
ATOM     40  C   UNL A   1      38.973  28.113  29.831  1.00  0.00     0.031 C 
ATOM     41  C   UNL A   1      44.843  25.923  26.936  1.00  0.00     0.029 A 
ATOM     42  C   UNL A   1      44.868  27.299  27.421  1.00  0.00     0.049 A 
ATOM     43  H   UNL A   1      43.369  28.291  28.479  1.00  0.00     0.167 HD
ATOM     44  C   UNL A   1      39.912  30.364  30.313  1.00  0.00     0.034 A 
ATOM     45  C   UNL A   1      45.889  28.165  27.267  1.00  0.00     0.034 A 
ATOM     46  C   UNL A   1      40.973  31.342  30.251  1.00  0.00     0.049 A 
ATOM     47  C   UNL A   1      45.721  29.573  27.774  1.00  0.00     0.074 A 
ATOM     48  C   UNL A   1      40.983  32.639  30.734  1.00  0.00     0.029 A 
ATOM     49  N   UNL A   1      42.213  31.128  29.662  1.00  0.00    -0.354 N 
ATOM     50  N   UNL A   1      44.681  30.118  28.362  1.00  0.00    -0.248 NA
ATOM     51  C   UNL A   1      46.859  30.483  27.594  1.00  0.00     0.031 C 
ATOM     52  C   UNL A   1      42.206  33.225  30.387  1.00  0.00     0.029 A 
ATOM     53  C   UNL A   1      42.986  32.274  29.748  1.00  0.00     0.049 A 
ATOM     54  H   UNL A   1      42.501  30.285  29.244  1.00  0.00     0.167 HD
ATOM     55  C   UNL A   1      45.050  31.429  28.648  1.00  0.00     0.074 A 
ATOM     56  C   UNL A   1      46.408  31.591  28.166  1.00  0.00     0.031 C 
ATOM     57  C   UNL A   1      44.338  32.408  29.260  1.00  0.00     0.034 A 
BRANCH  44  58
ATOM     58  C   UNL A   1      38.589  30.752  30.922  1.00  0.00     0.023 A 
ATOM     59  C   UNL A   1      37.566  31.348  30.164  1.00  0.00     0.031 A 
ATOM     60  C   UNL A   1      38.362  30.559  32.297  1.00  0.00     0.131 A 
ATOM     61  C   UNL A   1      36.392  31.789  30.796  1.00  0.00     0.055 A 
ATOM     62  C   UNL A   1      37.163  30.933  32.906  1.00  0.00     0.041 A 
ATOM     63  F   UNL A   1      39.311  30.017  33.076  1.00  0.00    -0.206 F 
ATOM     64  C   UNL A   1      36.174  31.565  32.157  1.00  0.00     0.022 A 
BRANCH  61  65
ATOM     65  S   UNL A   1      35.212  32.783  29.841  1.00  0.00     0.124 S 
ATOM     66  O   UNL A   1      36.051  33.893  29.396  1.00  0.00    -0.237 OA
ATOM     67  O   UNL A   1      34.781  31.851  28.805  1.00  0.00    -0.237 OA
ATOM     68  O   UNL A   1      34.190  33.139  30.824  1.00  0.00    -0.744 OA
ENDBRANCH  61  65
ENDBRANCH  44  58
BRANCH  45  69
ATOM     69  C   UNL A   1      47.120  27.746  26.543  1.00  0.00     0.023 A 
ATOM     70  C   UNL A   1      47.236  27.906  25.155  1.00  0.00     0.031 A 
ATOM     71  C   UNL A   1      48.197  27.160  27.233  1.00  0.00     0.131 A 
ATOM     72  C   UNL A   1      48.391  27.457  24.494  1.00  0.00     0.055 A 
ATOM     73  C   UNL A   1      49.363  26.759  26.580  1.00  0.00     0.041 A 
ATOM     74  F   UNL A   1      48.137  26.986  28.563  1.00  0.00    -0.206 F 
ATOM     75  C   UNL A   1      49.460  26.897  25.199  1.00  0.00     0.022 A 
BRANCH  72  76
ATOM     76  S   UNL A   1      48.450  27.555  22.685  1.00  0.00     0.124 S 
ATOM     77  O   UNL A   1      47.232  28.301  22.388  1.00  0.00    -0.237 OA
ATOM     78  O   UNL A   1      49.706  28.262  22.461  1.00  0.00    -0.237 OA
ATOM     79  O   UNL A   1      48.441  26.154  22.268  1.00  0.00    -0.744 OA
ENDBRANCH  72  76
ENDBRANCH  45  69
BRANCH  57  80
ATOM     80  C   UNL A   1      45.044  33.716  29.499  1.00  0.00     0.023 A 
ATOM     81  C   UNL A   1      45.094  34.720  28.519  1.00  0.00     0.031 A 
ATOM     82  C   UNL A   1      45.660  33.958  30.740  1.00  0.00     0.131 A 
ATOM     83  C   UNL A   1      45.781  35.914  28.786  1.00  0.00     0.055 A 
ATOM     84  C   UNL A   1      46.304  35.165  31.014  1.00  0.00     0.041 A 
ATOM     85  F   UNL A   1      45.637  33.027  31.707  1.00  0.00    -0.206 F 
ATOM     86  C   UNL A   1      46.373  36.148  30.031  1.00  0.00     0.022 A 
BRANCH  83  87
ATOM     87  S   UNL A   1      45.931  37.150  27.466  1.00  0.00     0.124 S 
ATOM     88  O   UNL A   1      46.176  36.314  26.296  1.00  0.00    -0.237 OA
ATOM     89  O   UNL A   1      44.635  37.819  27.512  1.00  0.00    -0.237 OA
ATOM     90  O   UNL A   1      47.064  37.971  27.891  1.00  0.00    -0.744 OA
ENDBRANCH  83  87
ENDBRANCH  57  80
ENDBRANCH  31  32
ENDBRANCH  24  26
ENDBRANCH  23  24
ENDBRANCH   1  23
TORSDOF 16
ENDMDL
MODEL 2
REMARK VINA RESULT:     -12.0      1.281      1.827
REMARK SMILES C[C@H]1[C@H](C(=O)OCCOC(=O)c2ccc(-c3c4nc(c(-c5cc(S(=O)(=O)[O-])ccc5F)c5ccc([nH]5)c(-c5cc(S(=O)(=O)[O-])ccc5F)c5nc(c(-c6cc(S(=O)(=O)[O-])ccc6F)c6ccc3[nH]6)C=C5)C=C4)cc2)CCN1C(=O)Nc1ccc(F)cc1
REMARK SMILES IDX 8 1 7 2 6 3 4 4 5 5 3 6 1 7 2 8 77 9 75 10 76 11 78 12 79 13
REMARK SMILES IDX 80 14 81 16 82 17 87 18 83 19 86 20 84 21 85 22 9 23 10 24
REMARK SMILES IDX 11 25 12 26 13 27 74 28 14 29 73 30 15 31 16 32 17 33 67 34
REMARK SMILES IDX 18 35 72 36 66 37 68 38 19 39 71 40 65 41 64 42 20 44 52 45
REMARK SMILES IDX 32 46 51 47 33 48 36 49 50 50 69 51 34 52 35 53 49 55 70 56
REMARK SMILES IDX 37 57 21 58 22 59 30 60 23 61 29 62 31 63 28 64 24 65 25 66
REMARK SMILES IDX 26 67 27 68 53 69 54 70 62 71 55 72 61 73 63 74 60 75 56 76
REMARK SMILES IDX 57 77 58 78 59 79 38 80 39 81 47 82 40 83 46 84 48 85 45 86
REMARK SMILES IDX 41 87 42 88 43 89 44 90
REMARK H PARENT 80 15 68 43 36 54
REMARK Flexibility Score: inf
ROOT
ATOM      1  C   UNL A   1      36.578  20.756  25.044  1.00  0.00     0.275 C 
ENDROOT
BRANCH   1   2
ATOM      2  C   UNL A   1      35.073  20.913  25.288  1.00  0.00     0.274 C 
BRANCH   2   3
ATOM      3  O   UNL A   1      34.349  21.158  24.066  1.00  0.00    -0.462 OA
BRANCH   3   4
ATOM      4  C   UNL A   1      33.024  21.426  24.197  1.00  0.00     0.311 C 
ATOM      5  O   UNL A   1      32.141  20.577  24.180  1.00  0.00    -0.252 OA
BRANCH   4   6
ATOM      6  C   UNL A   1      32.712  22.906  24.282  1.00  0.00     0.123 C 
ATOM      7  C   UNL A   1      34.440  24.756  24.201  1.00  0.00     0.032 C 
ATOM      8  C   UNL A   1      33.560  23.818  23.366  1.00  0.00     0.098 C 
ATOM      9  N   UNL A   1      32.583  24.565  22.560  1.00  0.00    -0.321 N 
ATOM     10  C   UNL A   1      31.258  23.143  23.882  1.00  0.00     0.039 C 
ATOM     11  C   UNL A   1      31.277  24.483  23.185  1.00  0.00     0.122 C 
BRANCH   9  12
ATOM     12  C   UNL A   1      32.759  25.464  21.542  1.00  0.00     0.322 C 
ATOM     13  O   UNL A   1      33.159  25.093  20.432  1.00  0.00    -0.248 OA
ATOM     14  N   UNL A   1      32.354  26.752  21.640  1.00  0.00    -0.308 N 
ATOM     15  H   UNL A   1      32.056  27.125  20.778  1.00  0.00     0.171 HD
BRANCH  14  16
ATOM     16  C   UNL A   1      32.263  27.672  22.690  1.00  0.00     0.043 A 
ATOM     17  C   UNL A   1      30.997  28.208  22.959  1.00  0.00     0.029 A 
ATOM     18  C   UNL A   1      33.365  28.106  23.426  1.00  0.00     0.029 A 
ATOM     19  C   UNL A   1      30.816  29.085  24.029  1.00  0.00     0.041 A 
ATOM     20  C   UNL A   1      33.185  28.994  24.491  1.00  0.00     0.041 A 
ATOM     21  C   UNL A   1      31.911  29.459  24.795  1.00  0.00     0.123 A 
ATOM     22  F   UNL A   1      31.740  30.290  25.831  1.00  0.00    -0.207 F 
ENDBRANCH  14  16
ENDBRANCH   9  12
ENDBRANCH   4   6
ENDBRANCH   3   4
ENDBRANCH   2   3
ENDBRANCH   1   2
BRANCH   1  23
ATOM     23  O   UNL A   1      37.335  21.836  25.616  1.00  0.00    -0.458 OA
BRANCH  23  24
ATOM     24  C   UNL A   1      38.608  21.520  25.947  1.00  0.00     0.338 C 
ATOM     25  O   UNL A   1      39.194  20.480  25.705  1.00  0.00    -0.246 OA
BRANCH  24  26
ATOM     26  C   UNL A   1      39.273  22.677  26.551  1.00  0.00     0.060 A 
ATOM     27  C   UNL A   1      38.880  23.954  26.141  1.00  0.00     0.016 A 
ATOM     28  C   UNL A   1      40.345  22.504  27.425  1.00  0.00     0.016 A 
ATOM     29  C   UNL A   1      39.572  25.073  26.587  1.00  0.00     0.010 A 
ATOM     30  C   UNL A   1      41.026  23.629  27.889  1.00  0.00     0.010 A 
ATOM     31  C   UNL A   1      40.651  24.917  27.464  1.00  0.00    -0.014 A 
BRANCH  31  32
ATOM     32  C   UNL A   1      41.414  26.097  27.926  1.00  0.00     0.031 A 
ATOM     33  C   UNL A   1      40.718  27.159  28.722  1.00  0.00     0.074 A 
ATOM     34  C   UNL A   1      42.714  26.216  27.602  1.00  0.00     0.049 A 
ATOM     35  N   UNL A   1      41.131  28.356  29.043  1.00  0.00    -0.248 NA
ATOM     36  C   UNL A   1      39.374  26.827  29.216  1.00  0.00     0.031 C 
ATOM     37  C   UNL A   1      43.501  25.204  26.894  1.00  0.00     0.029 A 
ATOM     38  N   UNL A   1      43.596  27.245  27.806  1.00  0.00    -0.354 N 
ATOM     39  C   UNL A   1      40.086  28.938  29.753  1.00  0.00     0.074 A 
ATOM     40  C   UNL A   1      39.018  27.960  29.805  1.00  0.00     0.031 C 
ATOM     41  C   UNL A   1      44.743  25.674  26.701  1.00  0.00     0.029 A 
ATOM     42  C   UNL A   1      44.817  27.040  27.208  1.00  0.00     0.049 A 
ATOM     43  H   UNL A   1      43.376  28.051  28.327  1.00  0.00     0.167 HD
ATOM     44  C   UNL A   1      40.029  30.178  30.298  1.00  0.00     0.034 A 
ATOM     45  C   UNL A   1      45.855  27.884  27.039  1.00  0.00     0.034 A 
ATOM     46  C   UNL A   1      41.112  31.129  30.222  1.00  0.00     0.049 A 
ATOM     47  C   UNL A   1      45.739  29.286  27.575  1.00  0.00     0.074 A 
ATOM     48  C   UNL A   1      41.169  32.417  30.726  1.00  0.00     0.029 A 
ATOM     49  N   UNL A   1      42.329  30.894  29.593  1.00  0.00    -0.354 N 
ATOM     50  N   UNL A   1      44.730  29.847  28.203  1.00  0.00    -0.248 NA
ATOM     51  C   UNL A   1      46.894  30.170  27.376  1.00  0.00     0.031 C 
ATOM     52  C   UNL A   1      42.396  32.978  30.353  1.00  0.00     0.029 A 
ATOM     53  C   UNL A   1      43.133  32.019  29.674  1.00  0.00     0.049 A 
ATOM     54  H   UNL A   1      42.582  30.052  29.152  1.00  0.00     0.167 HD
ATOM     55  C   UNL A   1      45.142  31.142  28.500  1.00  0.00     0.074 A 
ATOM     56  C   UNL A   1      46.489  31.279  27.981  1.00  0.00     0.031 C 
ATOM     57  C   UNL A   1      44.473  32.128  29.149  1.00  0.00     0.034 A 
BRANCH  44  58
ATOM     58  C   UNL A   1      38.734  30.588  30.953  1.00  0.00     0.023 A 
ATOM     59  C   UNL A   1      37.688  31.183  30.226  1.00  0.00     0.031 A 
ATOM     60  C   UNL A   1      38.560  30.418  32.338  1.00  0.00     0.131 A 
ATOM     61  C   UNL A   1      36.544  31.645  30.897  1.00  0.00     0.055 A 
ATOM     62  C   UNL A   1      37.389  30.813  32.988  1.00  0.00     0.041 A 
ATOM     63  F   UNL A   1      39.534  29.878  33.088  1.00  0.00    -0.206 F 
ATOM     64  C   UNL A   1      36.378  31.443  32.269  1.00  0.00     0.022 A 
BRANCH  61  65
ATOM     65  S   UNL A   1      35.336  32.635  29.974  1.00  0.00     0.124 S 
ATOM     66  O   UNL A   1      36.157  33.754  29.516  1.00  0.00    -0.237 OA
ATOM     67  O   UNL A   1      34.889  31.706  28.943  1.00  0.00    -0.237 OA
ATOM     68  O   UNL A   1      34.333  32.979  30.981  1.00  0.00    -0.744 OA
ENDBRANCH  61  65
ENDBRANCH  44  58
BRANCH  45  69
ATOM     69  C   UNL A   1      47.053  27.447  26.271  1.00  0.00     0.023 A 
ATOM     70  C   UNL A   1      47.206  27.771  24.916  1.00  0.00     0.031 A 
ATOM     71  C   UNL A   1      48.060  26.678  26.884  1.00  0.00     0.131 A 
ATOM     72  C   UNL A   1      48.325  27.304  24.207  1.00  0.00     0.055 A 
ATOM     73  C   UNL A   1      49.194  26.256  26.189  1.00  0.00     0.041 A 
ATOM     74  F   UNL A   1      47.963  26.341  28.180  1.00  0.00    -0.206 F 
ATOM     75  C   UNL A   1      49.326  26.560  24.838  1.00  0.00     0.022 A 
BRANCH  72  76
ATOM     76  S   UNL A   1      48.421  27.627  22.426  1.00  0.00     0.124 S 
ATOM     77  O   UNL A   1      47.168  28.333  22.183  1.00  0.00    -0.237 OA
ATOM     78  O   UNL A   1      49.637  28.426  22.329  1.00  0.00    -0.237 OA
ATOM     79  O   UNL A   1      48.507  26.290  21.842  1.00  0.00    -0.744 OA
ENDBRANCH  72  76
ENDBRANCH  45  69
BRANCH  57  80
ATOM     80  C   UNL A   1      45.219  33.413  29.390  1.00  0.00     0.023 A 
ATOM     81  C   UNL A   1      45.145  34.491  28.493  1.00  0.00     0.031 A 
ATOM     82  C   UNL A   1      46.002  33.558  30.549  1.00  0.00     0.131 A 
ATOM     83  C   UNL A   1      45.876  35.660  28.755  1.00  0.00     0.055 A 
ATOM     84  C   UNL A   1      46.690  34.739  30.825  1.00  0.00     0.041 A 
ATOM     85  F   UNL A   1      46.101  32.553  31.435  1.00  0.00    -0.206 F 
ATOM     86  C   UNL A   1      46.635  35.796  29.921  1.00  0.00     0.022 A 
BRANCH  83  87
ATOM     87  S   UNL A   1      45.856  36.995  27.527  1.00  0.00     0.124 S 
ATOM     88  O   UNL A   1      46.696  38.004  28.163  1.00  0.00    -0.237 OA
ATOM     89  O   UNL A   1      46.421  36.347  26.347  1.00  0.00    -0.237 OA
ATOM     90  O   UNL A   1      44.441  37.344  27.421  1.00  0.00    -0.744 OA
ENDBRANCH  83  87
ENDBRANCH  57  80
ENDBRANCH  31  32
ENDBRANCH  24  26
ENDBRANCH  23  24
ENDBRANCH   1  23
TORSDOF 16
ENDMDL
MODEL 3
REMARK VINA RESULT:     -12.0      5.328     10.088
REMARK SMILES C[C@H]1[C@H](C(=O)OCCOC(=O)c2ccc(-c3c4nc(c(-c5cc(S(=O)(=O)[O-])ccc5F)c5ccc([nH]5)c(-c5cc(S(=O)(=O)[O-])ccc5F)c5nc(c(-c6cc(S(=O)(=O)[O-])ccc6F)c6ccc3[nH]6)C=C5)C=C4)cc2)CCN1C(=O)Nc1ccc(F)cc1
REMARK SMILES IDX 8 1 7 2 6 3 4 4 5 5 3 6 1 7 2 8 77 9 75 10 76 11 78 12 79 13
REMARK SMILES IDX 80 14 81 16 82 17 87 18 83 19 86 20 84 21 85 22 9 23 10 24
REMARK SMILES IDX 11 25 12 26 13 27 74 28 14 29 73 30 15 31 16 32 17 33 67 34
REMARK SMILES IDX 18 35 72 36 66 37 68 38 19 39 71 40 65 41 64 42 20 44 52 45
REMARK SMILES IDX 32 46 51 47 33 48 36 49 50 50 69 51 34 52 35 53 49 55 70 56
REMARK SMILES IDX 37 57 21 58 22 59 30 60 23 61 29 62 31 63 28 64 24 65 25 66
REMARK SMILES IDX 26 67 27 68 53 69 54 70 62 71 55 72 61 73 63 74 60 75 56 76
REMARK SMILES IDX 57 77 58 78 59 79 38 80 39 81 47 82 40 83 46 84 48 85 45 86
REMARK SMILES IDX 41 87 42 88 43 89 44 90
REMARK H PARENT 80 15 68 43 36 54
REMARK Flexibility Score: inf
ROOT
ATOM      1  C   UNL A   1      31.682  29.645  26.023  1.00  0.00     0.275 C 
ENDROOT
BRANCH   1   2
ATOM      2  C   UNL A   1      31.110  29.332  24.636  1.00  0.00     0.274 C 
BRANCH   2   3
ATOM      3  O   UNL A   1      30.581  27.994  24.558  1.00  0.00    -0.462 OA
BRANCH   3   4
ATOM      4  C   UNL A   1      30.892  27.290  23.439  1.00  0.00     0.311 C 
ATOM      5  O   UNL A   1      30.526  27.589  22.309  1.00  0.00    -0.252 OA
BRANCH   4   6
ATOM      6  C   UNL A   1      31.677  26.025  23.720  1.00  0.00     0.123 C 
ATOM      7  C   UNL A   1      33.273  25.713  25.661  1.00  0.00     0.032 C 
ATOM      8  C   UNL A   1      31.809  25.641  25.211  1.00  0.00     0.098 C 
ATOM      9  N   UNL A   1      31.279  24.272  25.302  1.00  0.00    -0.321 N 
ATOM     10  C   UNL A   1      30.994  24.841  23.039  1.00  0.00     0.039 C 
ATOM     11  C   UNL A   1      31.234  23.682  23.978  1.00  0.00     0.122 C 
BRANCH   9  12
ATOM     12  C   UNL A   1      31.089  23.454  26.383  1.00  0.00     0.322 C 
ATOM     13  O   UNL A   1      30.253  23.735  27.251  1.00  0.00    -0.248 OA
ATOM     14  N   UNL A   1      31.669  22.234  26.475  1.00  0.00    -0.308 N 
ATOM     15  H   UNL A   1      31.109  21.580  26.954  1.00  0.00     0.171 HD
BRANCH  14  16
ATOM     16  C   UNL A   1      32.884  21.693  26.041  1.00  0.00     0.043 A 
ATOM     17  C   UNL A   1      34.055  22.334  26.468  1.00  0.00     0.029 A 
ATOM     18  C   UNL A   1      32.972  20.602  25.177  1.00  0.00     0.029 A 
ATOM     19  C   UNL A   1      35.305  21.818  26.126  1.00  0.00     0.041 A 
ATOM     20  C   UNL A   1      34.225  20.093  24.824  1.00  0.00     0.041 A 
ATOM     21  C   UNL A   1      35.378  20.692  25.317  1.00  0.00     0.123 A 
ATOM     22  F   UNL A   1      36.576  20.185  24.997  1.00  0.00    -0.207 F 
ENDBRANCH  14  16
ENDBRANCH   9  12
ENDBRANCH   4   6
ENDBRANCH   3   4
ENDBRANCH   2   3
ENDBRANCH   1   2
BRANCH   1  23
ATOM     23  O   UNL A   1      33.017  30.174  25.952  1.00  0.00    -0.458 OA
BRANCH  23  24
ATOM     24  C   UNL A   1      33.295  31.131  26.867  1.00  0.00     0.338 C 
ATOM     25  O   UNL A   1      32.554  32.019  27.250  1.00  0.00    -0.246 OA
BRANCH  24  26
ATOM     26  C   UNL A   1      34.609  30.888  27.467  1.00  0.00     0.060 A 
ATOM     27  C   UNL A   1      34.916  29.590  27.884  1.00  0.00     0.016 A 
ATOM     28  C   UNL A   1      35.481  31.946  27.716  1.00  0.00     0.016 A 
ATOM     29  C   UNL A   1      36.094  29.341  28.577  1.00  0.00     0.010 A 
ATOM     30  C   UNL A   1      36.675  31.691  28.393  1.00  0.00     0.010 A 
ATOM     31  C   UNL A   1      36.981  30.392  28.836  1.00  0.00    -0.014 A 
BRANCH  31  32
ATOM     32  C   UNL A   1      38.226  30.146  29.595  1.00  0.00     0.031 A 
ATOM     33  C   UNL A   1      39.250  29.199  29.047  1.00  0.00     0.074 A 
ATOM     34  C   UNL A   1      38.412  30.755  30.781  1.00  0.00     0.049 A 
ATOM     35  N   UNL A   1      40.297  28.682  29.632  1.00  0.00    -0.248 NA
ATOM     36  C   UNL A   1      39.061  28.772  27.653  1.00  0.00     0.031 C 
ATOM     37  C   UNL A   1      37.512  31.749  31.368  1.00  0.00     0.029 A 
ATOM     38  N   UNL A   1      39.406  30.610  31.713  1.00  0.00    -0.354 N 
ATOM     39  C   UNL A   1      40.881  27.843  28.690  1.00  0.00     0.074 A 
ATOM     40  C   UNL A   1      40.061  27.916  27.498  1.00  0.00     0.031 C 
ATOM     41  C   UNL A   1      37.983  32.107  32.572  1.00  0.00     0.029 A 
ATOM     42  C   UNL A   1      39.175  31.319  32.868  1.00  0.00     0.049 A 
ATOM     43  H   UNL A   1      40.206  30.054  31.570  1.00  0.00     0.167 HD
ATOM     44  C   UNL A   1      41.992  27.078  28.820  1.00  0.00     0.034 A 
ATOM     45  C   UNL A   1      39.819  31.289  34.052  1.00  0.00     0.034 A 
ATOM     46  C   UNL A   1      42.783  27.026  30.027  1.00  0.00     0.049 A 
ATOM     47  C   UNL A   1      41.000  30.368  34.206  1.00  0.00     0.074 A 
ATOM     48  C   UNL A   1      43.923  26.284  30.283  1.00  0.00     0.029 A 
ATOM     49  N   UNL A   1      42.509  27.745  31.185  1.00  0.00    -0.354 N 
ATOM     50  N   UNL A   1      41.518  29.540  33.328  1.00  0.00    -0.248 NA
ATOM     51  C   UNL A   1      41.678  30.370  35.508  1.00  0.00     0.031 C 
ATOM     52  C   UNL A   1      44.304  26.511  31.611  1.00  0.00     0.029 A 
ATOM     53  C   UNL A   1      43.441  27.446  32.164  1.00  0.00     0.049 A 
ATOM     54  H   UNL A   1      41.759  28.373  31.294  1.00  0.00     0.167 HD
ATOM     55  C   UNL A   1      42.604  28.944  33.963  1.00  0.00     0.074 A 
ATOM     56  C   UNL A   1      42.662  29.507  35.298  1.00  0.00     0.031 C 
ATOM     57  C   UNL A   1      43.477  28.022  33.487  1.00  0.00     0.034 A 
BRANCH  44  58
ATOM     58  C   UNL A   1      42.365  26.193  27.658  1.00  0.00     0.023 A 
ATOM     59  C   UNL A   1      41.882  24.878  27.538  1.00  0.00     0.031 A 
ATOM     60  C   UNL A   1      43.253  26.660  26.672  1.00  0.00     0.131 A 
ATOM     61  C   UNL A   1      42.340  24.056  26.496  1.00  0.00     0.055 A 
ATOM     62  C   UNL A   1      43.648  25.862  25.597  1.00  0.00     0.041 A 
ATOM     63  F   UNL A   1      43.767  27.898  26.747  1.00  0.00    -0.206 F 
ATOM     64  C   UNL A   1      43.202  24.546  25.512  1.00  0.00     0.022 A 
BRANCH  61  65
ATOM     65  S   UNL A   1      41.901  22.296  26.521  1.00  0.00     0.124 S 
ATOM     66  O   UNL A   1      40.446  22.351  26.397  1.00  0.00    -0.237 OA
ATOM     67  O   UNL A   1      42.622  21.775  25.365  1.00  0.00    -0.237 OA
ATOM     68  O   UNL A   1      42.392  21.838  27.820  1.00  0.00    -0.744 OA
ENDBRANCH  61  65
ENDBRANCH  44  58
BRANCH  45  69
ATOM     69  C   UNL A   1      39.317  32.100  35.196  1.00  0.00     0.023 A 
ATOM     70  C   UNL A   1      38.653  31.499  36.275  1.00  0.00     0.031 A 
ATOM     71  C   UNL A   1      39.480  33.497  35.214  1.00  0.00     0.131 A 
ATOM     72  C   UNL A   1      38.150  32.297  37.315  1.00  0.00     0.055 A 
ATOM     73  C   UNL A   1      39.020  34.281  36.273  1.00  0.00     0.041 A 
ATOM     74  F   UNL A   1      40.110  34.120  34.206  1.00  0.00    -0.206 F 
ATOM     75  C   UNL A   1      38.341  33.681  37.328  1.00  0.00     0.022 A 
BRANCH  72  76
ATOM     76  S   UNL A   1      37.179  31.503  38.626  1.00  0.00     0.124 S 
ATOM     77  O   UNL A   1      38.074  31.620  39.771  1.00  0.00    -0.237 OA
ATOM     78  O   UNL A   1      35.981  32.334  38.660  1.00  0.00    -0.237 OA
ATOM     79  O   UNL A   1      36.980  30.144  38.125  1.00  0.00    -0.744 OA
ENDBRANCH  72  76
ENDBRANCH  45  69
BRANCH  57  80
ATOM     80  C   UNL A   1      44.608  27.621  34.396  1.00  0.00     0.023 A 
ATOM     81  C   UNL A   1      44.524  26.492  35.227  1.00  0.00     0.031 A 
ATOM     82  C   UNL A   1      45.791  28.380  34.414  1.00  0.00     0.131 A 
ATOM     83  C   UNL A   1      45.599  26.172  36.070  1.00  0.00     0.055 A 
ATOM     84  C   UNL A   1      46.873  28.031  35.222  1.00  0.00     0.041 A 
ATOM     85  F   UNL A   1      45.916  29.468  33.636  1.00  0.00    -0.206 F 
ATOM     86  C   UNL A   1      46.777  26.925  36.062  1.00  0.00     0.022 A 
BRANCH  83  87
ATOM     87  S   UNL A   1      45.425  24.776  37.216  1.00  0.00     0.124 S 
ATOM     88  O   UNL A   1      46.812  24.362  37.402  1.00  0.00    -0.237 OA
ATOM     89  O   UNL A   1      44.784  25.395  38.372  1.00  0.00    -0.237 OA
ATOM     90  O   UNL A   1      44.589  23.830  36.481  1.00  0.00    -0.744 OA
ENDBRANCH  83  87
ENDBRANCH  57  80
ENDBRANCH  31  32
ENDBRANCH  24  26
ENDBRANCH  23  24
ENDBRANCH   1  23
TORSDOF 16
ENDMDL
