MODEL 1
REMARK VINA RESULT:     -11.6      0.000      0.000
REMARK SMILES CCCC[C@@H](C(=O)OCCOC(=O)c1ccc(-c2c3nc(c(-c4cc(S(=O)(=O)[O-])ccc4F)c4ccc([nH]4)c(-c4cc(S(=O)(=O)[O-])ccc4F)c4nc(c(-c5cc(S(=O)(=O)[O-])ccc5F)c5ccc2[nH]5)C=C4)C=C3)cc1)C1(O)Cc2ccccc2C1
REMARK SMILES IDX 9 1 8 2 6 3 7 4 5 5 4 6 3 7 2 8 1 9 77 10 79 11 86 12 80 13
REMARK SMILES IDX 85 14 81 15 84 16 82 17 83 18 78 19 10 21 11 22 12 23 13 24
REMARK SMILES IDX 14 25 15 26 76 27 16 28 75 29 17 30 18 31 19 32 69 33 20 34
REMARK SMILES IDX 74 35 68 36 70 37 21 38 73 39 67 40 66 41 22 43 54 44 34 45
REMARK SMILES IDX 53 46 35 47 38 48 52 49 71 50 36 51 37 52 51 54 72 55 39 56
REMARK SMILES IDX 23 57 24 58 32 59 25 60 31 61 33 62 30 63 26 64 27 65 28 66
REMARK SMILES IDX 29 67 55 68 56 69 64 70 57 71 63 72 65 73 62 74 58 75 59 76
REMARK SMILES IDX 60 77 61 78 40 79 41 80 49 81 42 82 48 83 50 84 47 85 43 86
REMARK SMILES IDX 44 87 45 88 46 89
REMARK H PARENT 78 20 70 42 38 53
REMARK Flexibility Score: inf
ROOT
ATOM      1  C   UNL A   1      33.761  20.472  25.383  1.00  0.00     0.274 C 
ENDROOT
BRANCH   1   2
ATOM      2  O   UNL A   1      33.103  21.470  24.583  1.00  0.00    -0.462 OA
BRANCH   2   3
ATOM      3  C   UNL A   1      32.096  22.166  25.152  1.00  0.00     0.312 C 
ATOM      4  O   UNL A   1      31.115  21.633  25.663  1.00  0.00    -0.252 OA
BRANCH   3   5
ATOM      5  C   UNL A   1      32.267  23.698  25.048  1.00  0.00     0.131 C 
BRANCH   5   6
ATOM      6  C   UNL A   1      33.702  24.193  24.768  1.00  0.00     0.018 C 
BRANCH   6   7
ATOM      7  C   UNL A   1      34.074  24.518  23.325  1.00  0.00     0.001 C 
BRANCH   7   8
ATOM      8  C   UNL A   1      32.933  24.357  22.331  1.00  0.00    -0.003 C 
ATOM      9  C   UNL A   1      32.454  25.690  21.776  1.00  0.00     0.004 C 
ENDBRANCH   7   8
ENDBRANCH   6   7
ENDBRANCH   5   6
BRANCH   5  10
ATOM     10  C   UNL A   1      31.602  24.541  26.208  1.00  0.00     0.086 C 
ATOM     11  C   UNL A   1      30.048  24.875  26.013  1.00  0.00     0.072 C 
ATOM     12  C   UNL A   1      32.335  25.904  26.422  1.00  0.00     0.072 C 
ATOM     13  C   UNL A   1      30.103  26.017  25.057  1.00  0.00    -0.042 A 
ATOM     14  C   UNL A   1      31.766  26.688  25.263  1.00  0.00    -0.042 A 
ATOM     15  C   UNL A   1      28.950  26.726  23.857  1.00  0.00     0.004 A 
ATOM     16  C   UNL A   1      32.229  28.247  24.454  1.00  0.00     0.004 A 
ATOM     17  C   UNL A   1      29.496  28.153  22.843  1.00  0.00     0.000 A 
ATOM     18  C   UNL A   1      31.070  29.000  23.239  1.00  0.00     0.000 A 
BRANCH  10  19
ATOM     19  O   UNL A   1      31.699  23.770  27.425  1.00  0.00    -0.388 OA
ATOM     20  H   UNL A   1      32.210  24.266  28.083  1.00  0.00     0.211 HD
ENDBRANCH  10  19
ENDBRANCH   5  10
ENDBRANCH   3   5
ENDBRANCH   2   3
ENDBRANCH   1   2
BRANCH   1  21
ATOM     21  C   UNL A   1      35.228  20.406  24.979  1.00  0.00     0.275 C 
BRANCH  21  22
ATOM     22  O   UNL A   1      35.985  21.389  25.721  1.00  0.00    -0.458 OA
BRANCH  22  23
ATOM     23  C   UNL A   1      37.485  21.428  25.609  1.00  0.00     0.338 C 
ATOM     24  O   UNL A   1      37.699  20.385  24.933  1.00  0.00    -0.246 OA
BRANCH  23  25
ATOM     25  C   UNL A   1      38.796  22.897  26.480  1.00  0.00     0.060 A 
ATOM     26  C   UNL A   1      38.740  24.388  26.350  1.00  0.00     0.016 A 
ATOM     27  C   UNL A   1      40.046  22.764  27.329  1.00  0.00     0.016 A 
ATOM     28  C   UNL A   1      39.743  25.321  26.418  1.00  0.00     0.010 A 
ATOM     29  C   UNL A   1      40.881  23.789  27.814  1.00  0.00     0.010 A 
ATOM     30  C   UNL A   1      40.708  25.067  27.334  1.00  0.00    -0.014 A 
BRANCH  30  31
ATOM     31  C   UNL A   1      41.456  26.217  27.802  1.00  0.00     0.031 A 
ATOM     32  C   UNL A   1      40.736  27.154  28.683  1.00  0.00     0.074 A 
ATOM     33  C   UNL A   1      42.755  26.299  27.456  1.00  0.00     0.049 A 
ATOM     34  N   UNL A   1      41.066  28.362  29.012  1.00  0.00    -0.248 NA
ATOM     35  C   UNL A   1      39.448  26.689  29.229  1.00  0.00     0.031 C 
ATOM     36  C   UNL A   1      43.509  25.281  26.697  1.00  0.00     0.029 A 
ATOM     37  N   UNL A   1      43.688  27.253  27.714  1.00  0.00    -0.354 N 
ATOM     38  C   UNL A   1      39.993  28.837  29.745  1.00  0.00     0.074 A 
ATOM     39  C   UNL A   1      38.997  27.792  29.802  1.00  0.00     0.031 C 
ATOM     40  C   UNL A   1      44.791  25.649  26.599  1.00  0.00     0.029 A 
ATOM     41  C   UNL A   1      44.904  26.993  27.126  1.00  0.00     0.049 A 
ATOM     42  H   UNL A   1      43.511  28.051  28.264  1.00  0.00     0.167 HD
ATOM     43  C   UNL A   1      39.886  30.069  30.283  1.00  0.00     0.034 A 
ATOM     44  C   UNL A   1      45.952  27.811  26.951  1.00  0.00     0.034 A 
ATOM     45  C   UNL A   1      40.949  31.029  30.146  1.00  0.00     0.049 A 
ATOM     46  C   UNL A   1      45.766  29.208  27.471  1.00  0.00     0.074 A 
ATOM     47  C   UNL A   1      41.001  32.336  30.577  1.00  0.00     0.029 A 
ATOM     48  N   UNL A   1      42.165  30.762  29.510  1.00  0.00    -0.354 N 
ATOM     49  N   UNL A   1      44.714  29.719  28.078  1.00  0.00    -0.248 NA
ATOM     50  C   UNL A   1      46.873  30.141  27.280  1.00  0.00     0.031 C 
ATOM     51  C   UNL A   1      42.210  32.879  30.131  1.00  0.00     0.029 A 
ATOM     52  C   UNL A   1      42.964  31.885  29.517  1.00  0.00     0.049 A 
ATOM     53  H   UNL A   1      42.415  29.895  29.115  1.00  0.00     0.167 HD
ATOM     54  C   UNL A   1      45.045  31.029  28.378  1.00  0.00     0.074 A 
ATOM     55  C   UNL A   1      46.399  31.223  27.882  1.00  0.00     0.031 C 
ATOM     56  C   UNL A   1      44.316  31.985  29.008  1.00  0.00     0.034 A 
BRANCH  43  57
ATOM     57  C   UNL A   1      38.572  30.421  30.918  1.00  0.00     0.023 A 
ATOM     58  C   UNL A   1      37.520  30.995  30.182  1.00  0.00     0.031 A 
ATOM     59  C   UNL A   1      38.415  30.302  32.309  1.00  0.00     0.131 A 
ATOM     60  C   UNL A   1      36.402  31.513  30.851  1.00  0.00     0.055 A 
ATOM     61  C   UNL A   1      37.255  30.730  32.957  1.00  0.00     0.041 A 
ATOM     62  F   UNL A   1      39.406  29.814  33.071  1.00  0.00    -0.206 F 
ATOM     63  C   UNL A   1      36.247  31.355  32.230  1.00  0.00     0.022 A 
BRANCH  60  64
ATOM     64  S   UNL A   1      35.247  32.561  29.923  1.00  0.00     0.124 S 
ATOM     65  O   UNL A   1      34.311  32.963  30.970  1.00  0.00    -0.237 OA
ATOM     66  O   UNL A   1      36.116  33.612  29.407  1.00  0.00    -0.237 OA
ATOM     67  O   UNL A   1      34.696  31.655  28.917  1.00  0.00    -0.744 OA
ENDBRANCH  60  64
ENDBRANCH  43  57
BRANCH  44  68
ATOM     68  C   UNL A   1      47.165  27.369  26.209  1.00  0.00     0.023 A 
ATOM     69  C   UNL A   1      47.350  27.731  24.870  1.00  0.00     0.031 A 
ATOM     70  C   UNL A   1      48.154  26.566  26.813  1.00  0.00     0.131 A 
ATOM     71  C   UNL A   1      48.461  27.249  24.160  1.00  0.00     0.055 A 
ATOM     72  C   UNL A   1      49.294  26.146  26.123  1.00  0.00     0.041 A 
ATOM     73  F   UNL A   1      48.039  26.188  28.096  1.00  0.00    -0.206 F 
ATOM     74  C   UNL A   1      49.443  26.474  24.780  1.00  0.00     0.022 A 
BRANCH  71  75
ATOM     75  S   UNL A   1      48.535  27.555  22.376  1.00  0.00     0.124 S 
ATOM     76  O   UNL A   1      47.295  28.290  22.153  1.00  0.00    -0.237 OA
ATOM     77  O   UNL A   1      49.768  28.324  22.253  1.00  0.00    -0.237 OA
ATOM     78  O   UNL A   1      48.578  26.212  21.803  1.00  0.00    -0.744 OA
ENDBRANCH  71  75
ENDBRANCH  44  68
BRANCH  56  79
ATOM     79  C   UNL A   1      45.018  33.284  29.264  1.00  0.00     0.023 A 
ATOM     80  C   UNL A   1      44.924  34.361  28.373  1.00  0.00     0.031 A 
ATOM     81  C   UNL A   1      45.742  33.448  30.458  1.00  0.00     0.131 A 
ATOM     82  C   UNL A   1      45.580  35.557  28.678  1.00  0.00     0.055 A 
ATOM     83  C   UNL A   1      46.324  34.665  30.790  1.00  0.00     0.041 A 
ATOM     84  F   UNL A   1      45.860  32.434  31.331  1.00  0.00    -0.206 F 
ATOM     85  C   UNL A   1      46.252  35.726  29.893  1.00  0.00     0.022 A 
BRANCH  82  86
ATOM     86  S   UNL A   1      45.612  36.863  27.425  1.00  0.00     0.124 S 
ATOM     87  O   UNL A   1      46.613  37.775  27.965  1.00  0.00    -0.237 OA
ATOM     88  O   UNL A   1      45.998  36.133  26.221  1.00  0.00    -0.237 OA
ATOM     89  O   UNL A   1      44.241  37.371  27.429  1.00  0.00    -0.744 OA
ENDBRANCH  82  86
ENDBRANCH  56  79
ENDBRANCH  30  31
ENDBRANCH  23  25
ENDBRANCH  22  23
ENDBRANCH  21  22
ENDBRANCH   1  21
TORSDOF 19
ENDMDL
MODEL 2
REMARK VINA RESULT:     -11.6      5.116      9.919
REMARK SMILES CCCC[C@@H](C(=O)OCCOC(=O)c1ccc(-c2c3nc(c(-c4cc(S(=O)(=O)[O-])ccc4F)c4ccc([nH]4)c(-c4cc(S(=O)(=O)[O-])ccc4F)c4nc(c(-c5cc(S(=O)(=O)[O-])ccc5F)c5ccc2[nH]5)C=C4)C=C3)cc1)C1(O)Cc2ccccc2C1
REMARK SMILES IDX 9 1 8 2 6 3 7 4 5 5 4 6 3 7 2 8 1 9 77 10 79 11 86 12 80 13
REMARK SMILES IDX 85 14 81 15 84 16 82 17 83 18 78 19 10 21 11 22 12 23 13 24
REMARK SMILES IDX 14 25 15 26 76 27 16 28 75 29 17 30 18 31 19 32 69 33 20 34
REMARK SMILES IDX 74 35 68 36 70 37 21 38 73 39 67 40 66 41 22 43 54 44 34 45
REMARK SMILES IDX 53 46 35 47 38 48 52 49 71 50 36 51 37 52 51 54 72 55 39 56
REMARK SMILES IDX 23 57 24 58 32 59 25 60 31 61 33 62 30 63 26 64 27 65 28 66
REMARK SMILES IDX 29 67 55 68 56 69 64 70 57 71 63 72 65 73 62 74 58 75 59 76
REMARK SMILES IDX 60 77 61 78 40 79 41 80 49 81 42 82 48 83 50 84 47 85 43 86
REMARK SMILES IDX 44 87 45 88 46 89
REMARK H PARENT 78 20 70 42 38 53
REMARK Flexibility Score: inf
ROOT
ATOM      1  C   UNL A   1      31.579  28.143  24.039  1.00  0.00     0.274 C 
ENDROOT
BRANCH   1   2
ATOM      2  O   UNL A   1      31.196  27.220  25.073  1.00  0.00    -0.462 OA
BRANCH   2   3
ATOM      3  C   UNL A   1      30.421  26.172  24.723  1.00  0.00     0.312 C 
ATOM      4  O   UNL A   1      29.235  26.282  24.427  1.00  0.00    -0.252 OA
BRANCH   3   5
ATOM      5  C   UNL A   1      31.154  24.813  24.783  1.00  0.00     0.131 C 
BRANCH   5   6
ATOM      6  C   UNL A   1      31.104  23.968  23.492  1.00  0.00     0.018 C 
BRANCH   6   7
ATOM      7  C   UNL A   1      32.137  24.259  22.409  1.00  0.00     0.001 C 
BRANCH   7   8
ATOM      8  C   UNL A   1      33.319  23.299  22.394  1.00  0.00    -0.003 C 
ATOM      9  C   UNL A   1      34.482  23.798  23.237  1.00  0.00     0.004 C 
ENDBRANCH   7   8
ENDBRANCH   6   7
ENDBRANCH   5   6
BRANCH   5  10
ATOM     10  C   UNL A   1      30.837  23.919  26.048  1.00  0.00     0.086 C 
ATOM     11  C   UNL A   1      31.971  23.901  27.179  1.00  0.00     0.072 C 
ATOM     12  C   UNL A   1      30.570  22.433  25.650  1.00  0.00     0.072 C 
ATOM     13  C   UNL A   1      32.955  22.942  26.604  1.00  0.00    -0.042 A 
ATOM     14  C   UNL A   1      31.990  21.964  25.434  1.00  0.00    -0.042 A 
ATOM     15  C   UNL A   1      34.727  22.656  26.825  1.00  0.00     0.004 A 
ATOM     16  C   UNL A   1      32.724  20.504  24.640  1.00  0.00     0.004 A 
ATOM     17  C   UNL A   1      35.541  21.344  25.835  1.00  0.00     0.000 A 
ATOM     18  C   UNL A   1      34.521  20.179  24.857  1.00  0.00     0.000 A 
BRANCH  10  19
ATOM     19  O   UNL A   1      29.650  24.448  26.675  1.00  0.00    -0.388 OA
ATOM     20  H   UNL A   1      29.488  25.349  26.355  1.00  0.00     0.211 HD
ENDBRANCH  10  19
ENDBRANCH   5  10
ENDBRANCH   3   5
ENDBRANCH   2   3
ENDBRANCH   1   2
BRANCH   1  21
ATOM     21  C   UNL A   1      32.388  29.273  24.662  1.00  0.00     0.275 C 
BRANCH  21  22
ATOM     22  O   UNL A   1      31.679  29.812  25.801  1.00  0.00    -0.458 OA
BRANCH  22  23
ATOM     23  C   UNL A   1      32.290  30.920  26.615  1.00  0.00     0.338 C 
ATOM     24  O   UNL A   1      31.390  31.800  26.529  1.00  0.00    -0.246 OA
BRANCH  23  25
ATOM     25  C   UNL A   1      34.223  30.898  27.563  1.00  0.00     0.060 A 
ATOM     26  C   UNL A   1      34.942  29.740  28.183  1.00  0.00     0.016 A 
ATOM     27  C   UNL A   1      35.220  32.003  27.858  1.00  0.00     0.016 A 
ATOM     28  C   UNL A   1      35.865  29.711  29.198  1.00  0.00     0.010 A 
ATOM     29  C   UNL A   1      36.449  31.905  28.539  1.00  0.00     0.010 A 
ATOM     30  C   UNL A   1      36.745  30.741  29.209  1.00  0.00    -0.014 A 
BRANCH  30  31
ATOM     31  C   UNL A   1      38.001  30.493  29.888  1.00  0.00     0.031 A 
ATOM     32  C   UNL A   1      38.986  29.668  29.166  1.00  0.00     0.074 A 
ATOM     33  C   UNL A   1      38.193  31.088  31.080  1.00  0.00     0.049 A 
ATOM     34  N   UNL A   1      40.042  29.084  29.635  1.00  0.00    -0.248 NA
ATOM     35  C   UNL A   1      38.723  29.426  27.735  1.00  0.00     0.031 C 
ATOM     36  C   UNL A   1      37.262  32.033  31.730  1.00  0.00     0.029 A 
ATOM     37  N   UNL A   1      39.235  31.025  31.952  1.00  0.00    -0.354 N 
ATOM     38  C   UNL A   1      40.536  28.340  28.577  1.00  0.00     0.074 A 
ATOM     39  C   UNL A   1      39.658  28.538  27.448  1.00  0.00     0.031 C 
ATOM     40  C   UNL A   1      37.802  32.490  32.865  1.00  0.00     0.029 A 
ATOM     41  C   UNL A   1      39.019  31.743  33.105  1.00  0.00     0.049 A 
ATOM     42  H   UNL A   1      40.059  30.515  31.776  1.00  0.00     0.167 HD
ATOM     43  C   UNL A   1      41.628  27.549  28.609  1.00  0.00     0.034 A 
ATOM     44  C   UNL A   1      39.693  31.705  34.264  1.00  0.00     0.034 A 
ATOM     45  C   UNL A   1      42.417  27.428  29.806  1.00  0.00     0.049 A 
ATOM     46  C   UNL A   1      40.843  30.739  34.303  1.00  0.00     0.074 A 
ATOM     47  C   UNL A   1      43.522  26.640  30.043  1.00  0.00     0.029 A 
ATOM     48  N   UNL A   1      42.162  28.135  30.984  1.00  0.00    -0.354 N 
ATOM     49  N   UNL A   1      41.270  29.941  33.347  1.00  0.00    -0.248 NA
ATOM     50  C   UNL A   1      41.590  30.647  35.554  1.00  0.00     0.031 C 
ATOM     51  C   UNL A   1      43.882  26.811  31.383  1.00  0.00     0.029 A 
ATOM     52  C   UNL A   1      43.074  27.786  31.957  1.00  0.00     0.049 A 
ATOM     53  H   UNL A   1      41.437  28.790  31.101  1.00  0.00     0.167 HD
ATOM     54  C   UNL A   1      42.365  29.273  33.867  1.00  0.00     0.074 A 
ATOM     55  C   UNL A   1      42.527  29.769  35.225  1.00  0.00     0.031 C 
ATOM     56  C   UNL A   1      43.171  28.345  33.289  1.00  0.00     0.034 A 
BRANCH  43  57
ATOM     57  C   UNL A   1      41.902  26.721  27.387  1.00  0.00     0.023 A 
ATOM     58  C   UNL A   1      41.533  25.366  27.308  1.00  0.00     0.031 A 
ATOM     59  C   UNL A   1      42.662  27.259  26.335  1.00  0.00     0.131 A 
ATOM     60  C   UNL A   1      42.005  24.575  26.251  1.00  0.00     0.055 A 
ATOM     61  C   UNL A   1      43.043  26.489  25.235  1.00  0.00     0.041 A 
ATOM     62  F   UNL A   1      43.090  28.530  26.380  1.00  0.00    -0.206 F 
ATOM     63  C   UNL A   1      42.729  25.134  25.196  1.00  0.00     0.022 A 
BRANCH  60  64
ATOM     64  S   UNL A   1      41.819  22.774  26.369  1.00  0.00     0.124 S 
ATOM     65  O   UNL A   1      40.365  22.631  26.395  1.00  0.00    -0.237 OA
ATOM     66  O   UNL A   1      42.484  22.306  25.160  1.00  0.00    -0.237 OA
ATOM     67  O   UNL A   1      42.494  22.441  27.622  1.00  0.00    -0.744 OA
ENDBRANCH  60  64
ENDBRANCH  43  57
BRANCH  44  68
ATOM     68  C   UNL A   1      39.255  32.505  35.441  1.00  0.00     0.023 A 
ATOM     69  C   UNL A   1      39.704  33.819  35.614  1.00  0.00     0.031 A 
ATOM     70  C   UNL A   1      38.393  31.973  36.422  1.00  0.00     0.131 A 
ATOM     71  C   UNL A   1      39.342  34.539  36.763  1.00  0.00     0.055 A 
ATOM     72  C   UNL A   1      37.979  32.717  37.530  1.00  0.00     0.041 A 
ATOM     73  F   UNL A   1      37.922  30.720  36.313  1.00  0.00    -0.206 F 
ATOM     74  C   UNL A   1      38.470  34.005  37.714  1.00  0.00     0.022 A 
BRANCH  71  75
ATOM     75  S   UNL A   1      40.131  36.144  37.052  1.00  0.00     0.124 S 
ATOM     76  O   UNL A   1      39.344  36.660  38.167  1.00  0.00    -0.237 OA
ATOM     77  O   UNL A   1      41.502  35.755  37.361  1.00  0.00    -0.237 OA
ATOM     78  O   UNL A   1      39.950  36.843  35.783  1.00  0.00    -0.744 OA
ENDBRANCH  71  75
ENDBRANCH  44  68
BRANCH  56  79
ATOM     79  C   UNL A   1      44.341  27.891  34.107  1.00  0.00     0.023 A 
ATOM     80  C   UNL A   1      44.274  26.754  34.922  1.00  0.00     0.031 A 
ATOM     81  C   UNL A   1      45.557  28.590  34.011  1.00  0.00     0.131 A 
ATOM     82  C   UNL A   1      45.407  26.363  35.643  1.00  0.00     0.055 A 
ATOM     83  C   UNL A   1      46.700  28.149  34.668  1.00  0.00     0.041 A 
ATOM     84  F   UNL A   1      45.656  29.689  33.245  1.00  0.00    -0.206 F 
ATOM     85  C   UNL A   1      46.626  27.035  35.497  1.00  0.00     0.022 A 
BRANCH  82  86
ATOM     86  S   UNL A   1      45.242  25.015  36.838  1.00  0.00     0.124 S 
ATOM     87  O   UNL A   1      46.114  23.996  36.267  1.00  0.00    -0.237 OA
ATOM     88  O   UNL A   1      45.709  25.633  38.076  1.00  0.00    -0.237 OA
ATOM     89  O   UNL A   1      43.814  24.702  36.802  1.00  0.00    -0.744 OA
ENDBRANCH  82  86
ENDBRANCH  56  79
ENDBRANCH  30  31
ENDBRANCH  23  25
ENDBRANCH  22  23
ENDBRANCH  21  22
ENDBRANCH   1  21
TORSDOF 19
ENDMDL
MODEL 3
REMARK VINA RESULT:     -11.4      5.273     10.195
REMARK SMILES CCCC[C@@H](C(=O)OCCOC(=O)c1ccc(-c2c3nc(c(-c4cc(S(=O)(=O)[O-])ccc4F)c4ccc([nH]4)c(-c4cc(S(=O)(=O)[O-])ccc4F)c4nc(c(-c5cc(S(=O)(=O)[O-])ccc5F)c5ccc2[nH]5)C=C4)C=C3)cc1)C1(O)Cc2ccccc2C1
REMARK SMILES IDX 9 1 8 2 6 3 7 4 5 5 4 6 3 7 2 8 1 9 77 10 79 11 86 12 80 13
REMARK SMILES IDX 85 14 81 15 84 16 82 17 83 18 78 19 10 21 11 22 12 23 13 24
REMARK SMILES IDX 14 25 15 26 76 27 16 28 75 29 17 30 18 31 19 32 69 33 20 34
REMARK SMILES IDX 74 35 68 36 70 37 21 38 73 39 67 40 66 41 22 43 54 44 34 45
REMARK SMILES IDX 53 46 35 47 38 48 52 49 71 50 36 51 37 52 51 54 72 55 39 56
REMARK SMILES IDX 23 57 24 58 32 59 25 60 31 61 33 62 30 63 26 64 27 65 28 66
REMARK SMILES IDX 29 67 55 68 56 69 64 70 57 71 63 72 65 73 62 74 58 75 59 76
REMARK SMILES IDX 60 77 61 78 40 79 41 80 49 81 42 82 48 83 50 84 47 85 43 86
REMARK SMILES IDX 44 87 45 88 46 89
REMARK H PARENT 78 20 70 42 38 53
REMARK Flexibility Score: inf
ROOT
ATOM      1  C   UNL A   1      32.048  28.665  24.016  1.00  0.00     0.274 C 
ENDROOT
BRANCH   1   2
ATOM      2  O   UNL A   1      31.499  27.363  24.284  1.00  0.00    -0.462 OA
BRANCH   2   3
ATOM      3  C   UNL A   1      31.641  26.415  23.334  1.00  0.00     0.312 C 
ATOM      4  O   UNL A   1      31.105  26.483  22.232  1.00  0.00    -0.252 OA
BRANCH   3   5
ATOM      5  C   UNL A   1      32.495  25.209  23.786  1.00  0.00     0.131 C 
BRANCH   5   6
ATOM      6  C   UNL A   1      33.149  25.337  25.179  1.00  0.00     0.018 C 
BRANCH   6   7
ATOM      7  C   UNL A   1      32.681  24.386  26.275  1.00  0.00     0.001 C 
BRANCH   7   8
ATOM      8  C   UNL A   1      31.199  24.044  26.220  1.00  0.00    -0.003 C 
ATOM      9  C   UNL A   1      30.954  22.553  26.042  1.00  0.00     0.004 C 
ENDBRANCH   7   8
ENDBRANCH   6   7
ENDBRANCH   5   6
BRANCH   5  10
ATOM     10  C   UNL A   1      33.538  24.673  22.726  1.00  0.00     0.086 C 
ATOM     11  C   UNL A   1      32.965  23.612  21.672  1.00  0.00     0.072 C 
ATOM     12  C   UNL A   1      34.769  24.004  23.417  1.00  0.00     0.072 C 
ATOM     13  C   UNL A   1      32.963  22.358  22.477  1.00  0.00    -0.042 A 
ATOM     14  C   UNL A   1      34.165  22.669  23.786  1.00  0.00    -0.042 A 
ATOM     15  C   UNL A   1      32.052  20.798  22.394  1.00  0.00     0.004 A 
ATOM     16  C   UNL A   1      34.671  21.327  24.899  1.00  0.00     0.004 A 
ATOM     17  C   UNL A   1      32.369  19.521  23.671  1.00  0.00     0.000 A 
ATOM     18  C   UNL A   1      33.773  19.723  24.830  1.00  0.00     0.000 A 
BRANCH  10  19
ATOM     19  O   UNL A   1      34.000  25.801  21.953  1.00  0.00    -0.388 OA
ATOM     20  H   UNL A   1      34.801  25.554  21.466  1.00  0.00     0.211 HD
ENDBRANCH  10  19
ENDBRANCH   5  10
ENDBRANCH   3   5
ENDBRANCH   2   3
ENDBRANCH   1   2
BRANCH   1  21
ATOM     21  C   UNL A   1      32.602  29.243  25.311  1.00  0.00     0.275 C 
BRANCH  21  22
ATOM     22  O   UNL A   1      31.917  30.476  25.629  1.00  0.00    -0.458 OA
BRANCH  22  23
ATOM     23  C   UNL A   1      32.437  31.368  26.724  1.00  0.00     0.338 C 
ATOM     24  O   UNL A   1      31.466  32.162  26.863  1.00  0.00    -0.246 OA
BRANCH  23  25
ATOM     25  C   UNL A   1      34.368  31.245  27.667  1.00  0.00     0.060 A 
ATOM     26  C   UNL A   1      35.022  30.054  28.297  1.00  0.00     0.016 A 
ATOM     27  C   UNL A   1      35.427  32.294  27.948  1.00  0.00     0.016 A 
ATOM     28  C   UNL A   1      35.945  29.983  29.310  1.00  0.00     0.010 A 
ATOM     29  C   UNL A   1      36.651  32.134  28.627  1.00  0.00     0.010 A 
ATOM     30  C   UNL A   1      36.883  30.961  29.308  1.00  0.00    -0.014 A 
BRANCH  30  31
ATOM     31  C   UNL A   1      38.124  30.649  29.986  1.00  0.00     0.031 A 
ATOM     32  C   UNL A   1      39.077  29.797  29.253  1.00  0.00     0.074 A 
ATOM     33  C   UNL A   1      38.336  31.214  31.190  1.00  0.00     0.049 A 
ATOM     34  N   UNL A   1      40.107  29.162  29.714  1.00  0.00    -0.248 NA
ATOM     35  C   UNL A   1      38.810  29.592  27.817  1.00  0.00     0.031 C 
ATOM     36  C   UNL A   1      37.443  32.185  31.854  1.00  0.00     0.029 A 
ATOM     37  N   UNL A   1      39.371  31.092  32.064  1.00  0.00    -0.354 N 
ATOM     38  C   UNL A   1      40.573  28.417  28.645  1.00  0.00     0.074 A 
ATOM     39  C   UNL A   1      39.709  28.671  27.516  1.00  0.00     0.031 C 
ATOM     40  C   UNL A   1      37.997  32.598  32.999  1.00  0.00     0.029 A 
ATOM     41  C   UNL A   1      39.181  31.797  33.229  1.00  0.00     0.049 A 
ATOM     42  H   UNL A   1      40.174  30.552  31.881  1.00  0.00     0.167 HD
ATOM     43  C   UNL A   1      41.631  27.581  28.666  1.00  0.00     0.034 A 
ATOM     44  C   UNL A   1      39.848  31.710  34.389  1.00  0.00     0.034 A 
ATOM     45  C   UNL A   1      42.410  27.406  29.863  1.00  0.00     0.049 A 
ATOM     46  C   UNL A   1      40.957  30.697  34.414  1.00  0.00     0.074 A 
ATOM     47  C   UNL A   1      43.480  26.569  30.088  1.00  0.00     0.029 A 
ATOM     48  N   UNL A   1      42.180  28.101  31.053  1.00  0.00    -0.354 N 
ATOM     49  N   UNL A   1      41.355  29.899  33.445  1.00  0.00    -0.248 NA
ATOM     50  C   UNL A   1      41.695  30.551  35.666  1.00  0.00     0.031 C 
ATOM     51  C   UNL A   1      43.842  26.700  31.433  1.00  0.00     0.029 A 
ATOM     52  C   UNL A   1      43.072  27.697  32.022  1.00  0.00     0.049 A 
ATOM     53  H   UNL A   1      41.482  28.783  31.179  1.00  0.00     0.167 HD
ATOM     54  C   UNL A   1      42.419  29.177  33.957  1.00  0.00     0.074 A 
ATOM     55  C   UNL A   1      42.596  29.641  35.324  1.00  0.00     0.031 C 
ATOM     56  C   UNL A   1      43.188  28.228  33.364  1.00  0.00     0.034 A 
BRANCH  43  57
ATOM     57  C   UNL A   1      41.875  26.764  27.429  1.00  0.00     0.023 A 
ATOM     58  C   UNL A   1      41.487  25.416  27.339  1.00  0.00     0.031 A 
ATOM     59  C   UNL A   1      42.627  27.305  26.373  1.00  0.00     0.131 A 
ATOM     60  C   UNL A   1      41.931  24.631  26.265  1.00  0.00     0.055 A 
ATOM     61  C   UNL A   1      42.981  26.544  25.258  1.00  0.00     0.041 A 
ATOM     62  F   UNL A   1      43.074  28.569  26.427  1.00  0.00    -0.206 F 
ATOM     63  C   UNL A   1      42.648  25.194  25.207  1.00  0.00     0.022 A 
BRANCH  60  64
ATOM     64  S   UNL A   1      41.723  22.832  26.365  1.00  0.00     0.124 S 
ATOM     65  O   UNL A   1      42.345  22.536  27.653  1.00  0.00    -0.237 OA
ATOM     66  O   UNL A   1      40.274  22.676  26.306  1.00  0.00    -0.237 OA
ATOM     67  O   UNL A   1      42.452  22.337  25.199  1.00  0.00    -0.744 OA
ENDBRANCH  60  64
ENDBRANCH  43  57
BRANCH  44  68
ATOM     68  C   UNL A   1      39.439  32.506  35.579  1.00  0.00     0.023 A 
ATOM     69  C   UNL A   1      38.685  31.918  36.602  1.00  0.00     0.031 A 
ATOM     70  C   UNL A   1      39.777  33.868  35.716  1.00  0.00     0.131 A 
ATOM     71  C   UNL A   1      38.244  32.696  37.684  1.00  0.00     0.055 A 
ATOM     72  C   UNL A   1      39.395  34.621  36.829  1.00  0.00     0.041 A 
ATOM     73  F   UNL A   1      40.502  34.491  34.772  1.00  0.00    -0.206 F 
ATOM     74  C   UNL A   1      38.607  34.038  37.814  1.00  0.00     0.022 A 
BRANCH  71  75
ATOM     75  S   UNL A   1      37.084  31.949  38.858  1.00  0.00     0.124 S 
ATOM     76  O   UNL A   1      35.876  32.729  38.613  1.00  0.00    -0.237 OA
ATOM     77  O   UNL A   1      37.053  30.561  38.411  1.00  0.00    -0.237 OA
ATOM     78  O   UNL A   1      37.721  32.173  40.153  1.00  0.00    -0.744 OA
ENDBRANCH  71  75
ENDBRANCH  44  68
BRANCH  56  79
ATOM     79  C   UNL A   1      44.335  27.711  34.178  1.00  0.00     0.023 A 
ATOM     80  C   UNL A   1      44.195  26.612  35.035  1.00  0.00     0.031 A 
ATOM     81  C   UNL A   1      45.601  28.305  34.033  1.00  0.00     0.131 A 
ATOM     82  C   UNL A   1      45.308  26.158  35.750  1.00  0.00     0.055 A 
ATOM     83  C   UNL A   1      46.718  27.798  34.685  1.00  0.00     0.041 A 
ATOM     84  F   UNL A   1      45.770  29.365  33.226  1.00  0.00    -0.206 F 
ATOM     85  C   UNL A   1      46.573  26.723  35.557  1.00  0.00     0.022 A 
BRANCH  82  86
ATOM     86  S   UNL A   1      45.061  24.871  36.997  1.00  0.00     0.124 S 
ATOM     87  O   UNL A   1      45.044  23.661  36.183  1.00  0.00    -0.237 OA
ATOM     88  O   UNL A   1      46.225  25.042  37.861  1.00  0.00    -0.237 OA
ATOM     89  O   UNL A   1      43.780  25.228  37.606  1.00  0.00    -0.744 OA
ENDBRANCH  82  86
ENDBRANCH  56  79
ENDBRANCH  30  31
ENDBRANCH  23  25
ENDBRANCH  22  23
ENDBRANCH  21  22
ENDBRANCH   1  21
TORSDOF 19
ENDMDL
