MODEL 1
REMARK VINA RESULT:     -10.4      0.000      0.000
REMARK SMILES CC(C)[C@@H](NC(=O)[C@@](C)([NH3+])C(F)(F)F)C(=O)OCCOC(=O)c1ccc(-c2c3nc(c(-c4cc(S(=O)(=O)[O-])ccc4F)c4ccc([nH]4)c(-c4cc(S(=O)(=O)[O-])ccc4F)c4nc(c(-c5cc(S(=O)(=O)[O-])ccc5F)c5ccc2[nH]5)C=C4)C=C3)cc1
REMARK SMILES IDX 18 1 17 2 15 3 16 4 4 5 2 6 1 7 3 8 5 9 6 10 7 12 8 13 9 14
REMARK SMILES IDX 10 15 11 19 12 20 13 21 14 22 19 23 20 24 21 25 22 26 23 27
REMARK SMILES IDX 24 28 85 29 25 30 84 31 26 32 27 33 28 34 78 35 29 36 83 37
REMARK SMILES IDX 77 38 79 39 30 40 82 41 76 42 75 43 31 45 63 46 43 47 62 48
REMARK SMILES IDX 44 49 47 50 61 51 80 52 45 53 46 54 60 56 81 57 48 58 32 59
REMARK SMILES IDX 33 60 41 61 34 62 40 63 42 64 39 65 35 66 36 67 37 68 38 69
REMARK SMILES IDX 64 70 65 71 73 72 66 73 72 74 74 75 71 76 67 77 68 78 69 79
REMARK SMILES IDX 70 80 49 81 50 82 58 83 51 84 57 85 59 86 56 87 52 88 53 89
REMARK SMILES IDX 54 90 55 91
REMARK H PARENT 5 11 10 16 10 17 10 18 79 44 47 55
REMARK Flexibility Score: inf
ROOT
ATOM      1  C   UNL A   1      34.056  34.502  28.367  1.00  0.00     0.274 C 
ENDROOT
BRANCH   1   2
ATOM      2  O   UNL A   1      32.939  35.040  29.107  1.00  0.00    -0.461 OA
BRANCH   2   3
ATOM      3  C   UNL A   1      33.202  36.126  29.880  1.00  0.00     0.329 C 
ATOM      4  O   UNL A   1      33.294  37.268  29.440  1.00  0.00    -0.250 OA
BRANCH   3   5
ATOM      5  C   UNL A   1      33.551  35.792  31.343  1.00  0.00     0.195 C 
BRANCH   5   6
ATOM      6  C   UNL A   1      32.921  36.654  32.474  1.00  0.00     0.017 C 
ATOM      7  C   UNL A   1      31.570  36.064  32.924  1.00  0.00     0.010 C 
ATOM      8  C   UNL A   1      33.809  36.724  33.727  1.00  0.00     0.010 C 
ENDBRANCH   5   6
BRANCH   5   9
ATOM      9  N   UNL A   1      33.609  34.337  31.671  1.00  0.00    -0.337 N 
ATOM     10  C   UNL A   1      34.571  33.374  31.811  1.00  0.00     0.291 C 
ATOM     11  H   UNL A   1      32.708  33.970  31.830  1.00  0.00     0.164 HD
ATOM     12  O   UNL A   1      34.196  32.224  31.566  1.00  0.00    -0.267 OA
BRANCH  10  13
ATOM     13  C   UNL A   1      36.002  33.671  32.311  1.00  0.00     0.267 C 
ATOM     14  C   UNL A   1      36.999  32.651  31.744  1.00  0.00     0.100 C 
BRANCH  13  15
ATOM     15  N   UNL A   1      36.365  35.077  31.950  1.00  0.00    -0.337 N 
ATOM     16  H   UNL A   1      36.708  35.562  32.779  1.00  0.00     0.345 HD
ATOM     17  H   UNL A   1      35.541  35.559  31.591  1.00  0.00     0.345 HD
ATOM     18  H   UNL A   1      37.093  35.068  31.236  1.00  0.00     0.345 HD
ENDBRANCH  13  15
BRANCH  13  19
ATOM     19  C   UNL A   1      36.017  33.514  33.863  1.00  0.00     0.453 C 
ATOM     20  F   UNL A   1      34.792  33.580  34.428  1.00  0.00    -0.164 F 
ATOM     21  F   UNL A   1      36.613  32.371  34.273  1.00  0.00    -0.164 F 
ATOM     22  F   UNL A   1      36.749  34.530  34.411  1.00  0.00    -0.164 F 
ENDBRANCH  13  19
ENDBRANCH  10  13
ENDBRANCH   5   9
ENDBRANCH   3   5
ENDBRANCH   2   3
ENDBRANCH   1   2
BRANCH   1  23
ATOM     23  C   UNL A   1      33.855  33.057  27.910  1.00  0.00     0.275 C 
BRANCH  23  24
ATOM     24  O   UNL A   1      34.975  32.235  28.261  1.00  0.00    -0.458 OA
BRANCH  24  25
ATOM     25  C   UNL A   1      34.786  30.913  28.041  1.00  0.00     0.338 C 
ATOM     26  O   UNL A   1      33.798  30.382  27.569  1.00  0.00    -0.246 OA
BRANCH  25  27
ATOM     27  C   UNL A   1      36.042  30.195  28.290  1.00  0.00     0.060 A 
ATOM     28  C   UNL A   1      36.201  29.575  29.533  1.00  0.00     0.016 A 
ATOM     29  C   UNL A   1      37.072  30.200  27.351  1.00  0.00     0.016 A 
ATOM     30  C   UNL A   1      37.396  28.950  29.853  1.00  0.00     0.010 A 
ATOM     31  C   UNL A   1      38.283  29.593  27.682  1.00  0.00     0.010 A 
ATOM     32  C   UNL A   1      38.452  28.983  28.939  1.00  0.00    -0.014 A 
BRANCH  32  33
ATOM     33  C   UNL A   1      39.784  28.508  29.356  1.00  0.00     0.031 A 
ATOM     34  C   UNL A   1      40.501  29.262  30.436  1.00  0.00     0.074 A 
ATOM     35  C   UNL A   1      40.321  27.418  28.784  1.00  0.00     0.049 A 
ATOM     36  N   UNL A   1      41.732  29.146  30.852  1.00  0.00    -0.248 NA
ATOM     37  C   UNL A   1      39.716  30.291  31.137  1.00  0.00     0.031 C 
ATOM     38  C   UNL A   1      39.655  26.571  27.795  1.00  0.00     0.029 A 
ATOM     39  N   UNL A   1      41.555  26.847  28.945  1.00  0.00    -0.354 N 
ATOM     40  C   UNL A   1      41.882  30.104  31.849  1.00  0.00     0.074 A 
ATOM     41  C   UNL A   1      40.618  30.799  31.963  1.00  0.00     0.031 C 
ATOM     42  C   UNL A   1      40.502  25.599  27.416  1.00  0.00     0.029 A 
ATOM     43  C   UNL A   1      41.781  25.793  28.091  1.00  0.00     0.049 A 
ATOM     44  H   UNL A   1      42.214  27.159  29.605  1.00  0.00     0.167 HD
ATOM     45  C   UNL A   1      42.983  30.374  32.591  1.00  0.00     0.034 A 
ATOM     46  C   UNL A   1      42.914  25.105  27.851  1.00  0.00     0.034 A 
ATOM     47  C   UNL A   1      44.231  29.669  32.432  1.00  0.00     0.049 A 
ATOM     48  C   UNL A   1      44.158  25.490  28.616  1.00  0.00     0.074 A 
ATOM     49  C   UNL A   1      45.428  29.864  33.096  1.00  0.00     0.029 A 
ATOM     50  N   UNL A   1      44.441  28.629  31.532  1.00  0.00    -0.354 N 
ATOM     51  N   UNL A   1      44.312  26.430  29.522  1.00  0.00    -0.248 NA
ATOM     52  C   UNL A   1      45.376  24.727  28.323  1.00  0.00     0.031 C 
ATOM     53  C   UNL A   1      46.375  28.986  32.556  1.00  0.00     0.029 A 
ATOM     54  C   UNL A   1      45.752  28.191  31.605  1.00  0.00     0.049 A 
ATOM     55  H   UNL A   1      43.755  28.259  30.930  1.00  0.00     0.167 HD
ATOM     56  C   UNL A   1      45.642  26.355  29.924  1.00  0.00     0.074 A 
ATOM     57  C   UNL A   1      46.238  25.267  29.173  1.00  0.00     0.031 C 
ATOM     58  C   UNL A   1      46.316  27.110  30.829  1.00  0.00     0.034 A 
BRANCH  45  59
ATOM     59  C   UNL A   1      42.891  31.524  33.564  1.00  0.00     0.023 A 
ATOM     60  C   UNL A   1      42.464  31.342  34.892  1.00  0.00     0.031 A 
ATOM     61  C   UNL A   1      43.169  32.834  33.137  1.00  0.00     0.131 A 
ATOM     62  C   UNL A   1      42.257  32.456  35.721  1.00  0.00     0.055 A 
ATOM     63  C   UNL A   1      43.036  33.931  33.991  1.00  0.00     0.041 A 
ATOM     64  F   UNL A   1      43.552  33.075  31.873  1.00  0.00    -0.206 F 
ATOM     65  C   UNL A   1      42.562  33.748  35.286  1.00  0.00     0.022 A 
BRANCH  62  66
ATOM     66  S   UNL A   1      41.439  32.208  37.321  1.00  0.00     0.124 S 
ATOM     67  O   UNL A   1      42.285  31.185  37.930  1.00  0.00    -0.237 OA
ATOM     68  O   UNL A   1      41.511  33.535  37.921  1.00  0.00    -0.237 OA
ATOM     69  O   UNL A   1      40.098  31.760  36.956  1.00  0.00    -0.744 OA
ENDBRANCH  62  66
ENDBRANCH  45  59
BRANCH  46  70
ATOM     70  C   UNL A   1      42.950  24.043  26.807  1.00  0.00     0.023 A 
ATOM     71  C   UNL A   1      42.347  22.794  27.020  1.00  0.00     0.031 A 
ATOM     72  C   UNL A   1      43.624  24.248  25.590  1.00  0.00     0.131 A 
ATOM     73  C   UNL A   1      42.464  21.786  26.051  1.00  0.00     0.055 A 
ATOM     74  C   UNL A   1      43.694  23.260  24.606  1.00  0.00     0.041 A 
ATOM     75  F   UNL A   1      44.221  25.424  25.333  1.00  0.00    -0.206 F 
ATOM     76  C   UNL A   1      43.121  22.015  24.840  1.00  0.00     0.022 A 
BRANCH  73  77
ATOM     77  S   UNL A   1      41.811  20.137  26.431  1.00  0.00     0.124 S 
ATOM     78  O   UNL A   1      42.323  19.348  25.315  1.00  0.00    -0.237 OA
ATOM     79  O   UNL A   1      42.408  19.868  27.734  1.00  0.00    -0.237 OA
ATOM     80  O   UNL A   1      40.362  20.338  26.440  1.00  0.00    -0.744 OA
ENDBRANCH  73  77
ENDBRANCH  46  70
BRANCH  58  81
ATOM     81  C   UNL A   1      47.756  26.743  31.076  1.00  0.00     0.023 A 
ATOM     82  C   UNL A   1      48.115  25.743  31.996  1.00  0.00     0.031 A 
ATOM     83  C   UNL A   1      48.782  27.415  30.389  1.00  0.00     0.131 A 
ATOM     84  C   UNL A   1      49.470  25.482  32.247  1.00  0.00     0.055 A 
ATOM     85  C   UNL A   1      50.127  27.111  30.601  1.00  0.00     0.041 A 
ATOM     86  F   UNL A   1      48.492  28.378  29.499  1.00  0.00    -0.206 F 
ATOM     87  C   UNL A   1      50.478  26.149  31.544  1.00  0.00     0.022 A 
BRANCH  84  88
ATOM     88  S   UNL A   1      49.900  24.319  33.571  1.00  0.00     0.124 S 
ATOM     89  O   UNL A   1      48.628  24.172  34.270  1.00  0.00    -0.237 OA
ATOM     90  O   UNL A   1      50.357  23.152  32.824  1.00  0.00    -0.237 OA
ATOM     91  O   UNL A   1      50.941  25.022  34.319  1.00  0.00    -0.744 OA
ENDBRANCH  84  88
ENDBRANCH  58  81
ENDBRANCH  32  33
ENDBRANCH  25  27
ENDBRANCH  24  25
ENDBRANCH  23  24
ENDBRANCH   1  23
TORSDOF 19
ENDMDL
MODEL 2
REMARK VINA RESULT:     -10.4      5.922      9.407
REMARK SMILES CC(C)[C@@H](NC(=O)[C@@](C)([NH3+])C(F)(F)F)C(=O)OCCOC(=O)c1ccc(-c2c3nc(c(-c4cc(S(=O)(=O)[O-])ccc4F)c4ccc([nH]4)c(-c4cc(S(=O)(=O)[O-])ccc4F)c4nc(c(-c5cc(S(=O)(=O)[O-])ccc5F)c5ccc2[nH]5)C=C4)C=C3)cc1
REMARK SMILES IDX 18 1 17 2 15 3 16 4 4 5 2 6 1 7 3 8 5 9 6 10 7 12 8 13 9 14
REMARK SMILES IDX 10 15 11 19 12 20 13 21 14 22 19 23 20 24 21 25 22 26 23 27
REMARK SMILES IDX 24 28 85 29 25 30 84 31 26 32 27 33 28 34 78 35 29 36 83 37
REMARK SMILES IDX 77 38 79 39 30 40 82 41 76 42 75 43 31 45 63 46 43 47 62 48
REMARK SMILES IDX 44 49 47 50 61 51 80 52 45 53 46 54 60 56 81 57 48 58 32 59
REMARK SMILES IDX 33 60 41 61 34 62 40 63 42 64 39 65 35 66 36 67 37 68 38 69
REMARK SMILES IDX 64 70 65 71 73 72 66 73 72 74 74 75 71 76 67 77 68 78 69 79
REMARK SMILES IDX 70 80 49 81 50 82 58 83 51 84 57 85 59 86 56 87 52 88 53 89
REMARK SMILES IDX 54 90 55 91
REMARK H PARENT 5 11 10 16 10 17 10 18 79 44 47 55
REMARK Flexibility Score: inf
ROOT
ATOM      1  C   UNL A   1      35.799  20.973  25.125  1.00  0.00     0.274 C 
ENDROOT
BRANCH   1   2
ATOM      2  O   UNL A   1      35.356  22.101  24.340  1.00  0.00    -0.461 OA
BRANCH   2   3
ATOM      3  C   UNL A   1      34.835  23.145  25.036  1.00  0.00     0.329 C 
ATOM      4  O   UNL A   1      35.270  23.527  26.118  1.00  0.00    -0.250 OA
BRANCH   3   5
ATOM      5  C   UNL A   1      33.533  23.714  24.441  1.00  0.00     0.195 C 
BRANCH   5   6
ATOM      6  C   UNL A   1      33.047  23.182  23.063  1.00  0.00     0.017 C 
ATOM      7  C   UNL A   1      31.595  22.672  23.154  1.00  0.00     0.010 C 
ATOM      8  C   UNL A   1      33.065  24.263  21.972  1.00  0.00     0.010 C 
ENDBRANCH   5   6
BRANCH   5   9
ATOM      9  N   UNL A   1      32.423  23.927  25.417  1.00  0.00    -0.337 N 
ATOM     10  C   UNL A   1      31.999  24.919  26.259  1.00  0.00     0.291 C 
ATOM     11  H   UNL A   1      31.836  23.137  25.469  1.00  0.00     0.164 HD
ATOM     12  O   UNL A   1      31.385  24.528  27.256  1.00  0.00    -0.267 OA
BRANCH  10  13
ATOM     13  C   UNL A   1      32.196  26.423  25.965  1.00  0.00     0.267 C 
ATOM     14  C   UNL A   1      31.515  27.281  27.040  1.00  0.00     0.100 C 
BRANCH  13  15
ATOM     15  N   UNL A   1      33.659  26.712  25.852  1.00  0.00    -0.337 N 
ATOM     16  H   UNL A   1      34.021  26.991  26.764  1.00  0.00     0.345 HD
ATOM     17  H   UNL A   1      33.806  27.466  25.182  1.00  0.00     0.345 HD
ATOM     18  H   UNL A   1      34.147  25.875  25.535  1.00  0.00     0.345 HD
ENDBRANCH  13  15
BRANCH  13  19
ATOM     19  C   UNL A   1      31.497  26.748  24.609  1.00  0.00     0.453 C 
ATOM     20  F   UNL A   1      32.351  26.860  23.569  1.00  0.00    -0.164 F 
ATOM     21  F   UNL A   1      30.540  25.850  24.278  1.00  0.00    -0.164 F 
ATOM     22  F   UNL A   1      30.855  27.950  24.710  1.00  0.00    -0.164 F 
ENDBRANCH  13  19
ENDBRANCH  10  13
ENDBRANCH   5   9
ENDBRANCH   3   5
ENDBRANCH   2   3
ENDBRANCH   1   2
BRANCH   1  23
ATOM     23  C   UNL A   1      37.255  20.578  24.871  1.00  0.00     0.275 C 
BRANCH  23  24
ATOM     24  O   UNL A   1      38.152  21.647  25.196  1.00  0.00    -0.458 OA
BRANCH  24  25
ATOM     25  C   UNL A   1      39.163  21.294  26.022  1.00  0.00     0.338 C 
ATOM     26  O   UNL A   1      39.668  20.192  26.134  1.00  0.00    -0.246 OA
BRANCH  25  27
ATOM     27  C   UNL A   1      39.710  22.495  26.663  1.00  0.00     0.060 A 
ATOM     28  C   UNL A   1      39.209  23.735  26.254  1.00  0.00     0.016 A 
ATOM     29  C   UNL A   1      40.749  22.409  27.587  1.00  0.00     0.016 A 
ATOM     30  C   UNL A   1      39.743  24.907  26.766  1.00  0.00     0.010 A 
ATOM     31  C   UNL A   1      41.304  23.588  28.084  1.00  0.00     0.010 A 
ATOM     32  C   UNL A   1      40.813  24.836  27.662  1.00  0.00    -0.014 A 
BRANCH  32  33
ATOM     33  C   UNL A   1      41.519  26.075  28.043  1.00  0.00     0.031 A 
ATOM     34  C   UNL A   1      40.754  27.125  28.792  1.00  0.00     0.074 A 
ATOM     35  C   UNL A   1      42.815  26.235  27.734  1.00  0.00     0.049 A 
ATOM     36  N   UNL A   1      41.096  28.349  29.086  1.00  0.00    -0.248 NA
ATOM     37  C   UNL A   1      39.417  26.736  29.269  1.00  0.00     0.031 C 
ATOM     38  C   UNL A   1      43.659  25.227  27.092  1.00  0.00     0.029 A 
ATOM     39  N   UNL A   1      43.644  27.311  27.908  1.00  0.00    -0.354 N 
ATOM     40  C   UNL A   1      40.009  28.891  29.762  1.00  0.00     0.074 A 
ATOM     41  C   UNL A   1      38.991  27.863  29.821  1.00  0.00     0.031 C 
ATOM     42  C   UNL A   1      44.884  25.745  26.902  1.00  0.00     0.029 A 
ATOM     43  C   UNL A   1      44.889  27.133  27.353  1.00  0.00     0.049 A 
ATOM     44  H   UNL A   1      43.375  28.130  28.381  1.00  0.00     0.167 HD
ATOM     45  C   UNL A   1      39.878  30.137  30.277  1.00  0.00     0.034 A 
ATOM     46  C   UNL A   1      45.893  28.015  27.187  1.00  0.00     0.034 A 
ATOM     47  C   UNL A   1      40.911  31.140  30.180  1.00  0.00     0.049 A 
ATOM     48  C   UNL A   1      45.690  29.428  27.677  1.00  0.00     0.074 A 
ATOM     49  C   UNL A   1      40.895  32.447  30.630  1.00  0.00     0.029 A 
ATOM     50  N   UNL A   1      42.149  30.941  29.579  1.00  0.00    -0.354 N 
ATOM     51  N   UNL A   1      44.641  29.954  28.270  1.00  0.00    -0.248 NA
ATOM     52  C   UNL A   1      46.800  30.365  27.471  1.00  0.00     0.031 C 
ATOM     53  C   UNL A   1      42.098  33.054  30.248  1.00  0.00     0.029 A 
ATOM     54  C   UNL A   1      42.895  32.107  29.623  1.00  0.00     0.049 A 
ATOM     55  H   UNL A   1      42.452  30.093  29.179  1.00  0.00     0.167 HD
ATOM     56  C   UNL A   1      44.975  31.279  28.528  1.00  0.00     0.074 A 
ATOM     57  C   UNL A   1      46.328  31.465  28.041  1.00  0.00     0.031 C 
ATOM     58  C   UNL A   1      44.239  32.259  29.115  1.00  0.00     0.034 A 
BRANCH  45  59
ATOM     59  C   UNL A   1      38.551  30.487  30.905  1.00  0.00     0.023 A 
ATOM     60  C   UNL A   1      37.522  31.105  30.172  1.00  0.00     0.031 A 
ATOM     61  C   UNL A   1      38.338  30.259  32.276  1.00  0.00     0.131 A 
ATOM     62  C   UNL A   1      36.360  31.540  30.828  1.00  0.00     0.055 A 
ATOM     63  C   UNL A   1      37.146  30.624  32.906  1.00  0.00     0.041 A 
ATOM     64  F   UNL A   1      39.294  29.699  33.034  1.00  0.00    -0.206 F 
ATOM     65  C   UNL A   1      36.155  31.283  32.186  1.00  0.00     0.022 A 
BRANCH  62  66
ATOM     66  S   UNL A   1      35.186  32.581  29.916  1.00  0.00     0.124 S 
ATOM     67  O   UNL A   1      36.053  33.655  29.438  1.00  0.00    -0.237 OA
ATOM     68  O   UNL A   1      34.680  31.668  28.898  1.00  0.00    -0.237 OA
ATOM     69  O   UNL A   1      34.217  32.979  30.935  1.00  0.00    -0.744 OA
ENDBRANCH  62  66
ENDBRANCH  45  59
BRANCH  46  70
ATOM     70  C   UNL A   1      47.141  27.619  26.473  1.00  0.00     0.023 A 
ATOM     71  C   UNL A   1      47.291  27.841  25.096  1.00  0.00     0.031 A 
ATOM     72  C   UNL A   1      48.188  26.973  27.154  1.00  0.00     0.131 A 
ATOM     73  C   UNL A   1      48.444  27.386  24.436  1.00  0.00     0.055 A 
ATOM     74  C   UNL A   1      49.356  26.569  26.504  1.00  0.00     0.041 A 
ATOM     75  F   UNL A   1      48.097  26.733  28.473  1.00  0.00    -0.206 F 
ATOM     76  C   UNL A   1      49.482  26.764  25.133  1.00  0.00     0.022 A 
BRANCH  73  77
ATOM     77  S   UNL A   1      48.531  27.548  22.632  1.00  0.00     0.124 S 
ATOM     78  O   UNL A   1      49.776  28.288  22.458  1.00  0.00    -0.237 OA
ATOM     79  O   UNL A   1      48.547  26.154  22.203  1.00  0.00    -0.237 OA
ATOM     80  O   UNL A   1      47.314  28.287  22.297  1.00  0.00    -0.744 OA
ENDBRANCH  73  77
ENDBRANCH  46  70
BRANCH  58  81
ATOM     81  C   UNL A   1      44.913  33.595  29.291  1.00  0.00     0.023 A 
ATOM     82  C   UNL A   1      44.892  34.570  28.280  1.00  0.00     0.031 A 
ATOM     83  C   UNL A   1      45.596  33.887  30.484  1.00  0.00     0.131 A 
ATOM     84  C   UNL A   1      45.593  35.771  28.458  1.00  0.00     0.055 A 
ATOM     85  C   UNL A   1      46.243  35.108  30.679  1.00  0.00     0.041 A 
ATOM     86  F   UNL A   1      45.645  32.989  31.482  1.00  0.00    -0.206 F 
ATOM     87  C   UNL A   1      46.254  36.053  29.656  1.00  0.00     0.022 A 
BRANCH  84  88
ATOM     88  S   UNL A   1      45.701  36.929  27.065  1.00  0.00     0.124 S 
ATOM     89  O   UNL A   1      46.181  36.067  25.992  1.00  0.00    -0.237 OA
ATOM     90  O   UNL A   1      44.325  37.397  26.941  1.00  0.00    -0.237 OA
ATOM     91  O   UNL A   1      46.656  37.934  27.529  1.00  0.00    -0.744 OA
ENDBRANCH  84  88
ENDBRANCH  58  81
ENDBRANCH  32  33
ENDBRANCH  25  27
ENDBRANCH  24  25
ENDBRANCH  23  24
ENDBRANCH   1  23
TORSDOF 19
ENDMDL
MODEL 3
REMARK VINA RESULT:     -10.4      4.878      9.989
REMARK SMILES CC(C)[C@@H](NC(=O)[C@@](C)([NH3+])C(F)(F)F)C(=O)OCCOC(=O)c1ccc(-c2c3nc(c(-c4cc(S(=O)(=O)[O-])ccc4F)c4ccc([nH]4)c(-c4cc(S(=O)(=O)[O-])ccc4F)c4nc(c(-c5cc(S(=O)(=O)[O-])ccc5F)c5ccc2[nH]5)C=C4)C=C3)cc1
REMARK SMILES IDX 18 1 17 2 15 3 16 4 4 5 2 6 1 7 3 8 5 9 6 10 7 12 8 13 9 14
REMARK SMILES IDX 10 15 11 19 12 20 13 21 14 22 19 23 20 24 21 25 22 26 23 27
REMARK SMILES IDX 24 28 85 29 25 30 84 31 26 32 27 33 28 34 78 35 29 36 83 37
REMARK SMILES IDX 77 38 79 39 30 40 82 41 76 42 75 43 31 45 63 46 43 47 62 48
REMARK SMILES IDX 44 49 47 50 61 51 80 52 45 53 46 54 60 56 81 57 48 58 32 59
REMARK SMILES IDX 33 60 41 61 34 62 40 63 42 64 39 65 35 66 36 67 37 68 38 69
REMARK SMILES IDX 64 70 65 71 73 72 66 73 72 74 74 75 71 76 67 77 68 78 69 79
REMARK SMILES IDX 70 80 49 81 50 82 58 83 51 84 57 85 59 86 56 87 52 88 53 89
REMARK SMILES IDX 54 90 55 91
REMARK H PARENT 5 11 10 16 10 17 10 18 79 44 47 55
REMARK Flexibility Score: inf
ROOT
ATOM      1  C   UNL A   1      32.056  29.360  26.546  1.00  0.00     0.274 C 
ENDROOT
BRANCH   1   2
ATOM      2  O   UNL A   1      31.998  28.805  25.214  1.00  0.00    -0.461 OA
BRANCH   2   3
ATOM      3  C   UNL A   1      31.242  27.686  25.065  1.00  0.00     0.329 C 
ATOM      4  O   UNL A   1      30.904  26.964  25.998  1.00  0.00    -0.250 OA
BRANCH   3   5
ATOM      5  C   UNL A   1      30.980  27.290  23.600  1.00  0.00     0.195 C 
BRANCH   5   6
ATOM      6  C   UNL A   1      31.538  25.933  23.083  1.00  0.00     0.017 C 
ATOM      7  C   UNL A   1      30.517  24.801  23.308  1.00  0.00     0.010 C 
ATOM      8  C   UNL A   1      31.845  25.955  21.577  1.00  0.00     0.010 C 
ENDBRANCH   5   6
BRANCH   5   9
ATOM      9  N   UNL A   1      29.613  27.600  23.087  1.00  0.00    -0.337 N 
ATOM     10  C   UNL A   1      28.826  28.708  22.925  1.00  0.00     0.291 C 
ATOM     11  H   UNL A   1      29.152  26.785  22.783  1.00  0.00     0.164 HD
ATOM     12  O   UNL A   1      27.611  28.494  22.972  1.00  0.00    -0.267 OA
BRANCH  10  13
ATOM     13  C   UNL A   1      29.392  30.115  22.629  1.00  0.00     0.267 C 
ATOM     14  C   UNL A   1      29.565  30.916  23.927  1.00  0.00     0.100 C 
BRANCH  13  15
ATOM     15  N   UNL A   1      30.675  29.977  21.874  1.00  0.00    -0.337 N 
ATOM     16  H   UNL A   1      31.085  30.900  21.732  1.00  0.00     0.345 HD
ATOM     17  H   UNL A   1      30.493  29.543  20.970  1.00  0.00     0.345 HD
ATOM     18  H   UNL A   1      31.322  29.396  22.407  1.00  0.00     0.345 HD
ENDBRANCH  13  15
BRANCH  13  19
ATOM     19  C   UNL A   1      28.353  30.881  21.752  1.00  0.00     0.453 C 
ATOM     20  F   UNL A   1      28.844  32.004  21.183  1.00  0.00    -0.164 F 
ATOM     21  F   UNL A   1      27.813  30.112  20.780  1.00  0.00    -0.164 F 
ATOM     22  F   UNL A   1      27.305  31.275  22.537  1.00  0.00    -0.164 F 
ENDBRANCH  13  19
ENDBRANCH  10  13
ENDBRANCH   5   9
ENDBRANCH   3   5
ENDBRANCH   2   3
ENDBRANCH   1   2
BRANCH   1  23
ATOM     23  C   UNL A   1      32.293  30.870  26.575  1.00  0.00     0.275 C 
BRANCH  23  24
ATOM     24  O   UNL A   1      32.939  31.276  27.788  1.00  0.00    -0.458 OA
BRANCH  24  25
ATOM     25  C   UNL A   1      33.846  32.268  27.631  1.00  0.00     0.338 C 
ATOM     26  O   UNL A   1      33.623  33.424  27.320  1.00  0.00    -0.246 OA
BRANCH  25  27
ATOM     27  C   UNL A   1      35.163  31.797  28.073  1.00  0.00     0.060 A 
ATOM     28  C   UNL A   1      35.257  30.490  28.561  1.00  0.00     0.016 A 
ATOM     29  C   UNL A   1      36.266  32.648  28.084  1.00  0.00     0.016 A 
ATOM     30  C   UNL A   1      36.457  30.017  29.066  1.00  0.00     0.010 A 
ATOM     31  C   UNL A   1      37.468  32.181  28.615  1.00  0.00     0.010 A 
ATOM     32  C   UNL A   1      37.560  30.873  29.121  1.00  0.00    -0.014 A 
BRANCH  32  33
ATOM     33  C   UNL A   1      38.771  30.445  29.847  1.00  0.00     0.031 A 
ATOM     34  C   UNL A   1      39.668  29.433  29.197  1.00  0.00     0.074 A 
ATOM     35  C   UNL A   1      39.057  30.967  31.050  1.00  0.00     0.049 A 
ATOM     36  N   UNL A   1      40.683  28.783  29.695  1.00  0.00    -0.248 NA
ATOM     37  C   UNL A   1      39.370  29.112  27.791  1.00  0.00     0.031 C 
ATOM     38  C   UNL A   1      38.292  32.025  31.712  1.00  0.00     0.029 A 
ATOM     39  N   UNL A   1      40.061  30.671  31.932  1.00  0.00    -0.354 N 
ATOM     40  C   UNL A   1      41.134  27.953  28.674  1.00  0.00     0.074 A 
ATOM     41  C   UNL A   1      40.271  28.177  27.534  1.00  0.00     0.031 C 
ATOM     42  C   UNL A   1      38.843  32.270  32.913  1.00  0.00     0.029 A 
ATOM     43  C   UNL A   1      39.955  31.349  33.123  1.00  0.00     0.049 A 
ATOM     44  H   UNL A   1      40.785  30.035  31.734  1.00  0.00     0.167 HD
ATOM     45  C   UNL A   1      42.172  27.083  28.699  1.00  0.00     0.034 A 
ATOM     46  C   UNL A   1      40.651  31.197  34.267  1.00  0.00     0.034 A 
ATOM     47  C   UNL A   1      42.997  26.876  29.865  1.00  0.00     0.049 A 
ATOM     48  C   UNL A   1      41.738  30.150  34.307  1.00  0.00     0.074 A 
ATOM     49  C   UNL A   1      44.057  26.005  30.034  1.00  0.00     0.029 A 
ATOM     50  N   UNL A   1      42.842  27.553  31.071  1.00  0.00    -0.354 N 
ATOM     51  N   UNL A   1      42.130  29.330  33.357  1.00  0.00    -0.248 NA
ATOM     52  C   UNL A   1      42.469  30.005  35.570  1.00  0.00     0.031 C 
ATOM     53  C   UNL A   1      44.503  26.112  31.356  1.00  0.00     0.029 A 
ATOM     54  C   UNL A   1      43.769  27.101  31.994  1.00  0.00     0.049 A 
ATOM     55  H   UNL A   1      42.170  28.251  31.242  1.00  0.00     0.167 HD
ATOM     56  C   UNL A   1      43.171  28.587  33.903  1.00  0.00     0.074 A 
ATOM     57  C   UNL A   1      43.354  29.069  35.259  1.00  0.00     0.031 C 
ATOM     58  C   UNL A   1      43.914  27.597  33.344  1.00  0.00     0.034 A 
BRANCH  45  59
ATOM     59  C   UNL A   1      42.401  26.250  27.462  1.00  0.00     0.023 A 
ATOM     60  C   UNL A   1      41.985  24.909  27.382  1.00  0.00     0.031 A 
ATOM     61  C   UNL A   1      43.107  26.786  26.371  1.00  0.00     0.131 A 
ATOM     62  C   UNL A   1      42.343  24.130  26.270  1.00  0.00     0.055 A 
ATOM     63  C   UNL A   1      43.392  26.028  25.234  1.00  0.00     0.041 A 
ATOM     64  F   UNL A   1      43.556  28.051  26.401  1.00  0.00    -0.206 F 
ATOM     65  C   UNL A   1      43.024  24.687  25.185  1.00  0.00     0.022 A 
BRANCH  62  66
ATOM     66  S   UNL A   1      42.039  22.342  26.328  1.00  0.00     0.124 S 
ATOM     67  O   UNL A   1      42.376  22.030  27.714  1.00  0.00    -0.237 OA
ATOM     68  O   UNL A   1      40.627  22.250  25.978  1.00  0.00    -0.237 OA
ATOM     69  O   UNL A   1      42.965  21.804  25.334  1.00  0.00    -0.744 OA
ENDBRANCH  62  66
ENDBRANCH  45  59
BRANCH  46  70
ATOM     70  C   UNL A   1      40.304  31.995  35.477  1.00  0.00     0.023 A 
ATOM     71  C   UNL A   1      39.280  31.589  36.345  1.00  0.00     0.031 A 
ATOM     72  C   UNL A   1      40.969  33.201  35.762  1.00  0.00     0.131 A 
ATOM     73  C   UNL A   1      38.923  32.400  37.434  1.00  0.00     0.055 A 
ATOM     74  C   UNL A   1      40.646  33.979  36.875  1.00  0.00     0.041 A 
ATOM     75  F   UNL A   1      41.957  33.638  34.964  1.00  0.00    -0.206 F 
ATOM     76  C   UNL A   1      39.607  33.585  37.712  1.00  0.00     0.022 A 
BRANCH  73  77
ATOM     77  S   UNL A   1      37.489  31.923  38.438  1.00  0.00     0.124 S 
ATOM     78  O   UNL A   1      36.513  32.943  38.068  1.00  0.00    -0.237 OA
ATOM     79  O   UNL A   1      37.219  30.573  37.958  1.00  0.00    -0.237 OA
ATOM     80  O   UNL A   1      37.991  32.008  39.809  1.00  0.00    -0.744 OA
ENDBRANCH  73  77
ENDBRANCH  46  70
BRANCH  58  81
ATOM     81  C   UNL A   1      45.012  27.014  34.195  1.00  0.00     0.023 A 
ATOM     82  C   UNL A   1      44.767  25.965  35.098  1.00  0.00     0.031 A 
ATOM     83  C   UNL A   1      46.318  27.527  34.110  1.00  0.00     0.131 A 
ATOM     84  C   UNL A   1      45.801  25.501  35.923  1.00  0.00     0.055 A 
ATOM     85  C   UNL A   1      47.357  27.022  34.891  1.00  0.00     0.041 A 
ATOM     86  F   UNL A   1      46.604  28.529  33.262  1.00  0.00    -0.206 F 
ATOM     87  C   UNL A   1      47.098  26.011  35.814  1.00  0.00     0.022 A 
BRANCH  84  88
ATOM     88  S   UNL A   1      45.410  24.277  37.203  1.00  0.00     0.124 S 
ATOM     89  O   UNL A   1      45.294  23.050  36.424  1.00  0.00    -0.237 OA
ATOM     90  O   UNL A   1      46.568  24.367  38.085  1.00  0.00    -0.237 OA
ATOM     91  O   UNL A   1      44.157  24.769  37.775  1.00  0.00    -0.744 OA
ENDBRANCH  84  88
ENDBRANCH  58  81
ENDBRANCH  32  33
ENDBRANCH  25  27
ENDBRANCH  24  25
ENDBRANCH  23  24
ENDBRANCH   1  23
TORSDOF 19
ENDMDL
