MODEL 1
REMARK VINA RESULT:     -10.4      0.000      0.000
REMARK SMILES O=C(NCCOCC(=O)OCCOC(=O)c1ccc(-c2c3nc(c(-c4cc(S(=O)(=O)[O-])ccc4F)c4ccc([nH]4)c(-c4cc(S(=O)(=O)[O-])ccc4F)c4nc(c(-c5cc(S(=O)(=O)[O-])ccc5F)c5ccc2[nH]5)C=C4)C=C3)cc1)Nc1cccc(F)c1
REMARK SMILES IDX 11 1 10 2 8 3 9 4 7 5 6 6 5 7 4 8 3 9 1 10 2 11 79 12 80 15
REMARK SMILES IDX 81 16 86 17 82 18 84 19 83 20 85 21 12 22 13 23 14 24 15 25
REMARK SMILES IDX 16 26 17 27 78 28 18 29 77 30 19 31 20 32 21 33 71 34 22 35
REMARK SMILES IDX 76 36 70 37 72 38 23 39 75 40 69 41 68 42 24 44 56 45 36 46
REMARK SMILES IDX 55 47 37 48 40 49 54 50 73 51 38 52 39 53 53 55 74 56 41 57
REMARK SMILES IDX 25 58 26 59 34 60 27 61 33 62 35 63 32 64 28 65 29 66 30 67
REMARK SMILES IDX 31 68 57 69 58 70 66 71 59 72 65 73 67 74 64 75 60 76 61 77
REMARK SMILES IDX 62 78 63 79 42 80 43 81 51 82 44 83 50 84 52 85 49 86 45 87
REMARK SMILES IDX 46 88 47 89 48 90
REMARK H PARENT 3 13 79 14 72 43 40 54
REMARK Flexibility Score: inf
ROOT
ATOM      1  C   UNL A   1      32.037  28.072  27.231  1.00  0.00     0.274 C 
ENDROOT
BRANCH   1   2
ATOM      2  O   UNL A   1      30.937  27.169  27.000  1.00  0.00    -0.460 OA
BRANCH   2   3
ATOM      3  C   UNL A   1      31.180  26.159  26.123  1.00  0.00     0.332 C 
ATOM      4  O   UNL A   1      32.254  25.570  26.025  1.00  0.00    -0.250 OA
BRANCH   3   5
ATOM      5  C   UNL A   1      29.947  25.743  25.308  1.00  0.00     0.282 C 
BRANCH   5   6
ATOM      6  O   UNL A   1      29.575  26.408  24.116  1.00  0.00    -0.368 OA
BRANCH   6   7
ATOM      7  C   UNL A   1      30.645  27.050  23.398  1.00  0.00     0.182 C 
BRANCH   7   8
ATOM      8  C   UNL A   1      31.084  26.300  22.129  1.00  0.00     0.146 C 
BRANCH   8   9
ATOM      9  N   UNL A   1      31.826  25.059  22.266  1.00  0.00    -0.336 N 
ATOM     10  O   UNL A   1      34.070  25.564  22.041  1.00  0.00    -0.249 OA
ATOM     11  C   UNL A   1      33.163  24.961  22.596  1.00  0.00     0.319 C 
ATOM     12  N   UNL A   1      33.305  24.170  23.717  1.00  0.00    -0.308 N 
ATOM     13  H   UNL A   1      31.336  24.220  22.111  1.00  0.00     0.165 HD
ATOM     14  H   UNL A   1      32.517  24.124  24.306  1.00  0.00     0.171 HD
BRANCH  12  15
ATOM     15  C   UNL A   1      34.419  23.421  24.132  1.00  0.00     0.045 A 
ATOM     16  C   UNL A   1      35.483  24.116  24.723  1.00  0.00     0.026 A 
ATOM     17  C   UNL A   1      34.441  22.029  24.116  1.00  0.00     0.065 A 
ATOM     18  C   UNL A   1      36.535  23.428  25.333  1.00  0.00     0.005 A 
ATOM     19  C   UNL A   1      35.469  21.354  24.777  1.00  0.00     0.125 A 
ATOM     20  C   UNL A   1      36.512  22.039  25.390  1.00  0.00     0.039 A 
ATOM     21  F   UNL A   1      35.434  20.016  24.855  1.00  0.00    -0.207 F 
ENDBRANCH  12  15
ENDBRANCH   8   9
ENDBRANCH   7   8
ENDBRANCH   6   7
ENDBRANCH   5   6
ENDBRANCH   3   5
ENDBRANCH   2   3
ENDBRANCH   1   2
BRANCH   1  22
ATOM     22  C   UNL A   1      32.135  29.168  26.155  1.00  0.00     0.275 C 
BRANCH  22  23
ATOM     23  O   UNL A   1      33.405  29.865  26.144  1.00  0.00    -0.458 OA
BRANCH  23  24
ATOM     24  C   UNL A   1      33.416  30.902  27.006  1.00  0.00     0.338 C 
ATOM     25  O   UNL A   1      32.577  31.788  27.046  1.00  0.00    -0.246 OA
BRANCH  24  26
ATOM     26  C   UNL A   1      34.534  30.986  27.942  1.00  0.00     0.060 A 
ATOM     27  C   UNL A   1      35.370  32.111  27.933  1.00  0.00     0.016 A 
ATOM     28  C   UNL A   1      34.980  29.776  28.465  1.00  0.00     0.016 A 
ATOM     29  C   UNL A   1      36.684  32.005  28.412  1.00  0.00     0.010 A 
ATOM     30  C   UNL A   1      36.284  29.676  28.943  1.00  0.00     0.010 A 
ATOM     31  C   UNL A   1      37.160  30.774  28.886  1.00  0.00    -0.014 A 
BRANCH  31  32
ATOM     32  C   UNL A   1      38.505  30.593  29.486  1.00  0.00     0.031 A 
ATOM     33  C   UNL A   1      39.513  29.632  28.927  1.00  0.00     0.074 A 
ATOM     34  C   UNL A   1      38.700  31.143  30.693  1.00  0.00     0.049 A 
ATOM     35  N   UNL A   1      40.484  28.996  29.533  1.00  0.00    -0.248 NA
ATOM     36  C   UNL A   1      39.409  29.335  27.498  1.00  0.00     0.031 C 
ATOM     37  C   UNL A   1      37.791  32.092  31.338  1.00  0.00     0.029 A 
ATOM     38  N   UNL A   1      39.682  30.921  31.618  1.00  0.00    -0.354 N 
ATOM     39  C   UNL A   1      41.029  28.130  28.588  1.00  0.00     0.074 A 
ATOM     40  C   UNL A   1      40.318  28.377  27.350  1.00  0.00     0.031 C 
ATOM     41  C   UNL A   1      38.226  32.327  32.583  1.00  0.00     0.029 A 
ATOM     42  C   UNL A   1      39.415  31.517  32.826  1.00  0.00     0.049 A 
ATOM     43  H   UNL A   1      40.493  30.393  31.438  1.00  0.00     0.167 HD
ATOM     44  C   UNL A   1      42.017  27.212  28.762  1.00  0.00     0.034 A 
ATOM     45  C   UNL A   1      40.033  31.390  34.012  1.00  0.00     0.034 A 
ATOM     46  C   UNL A   1      42.817  27.123  29.965  1.00  0.00     0.049 A 
ATOM     47  C   UNL A   1      41.230  30.499  34.131  1.00  0.00     0.074 A 
ATOM     48  C   UNL A   1      43.942  26.347  30.194  1.00  0.00     0.029 A 
ATOM     49  N   UNL A   1      42.600  27.853  31.125  1.00  0.00    -0.354 N 
ATOM     50  N   UNL A   1      41.703  29.638  33.263  1.00  0.00    -0.248 NA
ATOM     51  C   UNL A   1      41.995  30.589  35.380  1.00  0.00     0.031 C 
ATOM     52  C   UNL A   1      44.383  26.579  31.501  1.00  0.00     0.029 A 
ATOM     53  C   UNL A   1      43.576  27.553  32.063  1.00  0.00     0.049 A 
ATOM     54  H   UNL A   1      41.862  28.491  31.261  1.00  0.00     0.167 HD
ATOM     55  C   UNL A   1      42.845  29.105  33.849  1.00  0.00     0.074 A 
ATOM     56  C   UNL A   1      42.984  29.739  35.145  1.00  0.00     0.031 C 
ATOM     57  C   UNL A   1      43.705  28.185  33.351  1.00  0.00     0.034 A 
BRANCH  44  58
ATOM     58  C   UNL A   1      42.298  26.200  27.671  1.00  0.00     0.023 A 
ATOM     59  C   UNL A   1      41.714  24.927  27.633  1.00  0.00     0.031 A 
ATOM     60  C   UNL A   1      43.130  26.565  26.591  1.00  0.00     0.131 A 
ATOM     61  C   UNL A   1      42.011  24.049  26.576  1.00  0.00     0.055 A 
ATOM     62  C   UNL A   1      43.364  25.717  25.506  1.00  0.00     0.041 A 
ATOM     63  F   UNL A   1      43.727  27.768  26.565  1.00  0.00    -0.206 F 
ATOM     64  C   UNL A   1      42.809  24.445  25.499  1.00  0.00     0.022 A 
BRANCH  61  65
ATOM     65  S   UNL A   1      41.418  22.340  26.682  1.00  0.00     0.124 S 
ATOM     66  O   UNL A   1      39.971  22.534  26.612  1.00  0.00    -0.237 OA
ATOM     67  O   UNL A   1      42.037  21.719  25.519  1.00  0.00    -0.237 OA
ATOM     68  O   UNL A   1      41.918  21.884  27.977  1.00  0.00    -0.744 OA
ENDBRANCH  61  65
ENDBRANCH  44  58
BRANCH  45  69
ATOM     69  C   UNL A   1      39.536  32.177  35.160  1.00  0.00     0.023 A 
ATOM     70  C   UNL A   1      39.984  33.489  35.344  1.00  0.00     0.031 A 
ATOM     71  C   UNL A   1      38.564  31.665  36.034  1.00  0.00     0.131 A 
ATOM     72  C   UNL A   1      39.477  34.252  36.401  1.00  0.00     0.055 A 
ATOM     73  C   UNL A   1      38.038  32.439  37.068  1.00  0.00     0.041 A 
ATOM     74  F   UNL A   1      38.084  30.423  35.864  1.00  0.00    -0.206 F 
ATOM     75  C   UNL A   1      38.500  33.740  37.260  1.00  0.00     0.022 A 
BRANCH  72  76
ATOM     76  S   UNL A   1      40.136  35.920  36.639  1.00  0.00     0.124 S 
ATOM     77  O   UNL A   1      41.567  35.661  36.760  1.00  0.00    -0.237 OA
ATOM     78  O   UNL A   1      39.709  36.591  35.415  1.00  0.00    -0.237 OA
ATOM     79  O   UNL A   1      39.475  36.374  37.861  1.00  0.00    -0.744 OA
ENDBRANCH  72  76
ENDBRANCH  45  69
BRANCH  57  80
ATOM     80  C   UNL A   1      44.918  27.866  34.182  1.00  0.00     0.023 A 
ATOM     81  C   UNL A   1      46.121  28.575  34.041  1.00  0.00     0.031 A 
ATOM     82  C   UNL A   1      44.864  26.821  35.121  1.00  0.00     0.131 A 
ATOM     83  C   UNL A   1      47.242  28.196  34.795  1.00  0.00     0.055 A 
ATOM     84  C   UNL A   1      45.969  26.478  35.899  1.00  0.00     0.041 A 
ATOM     85  F   UNL A   1      43.734  26.114  35.292  1.00  0.00    -0.206 F 
ATOM     86  C   UNL A   1      47.170  27.160  35.730  1.00  0.00     0.022 A 
BRANCH  83  87
ATOM     87  S   UNL A   1      48.820  29.036  34.491  1.00  0.00     0.124 S 
ATOM     88  O   UNL A   1      49.786  28.005  34.856  1.00  0.00    -0.237 OA
ATOM     89  O   UNL A   1      48.736  29.356  33.069  1.00  0.00    -0.237 OA
ATOM     90  O   UNL A   1      48.773  30.189  35.387  1.00  0.00    -0.744 OA
ENDBRANCH  83  87
ENDBRANCH  57  80
ENDBRANCH  31  32
ENDBRANCH  24  26
ENDBRANCH  23  24
ENDBRANCH  22  23
ENDBRANCH   1  22
TORSDOF 19
ENDMDL
MODEL 2
REMARK VINA RESULT:     -10.4      1.952      2.292
REMARK SMILES O=C(NCCOCC(=O)OCCOC(=O)c1ccc(-c2c3nc(c(-c4cc(S(=O)(=O)[O-])ccc4F)c4ccc([nH]4)c(-c4cc(S(=O)(=O)[O-])ccc4F)c4nc(c(-c5cc(S(=O)(=O)[O-])ccc5F)c5ccc2[nH]5)C=C4)C=C3)cc1)Nc1cccc(F)c1
REMARK SMILES IDX 11 1 10 2 8 3 9 4 7 5 6 6 5 7 4 8 3 9 1 10 2 11 79 12 80 15
REMARK SMILES IDX 81 16 86 17 82 18 84 19 83 20 85 21 12 22 13 23 14 24 15 25
REMARK SMILES IDX 16 26 17 27 78 28 18 29 77 30 19 31 20 32 21 33 71 34 22 35
REMARK SMILES IDX 76 36 70 37 72 38 23 39 75 40 69 41 68 42 24 44 56 45 36 46
REMARK SMILES IDX 55 47 37 48 40 49 54 50 73 51 38 52 39 53 53 55 74 56 41 57
REMARK SMILES IDX 25 58 26 59 34 60 27 61 33 62 35 63 32 64 28 65 29 66 30 67
REMARK SMILES IDX 31 68 57 69 58 70 66 71 59 72 65 73 67 74 64 75 60 76 61 77
REMARK SMILES IDX 62 78 63 79 42 80 43 81 51 82 44 83 50 84 52 85 49 86 45 87
REMARK SMILES IDX 46 88 47 89 48 90
REMARK H PARENT 3 13 79 14 72 43 40 54
REMARK Flexibility Score: inf
ROOT
ATOM      1  C   UNL A   1      31.795  27.915  27.318  1.00  0.00     0.274 C 
ENDROOT
BRANCH   1   2
ATOM      2  O   UNL A   1      30.898  26.849  26.947  1.00  0.00    -0.460 OA
BRANCH   2   3
ATOM      3  C   UNL A   1      31.351  26.011  25.978  1.00  0.00     0.332 C 
ATOM      4  O   UNL A   1      32.396  25.368  26.048  1.00  0.00    -0.250 OA
BRANCH   3   5
ATOM      5  C   UNL A   1      30.382  25.860  24.796  1.00  0.00     0.282 C 
BRANCH   5   6
ATOM      6  O   UNL A   1      30.323  26.808  23.747  1.00  0.00    -0.368 OA
BRANCH   6   7
ATOM      7  C   UNL A   1      31.573  27.100  23.097  1.00  0.00     0.182 C 
BRANCH   7   8
ATOM      8  C   UNL A   1      31.678  26.545  21.666  1.00  0.00     0.146 C 
BRANCH   8   9
ATOM      9  N   UNL A   1      31.892  25.121  21.477  1.00  0.00    -0.336 N 
ATOM     10  O   UNL A   1      33.963  24.607  22.365  1.00  0.00    -0.249 OA
ATOM     11  C   UNL A   1      32.781  24.345  22.194  1.00  0.00     0.319 C 
ATOM     12  N   UNL A   1      32.107  23.295  22.781  1.00  0.00    -0.308 N 
ATOM     13  H   UNL A   1      31.360  24.673  20.780  1.00  0.00     0.165 HD
ATOM     14  H   UNL A   1      31.147  23.443  22.940  1.00  0.00     0.171 HD
BRANCH  12  15
ATOM     15  C   UNL A   1      32.603  22.043  23.182  1.00  0.00     0.045 A 
ATOM     16  C   UNL A   1      33.525  22.019  24.237  1.00  0.00     0.026 A 
ATOM     17  C   UNL A   1      32.111  20.841  22.683  1.00  0.00     0.065 A 
ATOM     18  C   UNL A   1      33.916  20.811  24.818  1.00  0.00     0.005 A 
ATOM     19  C   UNL A   1      32.466  19.643  23.307  1.00  0.00     0.125 A 
ATOM     20  C   UNL A   1      33.359  19.618  24.373  1.00  0.00     0.039 A 
ATOM     21  F   UNL A   1      31.909  18.496  22.896  1.00  0.00    -0.207 F 
ENDBRANCH  12  15
ENDBRANCH   8   9
ENDBRANCH   7   8
ENDBRANCH   6   7
ENDBRANCH   5   6
ENDBRANCH   3   5
ENDBRANCH   2   3
ENDBRANCH   1   2
BRANCH   1  22
ATOM     22  C   UNL A   1      31.910  28.993  26.226  1.00  0.00     0.275 C 
BRANCH  22  23
ATOM     23  O   UNL A   1      33.201  29.650  26.185  1.00  0.00    -0.458 OA
BRANCH  23  24
ATOM     24  C   UNL A   1      33.238  30.734  26.986  1.00  0.00     0.338 C 
ATOM     25  O   UNL A   1      32.396  31.619  27.006  1.00  0.00    -0.246 OA
BRANCH  24  26
ATOM     26  C   UNL A   1      34.388  30.875  27.875  1.00  0.00     0.060 A 
ATOM     27  C   UNL A   1      35.182  32.028  27.815  1.00  0.00     0.016 A 
ATOM     28  C   UNL A   1      34.898  29.690  28.400  1.00  0.00     0.016 A 
ATOM     29  C   UNL A   1      36.516  31.977  28.242  1.00  0.00     0.010 A 
ATOM     30  C   UNL A   1      36.222  29.645  28.826  1.00  0.00     0.010 A 
ATOM     31  C   UNL A   1      37.055  30.772  28.717  1.00  0.00    -0.014 A 
BRANCH  31  32
ATOM     32  C   UNL A   1      38.429  30.650  29.265  1.00  0.00     0.031 A 
ATOM     33  C   UNL A   1      39.428  29.671  28.721  1.00  0.00     0.074 A 
ATOM     34  C   UNL A   1      38.666  31.277  30.426  1.00  0.00     0.049 A 
ATOM     35  N   UNL A   1      40.436  29.089  29.320  1.00  0.00    -0.248 NA
ATOM     36  C   UNL A   1      39.267  29.284  27.319  1.00  0.00     0.031 C 
ATOM     37  C   UNL A   1      37.769  32.249  31.052  1.00  0.00     0.029 A 
ATOM     38  N   UNL A   1      39.693  31.128  31.318  1.00  0.00    -0.354 N 
ATOM     39  C   UNL A   1      40.955  28.174  28.407  1.00  0.00     0.074 A 
ATOM     40  C   UNL A   1      40.185  28.333  27.189  1.00  0.00     0.031 C 
ATOM     41  C   UNL A   1      38.255  32.568  32.259  1.00  0.00     0.029 A 
ATOM     42  C   UNL A   1      39.468  31.793  32.497  1.00  0.00     0.049 A 
ATOM     43  H   UNL A   1      40.504  30.601  31.134  1.00  0.00     0.167 HD
ATOM     44  C   UNL A   1      41.966  27.285  28.592  1.00  0.00     0.034 A 
ATOM     45  C   UNL A   1      40.140  31.750  33.659  1.00  0.00     0.034 A 
ATOM     46  C   UNL A   1      42.819  27.283  29.761  1.00  0.00     0.049 A 
ATOM     47  C   UNL A   1      41.357  30.886  33.779  1.00  0.00     0.074 A 
ATOM     48  C   UNL A   1      43.968  26.541  29.986  1.00  0.00     0.029 A 
ATOM     49  N   UNL A   1      42.641  28.080  30.882  1.00  0.00    -0.354 N 
ATOM     50  N   UNL A   1      41.807  29.981  32.944  1.00  0.00    -0.248 NA
ATOM     51  C   UNL A   1      42.174  31.065  34.985  1.00  0.00     0.031 C 
ATOM     52  C   UNL A   1      44.461  26.860  31.254  1.00  0.00     0.029 A 
ATOM     53  C   UNL A   1      43.663  27.854  31.792  1.00  0.00     0.049 A 
ATOM     54  H   UNL A   1      41.898  28.714  31.012  1.00  0.00     0.167 HD
ATOM     55  C   UNL A   1      42.983  29.502  33.511  1.00  0.00     0.074 A 
ATOM     56  C   UNL A   1      43.168  30.218  34.757  1.00  0.00     0.031 C 
ATOM     57  C   UNL A   1      43.837  28.567  33.032  1.00  0.00     0.034 A 
BRANCH  44  58
ATOM     58  C   UNL A   1      42.217  26.212  27.554  1.00  0.00     0.023 A 
ATOM     59  C   UNL A   1      41.667  24.925  27.628  1.00  0.00     0.031 A 
ATOM     60  C   UNL A   1      42.980  26.526  26.408  1.00  0.00     0.131 A 
ATOM     61  C   UNL A   1      41.932  23.988  26.613  1.00  0.00     0.055 A 
ATOM     62  C   UNL A   1      43.180  25.616  25.369  1.00  0.00     0.041 A 
ATOM     63  F   UNL A   1      43.541  27.739  26.274  1.00  0.00    -0.206 F 
ATOM     64  C   UNL A   1      42.660  24.332  25.472  1.00  0.00     0.022 A 
BRANCH  61  65
ATOM     65  S   UNL A   1      41.393  22.276  26.860  1.00  0.00     0.124 S 
ATOM     66  O   UNL A   1      39.962  22.457  27.097  1.00  0.00    -0.237 OA
ATOM     67  O   UNL A   1      41.756  21.646  25.597  1.00  0.00    -0.237 OA
ATOM     68  O   UNL A   1      42.162  21.838  28.022  1.00  0.00    -0.744 OA
ENDBRANCH  61  65
ENDBRANCH  44  58
BRANCH  45  69
ATOM     69  C   UNL A   1      39.680  32.598  34.778  1.00  0.00     0.023 A 
ATOM     70  C   UNL A   1      38.957  32.024  35.830  1.00  0.00     0.031 A 
ATOM     71  C   UNL A   1      40.014  33.960  34.852  1.00  0.00     0.131 A 
ATOM     72  C   UNL A   1      38.565  32.815  36.913  1.00  0.00     0.055 A 
ATOM     73  C   UNL A   1      39.647  34.739  35.949  1.00  0.00     0.041 A 
ATOM     74  F   UNL A   1      40.738  34.535  33.879  1.00  0.00    -0.206 F 
ATOM     75  C   UNL A   1      38.912  34.167  36.986  1.00  0.00     0.022 A 
BRANCH  72  76
ATOM     76  S   UNL A   1      37.576  32.043  38.216  1.00  0.00     0.124 S 
ATOM     77  O   UNL A   1      37.418  30.685  37.706  1.00  0.00    -0.237 OA
ATOM     78  O   UNL A   1      38.441  32.192  39.382  1.00  0.00    -0.237 OA
ATOM     79  O   UNL A   1      36.357  32.849  38.239  1.00  0.00    -0.744 OA
ENDBRANCH  72  76
ENDBRANCH  45  69
BRANCH  57  80
ATOM     80  C   UNL A   1      45.091  28.319  33.825  1.00  0.00     0.023 A 
ATOM     81  C   UNL A   1      45.110  27.458  34.933  1.00  0.00     0.031 A 
ATOM     82  C   UNL A   1      46.283  28.973  33.466  1.00  0.00     0.131 A 
ATOM     83  C   UNL A   1      46.290  27.311  35.677  1.00  0.00     0.055 A 
ATOM     84  C   UNL A   1      47.464  28.789  34.182  1.00  0.00     0.041 A 
ATOM     85  F   UNL A   1      46.313  29.806  32.411  1.00  0.00    -0.206 F 
ATOM     86  C   UNL A   1      47.469  27.962  35.302  1.00  0.00     0.022 A 
BRANCH  83  87
ATOM     87  S   UNL A   1      46.250  26.305  37.185  1.00  0.00     0.124 S 
ATOM     88  O   UNL A   1      47.268  26.951  38.007  1.00  0.00    -0.237 OA
ATOM     89  O   UNL A   1      44.871  26.468  37.633  1.00  0.00    -0.237 OA
ATOM     90  O   UNL A   1      46.592  24.965  36.712  1.00  0.00    -0.744 OA
ENDBRANCH  83  87
ENDBRANCH  57  80
ENDBRANCH  31  32
ENDBRANCH  24  26
ENDBRANCH  23  24
ENDBRANCH  22  23
ENDBRANCH   1  22
TORSDOF 19
ENDMDL
MODEL 3
REMARK VINA RESULT:     -10.4      1.675      2.030
REMARK SMILES O=C(NCCOCC(=O)OCCOC(=O)c1ccc(-c2c3nc(c(-c4cc(S(=O)(=O)[O-])ccc4F)c4ccc([nH]4)c(-c4cc(S(=O)(=O)[O-])ccc4F)c4nc(c(-c5cc(S(=O)(=O)[O-])ccc5F)c5ccc2[nH]5)C=C4)C=C3)cc1)Nc1cccc(F)c1
REMARK SMILES IDX 11 1 10 2 8 3 9 4 7 5 6 6 5 7 4 8 3 9 1 10 2 11 79 12 80 15
REMARK SMILES IDX 81 16 86 17 82 18 84 19 83 20 85 21 12 22 13 23 14 24 15 25
REMARK SMILES IDX 16 26 17 27 78 28 18 29 77 30 19 31 20 32 21 33 71 34 22 35
REMARK SMILES IDX 76 36 70 37 72 38 23 39 75 40 69 41 68 42 24 44 56 45 36 46
REMARK SMILES IDX 55 47 37 48 40 49 54 50 73 51 38 52 39 53 53 55 74 56 41 57
REMARK SMILES IDX 25 58 26 59 34 60 27 61 33 62 35 63 32 64 28 65 29 66 30 67
REMARK SMILES IDX 31 68 57 69 58 70 66 71 59 72 65 73 67 74 64 75 60 76 61 77
REMARK SMILES IDX 62 78 63 79 42 80 43 81 51 82 44 83 50 84 52 85 49 86 45 87
REMARK SMILES IDX 46 88 47 89 48 90
REMARK H PARENT 3 13 79 14 72 43 40 54
REMARK Flexibility Score: inf
ROOT
ATOM      1  C   UNL A   1      31.392  30.013  25.044  1.00  0.00     0.274 C 
ENDROOT
BRANCH   1   2
ATOM      2  O   UNL A   1      31.832  28.670  25.329  1.00  0.00    -0.460 OA
BRANCH   2   3
ATOM      3  C   UNL A   1      31.090  27.677  24.770  1.00  0.00     0.332 C 
ATOM      4  O   UNL A   1      31.022  26.531  25.207  1.00  0.00    -0.250 OA
BRANCH   3   5
ATOM      5  C   UNL A   1      30.252  28.140  23.568  1.00  0.00     0.282 C 
BRANCH   5   6
ATOM      6  O   UNL A   1      30.561  27.752  22.243  1.00  0.00    -0.368 OA
BRANCH   6   7
ATOM      7  C   UNL A   1      31.881  27.215  22.040  1.00  0.00     0.182 C 
BRANCH   7   8
ATOM      8  C   UNL A   1      31.901  25.869  21.296  1.00  0.00     0.146 C 
BRANCH   8   9
ATOM      9  N   UNL A   1      31.909  24.639  22.067  1.00  0.00    -0.336 N 
ATOM     10  O   UNL A   1      34.115  24.020  22.366  1.00  0.00    -0.249 OA
ATOM     11  C   UNL A   1      32.979  24.159  22.796  1.00  0.00     0.319 C 
ATOM     12  N   UNL A   1      32.597  23.971  24.107  1.00  0.00    -0.308 N 
ATOM     13  H   UNL A   1      31.083  24.103  22.070  1.00  0.00     0.165 HD
ATOM     14  H   UNL A   1      31.838  24.520  24.411  1.00  0.00     0.171 HD
BRANCH  12  15
ATOM     15  C   UNL A   1      33.142  23.103  25.069  1.00  0.00     0.045 A 
ATOM     16  C   UNL A   1      33.670  23.677  26.234  1.00  0.00     0.026 A 
ATOM     17  C   UNL A   1      33.045  21.718  24.977  1.00  0.00     0.065 A 
ATOM     18  C   UNL A   1      34.052  22.878  27.314  1.00  0.00     0.005 A 
ATOM     19  C   UNL A   1      33.379  20.934  26.083  1.00  0.00     0.125 A 
ATOM     20  C   UNL A   1      33.875  21.501  27.251  1.00  0.00     0.039 A 
ATOM     21  F   UNL A   1      33.184  19.609  26.033  1.00  0.00    -0.207 F 
ENDBRANCH  12  15
ENDBRANCH   8   9
ENDBRANCH   7   8
ENDBRANCH   6   7
ENDBRANCH   5   6
ENDBRANCH   3   5
ENDBRANCH   2   3
ENDBRANCH   1   2
BRANCH   1  22
ATOM     22  C   UNL A   1      31.476  30.932  26.275  1.00  0.00     0.275 C 
BRANCH  22  23
ATOM     23  O   UNL A   1      32.487  30.537  27.234  1.00  0.00    -0.458 OA
BRANCH  23  24
ATOM     24  C   UNL A   1      33.358  31.534  27.485  1.00  0.00     0.338 C 
ATOM     25  O   UNL A   1      33.065  32.717  27.564  1.00  0.00    -0.246 OA
BRANCH  24  26
ATOM     26  C   UNL A   1      34.765  31.174  27.645  1.00  0.00     0.060 A 
ATOM     27  C   UNL A   1      35.116  29.863  27.992  1.00  0.00     0.016 A 
ATOM     28  C   UNL A   1      35.637  32.231  27.892  1.00  0.00     0.016 A 
ATOM     29  C   UNL A   1      36.337  29.617  28.638  1.00  0.00     0.010 A 
ATOM     30  C   UNL A   1      36.849  31.982  28.530  1.00  0.00     0.010 A 
ATOM     31  C   UNL A   1      37.195  30.684  28.944  1.00  0.00    -0.014 A 
BRANCH  31  32
ATOM     32  C   UNL A   1      38.538  30.505  29.549  1.00  0.00     0.031 A 
ATOM     33  C   UNL A   1      39.557  29.560  28.983  1.00  0.00     0.074 A 
ATOM     34  C   UNL A   1      38.721  31.041  30.765  1.00  0.00     0.049 A 
ATOM     35  N   UNL A   1      40.529  28.924  29.586  1.00  0.00    -0.248 NA
ATOM     36  C   UNL A   1      39.463  29.281  27.550  1.00  0.00     0.031 C 
ATOM     37  C   UNL A   1      37.801  31.974  31.417  1.00  0.00     0.029 A 
ATOM     38  N   UNL A   1      39.700  30.814  31.693  1.00  0.00    -0.354 N 
ATOM     39  C   UNL A   1      41.086  28.074  28.633  1.00  0.00     0.074 A 
ATOM     40  C   UNL A   1      40.380  28.333  27.394  1.00  0.00     0.031 C 
ATOM     41  C   UNL A   1      38.228  32.195  32.668  1.00  0.00     0.029 A 
ATOM     42  C   UNL A   1      39.421  31.391  32.906  1.00  0.00     0.049 A 
ATOM     43  H   UNL A   1      40.516  30.294  31.510  1.00  0.00     0.167 HD
ATOM     44  C   UNL A   1      42.081  27.162  28.800  1.00  0.00     0.034 A 
ATOM     45  C   UNL A   1      40.033  31.254  34.094  1.00  0.00     0.034 A 
ATOM     46  C   UNL A   1      42.874  27.063  30.007  1.00  0.00     0.049 A 
ATOM     47  C   UNL A   1      41.237  30.370  34.208  1.00  0.00     0.074 A 
ATOM     48  C   UNL A   1      44.004  26.294  30.232  1.00  0.00     0.029 A 
ATOM     49  N   UNL A   1      42.645  27.776  31.174  1.00  0.00    -0.354 N 
ATOM     50  N   UNL A   1      41.722  29.525  33.331  1.00  0.00    -0.248 NA
ATOM     51  C   UNL A   1      41.994  30.449  35.463  1.00  0.00     0.031 C 
ATOM     52  C   UNL A   1      44.435  26.511  31.544  1.00  0.00     0.029 A 
ATOM     53  C   UNL A   1      43.618  27.471  32.115  1.00  0.00     0.049 A 
ATOM     54  H   UNL A   1      41.901  28.406  31.315  1.00  0.00     0.167 HD
ATOM     55  C   UNL A   1      42.864  28.992  33.917  1.00  0.00     0.074 A 
ATOM     56  C   UNL A   1      42.991  29.611  35.222  1.00  0.00     0.031 C 
ATOM     57  C   UNL A   1      43.734  28.086  33.412  1.00  0.00     0.034 A 
BRANCH  44  58
ATOM     58  C   UNL A   1      42.375  26.168  27.698  1.00  0.00     0.023 A 
ATOM     59  C   UNL A   1      41.793  24.895  27.632  1.00  0.00     0.031 A 
ATOM     60  C   UNL A   1      43.221  26.549  26.633  1.00  0.00     0.131 A 
ATOM     61  C   UNL A   1      42.103  24.034  26.565  1.00  0.00     0.055 A 
ATOM     62  C   UNL A   1      43.470  25.718  25.539  1.00  0.00     0.041 A 
ATOM     63  F   UNL A   1      43.818  27.752  26.634  1.00  0.00    -0.206 F 
ATOM     64  C   UNL A   1      42.914  24.446  25.505  1.00  0.00     0.022 A 
BRANCH  61  65
ATOM     65  S   UNL A   1      41.509  22.324  26.637  1.00  0.00     0.124 S 
ATOM     66  O   UNL A   1      42.126  21.755  25.441  1.00  0.00    -0.237 OA
ATOM     67  O   UNL A   1      42.040  21.859  27.912  1.00  0.00    -0.237 OA
ATOM     68  O   UNL A   1      40.056  22.462  26.577  1.00  0.00    -0.744 OA
ENDBRANCH  61  65
ENDBRANCH  44  58
BRANCH  45  69
ATOM     69  C   UNL A   1      39.524  32.021  35.249  1.00  0.00     0.023 A 
ATOM     70  C   UNL A   1      39.965  33.332  35.458  1.00  0.00     0.031 A 
ATOM     71  C   UNL A   1      38.546  31.491  36.108  1.00  0.00     0.131 A 
ATOM     72  C   UNL A   1      39.446  34.076  36.522  1.00  0.00     0.055 A 
ATOM     73  C   UNL A   1      38.009  32.248  37.149  1.00  0.00     0.041 A 
ATOM     74  F   UNL A   1      38.073  30.251  35.914  1.00  0.00    -0.206 F 
ATOM     75  C   UNL A   1      38.464  33.548  37.364  1.00  0.00     0.022 A 
BRANCH  72  76
ATOM     76  S   UNL A   1      40.097  35.743  36.790  1.00  0.00     0.124 S 
ATOM     77  O   UNL A   1      39.471  36.106  38.058  1.00  0.00    -0.237 OA
ATOM     78  O   UNL A   1      41.536  35.503  36.832  1.00  0.00    -0.237 OA
ATOM     79  O   UNL A   1      39.623  36.484  35.623  1.00  0.00    -0.744 OA
ENDBRANCH  72  76
ENDBRANCH  45  69
BRANCH  57  80
ATOM     80  C   UNL A   1      44.945  27.766  34.245  1.00  0.00     0.023 A 
ATOM     81  C   UNL A   1      44.916  26.787  35.250  1.00  0.00     0.031 A 
ATOM     82  C   UNL A   1      46.143  28.470  34.032  1.00  0.00     0.131 A 
ATOM     83  C   UNL A   1      46.054  26.572  36.042  1.00  0.00     0.055 A 
ATOM     84  C   UNL A   1      47.285  28.221  34.793  1.00  0.00     0.041 A 
ATOM     85  F   UNL A   1      46.220  29.416  33.080  1.00  0.00    -0.206 F 
ATOM     86  C   UNL A   1      47.240  27.274  35.812  1.00  0.00     0.022 A 
BRANCH  83  87
ATOM     87  S   UNL A   1      45.946  25.402  37.423  1.00  0.00     0.124 S 
ATOM     88  O   UNL A   1      44.511  25.145  37.491  1.00  0.00    -0.237 OA
ATOM     89  O   UNL A   1      46.771  24.291  36.958  1.00  0.00    -0.237 OA
ATOM     90  O   UNL A   1      46.497  26.151  38.551  1.00  0.00    -0.744 OA
ENDBRANCH  83  87
ENDBRANCH  57  80
ENDBRANCH  31  32
ENDBRANCH  24  26
ENDBRANCH  23  24
ENDBRANCH  22  23
ENDBRANCH   1  22
TORSDOF 19
ENDMDL
