MODEL 1
REMARK VINA RESULT:     -12.4      0.000      0.000
REMARK SMILES CC1(C)Cc2c(-c3ccccc3)c(-c3ccc(Cl)cc3)c(CC(=O)OCCOC(=O)c3ccc(-c4c5nc(c(-c6cc(S(=O)(=O)[O-])ccc6F)c6ccc([nH]6)c(-c6cc(S(=O)(=O)[O-])ccc6F)c6nc(c(-c7cc(S(=O)(=O)[O-])ccc7F)c7ccc4[nH]7)C=C6)C=C5)cc3)n2C1
REMARK SMILES IDX 27 1 26 2 25 3 23 4 24 5 22 6 21 7 1 8 2 9 3 10 4 11 95 12
REMARK SMILES IDX 5 13 94 14 6 15 13 16 7 17 8 18 12 19 9 20 11 21 10 22 14 23
REMARK SMILES IDX 15 24 20 25 16 26 19 27 17 28 18 29 28 30 29 31 30 32 31 33
REMARK SMILES IDX 32 34 93 35 33 36 92 37 34 38 35 39 36 40 86 41 37 42 91 43
REMARK SMILES IDX 85 44 87 45 38 46 90 47 84 48 83 49 39 51 71 52 51 53 70 54
REMARK SMILES IDX 52 55 55 56 69 57 88 58 53 59 54 60 68 62 89 63 56 64 40 65
REMARK SMILES IDX 41 66 49 67 42 68 48 69 50 70 47 71 43 72 44 73 45 74 46 75
REMARK SMILES IDX 72 76 73 77 81 78 74 79 80 80 82 81 79 82 75 83 76 84 77 85
REMARK SMILES IDX 78 86 57 87 58 88 66 89 59 90 65 91 67 92 64 93 60 94 61 95
REMARK SMILES IDX 62 96 63 97
REMARK H PARENT 87 50 55 61
REMARK Flexibility Score: inf
ROOT
ATOM      1  C   UNL A   1      34.152  29.780  27.342  1.00  0.00     0.275 C 
ENDROOT
BRANCH   1   2
ATOM      2  C   UNL A   1      33.310  31.050  27.174  1.00  0.00     0.274 C 
BRANCH   2   3
ATOM      3  O   UNL A   1      33.640  31.991  28.211  1.00  0.00    -0.462 OA
BRANCH   3   4
ATOM      4  C   UNL A   1      33.517  33.309  27.933  1.00  0.00     0.311 C 
ATOM      5  O   UNL A   1      32.480  33.821  27.515  1.00  0.00    -0.252 OA
BRANCH   4   6
ATOM      6  C   UNL A   1      34.747  34.129  28.286  1.00  0.00     0.177 C 
BRANCH   6   7
ATOM      7  C   UNL A   1      35.171  34.204  29.733  1.00  0.00     0.037 A 
ATOM      8  C   UNL A   1      31.652  36.014  32.732  1.00  0.00     0.013 C 
ATOM      9  C   UNL A   1      33.052  36.057  32.122  1.00  0.00    -0.012 C 
ATOM     10  C   UNL A   1      33.546  37.512  32.037  1.00  0.00     0.013 C 
ATOM     11  C   UNL A   1      34.042  35.209  32.982  1.00  0.00     0.063 C 
ATOM     12  C   UNL A   1      33.076  35.403  30.707  1.00  0.00     0.129 C 
ATOM     13  C   UNL A   1      34.879  34.579  31.952  1.00  0.00     0.027 A 
ATOM     14  N   UNL A   1      34.344  34.691  30.704  1.00  0.00    -0.346 N 
ATOM     15  C   UNL A   1      36.092  33.970  31.853  1.00  0.00     0.011 A 
ATOM     16  C   UNL A   1      36.297  33.749  30.435  1.00  0.00     0.011 A 
BRANCH  15  17
ATOM     17  C   UNL A   1      37.008  33.760  32.966  1.00  0.00    -0.016 A 
ATOM     18  C   UNL A   1      36.921  32.600  33.742  1.00  0.00     0.009 A 
ATOM     19  C   UNL A   1      38.077  34.642  33.178  1.00  0.00     0.009 A 
ATOM     20  C   UNL A   1      37.920  32.307  34.675  1.00  0.00     0.001 A 
ATOM     21  C   UNL A   1      39.094  34.327  34.078  1.00  0.00     0.001 A 
ATOM     22  C   UNL A   1      39.017  33.156  34.824  1.00  0.00     0.000 A 
ENDBRANCH  15  17
BRANCH  16  23
ATOM     23  C   UNL A   1      37.615  33.430  29.906  1.00  0.00    -0.016 A 
ATOM     24  C   UNL A   1      38.264  32.255  30.314  1.00  0.00     0.010 A 
ATOM     25  C   UNL A   1      38.381  34.538  29.534  1.00  0.00     0.010 A 
ATOM     26  C   UNL A   1      39.650  32.280  30.533  1.00  0.00     0.021 A 
ATOM     27  C   UNL A   1      39.758  34.539  29.669  1.00  0.00     0.021 A 
ATOM     28  C   UNL A   1      40.362  33.455  30.281  1.00  0.00     0.041 A 
ATOM     29  Cl  UNL A   1      41.891  33.754  30.999  1.00  0.00    -0.084 Cl
ENDBRANCH  16  23
ENDBRANCH   6   7
ENDBRANCH   4   6
ENDBRANCH   3   4
ENDBRANCH   2   3
ENDBRANCH   1   2
BRANCH   1  30
ATOM     30  O   UNL A   1      35.576  29.985  27.428  1.00  0.00    -0.458 OA
BRANCH  30  31
ATOM     31  C   UNL A   1      36.135  29.917  28.668  1.00  0.00     0.338 C 
ATOM     32  O   UNL A   1      35.584  30.260  29.685  1.00  0.00    -0.246 OA
BRANCH  31  33
ATOM     33  C   UNL A   1      37.499  29.313  28.621  1.00  0.00     0.060 A 
ATOM     34  C   UNL A   1      38.325  29.631  27.538  1.00  0.00     0.016 A 
ATOM     35  C   UNL A   1      37.944  28.400  29.585  1.00  0.00     0.016 A 
ATOM     36  C   UNL A   1      39.548  28.977  27.382  1.00  0.00     0.010 A 
ATOM     37  C   UNL A   1      39.167  27.745  29.428  1.00  0.00     0.010 A 
ATOM     38  C   UNL A   1      39.966  28.006  28.311  1.00  0.00    -0.014 A 
BRANCH  38  39
ATOM     39  C   UNL A   1      41.392  27.614  28.325  1.00  0.00     0.031 A 
ATOM     40  C   UNL A   1      41.537  26.243  27.783  1.00  0.00     0.074 A 
ATOM     41  C   UNL A   1      42.459  28.408  28.581  1.00  0.00     0.049 A 
ATOM     42  N   UNL A   1      41.924  25.192  28.426  1.00  0.00    -0.248 NA
ATOM     43  C   UNL A   1      40.927  25.943  26.471  1.00  0.00     0.031 C 
ATOM     44  C   UNL A   1      42.392  29.781  29.048  1.00  0.00     0.029 A 
ATOM     45  N   UNL A   1      43.815  28.237  28.425  1.00  0.00    -0.354 N 
ATOM     46  C   UNL A   1      41.942  24.192  27.463  1.00  0.00     0.074 A 
ATOM     47  C   UNL A   1      41.042  24.615  26.432  1.00  0.00     0.031 C 
ATOM     48  C   UNL A   1      43.575  30.407  28.894  1.00  0.00     0.029 A 
ATOM     49  C   UNL A   1      44.539  29.442  28.407  1.00  0.00     0.049 A 
ATOM     50  H   UNL A   1      44.240  27.352  28.334  1.00  0.00     0.167 HD
ATOM     51  C   UNL A   1      43.041  23.396  27.372  1.00  0.00     0.034 A 
ATOM     52  C   UNL A   1      45.835  29.682  28.061  1.00  0.00     0.034 A 
ATOM     53  C   UNL A   1      43.767  23.394  28.626  1.00  0.00     0.049 A 
ATOM     54  C   UNL A   1      46.561  28.417  28.277  1.00  0.00     0.074 A 
ATOM     55  C   UNL A   1      43.516  22.997  29.922  1.00  0.00     0.029 A 
ATOM     56  N   UNL A   1      44.826  24.266  28.668  1.00  0.00    -0.354 N 
ATOM     57  N   UNL A   1      46.737  27.905  29.465  1.00  0.00    -0.248 NA
ATOM     58  C   UNL A   1      46.722  27.486  27.168  1.00  0.00     0.031 C 
ATOM     59  C   UNL A   1      44.345  23.808  30.754  1.00  0.00     0.029 A 
ATOM     60  C   UNL A   1      45.132  24.632  29.950  1.00  0.00     0.049 A 
ATOM     61  H   UNL A   1      45.307  24.588  27.873  1.00  0.00     0.167 HD
ATOM     62  C   UNL A   1      46.567  26.548  29.280  1.00  0.00     0.074 A 
ATOM     63  C   UNL A   1      46.739  26.335  27.846  1.00  0.00     0.031 C 
ATOM     64  C   UNL A   1      45.963  25.789  30.241  1.00  0.00     0.034 A 
BRANCH  51  65
ATOM     65  C   UNL A   1      43.759  23.125  26.053  1.00  0.00     0.023 A 
ATOM     66  C   UNL A   1      43.902  21.775  25.681  1.00  0.00     0.031 A 
ATOM     67  C   UNL A   1      44.572  24.041  25.337  1.00  0.00     0.131 A 
ATOM     68  C   UNL A   1      44.871  21.384  24.740  1.00  0.00     0.055 A 
ATOM     69  C   UNL A   1      45.499  23.650  24.371  1.00  0.00     0.041 A 
ATOM     70  F   UNL A   1      44.593  25.355  25.572  1.00  0.00    -0.206 F 
ATOM     71  C   UNL A   1      45.676  22.313  24.087  1.00  0.00     0.022 A 
BRANCH  68  72
ATOM     72  S   UNL A   1      45.166  19.618  24.490  1.00  0.00     0.124 S 
ATOM     73  O   UNL A   1      44.567  19.406  23.179  1.00  0.00    -0.237 OA
ATOM     74  O   UNL A   1      46.622  19.548  24.559  1.00  0.00    -0.237 OA
ATOM     75  O   UNL A   1      44.461  18.998  25.610  1.00  0.00    -0.744 OA
ENDBRANCH  68  72
ENDBRANCH  51  65
BRANCH  52  76
ATOM     76  C   UNL A   1      46.417  30.885  27.375  1.00  0.00     0.023 A 
ATOM     77  C   UNL A   1      45.634  31.893  26.760  1.00  0.00     0.031 A 
ATOM     78  C   UNL A   1      47.791  31.185  27.538  1.00  0.00     0.131 A 
ATOM     79  C   UNL A   1      46.221  33.125  26.362  1.00  0.00     0.055 A 
ATOM     80  C   UNL A   1      48.363  32.398  27.143  1.00  0.00     0.041 A 
ATOM     81  F   UNL A   1      48.619  30.340  28.169  1.00  0.00    -0.206 F 
ATOM     82  C   UNL A   1      47.578  33.380  26.567  1.00  0.00     0.022 A 
BRANCH  79  83
ATOM     83  S   UNL A   1      45.209  34.475  25.659  1.00  0.00     0.124 S 
ATOM     84  O   UNL A   1      44.976  34.013  24.296  1.00  0.00    -0.237 OA
ATOM     85  O   UNL A   1      44.050  34.496  26.545  1.00  0.00    -0.237 OA
ATOM     86  O   UNL A   1      46.079  35.648  25.768  1.00  0.00    -0.744 OA
ENDBRANCH  79  83
ENDBRANCH  52  76
BRANCH  64  87
ATOM     87  C   UNL A   1      46.099  26.228  31.680  1.00  0.00     0.023 A 
ATOM     88  C   UNL A   1      45.106  26.859  32.459  1.00  0.00     0.031 A 
ATOM     89  C   UNL A   1      47.328  25.931  32.301  1.00  0.00     0.131 A 
ATOM     90  C   UNL A   1      45.371  27.168  33.810  1.00  0.00     0.055 A 
ATOM     91  C   UNL A   1      47.577  26.220  33.639  1.00  0.00     0.041 A 
ATOM     92  F   UNL A   1      48.310  25.326  31.612  1.00  0.00    -0.206 F 
ATOM     93  C   UNL A   1      46.599  26.846  34.398  1.00  0.00     0.022 A 
BRANCH  90  94
ATOM     94  S   UNL A   1      44.132  28.030  34.834  1.00  0.00     0.124 S 
ATOM     95  O   UNL A   1      42.984  28.160  33.946  1.00  0.00    -0.237 OA
ATOM     96  O   UNL A   1      43.970  27.119  35.963  1.00  0.00    -0.237 OA
ATOM     97  O   UNL A   1      44.790  29.296  35.168  1.00  0.00    -0.744 OA
ENDBRANCH  90  94
ENDBRANCH  64  87
ENDBRANCH  38  39
ENDBRANCH  31  33
ENDBRANCH  30  31
ENDBRANCH   1  30
TORSDOF 17
ENDMDL
MODEL 2
REMARK VINA RESULT:     -12.3      4.238      7.185
REMARK SMILES CC1(C)Cc2c(-c3ccccc3)c(-c3ccc(Cl)cc3)c(CC(=O)OCCOC(=O)c3ccc(-c4c5nc(c(-c6cc(S(=O)(=O)[O-])ccc6F)c6ccc([nH]6)c(-c6cc(S(=O)(=O)[O-])ccc6F)c6nc(c(-c7cc(S(=O)(=O)[O-])ccc7F)c7ccc4[nH]7)C=C6)C=C5)cc3)n2C1
REMARK SMILES IDX 27 1 26 2 25 3 23 4 24 5 22 6 21 7 1 8 2 9 3 10 4 11 95 12
REMARK SMILES IDX 5 13 94 14 6 15 13 16 7 17 8 18 12 19 9 20 11 21 10 22 14 23
REMARK SMILES IDX 15 24 20 25 16 26 19 27 17 28 18 29 28 30 29 31 30 32 31 33
REMARK SMILES IDX 32 34 93 35 33 36 92 37 34 38 35 39 36 40 86 41 37 42 91 43
REMARK SMILES IDX 85 44 87 45 38 46 90 47 84 48 83 49 39 51 71 52 51 53 70 54
REMARK SMILES IDX 52 55 55 56 69 57 88 58 53 59 54 60 68 62 89 63 56 64 40 65
REMARK SMILES IDX 41 66 49 67 42 68 48 69 50 70 47 71 43 72 44 73 45 74 46 75
REMARK SMILES IDX 72 76 73 77 81 78 74 79 80 80 82 81 79 82 75 83 76 84 77 85
REMARK SMILES IDX 78 86 57 87 58 88 66 89 59 90 65 91 67 92 64 93 60 94 61 95
REMARK SMILES IDX 62 96 63 97
REMARK H PARENT 87 50 55 61
REMARK Flexibility Score: inf
ROOT
ATOM      1  C   UNL A   1      34.051  30.047  27.404  1.00  0.00     0.275 C 
ENDROOT
BRANCH   1   2
ATOM      2  C   UNL A   1      33.124  29.175  26.549  1.00  0.00     0.274 C 
BRANCH   2   3
ATOM      3  O   UNL A   1      33.357  29.443  25.155  1.00  0.00    -0.462 OA
BRANCH   3   4
ATOM      4  C   UNL A   1      33.880  28.451  24.398  1.00  0.00     0.311 C 
ATOM      5  O   UNL A   1      34.200  28.591  23.220  1.00  0.00    -0.252 OA
BRANCH   4   6
ATOM      6  C   UNL A   1      34.145  27.166  25.167  1.00  0.00     0.177 C 
BRANCH   6   7
ATOM      7  C   UNL A   1      33.438  25.906  24.727  1.00  0.00     0.037 A 
ATOM      8  C   UNL A   1      28.567  26.524  23.994  1.00  0.00     0.013 C 
ATOM      9  C   UNL A   1      29.747  25.847  24.689  1.00  0.00    -0.012 C 
ATOM     10  C   UNL A   1      29.348  25.419  26.112  1.00  0.00     0.013 C 
ATOM     11  C   UNL A   1      30.212  24.602  23.870  1.00  0.00     0.063 C 
ATOM     12  C   UNL A   1      30.989  26.787  24.745  1.00  0.00     0.129 C 
ATOM     13  C   UNL A   1      31.674  24.673  24.010  1.00  0.00     0.027 A 
ATOM     14  N   UNL A   1      32.094  25.875  24.493  1.00  0.00    -0.346 N 
ATOM     15  C   UNL A   1      32.755  23.857  23.872  1.00  0.00     0.011 A 
ATOM     16  C   UNL A   1      33.883  24.630  24.352  1.00  0.00     0.011 A 
BRANCH  15  17
ATOM     17  C   UNL A   1      32.691  22.458  23.471  1.00  0.00    -0.016 A 
ATOM     18  C   UNL A   1      32.780  21.445  24.429  1.00  0.00     0.009 A 
ATOM     19  C   UNL A   1      32.392  22.117  22.144  1.00  0.00     0.009 A 
ATOM     20  C   UNL A   1      32.519  20.118  24.072  1.00  0.00     0.001 A 
ATOM     21  C   UNL A   1      32.090  20.800  21.798  1.00  0.00     0.001 A 
ATOM     22  C   UNL A   1      32.150  19.801  22.764  1.00  0.00     0.000 A 
ENDBRANCH  15  17
BRANCH  16  23
ATOM     23  C   UNL A   1      35.149  23.989  24.677  1.00  0.00    -0.016 A 
ATOM     24  C   UNL A   1      36.009  23.581  23.647  1.00  0.00     0.010 A 
ATOM     25  C   UNL A   1      35.159  23.294  25.889  1.00  0.00     0.010 A 
ATOM     26  C   UNL A   1      36.708  22.372  23.779  1.00  0.00     0.021 A 
ATOM     27  C   UNL A   1      35.912  22.145  26.054  1.00  0.00     0.021 A 
ATOM     28  C   UNL A   1      36.581  21.632  24.957  1.00  0.00     0.041 A 
ATOM     29  Cl  UNL A   1      36.935  19.954  25.011  1.00  0.00    -0.084 Cl
ENDBRANCH  16  23
ENDBRANCH   6   7
ENDBRANCH   4   6
ENDBRANCH   3   4
ENDBRANCH   2   3
ENDBRANCH   1   2
BRANCH   1  30
ATOM     30  O   UNL A   1      35.201  29.378  27.957  1.00  0.00    -0.458 OA
BRANCH  30  31
ATOM     31  C   UNL A   1      36.195  30.168  28.450  1.00  0.00     0.338 C 
ATOM     32  O   UNL A   1      36.032  31.284  28.876  1.00  0.00    -0.246 OA
BRANCH  31  33
ATOM     33  C   UNL A   1      37.508  29.458  28.448  1.00  0.00     0.060 A 
ATOM     34  C   UNL A   1      38.374  29.673  27.371  1.00  0.00     0.016 A 
ATOM     35  C   UNL A   1      37.865  28.548  29.451  1.00  0.00     0.016 A 
ATOM     36  C   UNL A   1      39.544  28.921  27.259  1.00  0.00     0.010 A 
ATOM     37  C   UNL A   1      39.036  27.795  29.339  1.00  0.00     0.010 A 
ATOM     38  C   UNL A   1      39.869  27.954  28.228  1.00  0.00    -0.014 A 
BRANCH  38  39
ATOM     39  C   UNL A   1      41.261  27.453  28.282  1.00  0.00     0.031 A 
ATOM     40  C   UNL A   1      41.315  26.076  27.737  1.00  0.00     0.074 A 
ATOM     41  C   UNL A   1      42.378  28.161  28.574  1.00  0.00     0.049 A 
ATOM     42  N   UNL A   1      41.601  24.996  28.385  1.00  0.00    -0.248 NA
ATOM     43  C   UNL A   1      40.722  25.828  26.406  1.00  0.00     0.031 C 
ATOM     44  C   UNL A   1      42.403  29.533  29.045  1.00  0.00     0.029 A 
ATOM     45  N   UNL A   1      43.720  27.886  28.456  1.00  0.00    -0.354 N 
ATOM     46  C   UNL A   1      41.570  24.001  27.418  1.00  0.00     0.074 A 
ATOM     47  C   UNL A   1      40.736  24.495  26.363  1.00  0.00     0.031 C 
ATOM     48  C   UNL A   1      43.634  30.066  28.929  1.00  0.00     0.029 A 
ATOM     49  C   UNL A   1      44.535  29.032  28.466  1.00  0.00     0.049 A 
ATOM     50  H   UNL A   1      44.078  26.972  28.373  1.00  0.00     0.167 HD
ATOM     51  C   UNL A   1      42.606  23.122  27.355  1.00  0.00     0.034 A 
ATOM     52  C   UNL A   1      45.855  29.172  28.159  1.00  0.00     0.034 A 
ATOM     53  C   UNL A   1      43.293  23.060  28.629  1.00  0.00     0.049 A 
ATOM     54  C   UNL A   1      46.475  27.854  28.388  1.00  0.00     0.074 A 
ATOM     55  C   UNL A   1      42.974  22.680  29.915  1.00  0.00     0.029 A 
ATOM     56  N   UNL A   1      44.414  23.849  28.707  1.00  0.00    -0.354 N 
ATOM     57  N   UNL A   1      46.576  27.327  29.579  1.00  0.00    -0.248 NA
ATOM     58  C   UNL A   1      46.596  26.917  27.280  1.00  0.00     0.031 C 
ATOM     59  C   UNL A   1      43.838  23.422  30.775  1.00  0.00     0.029 A 
ATOM     60  C   UNL A   1      44.709  24.185  29.999  1.00  0.00     0.049 A 
ATOM     61  H   UNL A   1      44.942  24.135  27.927  1.00  0.00     0.167 HD
ATOM     62  C   UNL A   1      46.308  25.987  29.382  1.00  0.00     0.074 A 
ATOM     63  C   UNL A   1      46.505  25.766  27.952  1.00  0.00     0.031 C 
ATOM     64  C   UNL A   1      45.619  25.274  30.320  1.00  0.00     0.034 A 
BRANCH  51  65
ATOM     65  C   UNL A   1      43.340  22.801  26.055  1.00  0.00     0.023 A 
ATOM     66  C   UNL A   1      43.584  21.441  25.792  1.00  0.00     0.031 A 
ATOM     67  C   UNL A   1      44.080  23.715  25.262  1.00  0.00     0.131 A 
ATOM     68  C   UNL A   1      44.577  21.049  24.876  1.00  0.00     0.055 A 
ATOM     69  C   UNL A   1      45.032  23.319  24.323  1.00  0.00     0.041 A 
ATOM     70  F   UNL A   1      44.003  25.042  25.391  1.00  0.00    -0.206 F 
ATOM     71  C   UNL A   1      45.309  21.980  24.145  1.00  0.00     0.022 A 
BRANCH  68  72
ATOM     72  S   UNL A   1      45.004  19.296  24.766  1.00  0.00     0.124 S 
ATOM     73  O   UNL A   1      45.082  19.106  23.324  1.00  0.00    -0.237 OA
ATOM     74  O   UNL A   1      46.266  19.251  25.498  1.00  0.00    -0.237 OA
ATOM     75  O   UNL A   1      43.881  18.635  25.427  1.00  0.00    -0.744 OA
ENDBRANCH  68  72
ENDBRANCH  51  65
BRANCH  52  76
ATOM     76  C   UNL A   1      46.548  30.329  27.497  1.00  0.00     0.023 A 
ATOM     77  C   UNL A   1      45.867  31.356  26.798  1.00  0.00     0.031 A 
ATOM     78  C   UNL A   1      47.918  30.568  27.764  1.00  0.00     0.131 A 
ATOM     79  C   UNL A   1      46.544  32.548  26.423  1.00  0.00     0.055 A 
ATOM     80  C   UNL A   1      48.578  31.742  27.391  1.00  0.00     0.041 A 
ATOM     81  F   UNL A   1      48.651  29.702  28.479  1.00  0.00    -0.206 F 
ATOM     82  C   UNL A   1      47.891  32.746  26.732  1.00  0.00     0.022 A 
BRANCH  79  83
ATOM     83  S   UNL A   1      45.658  33.926  25.611  1.00  0.00     0.124 S 
ATOM     84  O   UNL A   1      44.726  33.225  24.735  1.00  0.00    -0.237 OA
ATOM     85  O   UNL A   1      45.076  34.639  26.743  1.00  0.00    -0.237 OA
ATOM     86  O   UNL A   1      46.721  34.655  24.915  1.00  0.00    -0.744 OA
ENDBRANCH  79  83
ENDBRANCH  52  76
BRANCH  64  87
ATOM     87  C   UNL A   1      45.746  25.696  31.765  1.00  0.00     0.023 A 
ATOM     88  C   UNL A   1      46.799  25.363  32.643  1.00  0.00     0.031 A 
ATOM     89  C   UNL A   1      44.728  26.539  32.253  1.00  0.00     0.131 A 
ATOM     90  C   UNL A   1      46.798  25.874  33.959  1.00  0.00     0.055 A 
ATOM     91  C   UNL A   1      44.742  27.056  33.544  1.00  0.00     0.041 A 
ATOM     92  F   UNL A   1      43.702  26.895  31.462  1.00  0.00    -0.206 F 
ATOM     93  C   UNL A   1      45.777  26.721  34.405  1.00  0.00     0.022 A 
BRANCH  90  94
ATOM     94  S   UNL A   1      48.113  25.425  35.139  1.00  0.00     0.124 S 
ATOM     95  O   UNL A   1      49.236  25.069  34.282  1.00  0.00    -0.237 OA
ATOM     96  O   UNL A   1      48.266  26.649  35.920  1.00  0.00    -0.237 OA
ATOM     97  O   UNL A   1      47.534  24.303  35.882  1.00  0.00    -0.744 OA
ENDBRANCH  90  94
ENDBRANCH  64  87
ENDBRANCH  38  39
ENDBRANCH  31  33
ENDBRANCH  30  31
ENDBRANCH   1  30
TORSDOF 17
ENDMDL
MODEL 3
REMARK VINA RESULT:     -12.1      4.920     10.222
REMARK SMILES CC1(C)Cc2c(-c3ccccc3)c(-c3ccc(Cl)cc3)c(CC(=O)OCCOC(=O)c3ccc(-c4c5nc(c(-c6cc(S(=O)(=O)[O-])ccc6F)c6ccc([nH]6)c(-c6cc(S(=O)(=O)[O-])ccc6F)c6nc(c(-c7cc(S(=O)(=O)[O-])ccc7F)c7ccc4[nH]7)C=C6)C=C5)cc3)n2C1
REMARK SMILES IDX 27 1 26 2 25 3 23 4 24 5 22 6 21 7 1 8 2 9 3 10 4 11 95 12
REMARK SMILES IDX 5 13 94 14 6 15 13 16 7 17 8 18 12 19 9 20 11 21 10 22 14 23
REMARK SMILES IDX 15 24 20 25 16 26 19 27 17 28 18 29 28 30 29 31 30 32 31 33
REMARK SMILES IDX 32 34 93 35 33 36 92 37 34 38 35 39 36 40 86 41 37 42 91 43
REMARK SMILES IDX 85 44 87 45 38 46 90 47 84 48 83 49 39 51 71 52 51 53 70 54
REMARK SMILES IDX 52 55 55 56 69 57 88 58 53 59 54 60 68 62 89 63 56 64 40 65
REMARK SMILES IDX 41 66 49 67 42 68 48 69 50 70 47 71 43 72 44 73 45 74 46 75
REMARK SMILES IDX 72 76 73 77 81 78 74 79 80 80 82 81 79 82 75 83 76 84 77 85
REMARK SMILES IDX 78 86 57 87 58 88 66 89 59 90 65 91 67 92 64 93 60 94 61 95
REMARK SMILES IDX 62 96 63 97
REMARK H PARENT 87 50 55 61
REMARK Flexibility Score: inf
ROOT
ATOM      1  C   UNL A   1      39.064  20.538  25.685  1.00  0.00     0.275 C 
ENDROOT
BRANCH   1   2
ATOM      2  C   UNL A   1      37.813  21.404  25.500  1.00  0.00     0.274 C 
BRANCH   2   3
ATOM      3  O   UNL A   1      37.502  21.512  24.099  1.00  0.00    -0.462 OA
BRANCH   3   4
ATOM      4  C   UNL A   1      36.890  22.641  23.672  1.00  0.00     0.311 C 
ATOM      5  O   UNL A   1      36.832  22.977  22.490  1.00  0.00    -0.252 OA
BRANCH   4   6
ATOM      6  C   UNL A   1      36.181  23.411  24.774  1.00  0.00     0.177 C 
BRANCH   6   7
ATOM      7  C   UNL A   1      34.672  23.443  24.773  1.00  0.00     0.037 A 
ATOM      8  C   UNL A   1      32.601  19.005  25.592  1.00  0.00     0.013 C 
ATOM      9  C   UNL A   1      32.817  20.251  24.734  1.00  0.00    -0.012 C 
ATOM     10  C   UNL A   1      32.681  19.896  23.243  1.00  0.00     0.013 C 
ATOM     11  C   UNL A   1      31.780  21.354  25.114  1.00  0.00     0.063 C 
ATOM     12  C   UNL A   1      34.213  20.891  25.003  1.00  0.00     0.129 C 
ATOM     13  C   UNL A   1      32.589  22.578  25.028  1.00  0.00     0.027 A 
ATOM     14  N   UNL A   1      33.925  22.316  24.964  1.00  0.00    -0.346 N 
ATOM     15  C   UNL A   1      32.402  23.921  24.911  1.00  0.00     0.011 A 
ATOM     16  C   UNL A   1      33.727  24.478  24.724  1.00  0.00     0.011 A 
BRANCH  15  17
ATOM     17  C   UNL A   1      31.102  24.574  24.839  1.00  0.00    -0.016 A 
ATOM     18  C   UNL A   1      30.488  25.053  26.000  1.00  0.00     0.009 A 
ATOM     19  C   UNL A   1      30.524  24.860  23.595  1.00  0.00     0.009 A 
ATOM     20  C   UNL A   1      29.345  25.852  25.908  1.00  0.00     0.001 A 
ATOM     21  C   UNL A   1      29.408  25.692  23.502  1.00  0.00     0.001 A 
ATOM     22  C   UNL A   1      28.821  26.191  24.660  1.00  0.00     0.000 A 
ENDBRANCH  15  17
BRANCH  16  23
ATOM     23  C   UNL A   1      33.908  25.835  24.228  1.00  0.00    -0.016 A 
ATOM     24  C   UNL A   1      33.634  26.926  25.066  1.00  0.00     0.010 A 
ATOM     25  C   UNL A   1      33.751  25.980  22.847  1.00  0.00     0.010 A 
ATOM     26  C   UNL A   1      33.020  28.066  24.526  1.00  0.00     0.021 A 
ATOM     27  C   UNL A   1      33.223  27.136  22.300  1.00  0.00     0.021 A 
ATOM     28  C   UNL A   1      32.751  28.115  23.156  1.00  0.00     0.041 A 
ATOM     29  Cl  UNL A   1      31.565  29.172  22.507  1.00  0.00    -0.084 Cl
ENDBRANCH  16  23
ENDBRANCH   6   7
ENDBRANCH   4   6
ENDBRANCH   3   4
ENDBRANCH   2   3
ENDBRANCH   1   2
BRANCH   1  30
ATOM     30  O   UNL A   1      40.278  21.255  25.981  1.00  0.00    -0.458 OA
BRANCH  30  31
ATOM     31  C   UNL A   1      40.648  21.326  27.291  1.00  0.00     0.338 C 
ATOM     32  O   UNL A   1      40.752  20.373  28.022  1.00  0.00    -0.246 OA
BRANCH  31  33
ATOM     33  C   UNL A   1      40.962  22.727  27.696  1.00  0.00     0.060 A 
ATOM     34  C   UNL A   1      40.156  23.756  27.197  1.00  0.00     0.016 A 
ATOM     35  C   UNL A   1      42.065  23.042  28.500  1.00  0.00     0.016 A 
ATOM     36  C   UNL A   1      40.502  25.087  27.434  1.00  0.00     0.010 A 
ATOM     37  C   UNL A   1      42.412  24.373  28.736  1.00  0.00     0.010 A 
ATOM     38  C   UNL A   1      41.651  25.406  28.181  1.00  0.00    -0.014 A 
BRANCH  38  39
ATOM     39  C   UNL A   1      41.780  26.779  28.719  1.00  0.00     0.031 A 
ATOM     40  C   UNL A   1      43.022  27.401  28.203  1.00  0.00     0.074 A 
ATOM     41  C   UNL A   1      40.848  27.483  29.405  1.00  0.00     0.049 A 
ATOM     42  N   UNL A   1      44.061  27.743  28.889  1.00  0.00    -0.248 NA
ATOM     43  C   UNL A   1      43.255  27.388  26.743  1.00  0.00     0.031 C 
ATOM     44  C   UNL A   1      39.582  26.959  29.880  1.00  0.00     0.029 A 
ATOM     45  N   UNL A   1      40.753  28.806  29.770  1.00  0.00    -0.354 N 
ATOM     46  C   UNL A   1      44.909  28.323  27.955  1.00  0.00     0.074 A 
ATOM     47  C   UNL A   1      44.525  27.791  26.682  1.00  0.00     0.031 C 
ATOM     48  C   UNL A   1      38.740  27.953  30.223  1.00  0.00     0.029 A 
ATOM     49  C   UNL A   1      39.446  29.210  30.092  1.00  0.00     0.049 A 
ATOM     50  H   UNL A   1      41.528  29.413  29.802  1.00  0.00     0.167 HD
ATOM     51  C   UNL A   1      45.478  29.523  28.250  1.00  0.00     0.034 A 
ATOM     52  C   UNL A   1      38.935  30.460  30.280  1.00  0.00     0.034 A 
ATOM     53  C   UNL A   1      45.512  29.726  29.684  1.00  0.00     0.049 A 
ATOM     54  C   UNL A   1      40.068  31.311  30.691  1.00  0.00     0.074 A 
ATOM     55  C   UNL A   1      46.111  29.112  30.764  1.00  0.00     0.029 A 
ATOM     56  N   UNL A   1      44.477  30.484  30.173  1.00  0.00    -0.354 N 
ATOM     57  N   UNL A   1      40.688  31.149  31.828  1.00  0.00    -0.248 NA
ATOM     58  C   UNL A   1      40.804  32.059  29.681  1.00  0.00     0.031 C 
ATOM     59  C   UNL A   1      45.279  29.388  31.890  1.00  0.00     0.029 A 
ATOM     60  C   UNL A   1      44.231  30.217  31.492  1.00  0.00     0.049 A 
ATOM     61  H   UNL A   1      43.974  31.141  29.640  1.00  0.00     0.167 HD
ATOM     62  C   UNL A   1      42.019  31.352  31.522  1.00  0.00     0.074 A 
ATOM     63  C   UNL A   1      42.011  32.074  30.254  1.00  0.00     0.031 C 
ATOM     64  C   UNL A   1      42.991  30.618  32.138  1.00  0.00     0.034 A 
BRANCH  51  65
ATOM     65  C   UNL A   1      45.443  30.711  27.293  1.00  0.00     0.023 A 
ATOM     66  C   UNL A   1      46.671  31.353  27.044  1.00  0.00     0.031 A 
ATOM     67  C   UNL A   1      44.289  31.433  26.893  1.00  0.00     0.131 A 
ATOM     68  C   UNL A   1      46.711  32.663  26.534  1.00  0.00     0.055 A 
ATOM     69  C   UNL A   1      44.339  32.715  26.345  1.00  0.00     0.041 A 
ATOM     70  F   UNL A   1      43.041  30.996  27.076  1.00  0.00    -0.206 F 
ATOM     71  C   UNL A   1      45.552  33.352  26.190  1.00  0.00     0.022 A 
BRANCH  68  72
ATOM     72  S   UNL A   1      48.304  33.514  26.468  1.00  0.00     0.124 S 
ATOM     73  O   UNL A   1      49.233  32.391  26.467  1.00  0.00    -0.237 OA
ATOM     74  O   UNL A   1      48.189  34.264  25.221  1.00  0.00    -0.237 OA
ATOM     75  O   UNL A   1      48.302  34.326  27.683  1.00  0.00    -0.744 OA
ENDBRANCH  68  72
ENDBRANCH  51  65
BRANCH  52  76
ATOM     76  C   UNL A   1      37.570  30.979  29.933  1.00  0.00     0.023 A 
ATOM     77  C   UNL A   1      36.788  31.775  30.806  1.00  0.00     0.031 A 
ATOM     78  C   UNL A   1      37.109  30.894  28.597  1.00  0.00     0.131 A 
ATOM     79  C   UNL A   1      35.630  32.449  30.329  1.00  0.00     0.055 A 
ATOM     80  C   UNL A   1      35.970  31.559  28.135  1.00  0.00     0.041 A 
ATOM     81  F   UNL A   1      37.803  30.229  27.661  1.00  0.00    -0.206 F 
ATOM     82  C   UNL A   1      35.232  32.352  28.995  1.00  0.00     0.022 A 
BRANCH  79  83
ATOM     83  S   UNL A   1      34.666  33.561  31.415  1.00  0.00     0.124 S 
ATOM     84  O   UNL A   1      35.701  34.417  31.982  1.00  0.00    -0.237 OA
ATOM     85  O   UNL A   1      33.741  34.191  30.480  1.00  0.00    -0.237 OA
ATOM     86  O   UNL A   1      34.037  32.646  32.370  1.00  0.00    -0.744 OA
ENDBRANCH  79  83
ENDBRANCH  52  76
BRANCH  64  87
ATOM     87  C   UNL A   1      42.724  30.124  33.541  1.00  0.00     0.023 A 
ATOM     88  C   UNL A   1      42.377  28.807  33.911  1.00  0.00     0.031 A 
ATOM     89  C   UNL A   1      42.885  31.073  34.569  1.00  0.00     0.131 A 
ATOM     90  C   UNL A   1      42.204  28.490  35.275  1.00  0.00     0.055 A 
ATOM     91  C   UNL A   1      42.733  30.750  35.913  1.00  0.00     0.041 A 
ATOM     92  F   UNL A   1      43.221  32.341  34.278  1.00  0.00    -0.206 F 
ATOM     93  C   UNL A   1      42.386  29.456  36.272  1.00  0.00     0.022 A 
BRANCH  90  94
ATOM     94  S   UNL A   1      41.703  26.814  35.790  1.00  0.00     0.124 S 
ATOM     95  O   UNL A   1      40.753  26.409  34.762  1.00  0.00    -0.237 OA
ATOM     96  O   UNL A   1      42.976  26.097  35.805  1.00  0.00    -0.237 OA
ATOM     97  O   UNL A   1      41.115  27.027  37.115  1.00  0.00    -0.744 OA
ENDBRANCH  90  94
ENDBRANCH  64  87
ENDBRANCH  38  39
ENDBRANCH  31  33
ENDBRANCH  30  31
ENDBRANCH   1  30
TORSDOF 17
ENDMDL
