MODEL 1
REMARK VINA RESULT:     -10.5      0.000      0.000
REMARK SMILES O=C(/C=C/C(=O)OCCOC(=O)c1ccc(-c2c3nc(c(-c4cc(S(=O)(=O)[O-])ccc4F)c4ccc([nH]4)c(-c4cc(S(=O)(=O)[O-])ccc4F)c4nc(c(-c5cc(S(=O)(=O)[O-])ccc5F)c5ccc2[nH]5)C=C4)C=C3)cc1)Nc1ccccn1
REMARK SMILES IDX 9 1 8 2 7 3 5 4 6 5 4 6 3 7 2 8 1 9 76 10 77 12 78 13 82 14
REMARK SMILES IDX 79 15 81 16 80 17 10 18 11 19 12 20 13 21 14 22 75 23 15 24
REMARK SMILES IDX 74 25 16 26 17 27 18 28 68 29 19 30 73 31 67 32 69 33 20 34
REMARK SMILES IDX 72 35 66 36 65 37 21 39 53 40 33 41 52 42 34 43 37 44 51 45
REMARK SMILES IDX 70 46 35 47 36 48 50 50 71 51 38 52 22 53 23 54 31 55 24 56
REMARK SMILES IDX 30 57 32 58 29 59 25 60 26 61 27 62 28 63 54 64 55 65 63 66
REMARK SMILES IDX 56 67 62 68 64 69 61 70 57 71 58 72 59 73 60 74 39 75 40 76
REMARK SMILES IDX 48 77 41 78 47 79 49 80 46 81 42 82 43 83 44 84 45 85
REMARK H PARENT 76 11 69 38 37 49
REMARK Flexibility Score: inf
ROOT
ATOM      1  C   UNL A   1      40.329  19.813  26.126  1.00  0.00     0.275 C 
ENDROOT
BRANCH   1   2
ATOM      2  C   UNL A   1      41.705  19.146  26.228  1.00  0.00     0.275 C 
BRANCH   2   3
ATOM      3  O   UNL A   1      42.449  19.259  25.001  1.00  0.00    -0.459 OA
BRANCH   3   4
ATOM      4  C   UNL A   1      43.797  19.224  25.123  1.00  0.00     0.331 C 
ATOM      5  O   UNL A   1      44.516  18.260  24.904  1.00  0.00    -0.247 OA
BRANCH   4   6
ATOM      6  C   UNL A   1      44.364  20.518  25.544  1.00  0.00     0.099 C 
ATOM      7  C   UNL A   1      44.019  21.701  25.020  1.00  0.00     0.079 C 
BRANCH   7   8
ATOM      8  C   UNL A   1      44.576  22.945  25.599  1.00  0.00     0.249 C 
ATOM      9  O   UNL A   1      44.422  23.994  24.987  1.00  0.00    -0.270 OA
ATOM     10  N   UNL A   1      45.262  22.752  26.766  1.00  0.00    -0.307 N 
ATOM     11  H   UNL A   1      45.385  21.817  27.050  1.00  0.00     0.171 HD
BRANCH  10  12
ATOM     12  C   UNL A   1      45.808  23.729  27.601  1.00  0.00     0.132 A 
ATOM     13  C   UNL A   1      46.955  24.451  27.300  1.00  0.00     0.047 A 
ATOM     14  N   UNL A   1      45.098  23.938  28.729  1.00  0.00    -0.239 NA
ATOM     15  C   UNL A   1      47.403  25.412  28.205  1.00  0.00     0.005 A 
ATOM     16  C   UNL A   1      45.561  24.864  29.599  1.00  0.00     0.113 A 
ATOM     17  C   UNL A   1      46.700  25.619  29.384  1.00  0.00     0.020 A 
ENDBRANCH  10  12
ENDBRANCH   7   8
ENDBRANCH   4   6
ENDBRANCH   3   4
ENDBRANCH   2   3
ENDBRANCH   1   2
BRANCH   1  18
ATOM     18  O   UNL A   1      40.232  20.992  26.945  1.00  0.00    -0.458 OA
BRANCH  18  19
ATOM     19  C   UNL A   1      39.354  21.926  26.504  1.00  0.00     0.338 C 
ATOM     20  O   UNL A   1      38.311  21.721  25.904  1.00  0.00    -0.246 OA
BRANCH  19  21
ATOM     21  C   UNL A   1      39.754  23.259  26.985  1.00  0.00     0.060 A 
ATOM     22  C   UNL A   1      39.075  24.366  26.466  1.00  0.00     0.016 A 
ATOM     23  C   UNL A   1      40.812  23.434  27.881  1.00  0.00     0.016 A 
ATOM     24  C   UNL A   1      39.456  25.655  26.834  1.00  0.00     0.010 A 
ATOM     25  C   UNL A   1      41.194  24.729  28.249  1.00  0.00     0.010 A 
ATOM     26  C   UNL A   1      40.524  25.847  27.721  1.00  0.00    -0.014 A 
BRANCH  26  27
ATOM     27  C   UNL A   1      40.964  27.226  28.047  1.00  0.00     0.031 A 
ATOM     28  C   UNL A   1      42.382  27.641  27.776  1.00  0.00     0.074 A 
ATOM     29  C   UNL A   1      40.080  28.110  28.545  1.00  0.00     0.049 A 
ATOM     30  N   UNL A   1      42.972  28.783  28.016  1.00  0.00    -0.248 NA
ATOM     31  C   UNL A   1      43.250  26.633  27.150  1.00  0.00     0.031 C 
ATOM     32  C   UNL A   1      38.667  27.831  28.804  1.00  0.00     0.029 A 
ATOM     33  N   UNL A   1      40.237  29.421  28.918  1.00  0.00    -0.354 N 
ATOM     34  C   UNL A   1      44.282  28.634  27.574  1.00  0.00     0.074 A 
ATOM     35  C   UNL A   1      44.406  27.276  27.086  1.00  0.00     0.031 C 
ATOM     36  C   UNL A   1      38.084  28.941  29.286  1.00  0.00     0.029 A 
ATOM     37  C   UNL A   1      39.090  29.993  29.417  1.00  0.00     0.049 A 
ATOM     38  H   UNL A   1      41.089  29.905  28.837  1.00  0.00     0.167 HD
ATOM     39  C   UNL A   1      45.283  29.550  27.568  1.00  0.00     0.034 A 
ATOM     40  C   UNL A   1      38.881  31.217  29.940  1.00  0.00     0.034 A 
ATOM     41  C   UNL A   1      45.144  30.896  28.073  1.00  0.00     0.049 A 
ATOM     42  C   UNL A   1      40.033  32.187  30.008  1.00  0.00     0.074 A 
ATOM     43  C   UNL A   1      46.094  31.902  28.123  1.00  0.00     0.029 A 
ATOM     44  N   UNL A   1      43.983  31.423  28.626  1.00  0.00    -0.354 N 
ATOM     45  N   UNL A   1      41.272  32.029  29.603  1.00  0.00    -0.248 NA
ATOM     46  C   UNL A   1      39.756  33.502  30.601  1.00  0.00     0.031 C 
ATOM     47  C   UNL A   1      45.528  33.012  28.762  1.00  0.00     0.029 A 
ATOM     48  C   UNL A   1      44.202  32.728  29.045  1.00  0.00     0.049 A 
ATOM     49  H   UNL A   1      43.129  30.940  28.709  1.00  0.00     0.167 HD
ATOM     50  C   UNL A   1      41.915  33.235  29.870  1.00  0.00     0.074 A 
ATOM     51  C   UNL A   1      40.923  34.112  30.457  1.00  0.00     0.031 C 
ATOM     52  C   UNL A   1      43.207  33.586  29.646  1.00  0.00     0.034 A 
BRANCH  39  53
ATOM     53  C   UNL A   1      46.628  29.100  27.049  1.00  0.00     0.023 A 
ATOM     54  C   UNL A   1      46.815  28.725  25.707  1.00  0.00     0.031 A 
ATOM     55  C   UNL A   1      47.731  29.014  27.916  1.00  0.00     0.131 A 
ATOM     56  C   UNL A   1      48.054  28.215  25.288  1.00  0.00     0.055 A 
ATOM     57  C   UNL A   1      48.983  28.578  27.476  1.00  0.00     0.041 A 
ATOM     58  F   UNL A   1      47.608  29.336  29.213  1.00  0.00    -0.206 F 
ATOM     59  C   UNL A   1      49.146  28.162  26.158  1.00  0.00     0.022 A 
BRANCH  56  60
ATOM     60  S   UNL A   1      48.180  27.492  23.629  1.00  0.00     0.124 S 
ATOM     61  O   UNL A   1      49.555  27.825  23.265  1.00  0.00    -0.237 OA
ATOM     62  O   UNL A   1      47.907  26.081  23.878  1.00  0.00    -0.237 OA
ATOM     63  O   UNL A   1      47.153  28.201  22.868  1.00  0.00    -0.744 OA
ENDBRANCH  56  60
ENDBRANCH  39  53
BRANCH  40  64
ATOM     64  C   UNL A   1      37.541  31.585  30.481  1.00  0.00     0.023 A 
ATOM     65  C   UNL A   1      36.607  32.283  29.700  1.00  0.00     0.031 A 
ATOM     66  C   UNL A   1      37.193  31.279  31.809  1.00  0.00     0.131 A 
ATOM     67  C   UNL A   1      35.387  32.686  30.264  1.00  0.00     0.055 A 
ATOM     68  C   UNL A   1      35.958  31.637  32.350  1.00  0.00     0.041 A 
ATOM     69  F   UNL A   1      38.051  30.615  32.600  1.00  0.00    -0.206 F 
ATOM     70  C   UNL A   1      35.050  32.355  31.579  1.00  0.00     0.022 A 
BRANCH  67  71
ATOM     71  S   UNL A   1      34.270  33.719  29.275  1.00  0.00     0.124 S 
ATOM     72  O   UNL A   1      33.693  32.740  28.361  1.00  0.00    -0.237 OA
ATOM     73  O   UNL A   1      33.372  34.256  30.292  1.00  0.00    -0.237 OA
ATOM     74  O   UNL A   1      35.166  34.696  28.660  1.00  0.00    -0.744 OA
ENDBRANCH  67  71
ENDBRANCH  40  64
BRANCH  52  75
ATOM     75  C   UNL A   1      43.602  34.999  30.002  1.00  0.00     0.023 A 
ATOM     76  C   UNL A   1      44.002  35.350  31.303  1.00  0.00     0.031 A 
ATOM     77  C   UNL A   1      43.563  36.010  29.026  1.00  0.00     0.131 A 
ATOM     78  C   UNL A   1      44.295  36.689  31.607  1.00  0.00     0.055 A 
ATOM     79  C   UNL A   1      43.909  37.330  29.319  1.00  0.00     0.041 A 
ATOM     80  F   UNL A   1      43.186  35.731  27.767  1.00  0.00    -0.206 F 
ATOM     81  C   UNL A   1      44.266  37.678  30.619  1.00  0.00     0.022 A 
BRANCH  78  82
ATOM     82  S   UNL A   1      44.631  37.141  33.331  1.00  0.00     0.124 S 
ATOM     83  O   UNL A   1      43.963  38.434  33.442  1.00  0.00    -0.237 OA
ATOM     84  O   UNL A   1      44.017  36.041  34.067  1.00  0.00    -0.237 OA
ATOM     85  O   UNL A   1      46.091  37.190  33.395  1.00  0.00    -0.744 OA
ENDBRANCH  78  82
ENDBRANCH  52  75
ENDBRANCH  26  27
ENDBRANCH  19  21
ENDBRANCH  18  19
ENDBRANCH   1  18
TORSDOF 16
ENDMDL
MODEL 2
REMARK VINA RESULT:     -10.1      2.214      2.655
REMARK SMILES O=C(/C=C/C(=O)OCCOC(=O)c1ccc(-c2c3nc(c(-c4cc(S(=O)(=O)[O-])ccc4F)c4ccc([nH]4)c(-c4cc(S(=O)(=O)[O-])ccc4F)c4nc(c(-c5cc(S(=O)(=O)[O-])ccc5F)c5ccc2[nH]5)C=C4)C=C3)cc1)Nc1ccccn1
REMARK SMILES IDX 9 1 8 2 7 3 5 4 6 5 4 6 3 7 2 8 1 9 76 10 77 12 78 13 82 14
REMARK SMILES IDX 79 15 81 16 80 17 10 18 11 19 12 20 13 21 14 22 75 23 15 24
REMARK SMILES IDX 74 25 16 26 17 27 18 28 68 29 19 30 73 31 67 32 69 33 20 34
REMARK SMILES IDX 72 35 66 36 65 37 21 39 53 40 33 41 52 42 34 43 37 44 51 45
REMARK SMILES IDX 70 46 35 47 36 48 50 50 71 51 38 52 22 53 23 54 31 55 24 56
REMARK SMILES IDX 30 57 32 58 29 59 25 60 26 61 27 62 28 63 54 64 55 65 63 66
REMARK SMILES IDX 56 67 62 68 64 69 61 70 57 71 58 72 59 73 60 74 39 75 40 76
REMARK SMILES IDX 48 77 41 78 47 79 49 80 46 81 42 82 43 83 44 84 45 85
REMARK H PARENT 76 11 69 38 37 49
REMARK Flexibility Score: inf
ROOT
ATOM      1  C   UNL A   1      40.497  19.948  26.416  1.00  0.00     0.275 C 
ENDROOT
BRANCH   1   2
ATOM      2  C   UNL A   1      41.795  19.137  26.336  1.00  0.00     0.275 C 
BRANCH   2   3
ATOM      3  O   UNL A   1      42.483  19.347  25.089  1.00  0.00    -0.459 OA
BRANCH   3   4
ATOM      4  C   UNL A   1      43.836  19.351  25.156  1.00  0.00     0.331 C 
ATOM      5  O   UNL A   1      44.559  18.367  25.178  1.00  0.00    -0.247 OA
BRANCH   4   6
ATOM      6  C   UNL A   1      44.399  20.713  25.179  1.00  0.00     0.099 C 
ATOM      7  C   UNL A   1      43.669  21.834  25.204  1.00  0.00     0.079 C 
BRANCH   7   8
ATOM      8  C   UNL A   1      44.347  23.144  25.337  1.00  0.00     0.249 C 
ATOM      9  O   UNL A   1      43.657  24.152  25.427  1.00  0.00    -0.270 OA
ATOM     10  N   UNL A   1      45.711  23.066  25.289  1.00  0.00    -0.307 N 
ATOM     11  H   UNL A   1      46.091  22.180  25.092  1.00  0.00     0.171 HD
BRANCH  10  12
ATOM     12  C   UNL A   1      46.627  24.102  25.490  1.00  0.00     0.132 A 
ATOM     13  C   UNL A   1      47.065  24.516  26.740  1.00  0.00     0.047 A 
ATOM     14  N   UNL A   1      47.081  24.653  24.345  1.00  0.00    -0.239 NA
ATOM     15  C   UNL A   1      47.991  25.555  26.820  1.00  0.00     0.005 A 
ATOM     16  C   UNL A   1      47.967  25.670  24.449  1.00  0.00     0.113 A 
ATOM     17  C   UNL A   1      48.447  26.153  25.653  1.00  0.00     0.020 A 
ENDBRANCH  10  12
ENDBRANCH   7   8
ENDBRANCH   4   6
ENDBRANCH   3   4
ENDBRANCH   2   3
ENDBRANCH   1   2
BRANCH   1  18
ATOM     18  O   UNL A   1      40.716  21.278  26.921  1.00  0.00    -0.458 OA
BRANCH  18  19
ATOM     19  C   UNL A   1      39.832  22.209  26.485  1.00  0.00     0.338 C 
ATOM     20  O   UNL A   1      38.746  21.999  25.970  1.00  0.00    -0.246 OA
BRANCH  19  21
ATOM     21  C   UNL A   1      40.296  23.556  26.858  1.00  0.00     0.060 A 
ATOM     22  C   UNL A   1      40.797  23.734  28.151  1.00  0.00     0.016 A 
ATOM     23  C   UNL A   1      40.189  24.642  25.985  1.00  0.00     0.016 A 
ATOM     24  C   UNL A   1      41.188  25.000  28.581  1.00  0.00     0.010 A 
ATOM     25  C   UNL A   1      40.582  25.913  26.418  1.00  0.00     0.010 A 
ATOM     26  C   UNL A   1      41.074  26.101  27.722  1.00  0.00    -0.014 A 
BRANCH  26  27
ATOM     27  C   UNL A   1      41.426  27.454  28.219  1.00  0.00     0.031 A 
ATOM     28  C   UNL A   1      42.863  27.894  28.231  1.00  0.00     0.074 A 
ATOM     29  C   UNL A   1      40.454  28.295  28.617  1.00  0.00     0.049 A 
ATOM     30  N   UNL A   1      43.382  29.017  28.654  1.00  0.00    -0.248 NA
ATOM     31  C   UNL A   1      43.843  26.938  27.697  1.00  0.00     0.031 C 
ATOM     32  C   UNL A   1      39.022  27.992  28.602  1.00  0.00     0.029 A 
ATOM     33  N   UNL A   1      40.521  29.576  29.105  1.00  0.00    -0.354 N 
ATOM     34  C   UNL A   1      44.751  28.907  28.439  1.00  0.00     0.074 A 
ATOM     35  C   UNL A   1      44.982  27.589  27.883  1.00  0.00     0.031 C 
ATOM     36  C   UNL A   1      38.346  29.061  29.053  1.00  0.00     0.029 A 
ATOM     37  C   UNL A   1      39.295  30.105  29.434  1.00  0.00     0.049 A 
ATOM     38  H   UNL A   1      41.366  30.068  29.210  1.00  0.00     0.167 HD
ATOM     39  C   UNL A   1      45.722  29.825  28.675  1.00  0.00     0.034 A 
ATOM     40  C   UNL A   1      38.977  31.286  29.999  1.00  0.00     0.034 A 
ATOM     41  C   UNL A   1      45.474  31.129  29.243  1.00  0.00     0.049 A 
ATOM     42  C   UNL A   1      40.083  32.253  30.338  1.00  0.00     0.074 A 
ATOM     43  C   UNL A   1      46.384  32.133  29.531  1.00  0.00     0.029 A 
ATOM     44  N   UNL A   1      44.226  31.609  29.620  1.00  0.00    -0.354 N 
ATOM     45  N   UNL A   1      41.376  32.131  30.147  1.00  0.00    -0.248 NA
ATOM     46  C   UNL A   1      39.685  33.520  30.967  1.00  0.00     0.031 C 
ATOM     47  C   UNL A   1      45.696  33.190  30.139  1.00  0.00     0.029 A 
ATOM     48  C   UNL A   1      44.346  32.880  30.164  1.00  0.00     0.049 A 
ATOM     49  H   UNL A   1      43.379  31.118  29.516  1.00  0.00     0.167 HD
ATOM     50  C   UNL A   1      41.942  33.316  30.609  1.00  0.00     0.074 A 
ATOM     51  C   UNL A   1      40.848  34.143  31.074  1.00  0.00     0.031 C 
ATOM     52  C   UNL A   1      43.247  33.688  30.640  1.00  0.00     0.034 A 
BRANCH  39  53
ATOM     53  C   UNL A   1      47.145  29.420  28.368  1.00  0.00     0.023 A 
ATOM     54  C   UNL A   1      47.909  28.662  29.272  1.00  0.00     0.031 A 
ATOM     55  C   UNL A   1      47.755  29.825  27.168  1.00  0.00     0.131 A 
ATOM     56  C   UNL A   1      49.259  28.394  28.995  1.00  0.00     0.055 A 
ATOM     57  C   UNL A   1      49.076  29.489  26.863  1.00  0.00     0.041 A 
ATOM     58  F   UNL A   1      47.082  30.570  26.277  1.00  0.00    -0.206 F 
ATOM     59  C   UNL A   1      49.841  28.781  27.785  1.00  0.00     0.022 A 
BRANCH  56  60
ATOM     60  S   UNL A   1      50.283  27.652  30.296  1.00  0.00     0.124 S 
ATOM     61  O   UNL A   1      49.336  27.571  31.406  1.00  0.00    -0.237 OA
ATOM     62  O   UNL A   1      50.681  26.382  29.700  1.00  0.00    -0.237 OA
ATOM     63  O   UNL A   1      51.361  28.622  30.478  1.00  0.00    -0.744 OA
ENDBRANCH  56  60
ENDBRANCH  39  53
BRANCH  40  64
ATOM     64  C   UNL A   1      37.558  31.607  30.322  1.00  0.00     0.023 A 
ATOM     65  C   UNL A   1      36.668  32.051  29.331  1.00  0.00     0.031 A 
ATOM     66  C   UNL A   1      37.081  31.517  31.643  1.00  0.00     0.131 A 
ATOM     67  C   UNL A   1      35.361  32.424  29.681  1.00  0.00     0.055 A 
ATOM     68  C   UNL A   1      35.766  31.838  31.977  1.00  0.00     0.041 A 
ATOM     69  F   UNL A   1      37.891  31.101  32.629  1.00  0.00    -0.206 F 
ATOM     70  C   UNL A   1      34.900  32.306  30.994  1.00  0.00     0.022 A 
BRANCH  67  71
ATOM     71  S   UNL A   1      34.288  33.137  28.404  1.00  0.00     0.124 S 
ATOM     72  O   UNL A   1      33.688  31.944  27.819  1.00  0.00    -0.237 OA
ATOM     73  O   UNL A   1      33.399  33.983  29.193  1.00  0.00    -0.237 OA
ATOM     74  O   UNL A   1      35.221  33.855  27.538  1.00  0.00    -0.744 OA
ENDBRANCH  67  71
ENDBRANCH  40  64
BRANCH  52  75
ATOM     75  C   UNL A   1      43.550  35.072  31.162  1.00  0.00     0.023 A 
ATOM     76  C   UNL A   1      43.587  36.192  30.314  1.00  0.00     0.031 A 
ATOM     77  C   UNL A   1      43.819  35.267  32.529  1.00  0.00     0.131 A 
ATOM     78  C   UNL A   1      43.940  37.449  30.830  1.00  0.00     0.055 A 
ATOM     79  C   UNL A   1      44.114  36.528  33.047  1.00  0.00     0.041 A 
ATOM     80  F   UNL A   1      43.799  34.232  33.384  1.00  0.00    -0.206 F 
ATOM     81  C   UNL A   1      44.189  37.626  32.194  1.00  0.00     0.022 A 
BRANCH  78  82
ATOM     82  S   UNL A   1      44.157  38.836  29.682  1.00  0.00     0.124 S 
ATOM     83  O   UNL A   1      45.611  38.923  29.582  1.00  0.00    -0.237 OA
ATOM     84  O   UNL A   1      43.463  38.364  28.488  1.00  0.00    -0.237 OA
ATOM     85  O   UNL A   1      43.515  39.955  30.369  1.00  0.00    -0.744 OA
ENDBRANCH  78  82
ENDBRANCH  52  75
ENDBRANCH  26  27
ENDBRANCH  19  21
ENDBRANCH  18  19
ENDBRANCH   1  18
TORSDOF 16
ENDMDL
MODEL 3
REMARK VINA RESULT:     -10.0      3.687      9.760
REMARK SMILES O=C(/C=C/C(=O)OCCOC(=O)c1ccc(-c2c3nc(c(-c4cc(S(=O)(=O)[O-])ccc4F)c4ccc([nH]4)c(-c4cc(S(=O)(=O)[O-])ccc4F)c4nc(c(-c5cc(S(=O)(=O)[O-])ccc5F)c5ccc2[nH]5)C=C4)C=C3)cc1)Nc1ccccn1
REMARK SMILES IDX 9 1 8 2 7 3 5 4 6 5 4 6 3 7 2 8 1 9 76 10 77 12 78 13 82 14
REMARK SMILES IDX 79 15 81 16 80 17 10 18 11 19 12 20 13 21 14 22 75 23 15 24
REMARK SMILES IDX 74 25 16 26 17 27 18 28 68 29 19 30 73 31 67 32 69 33 20 34
REMARK SMILES IDX 72 35 66 36 65 37 21 39 53 40 33 41 52 42 34 43 37 44 51 45
REMARK SMILES IDX 70 46 35 47 36 48 50 50 71 51 38 52 22 53 23 54 31 55 24 56
REMARK SMILES IDX 30 57 32 58 29 59 25 60 26 61 27 62 28 63 54 64 55 65 63 66
REMARK SMILES IDX 56 67 62 68 64 69 61 70 57 71 58 72 59 73 60 74 39 75 40 76
REMARK SMILES IDX 48 77 41 78 47 79 49 80 46 81 42 82 43 83 44 84 45 85
REMARK H PARENT 76 11 69 38 37 49
REMARK Flexibility Score: inf
ROOT
ATOM      1  C   UNL A   1      36.613  20.600  25.001  1.00  0.00     0.275 C 
ENDROOT
BRANCH   1   2
ATOM      2  C   UNL A   1      35.156  21.003  24.748  1.00  0.00     0.275 C 
BRANCH   2   3
ATOM      3  O   UNL A   1      34.252  19.900  24.944  1.00  0.00    -0.459 OA
BRANCH   3   4
ATOM      4  C   UNL A   1      32.951  20.229  25.123  1.00  0.00     0.331 C 
ATOM      5  O   UNL A   1      32.011  19.450  25.172  1.00  0.00    -0.247 OA
BRANCH   4   6
ATOM      6  C   UNL A   1      32.748  21.680  25.284  1.00  0.00     0.099 C 
ATOM      7  C   UNL A   1      31.837  22.231  26.096  1.00  0.00     0.079 C 
BRANCH   7   8
ATOM      8  C   UNL A   1      31.800  23.702  26.258  1.00  0.00     0.249 C 
ATOM      9  O   UNL A   1      31.178  24.170  27.204  1.00  0.00    -0.270 OA
ATOM     10  N   UNL A   1      32.448  24.384  25.266  1.00  0.00    -0.307 N 
ATOM     11  H   UNL A   1      32.793  23.843  24.519  1.00  0.00     0.171 HD
BRANCH  10  12
ATOM     12  C   UNL A   1      32.679  25.759  25.192  1.00  0.00     0.132 A 
ATOM     13  C   UNL A   1      33.642  26.424  25.939  1.00  0.00     0.047 A 
ATOM     14  N   UNL A   1      31.894  26.394  24.296  1.00  0.00    -0.239 NA
ATOM     15  C   UNL A   1      33.791  27.801  25.775  1.00  0.00     0.005 A 
ATOM     16  C   UNL A   1      32.046  27.731  24.166  1.00  0.00     0.113 A 
ATOM     17  C   UNL A   1      32.972  28.473  24.878  1.00  0.00     0.020 A 
ENDBRANCH  10  12
ENDBRANCH   7   8
ENDBRANCH   4   6
ENDBRANCH   3   4
ENDBRANCH   2   3
ENDBRANCH   1   2
BRANCH   1  18
ATOM     18  O   UNL A   1      37.335  21.601  25.740  1.00  0.00    -0.458 OA
BRANCH  18  19
ATOM     19  C   UNL A   1      38.634  21.303  25.990  1.00  0.00     0.338 C 
ATOM     20  O   UNL A   1      39.198  20.247  25.755  1.00  0.00    -0.246 OA
BRANCH  19  21
ATOM     21  C   UNL A   1      39.344  22.504  26.462  1.00  0.00     0.060 A 
ATOM     22  C   UNL A   1      38.853  23.749  26.054  1.00  0.00     0.016 A 
ATOM     23  C   UNL A   1      40.502  22.420  27.238  1.00  0.00     0.016 A 
ATOM     24  C   UNL A   1      39.522  24.916  26.414  1.00  0.00     0.010 A 
ATOM     25  C   UNL A   1      41.174  23.594  27.599  1.00  0.00     0.010 A 
ATOM     26  C   UNL A   1      40.694  24.847  27.180  1.00  0.00    -0.014 A 
BRANCH  26  27
ATOM     27  C   UNL A   1      41.435  26.094  27.495  1.00  0.00     0.031 A 
ATOM     28  C   UNL A   1      40.783  27.158  28.332  1.00  0.00     0.074 A 
ATOM     29  C   UNL A   1      42.700  26.247  27.063  1.00  0.00     0.049 A 
ATOM     30  N   UNL A   1      41.245  28.328  28.691  1.00  0.00    -0.248 NA
ATOM     31  C   UNL A   1      39.432  26.863  28.829  1.00  0.00     0.031 C 
ATOM     32  C   UNL A   1      43.448  25.259  26.284  1.00  0.00     0.029 A 
ATOM     33  N   UNL A   1      43.581  27.287  27.222  1.00  0.00    -0.354 N 
ATOM     34  C   UNL A   1      40.242  28.913  29.456  1.00  0.00     0.074 A 
ATOM     35  C   UNL A   1      39.134  27.980  29.475  1.00  0.00     0.031 C 
ATOM     36  C   UNL A   1      44.679  25.738  26.040  1.00  0.00     0.029 A 
ATOM     37  C   UNL A   1      44.791  27.083  26.601  1.00  0.00     0.049 A 
ATOM     38  H   UNL A   1      43.367  28.101  27.731  1.00  0.00     0.167 HD
ATOM     39  C   UNL A   1      40.252  30.112  30.091  1.00  0.00     0.034 A 
ATOM     40  C   UNL A   1      45.859  27.897  26.479  1.00  0.00     0.034 A 
ATOM     41  C   UNL A   1      41.362  31.035  30.049  1.00  0.00     0.049 A 
ATOM     42  C   UNL A   1      45.810  29.263  27.115  1.00  0.00     0.074 A 
ATOM     43  C   UNL A   1      41.474  32.278  30.648  1.00  0.00     0.029 A 
ATOM     44  N   UNL A   1      42.549  30.821  29.360  1.00  0.00    -0.354 N 
ATOM     45  N   UNL A   1      44.849  29.812  27.822  1.00  0.00    -0.248 NA
ATOM     46  C   UNL A   1      46.992  30.117  26.940  1.00  0.00     0.031 C 
ATOM     47  C   UNL A   1      42.699  32.841  30.270  1.00  0.00     0.029 A 
ATOM     48  C   UNL A   1      43.386  31.920  29.496  1.00  0.00     0.049 A 
ATOM     49  H   UNL A   1      42.766  30.008  28.850  1.00  0.00     0.167 HD
ATOM     50  C   UNL A   1      45.322  31.067  28.196  1.00  0.00     0.074 A 
ATOM     51  C   UNL A   1      46.658  31.185  27.649  1.00  0.00     0.031 C 
ATOM     52  C   UNL A   1      44.711  32.031  28.930  1.00  0.00     0.034 A 
BRANCH  39  53
ATOM     53  C   UNL A   1      38.999  30.509  30.835  1.00  0.00     0.023 A 
ATOM     54  C   UNL A   1      38.021  31.332  30.251  1.00  0.00     0.031 A 
ATOM     55  C   UNL A   1      38.796  30.084  32.160  1.00  0.00     0.131 A 
ATOM     56  C   UNL A   1      36.921  31.762  31.011  1.00  0.00     0.055 A 
ATOM     57  C   UNL A   1      37.661  30.452  32.886  1.00  0.00     0.041 A 
ATOM     58  F   UNL A   1      39.706  29.316  32.779  1.00  0.00    -0.206 F 
ATOM     59  C   UNL A   1      36.722  31.308  32.317  1.00  0.00     0.022 A 
BRANCH  56  60
ATOM     60  S   UNL A   1      35.828  33.032  30.317  1.00  0.00     0.124 S 
ATOM     61  O   UNL A   1      34.569  32.302  30.191  1.00  0.00    -0.237 OA
ATOM     62  O   UNL A   1      35.866  34.074  31.338  1.00  0.00    -0.237 OA
ATOM     63  O   UNL A   1      36.468  33.379  29.049  1.00  0.00    -0.744 OA
ENDBRANCH  56  60
ENDBRANCH  39  53
BRANCH  40  64
ATOM     64  C   UNL A   1      47.047  27.465  25.690  1.00  0.00     0.023 A 
ATOM     65  C   UNL A   1      47.194  27.822  24.340  1.00  0.00     0.031 A 
ATOM     66  C   UNL A   1      48.036  26.648  26.267  1.00  0.00     0.131 A 
ATOM     67  C   UNL A   1      48.282  27.333  23.602  1.00  0.00     0.055 A 
ATOM     68  C   UNL A   1      49.144  26.206  25.543  1.00  0.00     0.041 A 
ATOM     69  F   UNL A   1      47.943  26.275  27.553  1.00  0.00    -0.206 F 
ATOM     70  C   UNL A   1      49.266  26.540  24.198  1.00  0.00     0.022 A 
BRANCH  67  71
ATOM     71  S   UNL A   1      48.358  27.687  21.825  1.00  0.00     0.124 S 
ATOM     72  O   UNL A   1      47.043  28.270  21.582  1.00  0.00    -0.237 OA
ATOM     73  O   UNL A   1      49.491  28.603  21.745  1.00  0.00    -0.237 OA
ATOM     74  O   UNL A   1      48.579  26.373  21.225  1.00  0.00    -0.744 OA
ENDBRANCH  67  71
ENDBRANCH  40  64
BRANCH  52  75
ATOM     75  C   UNL A   1      45.507  33.281  29.214  1.00  0.00     0.023 A 
ATOM     76  C   UNL A   1      45.488  34.386  28.345  1.00  0.00     0.031 A 
ATOM     77  C   UNL A   1      46.309  33.360  30.366  1.00  0.00     0.131 A 
ATOM     78  C   UNL A   1      46.297  35.501  28.613  1.00  0.00     0.055 A 
ATOM     79  C   UNL A   1      47.069  34.494  30.658  1.00  0.00     0.041 A 
ATOM     80  F   UNL A   1      46.367  32.333  31.230  1.00  0.00    -0.206 F 
ATOM     81  C   UNL A   1      47.075  35.568  29.772  1.00  0.00     0.022 A 
BRANCH  78  82
ATOM     82  S   UNL A   1      46.388  36.831  27.383  1.00  0.00     0.124 S 
ATOM     83  O   UNL A   1      46.099  36.117  26.142  1.00  0.00    -0.237 OA
ATOM     84  O   UNL A   1      45.355  37.752  27.843  1.00  0.00    -0.237 OA
ATOM     85  O   UNL A   1      47.758  37.324  27.509  1.00  0.00    -0.744 OA
ENDBRANCH  78  82
ENDBRANCH  52  75
ENDBRANCH  26  27
ENDBRANCH  19  21
ENDBRANCH  18  19
ENDBRANCH   1  18
TORSDOF 16
ENDMDL
