MODEL 1
REMARK VINA RESULT:     -10.7      0.000      0.000
REMARK SMILES O=C(OCCOC(=O)[C@@H]1CCn2c(C(=O)c3ccccc3)ccc21)c1ccc(-c2c3nc(c(-c4cc(S(=O)(=O)[O-])ccc4F)c4ccc([nH]4)c(-c4cc(S(=O)(=O)[O-])ccc4F)c4nc(c(-c5cc(S(=O)(=O)[O-])ccc5F)c5ccc2[nH]5)C=C4)C=C3)cc1
REMARK SMILES IDX 4 1 3 2 2 3 1 4 25 5 26 6 87 7 27 8 86 9 28 10 29 11 30 12
REMARK SMILES IDX 80 13 31 14 85 15 79 16 81 17 32 18 84 19 78 20 77 21 33 23
REMARK SMILES IDX 65 24 45 25 64 26 46 27 49 28 63 29 82 30 47 31 48 32 62 34
REMARK SMILES IDX 83 35 50 36 34 37 35 38 43 39 36 40 42 41 44 42 41 43 37 44
REMARK SMILES IDX 38 45 39 46 40 47 66 48 67 49 75 50 68 51 74 52 76 53 73 54
REMARK SMILES IDX 69 55 70 56 71 57 72 58 51 59 52 60 60 61 53 62 59 63 61 64
REMARK SMILES IDX 58 65 54 66 55 67 56 68 57 69 5 70 6 71 7 72 8 73 9 74 10 75
REMARK SMILES IDX 24 76 11 77 12 78 23 79 13 80 22 81 14 82 15 83 16 84 17 85
REMARK SMILES IDX 21 86 18 87 20 88 19 89
REMARK H PARENT 81 22 49 33
REMARK Flexibility Score: inf
ROOT
ATOM      1  C   UNL A   1      34.730  33.672  28.398  1.00  0.00     0.275 C 
ENDROOT
BRANCH   1   2
ATOM      2  O   UNL A   1      34.030  32.427  28.322  1.00  0.00    -0.458 OA
BRANCH   2   3
ATOM      3  C   UNL A   1      34.435  31.247  27.801  1.00  0.00     0.338 C 
ATOM      4  O   UNL A   1      33.645  30.628  27.089  1.00  0.00    -0.246 OA
BRANCH   3   5
ATOM      5  C   UNL A   1      35.743  30.598  28.139  1.00  0.00     0.060 A 
ATOM      6  C   UNL A   1      36.979  30.795  27.513  1.00  0.00     0.016 A 
ATOM      7  C   UNL A   1      35.704  29.700  29.209  1.00  0.00     0.016 A 
ATOM      8  C   UNL A   1      38.154  30.212  28.010  1.00  0.00     0.010 A 
ATOM      9  C   UNL A   1      36.875  29.146  29.727  1.00  0.00     0.010 A 
ATOM     10  C   UNL A   1      38.120  29.410  29.148  1.00  0.00    -0.014 A 
BRANCH  10  11
ATOM     11  C   UNL A   1      39.339  28.749  29.690  1.00  0.00     0.031 A 
ATOM     12  C   UNL A   1      39.999  29.353  30.898  1.00  0.00     0.074 A 
ATOM     13  C   UNL A   1      39.887  27.683  29.074  1.00  0.00     0.049 A 
ATOM     14  N   UNL A   1      41.142  29.063  31.460  1.00  0.00    -0.248 NA
ATOM     15  C   UNL A   1      39.279  30.468  31.532  1.00  0.00     0.031 C 
ATOM     16  C   UNL A   1      39.342  27.015  27.892  1.00  0.00     0.029 A 
ATOM     17  N   UNL A   1      41.039  26.983  29.337  1.00  0.00    -0.354 N 
ATOM     18  C   UNL A   1      41.284  29.989  32.490  1.00  0.00     0.074 A 
ATOM     19  C   UNL A   1      40.190  30.925  32.370  1.00  0.00     0.031 C 
ATOM     20  C   UNL A   1      40.169  26.024  27.517  1.00  0.00     0.029 A 
ATOM     21  C   UNL A   1      41.315  25.995  28.417  1.00  0.00     0.049 A 
ATOM     22  H   UNL A   1      41.617  27.171  30.112  1.00  0.00     0.167 HD
ATOM     23  C   UNL A   1      42.186  30.005  33.501  1.00  0.00     0.034 A 
ATOM     24  C   UNL A   1      42.379  25.173  28.309  1.00  0.00     0.034 A 
ATOM     25  C   UNL A   1      43.247  29.042  33.610  1.00  0.00     0.049 A 
ATOM     26  C   UNL A   1      43.448  25.263  29.377  1.00  0.00     0.074 A 
ATOM     27  C   UNL A   1      44.190  28.887  34.608  1.00  0.00     0.029 A 
ATOM     28  N   UNL A   1      43.502  28.057  32.660  1.00  0.00    -0.354 N 
ATOM     29  N   UNL A   1      43.525  26.087  30.400  1.00  0.00    -0.248 NA
ATOM     30  C   UNL A   1      44.553  24.301  29.300  1.00  0.00     0.031 C 
ATOM     31  C   UNL A   1      45.035  27.832  34.242  1.00  0.00     0.029 A 
ATOM     32  C   UNL A   1      44.587  27.291  33.045  1.00  0.00     0.049 A 
ATOM     33  H   UNL A   1      42.983  27.924  31.833  1.00  0.00     0.167 HD
ATOM     34  C   UNL A   1      44.635  25.681  31.136  1.00  0.00     0.074 A 
ATOM     35  C   UNL A   1      45.217  24.565  30.417  1.00  0.00     0.031 C 
ATOM     36  C   UNL A   1      45.117  26.162  32.313  1.00  0.00     0.034 A 
BRANCH  23  37
ATOM     37  C   UNL A   1      42.007  31.088  34.544  1.00  0.00     0.023 A 
ATOM     38  C   UNL A   1      42.710  32.307  34.441  1.00  0.00     0.031 A 
ATOM     39  C   UNL A   1      41.264  30.862  35.713  1.00  0.00     0.131 A 
ATOM     40  C   UNL A   1      42.799  33.162  35.547  1.00  0.00     0.055 A 
ATOM     41  C   UNL A   1      41.261  31.779  36.768  1.00  0.00     0.041 A 
ATOM     42  F   UNL A   1      40.571  29.723  35.876  1.00  0.00    -0.206 F 
ATOM     43  C   UNL A   1      42.059  32.920  36.704  1.00  0.00     0.022 A 
BRANCH  40  44
ATOM     44  S   UNL A   1      44.078  34.451  35.529  1.00  0.00     0.124 S 
ATOM     45  O   UNL A   1      44.968  34.000  36.598  1.00  0.00    -0.237 OA
ATOM     46  O   UNL A   1      44.611  34.353  34.176  1.00  0.00    -0.237 OA
ATOM     47  O   UNL A   1      43.336  35.676  35.821  1.00  0.00    -0.744 OA
ENDBRANCH  40  44
ENDBRANCH  23  37
BRANCH  24  48
ATOM     48  C   UNL A   1      42.495  24.198  27.178  1.00  0.00     0.023 A 
ATOM     49  C   UNL A   1      41.928  22.916  27.258  1.00  0.00     0.031 A 
ATOM     50  C   UNL A   1      43.212  24.510  26.008  1.00  0.00     0.131 A 
ATOM     51  C   UNL A   1      42.150  21.978  26.234  1.00  0.00     0.055 A 
ATOM     52  C   UNL A   1      43.426  23.580  24.988  1.00  0.00     0.041 A 
ATOM     53  F   UNL A   1      43.689  25.748  25.813  1.00  0.00    -0.206 F 
ATOM     54  C   UNL A   1      42.908  22.297  25.106  1.00  0.00     0.022 A 
BRANCH  51  55
ATOM     55  S   UNL A   1      41.468  20.306  26.413  1.00  0.00     0.124 S 
ATOM     56  O   UNL A   1      40.048  20.536  26.162  1.00  0.00    -0.237 OA
ATOM     57  O   UNL A   1      42.194  19.578  25.376  1.00  0.00    -0.237 OA
ATOM     58  O   UNL A   1      41.811  19.943  27.782  1.00  0.00    -0.744 OA
ENDBRANCH  51  55
ENDBRANCH  24  48
BRANCH  36  59
ATOM     59  C   UNL A   1      46.256  25.406  32.948  1.00  0.00     0.023 A 
ATOM     60  C   UNL A   1      47.594  25.627  32.585  1.00  0.00     0.031 A 
ATOM     61  C   UNL A   1      45.985  24.459  33.953  1.00  0.00     0.131 A 
ATOM     62  C   UNL A   1      48.611  24.877  33.194  1.00  0.00     0.055 A 
ATOM     63  C   UNL A   1      47.005  23.761  34.599  1.00  0.00     0.041 A 
ATOM     64  F   UNL A   1      44.722  24.209  34.333  1.00  0.00    -0.206 F 
ATOM     65  C   UNL A   1      48.326  23.962  34.213  1.00  0.00     0.022 A 
BRANCH  62  66
ATOM     66  S   UNL A   1      50.307  25.054  32.581  1.00  0.00     0.124 S 
ATOM     67  O   UNL A   1      50.143  26.042  31.519  1.00  0.00    -0.237 OA
ATOM     68  O   UNL A   1      51.023  25.510  33.769  1.00  0.00    -0.237 OA
ATOM     69  O   UNL A   1      50.651  23.707  32.129  1.00  0.00    -0.744 OA
ENDBRANCH  62  66
ENDBRANCH  36  59
ENDBRANCH  10  11
ENDBRANCH   3   5
ENDBRANCH   2   3
ENDBRANCH   1   2
BRANCH   1  70
ATOM     70  C   UNL A   1      33.910  34.856  28.914  1.00  0.00     0.274 C 
BRANCH  70  71
ATOM     71  O   UNL A   1      33.167  34.648  30.129  1.00  0.00    -0.462 OA
BRANCH  71  72
ATOM     72  C   UNL A   1      33.427  35.534  31.135  1.00  0.00     0.315 C 
ATOM     73  O   UNL A   1      33.546  36.743  30.955  1.00  0.00    -0.251 OA
BRANCH  72  74
ATOM     74  C   UNL A   1      33.681  34.885  32.490  1.00  0.00     0.148 C 
ATOM     75  C   UNL A   1      34.333  35.786  33.570  1.00  0.00     0.043 C 
ATOM     76  C   UNL A   1      34.595  33.712  32.483  1.00  0.00     0.033 A 
ATOM     77  C   UNL A   1      35.112  34.822  34.481  1.00  0.00     0.124 C 
ATOM     78  N   UNL A   1      35.399  33.709  33.595  1.00  0.00    -0.341 N 
ATOM     79  C   UNL A   1      34.865  32.581  31.763  1.00  0.00     0.025 A 
ATOM     80  C   UNL A   1      36.298  32.687  33.568  1.00  0.00     0.090 A 
ATOM     81  C   UNL A   1      35.947  31.945  32.436  1.00  0.00     0.032 A 
BRANCH  80  82
ATOM     82  C   UNL A   1      37.441  32.421  34.433  1.00  0.00     0.209 C 
ATOM     83  O   UNL A   1      37.776  31.267  34.704  1.00  0.00    -0.287 OA
BRANCH  82  84
ATOM     84  C   UNL A   1      38.192  33.520  35.097  1.00  0.00     0.024 A 
ATOM     85  C   UNL A   1      39.038  34.333  34.331  1.00  0.00     0.012 A 
ATOM     86  C   UNL A   1      38.149  33.684  36.488  1.00  0.00     0.012 A 
ATOM     87  C   UNL A   1      39.805  35.324  34.948  1.00  0.00     0.001 A 
ATOM     88  C   UNL A   1      38.905  34.687  37.100  1.00  0.00     0.001 A 
ATOM     89  C   UNL A   1      39.731  35.507  36.330  1.00  0.00     0.000 A 
ENDBRANCH  82  84
ENDBRANCH  80  82
ENDBRANCH  72  74
ENDBRANCH  71  72
ENDBRANCH  70  71
ENDBRANCH   1  70
TORSDOF 16
ENDMDL
MODEL 2
REMARK VINA RESULT:     -10.6      2.369      3.586
REMARK SMILES O=C(OCCOC(=O)[C@@H]1CCn2c(C(=O)c3ccccc3)ccc21)c1ccc(-c2c3nc(c(-c4cc(S(=O)(=O)[O-])ccc4F)c4ccc([nH]4)c(-c4cc(S(=O)(=O)[O-])ccc4F)c4nc(c(-c5cc(S(=O)(=O)[O-])ccc5F)c5ccc2[nH]5)C=C4)C=C3)cc1
REMARK SMILES IDX 4 1 3 2 2 3 1 4 25 5 26 6 87 7 27 8 86 9 28 10 29 11 30 12
REMARK SMILES IDX 80 13 31 14 85 15 79 16 81 17 32 18 84 19 78 20 77 21 33 23
REMARK SMILES IDX 65 24 45 25 64 26 46 27 49 28 63 29 82 30 47 31 48 32 62 34
REMARK SMILES IDX 83 35 50 36 34 37 35 38 43 39 36 40 42 41 44 42 41 43 37 44
REMARK SMILES IDX 38 45 39 46 40 47 66 48 67 49 75 50 68 51 74 52 76 53 73 54
REMARK SMILES IDX 69 55 70 56 71 57 72 58 51 59 52 60 60 61 53 62 59 63 61 64
REMARK SMILES IDX 58 65 54 66 55 67 56 68 57 69 5 70 6 71 7 72 8 73 9 74 10 75
REMARK SMILES IDX 24 76 11 77 12 78 23 79 13 80 22 81 14 82 15 83 16 84 17 85
REMARK SMILES IDX 21 86 18 87 20 88 19 89
REMARK H PARENT 81 22 49 33
REMARK Flexibility Score: inf
ROOT
ATOM      1  C   UNL A   1      33.837  33.431  28.427  1.00  0.00     0.275 C 
ENDROOT
BRANCH   1   2
ATOM      2  O   UNL A   1      33.631  32.017  28.353  1.00  0.00    -0.458 OA
BRANCH   2   3
ATOM      3  C   UNL A   1      34.258  31.099  27.583  1.00  0.00     0.338 C 
ATOM      4  O   UNL A   1      33.694  30.720  26.558  1.00  0.00    -0.246 OA
BRANCH   3   5
ATOM      5  C   UNL A   1      35.544  30.434  27.972  1.00  0.00     0.060 A 
ATOM      6  C   UNL A   1      36.767  30.481  27.292  1.00  0.00     0.016 A 
ATOM      7  C   UNL A   1      35.497  29.690  29.154  1.00  0.00     0.016 A 
ATOM      8  C   UNL A   1      37.928  29.908  27.833  1.00  0.00     0.010 A 
ATOM      9  C   UNL A   1      36.656  29.150  29.711  1.00  0.00     0.010 A 
ATOM     10  C   UNL A   1      37.893  29.268  29.070  1.00  0.00    -0.014 A 
BRANCH  10  11
ATOM     11  C   UNL A   1      39.095  28.622  29.664  1.00  0.00     0.031 A 
ATOM     12  C   UNL A   1      39.663  29.203  30.929  1.00  0.00     0.074 A 
ATOM     13  C   UNL A   1      39.711  27.592  29.048  1.00  0.00     0.049 A 
ATOM     14  N   UNL A   1      40.779  28.925  31.550  1.00  0.00    -0.248 NA
ATOM     15  C   UNL A   1      38.875  30.276  31.553  1.00  0.00     0.031 C 
ATOM     16  C   UNL A   1      39.258  26.951  27.815  1.00  0.00     0.029 A 
ATOM     17  N   UNL A   1      40.864  26.916  29.359  1.00  0.00    -0.354 N 
ATOM     18  C   UNL A   1      40.831  29.819  32.616  1.00  0.00     0.074 A 
ATOM     19  C   UNL A   1      39.720  30.729  32.459  1.00  0.00     0.031 C 
ATOM     20  C   UNL A   1      40.134  25.996  27.460  1.00  0.00     0.029 A 
ATOM     21  C   UNL A   1      41.224  25.967  28.427  1.00  0.00     0.049 A 
ATOM     22  H   UNL A   1      41.388  27.093  30.174  1.00  0.00     0.167 HD
ATOM     23  C   UNL A   1      41.670  29.826  33.681  1.00  0.00     0.034 A 
ATOM     24  C   UNL A   1      42.315  25.178  28.358  1.00  0.00     0.034 A 
ATOM     25  C   UNL A   1      42.750  28.888  33.823  1.00  0.00     0.049 A 
ATOM     26  C   UNL A   1      43.315  25.261  29.492  1.00  0.00     0.074 A 
ATOM     27  C   UNL A   1      43.634  28.726  34.872  1.00  0.00     0.029 A 
ATOM     28  N   UNL A   1      43.089  27.943  32.860  1.00  0.00    -0.354 N 
ATOM     29  N   UNL A   1      43.306  26.051  30.544  1.00  0.00    -0.248 NA
ATOM     30  C   UNL A   1      44.450  24.332  29.452  1.00  0.00     0.031 C 
ATOM     31  C   UNL A   1      44.530  27.707  34.525  1.00  0.00     0.029 A 
ATOM     32  C   UNL A   1      44.172  27.195  33.286  1.00  0.00     0.049 A 
ATOM     33  H   UNL A   1      42.625  27.824  31.998  1.00  0.00     0.167 HD
ATOM     34  C   UNL A   1      44.381  25.652  31.334  1.00  0.00     0.074 A 
ATOM     35  C   UNL A   1      45.037  24.576  30.616  1.00  0.00     0.031 C 
ATOM     36  C   UNL A   1      44.777  26.105  32.553  1.00  0.00     0.034 A 
BRANCH  23  37
ATOM     37  C   UNL A   1      41.396  30.867  34.744  1.00  0.00     0.023 A 
ATOM     38  C   UNL A   1      40.307  30.720  35.629  1.00  0.00     0.031 A 
ATOM     39  C   UNL A   1      42.112  32.073  34.788  1.00  0.00     0.131 A 
ATOM     40  C   UNL A   1      39.861  31.813  36.383  1.00  0.00     0.055 A 
ATOM     41  C   UNL A   1      41.733  33.120  35.634  1.00  0.00     0.041 A 
ATOM     42  F   UNL A   1      43.160  32.280  33.975  1.00  0.00    -0.206 F 
ATOM     43  C   UNL A   1      40.581  33.008  36.411  1.00  0.00     0.022 A 
BRANCH  40  44
ATOM     44  S   UNL A   1      38.206  31.723  37.125  1.00  0.00     0.124 S 
ATOM     45  O   UNL A   1      37.491  32.758  36.381  1.00  0.00    -0.237 OA
ATOM     46  O   UNL A   1      37.807  30.349  36.844  1.00  0.00    -0.237 OA
ATOM     47  O   UNL A   1      38.444  32.028  38.534  1.00  0.00    -0.744 OA
ENDBRANCH  40  44
ENDBRANCH  23  37
BRANCH  24  48
ATOM     48  C   UNL A   1      42.527  24.245  27.205  1.00  0.00     0.023 A 
ATOM     49  C   UNL A   1      42.027  22.933  27.226  1.00  0.00     0.031 A 
ATOM     50  C   UNL A   1      43.273  24.630  26.075  1.00  0.00     0.131 A 
ATOM     51  C   UNL A   1      42.339  22.040  26.186  1.00  0.00     0.055 A 
ATOM     52  C   UNL A   1      43.577  23.743  25.039  1.00  0.00     0.041 A 
ATOM     53  F   UNL A   1      43.691  25.896  25.936  1.00  0.00    -0.206 F 
ATOM     54  C   UNL A   1      43.123  22.432  25.099  1.00  0.00     0.022 A 
BRANCH  51  55
ATOM     55  S   UNL A   1      41.740  20.330  26.290  1.00  0.00     0.124 S 
ATOM     56  O   UNL A   1      42.497  19.685  25.221  1.00  0.00    -0.237 OA
ATOM     57  O   UNL A   1      42.119  19.967  27.653  1.00  0.00    -0.237 OA
ATOM     58  O   UNL A   1      40.308  20.456  26.057  1.00  0.00    -0.744 OA
ENDBRANCH  51  55
ENDBRANCH  24  48
BRANCH  36  59
ATOM     59  C   UNL A   1      45.897  25.359  33.231  1.00  0.00     0.023 A 
ATOM     60  C   UNL A   1      45.673  24.195  33.982  1.00  0.00     0.031 A 
ATOM     61  C   UNL A   1      47.219  25.823  33.097  1.00  0.00     0.131 A 
ATOM     62  C   UNL A   1      46.753  23.555  34.609  1.00  0.00     0.055 A 
ATOM     63  C   UNL A   1      48.296  25.147  33.671  1.00  0.00     0.041 A 
ATOM     64  F   UNL A   1      47.486  26.934  32.392  1.00  0.00    -0.206 F 
ATOM     65  C   UNL A   1      48.064  24.012  34.440  1.00  0.00     0.022 A 
BRANCH  62  66
ATOM     66  S   UNL A   1      46.412  22.161  35.716  1.00  0.00     0.124 S 
ATOM     67  O   UNL A   1      45.275  22.657  36.485  1.00  0.00    -0.237 OA
ATOM     68  O   UNL A   1      46.125  21.080  34.779  1.00  0.00    -0.237 OA
ATOM     69  O   UNL A   1      47.654  22.012  36.472  1.00  0.00    -0.744 OA
ENDBRANCH  62  66
ENDBRANCH  36  59
ENDBRANCH  10  11
ENDBRANCH   3   5
ENDBRANCH   2   3
ENDBRANCH   1   2
BRANCH   1  70
ATOM     70  C   UNL A   1      34.273  33.959  29.795  1.00  0.00     0.274 C 
BRANCH  70  71
ATOM     71  O   UNL A   1      34.380  32.995  30.858  1.00  0.00    -0.462 OA
BRANCH  71  72
ATOM     72  C   UNL A   1      35.652  32.706  31.263  1.00  0.00     0.315 C 
ATOM     73  O   UNL A   1      35.928  31.761  31.998  1.00  0.00    -0.251 OA
BRANCH  72  74
ATOM     74  C   UNL A   1      36.694  33.730  30.830  1.00  0.00     0.148 C 
ATOM     75  C   UNL A   1      37.545  33.359  29.588  1.00  0.00     0.043 C 
ATOM     76  C   UNL A   1      37.745  34.046  31.834  1.00  0.00     0.033 A 
ATOM     77  C   UNL A   1      38.885  34.091  29.786  1.00  0.00     0.124 C 
ATOM     78  N   UNL A   1      38.965  34.223  31.229  1.00  0.00    -0.341 N 
ATOM     79  C   UNL A   1      37.897  34.288  33.171  1.00  0.00     0.025 A 
ATOM     80  C   UNL A   1      39.955  34.435  32.138  1.00  0.00     0.090 A 
ATOM     81  C   UNL A   1      39.290  34.515  33.365  1.00  0.00     0.032 A 
BRANCH  80  82
ATOM     82  C   UNL A   1      41.401  34.483  31.955  1.00  0.00     0.209 C 
ATOM     83  O   UNL A   1      42.109  35.184  32.679  1.00  0.00    -0.287 OA
BRANCH  82  84
ATOM     84  C   UNL A   1      42.072  33.768  30.837  1.00  0.00     0.024 A 
ATOM     85  C   UNL A   1      42.126  32.368  30.852  1.00  0.00     0.012 A 
ATOM     86  C   UNL A   1      42.741  34.474  29.829  1.00  0.00     0.012 A 
ATOM     87  C   UNL A   1      42.813  31.681  29.848  1.00  0.00     0.001 A 
ATOM     88  C   UNL A   1      43.413  33.784  28.816  1.00  0.00     0.001 A 
ATOM     89  C   UNL A   1      43.448  32.389  28.826  1.00  0.00     0.000 A 
ENDBRANCH  82  84
ENDBRANCH  80  82
ENDBRANCH  72  74
ENDBRANCH  71  72
ENDBRANCH  70  71
ENDBRANCH   1  70
TORSDOF 16
ENDMDL
MODEL 3
REMARK VINA RESULT:     -10.6      3.860      7.046
REMARK SMILES O=C(OCCOC(=O)[C@@H]1CCn2c(C(=O)c3ccccc3)ccc21)c1ccc(-c2c3nc(c(-c4cc(S(=O)(=O)[O-])ccc4F)c4ccc([nH]4)c(-c4cc(S(=O)(=O)[O-])ccc4F)c4nc(c(-c5cc(S(=O)(=O)[O-])ccc5F)c5ccc2[nH]5)C=C4)C=C3)cc1
REMARK SMILES IDX 4 1 3 2 2 3 1 4 25 5 26 6 87 7 27 8 86 9 28 10 29 11 30 12
REMARK SMILES IDX 80 13 31 14 85 15 79 16 81 17 32 18 84 19 78 20 77 21 33 23
REMARK SMILES IDX 65 24 45 25 64 26 46 27 49 28 63 29 82 30 47 31 48 32 62 34
REMARK SMILES IDX 83 35 50 36 34 37 35 38 43 39 36 40 42 41 44 42 41 43 37 44
REMARK SMILES IDX 38 45 39 46 40 47 66 48 67 49 75 50 68 51 74 52 76 53 73 54
REMARK SMILES IDX 69 55 70 56 71 57 72 58 51 59 52 60 60 61 53 62 59 63 61 64
REMARK SMILES IDX 58 65 54 66 55 67 56 68 57 69 5 70 6 71 7 72 8 73 9 74 10 75
REMARK SMILES IDX 24 76 11 77 12 78 23 79 13 80 22 81 14 82 15 83 16 84 17 85
REMARK SMILES IDX 21 86 18 87 20 88 19 89
REMARK H PARENT 81 22 49 33
REMARK Flexibility Score: inf
ROOT
ATOM      1  C   UNL A   1      32.921  29.428  26.316  1.00  0.00     0.275 C 
ENDROOT
BRANCH   1   2
ATOM      2  O   UNL A   1      33.176  30.425  27.309  1.00  0.00    -0.458 OA
BRANCH   2   3
ATOM      3  C   UNL A   1      34.327  31.073  27.597  1.00  0.00     0.338 C 
ATOM      4  O   UNL A   1      34.360  32.293  27.440  1.00  0.00    -0.246 OA
BRANCH   3   5
ATOM      5  C   UNL A   1      35.595  30.373  27.983  1.00  0.00     0.060 A 
ATOM      6  C   UNL A   1      36.787  30.304  27.252  1.00  0.00     0.016 A 
ATOM      7  C   UNL A   1      35.565  29.723  29.220  1.00  0.00     0.016 A 
ATOM      8  C   UNL A   1      37.942  29.715  27.787  1.00  0.00     0.010 A 
ATOM      9  C   UNL A   1      36.720  29.167  29.769  1.00  0.00     0.010 A 
ATOM     10  C   UNL A   1      37.931  29.172  29.070  1.00  0.00    -0.014 A 
BRANCH  10  11
ATOM     11  C   UNL A   1      39.126  28.511  29.662  1.00  0.00     0.031 A 
ATOM     12  C   UNL A   1      39.698  29.079  30.931  1.00  0.00     0.074 A 
ATOM     13  C   UNL A   1      39.733  27.479  29.042  1.00  0.00     0.049 A 
ATOM     14  N   UNL A   1      40.809  28.787  31.553  1.00  0.00    -0.248 NA
ATOM     15  C   UNL A   1      38.918  30.156  31.561  1.00  0.00     0.031 C 
ATOM     16  C   UNL A   1      39.275  26.849  27.804  1.00  0.00     0.029 A 
ATOM     17  N   UNL A   1      40.879  26.790  29.351  1.00  0.00    -0.354 N 
ATOM     18  C   UNL A   1      40.868  29.674  32.624  1.00  0.00     0.074 A 
ATOM     19  C   UNL A   1      39.767  30.596  32.471  1.00  0.00     0.031 C 
ATOM     20  C   UNL A   1      40.143  25.888  27.444  1.00  0.00     0.029 A 
ATOM     21  C   UNL A   1      41.231  25.843  28.413  1.00  0.00     0.049 A 
ATOM     22  H   UNL A   1      41.403  26.957  30.167  1.00  0.00     0.167 HD
ATOM     23  C   UNL A   1      41.706  29.666  33.690  1.00  0.00     0.034 A 
ATOM     24  C   UNL A   1      42.315  25.043  28.341  1.00  0.00     0.034 A 
ATOM     25  C   UNL A   1      42.776  28.717  33.829  1.00  0.00     0.049 A 
ATOM     26  C   UNL A   1      43.313  25.110  29.478  1.00  0.00     0.074 A 
ATOM     27  C   UNL A   1      43.657  28.540  34.878  1.00  0.00     0.029 A 
ATOM     28  N   UNL A   1      43.108  27.774  32.861  1.00  0.00    -0.354 N 
ATOM     29  N   UNL A   1      43.310  25.894  30.534  1.00  0.00    -0.248 NA
ATOM     30  C   UNL A   1      44.439  24.170  29.434  1.00  0.00     0.031 C 
ATOM     31  C   UNL A   1      44.544  27.514  34.526  1.00  0.00     0.029 A 
ATOM     32  C   UNL A   1      44.182  27.013  33.284  1.00  0.00     0.049 A 
ATOM     33  H   UNL A   1      42.644  27.665  31.998  1.00  0.00     0.167 HD
ATOM     34  C   UNL A   1      44.380  25.479  31.323  1.00  0.00     0.074 A 
ATOM     35  C   UNL A   1      45.027  24.402  30.601  1.00  0.00     0.031 C 
ATOM     36  C   UNL A   1      44.778  25.922  32.545  1.00  0.00     0.034 A 
BRANCH  23  37
ATOM     37  C   UNL A   1      41.440  30.704  34.759  1.00  0.00     0.023 A 
ATOM     38  C   UNL A   1      40.271  30.640  35.547  1.00  0.00     0.031 A 
ATOM     39  C   UNL A   1      42.258  31.836  34.899  1.00  0.00     0.131 A 
ATOM     40  C   UNL A   1      39.867  31.753  36.295  1.00  0.00     0.055 A 
ATOM     41  C   UNL A   1      41.907  32.894  35.743  1.00  0.00     0.041 A 
ATOM     42  F   UNL A   1      43.385  31.961  34.181  1.00  0.00    -0.206 F 
ATOM     43  C   UNL A   1      40.688  32.873  36.419  1.00  0.00     0.022 A 
BRANCH  40  44
ATOM     44  S   UNL A   1      38.153  31.802  36.896  1.00  0.00     0.124 S 
ATOM     45  O   UNL A   1      37.461  32.419  35.766  1.00  0.00    -0.237 OA
ATOM     46  O   UNL A   1      37.858  30.393  37.129  1.00  0.00    -0.237 OA
ATOM     47  O   UNL A   1      38.234  32.630  38.097  1.00  0.00    -0.744 OA
ENDBRANCH  40  44
ENDBRANCH  23  37
BRANCH  24  48
ATOM     48  C   UNL A   1      42.520  24.115  27.184  1.00  0.00     0.023 A 
ATOM     49  C   UNL A   1      42.046  22.793  27.214  1.00  0.00     0.031 A 
ATOM     50  C   UNL A   1      43.232  24.515  26.037  1.00  0.00     0.131 A 
ATOM     51  C   UNL A   1      42.353  21.906  26.168  1.00  0.00     0.055 A 
ATOM     52  C   UNL A   1      43.530  23.634  24.994  1.00  0.00     0.041 A 
ATOM     53  F   UNL A   1      43.620  25.789  25.889  1.00  0.00    -0.206 F 
ATOM     54  C   UNL A   1      43.104  22.314  25.064  1.00  0.00     0.022 A 
BRANCH  51  55
ATOM     55  S   UNL A   1      41.791  20.185  26.284  1.00  0.00     0.124 S 
ATOM     56  O   UNL A   1      42.498  19.566  25.166  1.00  0.00    -0.237 OA
ATOM     57  O   UNL A   1      42.252  19.814  27.620  1.00  0.00    -0.237 OA
ATOM     58  O   UNL A   1      40.346  20.287  26.132  1.00  0.00    -0.744 OA
ENDBRANCH  51  55
ENDBRANCH  24  48
BRANCH  36  59
ATOM     59  C   UNL A   1      45.890  25.161  33.221  1.00  0.00     0.023 A 
ATOM     60  C   UNL A   1      45.649  24.016  33.996  1.00  0.00     0.031 A 
ATOM     61  C   UNL A   1      47.221  25.590  33.060  1.00  0.00     0.131 A 
ATOM     62  C   UNL A   1      46.722  23.362  34.619  1.00  0.00     0.055 A 
ATOM     63  C   UNL A   1      48.289  24.898  33.631  1.00  0.00     0.041 A 
ATOM     64  F   UNL A   1      47.504  26.681  32.331  1.00  0.00    -0.206 F 
ATOM     65  C   UNL A   1      48.041  23.783  34.424  1.00  0.00     0.022 A 
BRANCH  62  66
ATOM     66  S   UNL A   1      46.364  21.996  35.757  1.00  0.00     0.124 S 
ATOM     67  O   UNL A   1      44.941  22.186  36.018  1.00  0.00    -0.237 OA
ATOM     68  O   UNL A   1      46.715  20.825  34.960  1.00  0.00    -0.237 OA
ATOM     69  O   UNL A   1      47.244  22.258  36.894  1.00  0.00    -0.744 OA
ENDBRANCH  62  66
ENDBRANCH  36  59
ENDBRANCH  10  11
ENDBRANCH   3   5
ENDBRANCH   2   3
ENDBRANCH   1   2
BRANCH   1  70
ATOM     70  C   UNL A   1      31.767  29.734  25.359  1.00  0.00     0.274 C 
BRANCH  70  71
ATOM     71  O   UNL A   1      31.747  29.010  24.115  1.00  0.00    -0.462 OA
BRANCH  71  72
ATOM     72  C   UNL A   1      30.512  28.623  23.681  1.00  0.00     0.315 C 
ATOM     73  O   UNL A   1      29.606  29.413  23.430  1.00  0.00    -0.251 OA
BRANCH  72  74
ATOM     74  C   UNL A   1      30.305  27.113  23.650  1.00  0.00     0.148 C 
ATOM     75  C   UNL A   1      30.352  26.386  25.018  1.00  0.00     0.043 C 
ATOM     76  C   UNL A   1      31.301  26.340  22.861  1.00  0.00     0.033 A 
ATOM     77  C   UNL A   1      30.839  24.961  24.699  1.00  0.00     0.124 C 
ATOM     78  N   UNL A   1      31.600  25.151  23.478  1.00  0.00    -0.341 N 
ATOM     79  C   UNL A   1      31.984  26.386  21.677  1.00  0.00     0.025 A 
ATOM     80  C   UNL A   1      32.569  24.464  22.814  1.00  0.00     0.090 A 
ATOM     81  C   UNL A   1      32.794  25.214  21.655  1.00  0.00     0.032 A 
BRANCH  80  82
ATOM     82  C   UNL A   1      33.309  23.271  23.206  1.00  0.00     0.209 C 
ATOM     83  O   UNL A   1      32.827  22.148  23.054  1.00  0.00    -0.287 OA
BRANCH  82  84
ATOM     84  C   UNL A   1      34.629  23.357  23.885  1.00  0.00     0.024 A 
ATOM     85  C   UNL A   1      35.782  22.952  23.198  1.00  0.00     0.012 A 
ATOM     86  C   UNL A   1      34.723  23.732  25.231  1.00  0.00     0.012 A 
ATOM     87  C   UNL A   1      37.021  22.958  23.843  1.00  0.00     0.001 A 
ATOM     88  C   UNL A   1      35.967  23.753  25.868  1.00  0.00     0.001 A 
ATOM     89  C   UNL A   1      37.114  23.367  25.174  1.00  0.00     0.000 A 
ENDBRANCH  82  84
ENDBRANCH  80  82
ENDBRANCH  72  74
ENDBRANCH  71  72
ENDBRANCH  70  71
ENDBRANCH   1  70
TORSDOF 16
ENDMDL
