MODEL 1
REMARK VINA RESULT:     -12.5      0.000      0.000
REMARK SMILES C[C@@H]1Cc2ccccc2N1c1ccc(F)cc1C(=O)OCCOC(=O)c1ccc(-c2c3nc(c(-c4cc(S(=O)(=O)[O-])ccc4F)c4ccc([nH]4)c(-c4cc(S(=O)(=O)[O-])ccc4F)c4nc(c(-c5cc(S(=O)(=O)[O-])ccc5F)c5ccc2[nH]5)C=C4)C=C3)cc1
REMARK SMILES IDX 22 1 21 2 20 3 18 4 19 5 17 6 11 7 12 8 13 9 16 10 14 11
REMARK SMILES IDX 15 12 10 13 1 14 2 15 3 16 4 17 9 18 5 19 8 20 6 21 7 22
REMARK SMILES IDX 23 23 24 24 25 25 26 26 27 27 88 28 28 29 87 30 29 31 30 32
REMARK SMILES IDX 31 33 81 34 32 35 86 36 80 37 82 38 33 39 85 40 79 41 78 42
REMARK SMILES IDX 34 44 66 45 46 46 65 47 47 48 50 49 64 50 83 51 48 52 49 53
REMARK SMILES IDX 63 55 84 56 51 57 35 58 36 59 44 60 37 61 43 62 45 63 42 64
REMARK SMILES IDX 38 65 39 66 40 67 41 68 67 69 68 70 76 71 69 72 75 73 77 74
REMARK SMILES IDX 74 75 70 76 71 77 72 78 73 79 52 80 53 81 61 82 54 83 60 84
REMARK SMILES IDX 62 85 59 86 55 87 56 88 57 89 58 90
REMARK H PARENT 82 43 50 54
REMARK Flexibility Score: inf
ROOT
ATOM      1  C   UNL A   1      31.907  29.798  26.119  1.00  0.00     0.275 C 
ENDROOT
BRANCH   1   2
ATOM      2  C   UNL A   1      31.860  28.500  26.921  1.00  0.00     0.275 C 
BRANCH   2   3
ATOM      3  O   UNL A   1      32.582  27.445  26.259  1.00  0.00    -0.458 OA
BRANCH   3   4
ATOM      4  C   UNL A   1      31.978  26.235  26.169  1.00  0.00     0.340 C 
ATOM      5  O   UNL A   1      31.202  25.753  26.978  1.00  0.00    -0.246 OA
BRANCH   4   6
ATOM      6  C   UNL A   1      32.347  25.542  24.908  1.00  0.00     0.086 A 
ATOM      7  C   UNL A   1      31.997  26.028  23.632  1.00  0.00     0.056 A 
ATOM      8  C   UNL A   1      32.326  25.228  22.514  1.00  0.00     0.030 A 
ATOM      9  C   UNL A   1      32.953  23.990  22.658  1.00  0.00     0.041 A 
ATOM     10  C   UNL A   1      33.063  24.340  25.038  1.00  0.00     0.057 A 
ATOM     11  C   UNL A   1      33.324  23.561  23.921  1.00  0.00     0.124 A 
ATOM     12  F   UNL A   1      33.926  22.376  24.066  1.00  0.00    -0.207 F 
BRANCH   7  13
ATOM     13  N   UNL A   1      31.320  27.236  23.438  1.00  0.00    -0.337 N 
ATOM     14  C   UNL A   1      33.187  28.851  22.820  1.00  0.00     0.032 C 
ATOM     15  C   UNL A   1      31.823  28.263  22.482  1.00  0.00     0.089 C 
ATOM     16  C   UNL A   1      30.755  29.389  22.454  1.00  0.00     0.063 C 
ATOM     17  C   UNL A   1      29.535  28.642  22.870  1.00  0.00    -0.022 A 
ATOM     18  C   UNL A   1      29.914  27.432  23.453  1.00  0.00     0.045 A 
ATOM     19  C   UNL A   1      28.207  29.028  22.791  1.00  0.00     0.006 A 
ATOM     20  C   UNL A   1      28.951  26.580  23.975  1.00  0.00     0.026 A 
ATOM     21  C   UNL A   1      27.236  28.157  23.286  1.00  0.00     0.000 A 
ATOM     22  C   UNL A   1      27.605  26.938  23.874  1.00  0.00     0.002 A 
ENDBRANCH   7  13
ENDBRANCH   4   6
ENDBRANCH   3   4
ENDBRANCH   2   3
ENDBRANCH   1   2
BRANCH   1  23
ATOM     23  O   UNL A   1      33.239  30.333  26.122  1.00  0.00    -0.458 OA
BRANCH  23  24
ATOM     24  C   UNL A   1      33.470  31.273  27.066  1.00  0.00     0.338 C 
ATOM     25  O   UNL A   1      32.680  32.098  27.508  1.00  0.00    -0.246 OA
BRANCH  24  26
ATOM     26  C   UNL A   1      34.785  31.007  27.652  1.00  0.00     0.060 A 
ATOM     27  C   UNL A   1      35.696  32.023  27.920  1.00  0.00     0.016 A 
ATOM     28  C   UNL A   1      35.089  29.679  27.954  1.00  0.00     0.016 A 
ATOM     29  C   UNL A   1      36.930  31.686  28.480  1.00  0.00     0.010 A 
ATOM     30  C   UNL A   1      36.315  29.342  28.516  1.00  0.00     0.010 A 
ATOM     31  C   UNL A   1      37.249  30.345  28.786  1.00  0.00    -0.014 A 
BRANCH  31  32
ATOM     32  C   UNL A   1      38.499  30.024  29.519  1.00  0.00     0.031 A 
ATOM     33  C   UNL A   1      38.793  30.589  30.877  1.00  0.00     0.074 A 
ATOM     34  C   UNL A   1      39.397  29.230  28.905  1.00  0.00     0.049 A 
ATOM     35  N   UNL A   1      39.761  30.272  31.698  1.00  0.00    -0.248 NA
ATOM     36  C   UNL A   1      37.913  31.659  31.375  1.00  0.00     0.031 C 
ATOM     37  C   UNL A   1      39.275  28.752  27.527  1.00  0.00     0.029 A 
ATOM     38  N   UNL A   1      40.570  28.675  29.349  1.00  0.00    -0.354 N 
ATOM     39  C   UNL A   1      39.604  31.089  32.810  1.00  0.00     0.074 A 
ATOM     40  C   UNL A   1      38.483  31.962  32.535  1.00  0.00     0.031 C 
ATOM     41  C   UNL A   1      40.300  27.933  27.255  1.00  0.00     0.029 A 
ATOM     42  C   UNL A   1      41.164  27.842  28.429  1.00  0.00     0.049 A 
ATOM     43  H   UNL A   1      40.951  28.856  30.238  1.00  0.00     0.167 HD
ATOM     44  C   UNL A   1      40.315  31.081  33.964  1.00  0.00     0.034 A 
ATOM     45  C   UNL A   1      42.265  27.069  28.526  1.00  0.00     0.034 A 
ATOM     46  C   UNL A   1      41.417  30.183  34.211  1.00  0.00     0.049 A 
ATOM     47  C   UNL A   1      42.977  27.003  29.852  1.00  0.00     0.074 A 
ATOM     48  C   UNL A   1      42.137  30.020  35.380  1.00  0.00     0.029 A 
ATOM     49  N   UNL A   1      41.961  29.306  33.283  1.00  0.00    -0.354 N 
ATOM     50  N   UNL A   1      42.708  27.649  30.963  1.00  0.00    -0.248 NA
ATOM     51  C   UNL A   1      44.119  26.084  29.956  1.00  0.00     0.031 C 
ATOM     52  C   UNL A   1      43.157  29.098  35.141  1.00  0.00     0.029 A 
ATOM     53  C   UNL A   1      43.026  28.622  33.845  1.00  0.00     0.049 A 
ATOM     54  H   UNL A   1      41.639  29.189  32.360  1.00  0.00     0.167 HD
ATOM     55  C   UNL A   1      43.643  27.214  31.897  1.00  0.00     0.074 A 
ATOM     56  C   UNL A   1      44.450  26.210  31.235  1.00  0.00     0.031 C 
ATOM     57  C   UNL A   1      43.827  27.623  33.178  1.00  0.00     0.034 A 
BRANCH  44  58
ATOM     58  C   UNL A   1      39.915  32.006  35.089  1.00  0.00     0.023 A 
ATOM     59  C   UNL A   1      39.142  31.521  36.163  1.00  0.00     0.031 A 
ATOM     60  C   UNL A   1      40.126  33.393  34.996  1.00  0.00     0.131 A 
ATOM     61  C   UNL A   1      38.560  32.423  37.064  1.00  0.00     0.055 A 
ATOM     62  C   UNL A   1      39.582  34.283  35.925  1.00  0.00     0.041 A 
ATOM     63  F   UNL A   1      40.846  33.908  33.987  1.00  0.00    -0.206 F 
ATOM     64  C   UNL A   1      38.781  33.800  36.955  1.00  0.00     0.022 A 
BRANCH  61  65
ATOM     65  S   UNL A   1      37.424  31.856  38.361  1.00  0.00     0.124 S 
ATOM     66  O   UNL A   1      36.307  32.787  38.214  1.00  0.00    -0.237 OA
ATOM     67  O   UNL A   1      37.150  30.483  37.946  1.00  0.00    -0.237 OA
ATOM     68  O   UNL A   1      38.196  32.004  39.591  1.00  0.00    -0.744 OA
ENDBRANCH  61  65
ENDBRANCH  44  58
BRANCH  45  69
ATOM     69  C   UNL A   1      42.674  26.244  27.351  1.00  0.00     0.023 A 
ATOM     70  C   UNL A   1      42.177  24.937  27.188  1.00  0.00     0.031 A 
ATOM     71  C   UNL A   1      43.658  26.691  26.455  1.00  0.00     0.131 A 
ATOM     72  C   UNL A   1      42.718  24.102  26.201  1.00  0.00     0.055 A 
ATOM     73  C   UNL A   1      44.138  25.882  25.422  1.00  0.00     0.041 A 
ATOM     74  F   UNL A   1      44.184  27.920  26.583  1.00  0.00    -0.206 F 
ATOM     75  C   UNL A   1      43.682  24.574  25.305  1.00  0.00     0.022 A 
BRANCH  72  76
ATOM     76  S   UNL A   1      42.312  22.334  26.159  1.00  0.00     0.124 S 
ATOM     77  O   UNL A   1      40.854  22.360  26.080  1.00  0.00    -0.237 OA
ATOM     78  O   UNL A   1      43.000  21.895  24.948  1.00  0.00    -0.237 OA
ATOM     79  O   UNL A   1      42.870  21.822  27.406  1.00  0.00    -0.744 OA
ENDBRANCH  72  76
ENDBRANCH  45  69
BRANCH  57  80
ATOM     80  C   UNL A   1      44.962  27.014  33.969  1.00  0.00     0.023 A 
ATOM     81  C   UNL A   1      44.745  25.867  34.756  1.00  0.00     0.031 A 
ATOM     82  C   UNL A   1      46.211  27.655  34.059  1.00  0.00     0.131 A 
ATOM     83  C   UNL A   1      45.746  25.419  35.626  1.00  0.00     0.055 A 
ATOM     84  C   UNL A   1      47.225  27.172  34.886  1.00  0.00     0.041 A 
ATOM     85  F   UNL A   1      46.463  28.762  33.341  1.00  0.00    -0.206 F 
ATOM     86  C   UNL A   1      46.989  26.059  35.687  1.00  0.00     0.022 A 
BRANCH  83  87
ATOM     87  S   UNL A   1      45.442  24.054  36.781  1.00  0.00     0.124 S 
ATOM     88  O   UNL A   1      46.797  23.709  37.203  1.00  0.00    -0.237 OA
ATOM     89  O   UNL A   1      44.615  24.692  37.802  1.00  0.00    -0.237 OA
ATOM     90  O   UNL A   1      44.768  23.047  35.968  1.00  0.00    -0.744 OA
ENDBRANCH  83  87
ENDBRANCH  57  80
ENDBRANCH  31  32
ENDBRANCH  24  26
ENDBRANCH  23  24
ENDBRANCH   1  23
TORSDOF 15
ENDMDL
MODEL 2
REMARK VINA RESULT:     -12.4      5.030     10.052
REMARK SMILES C[C@@H]1Cc2ccccc2N1c1ccc(F)cc1C(=O)OCCOC(=O)c1ccc(-c2c3nc(c(-c4cc(S(=O)(=O)[O-])ccc4F)c4ccc([nH]4)c(-c4cc(S(=O)(=O)[O-])ccc4F)c4nc(c(-c5cc(S(=O)(=O)[O-])ccc5F)c5ccc2[nH]5)C=C4)C=C3)cc1
REMARK SMILES IDX 22 1 21 2 20 3 18 4 19 5 17 6 11 7 12 8 13 9 16 10 14 11
REMARK SMILES IDX 15 12 10 13 1 14 2 15 3 16 4 17 9 18 5 19 8 20 6 21 7 22
REMARK SMILES IDX 23 23 24 24 25 25 26 26 27 27 88 28 28 29 87 30 29 31 30 32
REMARK SMILES IDX 31 33 81 34 32 35 86 36 80 37 82 38 33 39 85 40 79 41 78 42
REMARK SMILES IDX 34 44 66 45 46 46 65 47 47 48 50 49 64 50 83 51 48 52 49 53
REMARK SMILES IDX 63 55 84 56 51 57 35 58 36 59 44 60 37 61 43 62 45 63 42 64
REMARK SMILES IDX 38 65 39 66 40 67 41 68 67 69 68 70 76 71 69 72 75 73 77 74
REMARK SMILES IDX 74 75 70 76 71 77 72 78 73 79 52 80 53 81 61 82 54 83 60 84
REMARK SMILES IDX 62 85 59 86 55 87 56 88 57 89 58 90
REMARK H PARENT 82 43 50 54
REMARK Flexibility Score: inf
ROOT
ATOM      1  C   UNL A   1      37.702  21.107  24.886  1.00  0.00     0.275 C 
ENDROOT
BRANCH   1   2
ATOM      2  C   UNL A   1      36.285  20.598  25.139  1.00  0.00     0.275 C 
BRANCH   2   3
ATOM      3  O   UNL A   1      35.576  21.448  26.060  1.00  0.00    -0.458 OA
BRANCH   3   4
ATOM      4  C   UNL A   1      34.260  21.192  26.262  1.00  0.00     0.340 C 
ATOM      5  O   UNL A   1      33.683  21.185  27.336  1.00  0.00    -0.246 OA
BRANCH   4   6
ATOM      6  C   UNL A   1      33.556  20.949  24.976  1.00  0.00     0.086 A 
ATOM      7  C   UNL A   1      33.082  21.989  24.150  1.00  0.00     0.056 A 
ATOM      8  C   UNL A   1      32.346  21.625  23.000  1.00  0.00     0.030 A 
ATOM      9  C   UNL A   1      32.073  20.291  22.695  1.00  0.00     0.041 A 
ATOM     10  C   UNL A   1      33.359  19.607  24.613  1.00  0.00     0.057 A 
ATOM     11  C   UNL A   1      32.590  19.293  23.502  1.00  0.00     0.124 A 
ATOM     12  F   UNL A   1      32.332  18.012  23.215  1.00  0.00    -0.207 F 
BRANCH   7  13
ATOM     13  N   UNL A   1      33.284  23.342  24.440  1.00  0.00    -0.337 N 
ATOM     14  C   UNL A   1      35.611  23.789  23.512  1.00  0.00     0.032 C 
ATOM     15  C   UNL A   1      34.145  24.200  23.577  1.00  0.00     0.089 C 
ATOM     16  C   UNL A   1      34.024  25.641  24.142  1.00  0.00     0.063 C 
ATOM     17  C   UNL A   1      32.698  25.578  24.817  1.00  0.00    -0.022 A 
ATOM     18  C   UNL A   1      32.333  24.242  24.989  1.00  0.00     0.045 A 
ATOM     19  C   UNL A   1      31.910  26.615  25.288  1.00  0.00     0.006 A 
ATOM     20  C   UNL A   1      31.156  23.922  25.650  1.00  0.00     0.026 A 
ATOM     21  C   UNL A   1      30.710  26.294  25.923  1.00  0.00     0.000 A 
ATOM     22  C   UNL A   1      30.332  24.955  26.102  1.00  0.00     0.002 A 
ENDBRANCH   7  13
ENDBRANCH   4   6
ENDBRANCH   3   4
ENDBRANCH   2   3
ENDBRANCH   1   2
BRANCH   1  23
ATOM     23  O   UNL A   1      38.134  21.929  25.979  1.00  0.00    -0.458 OA
BRANCH  23  24
ATOM     24  C   UNL A   1      39.399  21.700  26.394  1.00  0.00     0.338 C 
ATOM     25  O   UNL A   1      40.079  20.699  26.205  1.00  0.00    -0.246 OA
BRANCH  24  26
ATOM     26  C   UNL A   1      39.929  22.954  26.935  1.00  0.00     0.060 A 
ATOM     27  C   UNL A   1      40.925  22.980  27.906  1.00  0.00     0.016 A 
ATOM     28  C   UNL A   1      39.402  24.139  26.421  1.00  0.00     0.016 A 
ATOM     29  C   UNL A   1      41.375  24.219  28.370  1.00  0.00     0.010 A 
ATOM     30  C   UNL A   1      39.852  25.372  26.878  1.00  0.00     0.010 A 
ATOM     31  C   UNL A   1      40.846  25.425  27.858  1.00  0.00    -0.014 A 
BRANCH  31  32
ATOM     32  C   UNL A   1      41.442  26.725  28.251  1.00  0.00     0.031 A 
ATOM     33  C   UNL A   1      42.853  27.094  27.898  1.00  0.00     0.074 A 
ATOM     34  C   UNL A   1      40.682  27.566  28.978  1.00  0.00     0.049 A 
ATOM     35  N   UNL A   1      43.450  28.250  28.034  1.00  0.00    -0.248 NA
ATOM     36  C   UNL A   1      43.716  26.035  27.349  1.00  0.00     0.031 C 
ATOM     37  C   UNL A   1      39.354  27.242  29.501  1.00  0.00     0.029 A 
ATOM     38  N   UNL A   1      40.899  28.855  29.394  1.00  0.00    -0.354 N 
ATOM     39  C   UNL A   1      44.749  28.066  27.579  1.00  0.00     0.074 A 
ATOM     40  C   UNL A   1      44.875  26.670  27.220  1.00  0.00     0.031 C 
ATOM     41  C   UNL A   1      38.851  28.319  30.118  1.00  0.00     0.029 A 
ATOM     42  C   UNL A   1      39.826  29.404  30.057  1.00  0.00     0.049 A 
ATOM     43  H   UNL A   1      41.741  29.339  29.235  1.00  0.00     0.167 HD
ATOM     44  C   UNL A   1      45.730  28.992  27.446  1.00  0.00     0.034 A 
ATOM     45  C   UNL A   1      39.635  30.650  30.539  1.00  0.00     0.034 A 
ATOM     46  C   UNL A   1      45.563  30.381  27.798  1.00  0.00     0.049 A 
ATOM     47  C   UNL A   1      40.700  31.685  30.287  1.00  0.00     0.074 A 
ATOM     48  C   UNL A   1      46.454  31.422  27.606  1.00  0.00     0.029 A 
ATOM     49  N   UNL A   1      44.444  30.924  28.413  1.00  0.00    -0.354 N 
ATOM     50  N   UNL A   1      41.860  31.542  29.689  1.00  0.00    -0.248 NA
ATOM     51  C   UNL A   1      40.427  33.054  30.742  1.00  0.00     0.031 C 
ATOM     52  C   UNL A   1      45.905  32.576  28.165  1.00  0.00     0.029 A 
ATOM     53  C   UNL A   1      44.635  32.278  28.634  1.00  0.00     0.049 A 
ATOM     54  H   UNL A   1      43.633  30.421  28.657  1.00  0.00     0.167 HD
ATOM     55  C   UNL A   1      42.452  32.801  29.693  1.00  0.00     0.074 A 
ATOM     56  C   UNL A   1      41.499  33.703  30.304  1.00  0.00     0.031 C 
ATOM     57  C   UNL A   1      43.679  33.170  29.247  1.00  0.00     0.034 A 
BRANCH  44  58
ATOM     58  C   UNL A   1      47.054  28.589  26.842  1.00  0.00     0.023 A 
ATOM     59  C   UNL A   1      47.174  28.414  25.449  1.00  0.00     0.031 A 
ATOM     60  C   UNL A   1      48.129  28.188  27.656  1.00  0.00     0.131 A 
ATOM     61  C   UNL A   1      48.316  27.798  24.920  1.00  0.00     0.055 A 
ATOM     62  C   UNL A   1      49.285  27.619  27.118  1.00  0.00     0.041 A 
ATOM     63  F   UNL A   1      48.062  28.322  28.990  1.00  0.00    -0.206 F 
ATOM     64  C   UNL A   1      49.375  27.406  25.746  1.00  0.00     0.022 A 
BRANCH  61  65
ATOM     65  S   UNL A   1      48.440  27.404  23.154  1.00  0.00     0.124 S 
ATOM     66  O   UNL A   1      47.329  28.170  22.593  1.00  0.00    -0.237 OA
ATOM     67  O   UNL A   1      49.772  27.905  22.824  1.00  0.00    -0.237 OA
ATOM     68  O   UNL A   1      48.279  25.955  23.106  1.00  0.00    -0.744 OA
ENDBRANCH  61  65
ENDBRANCH  44  58
BRANCH  45  69
ATOM     69  C   UNL A   1      38.342  30.972  31.212  1.00  0.00     0.023 A 
ATOM     70  C   UNL A   1      37.291  31.571  30.493  1.00  0.00     0.031 A 
ATOM     71  C   UNL A   1      38.185  30.814  32.599  1.00  0.00     0.131 A 
ATOM     72  C   UNL A   1      36.165  32.053  31.173  1.00  0.00     0.055 A 
ATOM     73  C   UNL A   1      37.026  31.224  33.262  1.00  0.00     0.041 A 
ATOM     74  F   UNL A   1      39.168  30.272  33.335  1.00  0.00    -0.206 F 
ATOM     75  C   UNL A   1      36.017  31.865  32.551  1.00  0.00     0.022 A 
BRANCH  72  76
ATOM     76  S   UNL A   1      34.939  33.084  30.321  1.00  0.00     0.124 S 
ATOM     77  O   UNL A   1      34.027  33.431  31.407  1.00  0.00    -0.237 OA
ATOM     78  O   UNL A   1      35.764  34.179  29.816  1.00  0.00    -0.237 OA
ATOM     79  O   UNL A   1      34.395  32.198  29.297  1.00  0.00    -0.744 OA
ENDBRANCH  72  76
ENDBRANCH  45  69
BRANCH  57  80
ATOM     80  C   UNL A   1      44.100  34.612  29.418  1.00  0.00     0.023 A 
ATOM     81  C   UNL A   1      43.677  35.589  28.497  1.00  0.00     0.031 A 
ATOM     82  C   UNL A   1      45.035  34.986  30.400  1.00  0.00     0.131 A 
ATOM     83  C   UNL A   1      44.217  36.881  28.554  1.00  0.00     0.055 A 
ATOM     84  C   UNL A   1      45.528  36.288  30.487  1.00  0.00     0.041 A 
ATOM     85  F   UNL A   1      45.483  34.087  31.292  1.00  0.00    -0.206 F 
ATOM     86  C   UNL A   1      45.131  37.238  29.551  1.00  0.00     0.022 A 
BRANCH  83  87
ATOM     87  S   UNL A   1      43.830  38.115  27.282  1.00  0.00     0.124 S 
ATOM     88  O   UNL A   1      45.118  38.268  26.610  1.00  0.00    -0.237 OA
ATOM     89  O   UNL A   1      42.797  37.439  26.501  1.00  0.00    -0.237 OA
ATOM     90  O   UNL A   1      43.382  39.277  28.041  1.00  0.00    -0.744 OA
ENDBRANCH  83  87
ENDBRANCH  57  80
ENDBRANCH  31  32
ENDBRANCH  24  26
ENDBRANCH  23  24
ENDBRANCH   1  23
TORSDOF 15
ENDMDL
MODEL 3
REMARK VINA RESULT:     -12.4      5.133     10.043
REMARK SMILES C[C@@H]1Cc2ccccc2N1c1ccc(F)cc1C(=O)OCCOC(=O)c1ccc(-c2c3nc(c(-c4cc(S(=O)(=O)[O-])ccc4F)c4ccc([nH]4)c(-c4cc(S(=O)(=O)[O-])ccc4F)c4nc(c(-c5cc(S(=O)(=O)[O-])ccc5F)c5ccc2[nH]5)C=C4)C=C3)cc1
REMARK SMILES IDX 22 1 21 2 20 3 18 4 19 5 17 6 11 7 12 8 13 9 16 10 14 11
REMARK SMILES IDX 15 12 10 13 1 14 2 15 3 16 4 17 9 18 5 19 8 20 6 21 7 22
REMARK SMILES IDX 23 23 24 24 25 25 26 26 27 27 88 28 28 29 87 30 29 31 30 32
REMARK SMILES IDX 31 33 81 34 32 35 86 36 80 37 82 38 33 39 85 40 79 41 78 42
REMARK SMILES IDX 34 44 66 45 46 46 65 47 47 48 50 49 64 50 83 51 48 52 49 53
REMARK SMILES IDX 63 55 84 56 51 57 35 58 36 59 44 60 37 61 43 62 45 63 42 64
REMARK SMILES IDX 38 65 39 66 40 67 41 68 67 69 68 70 76 71 69 72 75 73 77 74
REMARK SMILES IDX 74 75 70 76 71 77 72 78 73 79 52 80 53 81 61 82 54 83 60 84
REMARK SMILES IDX 62 85 59 86 55 87 56 88 57 89 58 90
REMARK H PARENT 82 43 50 54
REMARK Flexibility Score: inf
ROOT
ATOM      1  C   UNL A   1      36.502  21.704  24.165  1.00  0.00     0.275 C 
ENDROOT
BRANCH   1   2
ATOM      2  C   UNL A   1      36.313  23.067  23.505  1.00  0.00     0.275 C 
BRANCH   2   3
ATOM      3  O   UNL A   1      35.419  23.902  24.265  1.00  0.00    -0.458 OA
BRANCH   3   4
ATOM      4  C   UNL A   1      34.377  24.466  23.607  1.00  0.00     0.340 C 
ATOM      5  O   UNL A   1      34.331  24.724  22.415  1.00  0.00    -0.246 OA
BRANCH   4   6
ATOM      6  C   UNL A   1      33.232  24.714  24.521  1.00  0.00     0.086 A 
ATOM      7  C   UNL A   1      32.577  23.686  25.229  1.00  0.00     0.056 A 
ATOM      8  C   UNL A   1      31.443  24.040  25.994  1.00  0.00     0.030 A 
ATOM      9  C   UNL A   1      30.966  25.351  26.036  1.00  0.00     0.041 A 
ATOM     10  C   UNL A   1      32.804  26.046  24.643  1.00  0.00     0.057 A 
ATOM     11  C   UNL A   1      31.659  26.345  25.365  1.00  0.00     0.124 A 
ATOM     12  F   UNL A   1      31.207  27.603  25.401  1.00  0.00    -0.207 F 
BRANCH   7  13
ATOM     13  N   UNL A   1      32.983  22.349  25.178  1.00  0.00    -0.337 N 
ATOM     14  C   UNL A   1      34.154  22.015  27.412  1.00  0.00     0.032 C 
ATOM     15  C   UNL A   1      33.109  21.529  26.416  1.00  0.00     0.089 C 
ATOM     16  C   UNL A   1      33.456  20.090  25.947  1.00  0.00     0.063 C 
ATOM     17  C   UNL A   1      32.894  20.090  24.568  1.00  0.00    -0.022 A 
ATOM     18  C   UNL A   1      32.668  21.406  24.164  1.00  0.00     0.045 A 
ATOM     19  C   UNL A   1      32.657  19.018  23.724  1.00  0.00     0.006 A 
ATOM     20  C   UNL A   1      32.197  21.671  22.886  1.00  0.00     0.026 A 
ATOM     21  C   UNL A   1      32.151  19.281  22.450  1.00  0.00     0.000 A 
ATOM     22  C   UNL A   1      31.920  20.600  22.033  1.00  0.00     0.002 A 
ENDBRANCH   7  13
ENDBRANCH   4   6
ENDBRANCH   3   4
ENDBRANCH   2   3
ENDBRANCH   1   2
BRANCH   1  23
ATOM     23  O   UNL A   1      36.932  21.870  25.524  1.00  0.00    -0.458 OA
BRANCH  23  24
ATOM     24  C   UNL A   1      38.181  21.422  25.782  1.00  0.00     0.338 C 
ATOM     25  O   UNL A   1      38.677  20.355  25.444  1.00  0.00    -0.246 OA
BRANCH  24  26
ATOM     26  C   UNL A   1      38.945  22.530  26.360  1.00  0.00     0.060 A 
ATOM     27  C   UNL A   1      40.112  22.324  27.088  1.00  0.00     0.016 A 
ATOM     28  C   UNL A   1      38.462  23.819  26.136  1.00  0.00     0.016 A 
ATOM     29  C   UNL A   1      40.783  23.435  27.607  1.00  0.00     0.010 A 
ATOM     30  C   UNL A   1      39.130  24.926  26.646  1.00  0.00     0.010 A 
ATOM     31  C   UNL A   1      40.300  24.744  27.388  1.00  0.00    -0.014 A 
BRANCH  31  32
ATOM     32  C   UNL A   1      41.105  25.916  27.814  1.00  0.00     0.031 A 
ATOM     33  C   UNL A   1      42.525  26.110  27.371  1.00  0.00     0.074 A 
ATOM     34  C   UNL A   1      40.529  26.797  28.654  1.00  0.00     0.049 A 
ATOM     35  N   UNL A   1      43.291  27.158  27.533  1.00  0.00    -0.248 NA
ATOM     36  C   UNL A   1      43.184  24.986  26.686  1.00  0.00     0.031 C 
ATOM     37  C   UNL A   1      39.209  26.621  29.262  1.00  0.00     0.029 A 
ATOM     38  N   UNL A   1      40.960  28.007  29.134  1.00  0.00    -0.354 N 
ATOM     39  C   UNL A   1      44.515  26.830  26.962  1.00  0.00     0.074 A 
ATOM     40  C   UNL A   1      44.411  25.461  26.504  1.00  0.00     0.031 C 
ATOM     41  C   UNL A   1      38.913  27.707  29.988  1.00  0.00     0.029 A 
ATOM     42  C   UNL A   1      40.028  28.648  29.917  1.00  0.00     0.049 A 
ATOM     43  H   UNL A   1      41.850  28.380  28.938  1.00  0.00     0.167 HD
ATOM     44  C   UNL A   1      45.607  27.618  26.809  1.00  0.00     0.034 A 
ATOM     45  C   UNL A   1      40.054  29.868  30.493  1.00  0.00     0.034 A 
ATOM     46  C   UNL A   1      45.669  28.986  27.264  1.00  0.00     0.049 A 
ATOM     47  C   UNL A   1      41.237  30.760  30.224  1.00  0.00     0.074 A 
ATOM     48  C   UNL A   1      46.685  29.903  27.068  1.00  0.00     0.029 A 
ATOM     49  N   UNL A   1      44.687  29.631  28.002  1.00  0.00    -0.354 N 
ATOM     50  N   UNL A   1      42.318  30.503  29.524  1.00  0.00    -0.248 NA
ATOM     51  C   UNL A   1      41.199  32.116  30.787  1.00  0.00     0.031 C 
ATOM     52  C   UNL A   1      46.351  31.077  27.744  1.00  0.00     0.029 A 
ATOM     53  C   UNL A   1      45.088  30.924  28.295  1.00  0.00     0.049 A 
ATOM     54  H   UNL A   1      43.832  29.228  28.279  1.00  0.00     0.167 HD
ATOM     55  C   UNL A   1      43.085  31.664  29.561  1.00  0.00     0.074 A 
ATOM     56  C   UNL A   1      42.319  32.640  30.306  1.00  0.00     0.031 C 
ATOM     57  C   UNL A   1      44.318  31.891  29.041  1.00  0.00     0.034 A 
BRANCH  44  58
ATOM     58  C   UNL A   1      46.812  27.081  26.074  1.00  0.00     0.023 A 
ATOM     59  C   UNL A   1      47.840  26.428  26.782  1.00  0.00     0.031 A 
ATOM     60  C   UNL A   1      47.032  27.391  24.720  1.00  0.00     0.131 A 
ATOM     61  C   UNL A   1      49.062  26.162  26.149  1.00  0.00     0.055 A 
ATOM     62  C   UNL A   1      48.234  27.080  24.081  1.00  0.00     0.041 A 
ATOM     63  F   UNL A   1      46.089  28.023  24.002  1.00  0.00    -0.206 F 
ATOM     64  C   UNL A   1      49.261  26.478  24.800  1.00  0.00     0.022 A 
BRANCH  61  65
ATOM     65  S   UNL A   1      50.468  25.474  27.066  1.00  0.00     0.124 S 
ATOM     66  O   UNL A   1      51.437  25.233  25.999  1.00  0.00    -0.237 OA
ATOM     67  O   UNL A   1      50.801  26.567  27.975  1.00  0.00    -0.237 OA
ATOM     68  O   UNL A   1      49.924  24.273  27.691  1.00  0.00    -0.744 OA
ENDBRANCH  61  65
ENDBRANCH  44  58
BRANCH  45  69
ATOM     69  C   UNL A   1      38.874  30.315  31.290  1.00  0.00     0.023 A 
ATOM     70  C   UNL A   1      37.769  30.915  30.657  1.00  0.00     0.031 A 
ATOM     71  C   UNL A   1      38.886  30.274  32.694  1.00  0.00     0.131 A 
ATOM     72  C   UNL A   1      36.762  31.511  31.427  1.00  0.00     0.055 A 
ATOM     73  C   UNL A   1      37.841  30.800  33.457  1.00  0.00     0.041 A 
ATOM     74  F   UNL A   1      39.929  29.737  33.348  1.00  0.00    -0.206 F 
ATOM     75  C   UNL A   1      36.782  31.440  32.823  1.00  0.00     0.022 A 
BRANCH  72  76
ATOM     76  S   UNL A   1      35.488  32.541  30.647  1.00  0.00     0.124 S 
ATOM     77  O   UNL A   1      35.234  31.820  29.404  1.00  0.00    -0.237 OA
ATOM     78  O   UNL A   1      34.413  32.492  31.635  1.00  0.00    -0.237 OA
ATOM     79  O   UNL A   1      36.135  33.841  30.504  1.00  0.00    -0.744 OA
ENDBRANCH  72  76
ENDBRANCH  45  69
BRANCH  57  80
ATOM     80  C   UNL A   1      44.954  33.243  29.271  1.00  0.00     0.023 A 
ATOM     81  C   UNL A   1      44.804  34.270  28.319  1.00  0.00     0.031 A 
ATOM     82  C   UNL A   1      45.827  33.462  30.352  1.00  0.00     0.131 A 
ATOM     83  C   UNL A   1      45.544  35.452  28.446  1.00  0.00     0.055 A 
ATOM     84  C   UNL A   1      46.520  34.664  30.504  1.00  0.00     0.041 A 
ATOM     85  F   UNL A   1      46.017  32.509  31.278  1.00  0.00    -0.206 F 
ATOM     86  C   UNL A   1      46.392  35.659  29.540  1.00  0.00     0.022 A 
BRANCH  83  87
ATOM     87  S   UNL A   1      45.510  36.722  27.152  1.00  0.00     0.124 S 
ATOM     88  O   UNL A   1      44.078  36.855  26.898  1.00  0.00    -0.237 OA
ATOM     89  O   UNL A   1      46.133  37.862  27.822  1.00  0.00    -0.237 OA
ATOM     90  O   UNL A   1      46.284  36.137  26.062  1.00  0.00    -0.744 OA
ENDBRANCH  83  87
ENDBRANCH  57  80
ENDBRANCH  31  32
ENDBRANCH  24  26
ENDBRANCH  23  24
ENDBRANCH   1  23
TORSDOF 15
ENDMDL
