MODEL 1
REMARK VINA RESULT:     -12.0      0.000      0.000
REMARK SMILES C[C@H](NC(=O)N[C@H]1CCCC1(C)C)c1nc(C(=O)OCCOC(=O)c2ccc(-c3c4nc(c(-c5cc(S(=O)(=O)[O-])ccc5F)c5ccc([nH]5)c(-c5cc(S(=O)(=O)[O-])ccc5F)c5nc(c(-c6cc(S(=O)(=O)[O-])ccc6F)c6ccc3[nH]6)C=C5)C=C4)cc2)cs1
REMARK SMILES IDX 20 1 19 2 17 3 18 4 16 5 14 6 15 7 89 8 88 9 2 10 1 11 3 12
REMARK SMILES IDX 4 13 5 15 6 16 7 18 8 19 11 20 9 21 10 22 12 23 13 24 21 25
REMARK SMILES IDX 22 26 23 27 24 28 25 29 26 30 87 31 27 32 86 33 28 34 29 35
REMARK SMILES IDX 30 36 80 37 31 38 85 39 79 40 81 41 32 42 84 43 78 44 77 45
REMARK SMILES IDX 33 47 65 48 45 49 64 50 46 51 49 52 63 53 82 54 47 55 48 56
REMARK SMILES IDX 62 58 83 59 50 60 34 61 35 62 43 63 36 64 42 65 44 66 41 67
REMARK SMILES IDX 37 68 38 69 39 70 40 71 66 72 67 73 75 74 68 75 74 76 76 77
REMARK SMILES IDX 73 78 69 79 70 80 71 81 72 82 51 83 52 84 60 85 53 86 59 87
REMARK SMILES IDX 61 88 58 89 54 90 55 91 56 92 57 93
REMARK H PARENT 3 14 6 17 81 46 49 57
REMARK Flexibility Score: inf
ROOT
ATOM      1  C   UNL A   1      35.270  20.587  25.204  1.00  0.00     0.275 C 
ENDROOT
BRANCH   1   2
ATOM      2  O   UNL A   1      34.411  19.554  24.681  1.00  0.00    -0.457 OA
BRANCH   2   3
ATOM      3  C   UNL A   1      33.084  19.649  25.009  1.00  0.00     0.357 C 
ATOM      4  O   UNL A   1      32.508  18.875  25.758  1.00  0.00    -0.244 OA
BRANCH   3   5
ATOM      5  C   UNL A   1      32.402  20.782  24.359  1.00  0.00     0.159 A 
ATOM      6  C   UNL A   1      31.419  22.771  24.421  1.00  0.00     0.116 A 
ATOM      7  N   UNL A   1      31.556  21.626  25.061  1.00  0.00    -0.232 NA
ATOM      8  S   UNL A   1      31.835  22.688  22.753  1.00  0.00    -0.124 S 
ATOM      9  C   UNL A   1      32.612  21.181  23.049  1.00  0.00     0.102 A 
BRANCH   6  10
ATOM     10  C   UNL A   1      31.169  24.072  25.156  1.00  0.00     0.140 C 
ATOM     11  C   UNL A   1      31.093  23.947  26.664  1.00  0.00     0.039 C 
BRANCH  10  12
ATOM     12  N   UNL A   1      30.055  24.800  24.577  1.00  0.00    -0.329 N 
ATOM     13  C   UNL A   1      29.810  26.119  24.560  1.00  0.00     0.315 C 
ATOM     14  H   UNL A   1      29.379  24.243  24.128  1.00  0.00     0.166 HD
ATOM     15  O   UNL A   1      28.661  26.500  24.329  1.00  0.00    -0.249 OA
ATOM     16  N   UNL A   1      30.709  27.023  24.983  1.00  0.00    -0.335 N 
ATOM     17  H   UNL A   1      30.443  27.419  25.844  1.00  0.00     0.165 HD
BRANCH  16  18
ATOM     18  C   UNL A   1      31.997  27.586  24.499  1.00  0.00     0.089 C 
ATOM     19  C   UNL A   1      32.937  27.643  25.712  1.00  0.00     0.025 C 
ATOM     20  C   UNL A   1      32.904  26.967  23.401  1.00  0.00    -0.015 C 
ATOM     21  C   UNL A   1      33.775  26.372  25.628  1.00  0.00     0.003 C 
ATOM     22  C   UNL A   1      33.794  25.952  24.154  1.00  0.00     0.008 C 
ATOM     23  C   UNL A   1      32.131  26.539  22.158  1.00  0.00     0.013 C 
ATOM     24  C   UNL A   1      33.923  28.010  22.851  1.00  0.00     0.013 C 
ENDBRANCH  16  18
ENDBRANCH  10  12
ENDBRANCH   6  10
ENDBRANCH   3   5
ENDBRANCH   2   3
ENDBRANCH   1   2
BRANCH   1  25
ATOM     25  C   UNL A   1      36.726  20.307  24.835  1.00  0.00     0.275 C 
BRANCH  25  26
ATOM     26  O   UNL A   1      37.544  21.412  25.256  1.00  0.00    -0.458 OA
BRANCH  26  27
ATOM     27  C   UNL A   1      38.711  21.070  25.848  1.00  0.00     0.338 C 
ATOM     28  O   UNL A   1      39.255  19.978  25.834  1.00  0.00    -0.246 OA
BRANCH  27  29
ATOM     29  C   UNL A   1      39.302  22.249  26.494  1.00  0.00     0.060 A 
ATOM     30  C   UNL A   1      38.820  23.515  26.168  1.00  0.00     0.016 A 
ATOM     31  C   UNL A   1      40.428  22.121  27.299  1.00  0.00     0.016 A 
ATOM     32  C   UNL A   1      39.522  24.653  26.532  1.00  0.00     0.010 A 
ATOM     33  C   UNL A   1      41.061  23.273  27.776  1.00  0.00     0.010 A 
ATOM     34  C   UNL A   1      40.639  24.551  27.362  1.00  0.00    -0.014 A 
BRANCH  34  35
ATOM     35  C   UNL A   1      41.383  25.778  27.749  1.00  0.00     0.031 A 
ATOM     36  C   UNL A   1      40.696  26.836  28.569  1.00  0.00     0.074 A 
ATOM     37  C   UNL A   1      42.675  25.928  27.394  1.00  0.00     0.049 A 
ATOM     38  N   UNL A   1      41.089  28.051  28.850  1.00  0.00    -0.248 NA
ATOM     39  C   UNL A   1      39.382  26.483  29.131  1.00  0.00     0.031 C 
ATOM     40  C   UNL A   1      43.477  24.940  26.665  1.00  0.00     0.029 A 
ATOM     41  N   UNL A   1      43.548  26.966  27.601  1.00  0.00    -0.354 N 
ATOM     42  C   UNL A   1      40.052  28.626  29.577  1.00  0.00     0.074 A 
ATOM     43  C   UNL A   1      39.004  27.631  29.675  1.00  0.00     0.031 C 
ATOM     44  C   UNL A   1      44.724  25.405  26.515  1.00  0.00     0.029 A 
ATOM     45  C   UNL A   1      44.787  26.765  27.034  1.00  0.00     0.049 A 
ATOM     46  H   UNL A   1      43.312  27.777  28.107  1.00  0.00     0.167 HD
ATOM     47  C   UNL A   1      39.985  29.872  30.109  1.00  0.00     0.034 A 
ATOM     48  C   UNL A   1      45.834  27.600  26.892  1.00  0.00     0.034 A 
ATOM     49  C   UNL A   1      41.060  30.832  30.023  1.00  0.00     0.049 A 
ATOM     50  C   UNL A   1      45.707  29.005  27.422  1.00  0.00     0.074 A 
ATOM     51  C   UNL A   1      41.108  32.118  30.528  1.00  0.00     0.029 A 
ATOM     52  N   UNL A   1      42.280  30.606  29.396  1.00  0.00    -0.354 N 
ATOM     53  N   UNL A   1      44.696  29.561  28.050  1.00  0.00    -0.248 NA
ATOM     54  C   UNL A   1      46.854  29.895  27.214  1.00  0.00     0.031 C 
ATOM     55  C   UNL A   1      42.325  32.695  30.147  1.00  0.00     0.029 A 
ATOM     56  C   UNL A   1      43.074  31.740  29.477  1.00  0.00     0.049 A 
ATOM     57  H   UNL A   1      42.543  29.764  28.959  1.00  0.00     0.167 HD
ATOM     58  C   UNL A   1      45.099  30.862  28.336  1.00  0.00     0.074 A 
ATOM     59  C   UNL A   1      46.450  30.997  27.829  1.00  0.00     0.031 C 
ATOM     60  C   UNL A   1      44.416  31.857  28.958  1.00  0.00     0.034 A 
BRANCH  47  61
ATOM     61  C   UNL A   1      38.691  30.283  30.769  1.00  0.00     0.023 A 
ATOM     62  C   UNL A   1      37.656  30.919  30.063  1.00  0.00     0.031 A 
ATOM     63  C   UNL A   1      38.501  30.053  32.144  1.00  0.00     0.131 A 
ATOM     64  C   UNL A   1      36.510  31.360  30.744  1.00  0.00     0.055 A 
ATOM     65  C   UNL A   1      37.325  30.422  32.800  1.00  0.00     0.041 A 
ATOM     66  F   UNL A   1      39.464  29.473  32.880  1.00  0.00    -0.206 F 
ATOM     67  C   UNL A   1      36.326  31.092  32.102  1.00  0.00     0.022 A 
BRANCH  64  68
ATOM     68  S   UNL A   1      35.325  32.411  29.860  1.00  0.00     0.124 S 
ATOM     69  O   UNL A   1      34.333  32.676  30.899  1.00  0.00    -0.237 OA
ATOM     70  O   UNL A   1      36.148  33.546  29.458  1.00  0.00    -0.237 OA
ATOM     71  O   UNL A   1      34.860  31.559  28.767  1.00  0.00    -0.744 OA
ENDBRANCH  64  68
ENDBRANCH  47  61
BRANCH  48  72
ATOM     72  C   UNL A   1      47.057  27.166  26.154  1.00  0.00     0.023 A 
ATOM     73  C   UNL A   1      48.092  26.480  26.808  1.00  0.00     0.031 A 
ATOM     74  C   UNL A   1      47.233  27.478  24.793  1.00  0.00     0.131 A 
ATOM     75  C   UNL A   1      49.274  26.172  26.114  1.00  0.00     0.055 A 
ATOM     76  C   UNL A   1      48.381  27.108  24.091  1.00  0.00     0.041 A 
ATOM     77  F   UNL A   1      46.279  28.139  24.117  1.00  0.00    -0.206 F 
ATOM     78  C   UNL A   1      49.417  26.465  24.756  1.00  0.00     0.022 A 
BRANCH  75  79
ATOM     79  S   UNL A   1      50.667  25.476  27.044  1.00  0.00     0.124 S 
ATOM     80  O   UNL A   1      50.037  24.346  27.719  1.00  0.00    -0.237 OA
ATOM     81  O   UNL A   1      51.607  25.146  25.979  1.00  0.00    -0.237 OA
ATOM     82  O   UNL A   1      51.075  26.576  27.916  1.00  0.00    -0.744 OA
ENDBRANCH  75  79
ENDBRANCH  48  72
BRANCH  60  83
ATOM     83  C   UNL A   1      45.151  33.158  29.165  1.00  0.00     0.023 A 
ATOM     84  C   UNL A   1      45.099  34.197  28.219  1.00  0.00     0.031 A 
ATOM     85  C   UNL A   1      45.931  33.351  30.319  1.00  0.00     0.131 A 
ATOM     86  C   UNL A   1      45.864  35.357  28.414  1.00  0.00     0.055 A 
ATOM     87  C   UNL A   1      46.637  34.534  30.539  1.00  0.00     0.041 A 
ATOM     88  F   UNL A   1      46.020  32.390  31.253  1.00  0.00    -0.206 F 
ATOM     89  C   UNL A   1      46.618  35.539  29.577  1.00  0.00     0.022 A 
BRANCH  86  90
ATOM     90  S   UNL A   1      45.943  36.580  27.078  1.00  0.00     0.124 S 
ATOM     91  O   UNL A   1      44.562  37.048  27.013  1.00  0.00    -0.237 OA
ATOM     92  O   UNL A   1      46.917  37.538  27.589  1.00  0.00    -0.237 OA
ATOM     93  O   UNL A   1      46.389  35.800  25.924  1.00  0.00    -0.744 OA
ENDBRANCH  86  90
ENDBRANCH  60  83
ENDBRANCH  34  35
ENDBRANCH  27  29
ENDBRANCH  26  27
ENDBRANCH  25  26
ENDBRANCH   1  25
TORSDOF 17
ENDMDL
MODEL 2
REMARK VINA RESULT:     -12.0      4.848     10.096
REMARK SMILES C[C@H](NC(=O)N[C@H]1CCCC1(C)C)c1nc(C(=O)OCCOC(=O)c2ccc(-c3c4nc(c(-c5cc(S(=O)(=O)[O-])ccc5F)c5ccc([nH]5)c(-c5cc(S(=O)(=O)[O-])ccc5F)c5nc(c(-c6cc(S(=O)(=O)[O-])ccc6F)c6ccc3[nH]6)C=C5)C=C4)cc2)cs1
REMARK SMILES IDX 20 1 19 2 17 3 18 4 16 5 14 6 15 7 89 8 88 9 2 10 1 11 3 12
REMARK SMILES IDX 4 13 5 15 6 16 7 18 8 19 11 20 9 21 10 22 12 23 13 24 21 25
REMARK SMILES IDX 22 26 23 27 24 28 25 29 26 30 87 31 27 32 86 33 28 34 29 35
REMARK SMILES IDX 30 36 80 37 31 38 85 39 79 40 81 41 32 42 84 43 78 44 77 45
REMARK SMILES IDX 33 47 65 48 45 49 64 50 46 51 49 52 63 53 82 54 47 55 48 56
REMARK SMILES IDX 62 58 83 59 50 60 34 61 35 62 43 63 36 64 42 65 44 66 41 67
REMARK SMILES IDX 37 68 38 69 39 70 40 71 66 72 67 73 75 74 68 75 74 76 76 77
REMARK SMILES IDX 73 78 69 79 70 80 71 81 72 82 51 83 52 84 60 85 53 86 59 87
REMARK SMILES IDX 61 88 58 89 54 90 55 91 56 92 57 93
REMARK H PARENT 3 14 6 17 81 46 49 57
REMARK Flexibility Score: inf
ROOT
ATOM      1  C   UNL A   1      31.377  29.046  25.184  1.00  0.00     0.275 C 
ENDROOT
BRANCH   1   2
ATOM      2  O   UNL A   1      31.690  29.252  23.792  1.00  0.00    -0.457 OA
BRANCH   2   3
ATOM      3  C   UNL A   1      30.944  28.536  22.893  1.00  0.00     0.357 C 
ATOM      4  O   UNL A   1      30.197  29.042  22.068  1.00  0.00    -0.244 OA
BRANCH   3   5
ATOM      5  C   UNL A   1      31.119  27.080  23.018  1.00  0.00     0.159 A 
ATOM      6  C   UNL A   1      32.335  25.289  23.511  1.00  0.00     0.116 A 
ATOM      7  N   UNL A   1      32.370  26.486  22.957  1.00  0.00    -0.232 NA
ATOM      8  S   UNL A   1      30.752  24.625  23.631  1.00  0.00    -0.124 S 
ATOM      9  C   UNL A   1      30.102  26.186  23.313  1.00  0.00     0.102 A 
BRANCH   6  10
ATOM     10  C   UNL A   1      33.546  24.693  24.200  1.00  0.00     0.140 C 
ATOM     11  C   UNL A   1      34.195  25.591  25.235  1.00  0.00     0.039 C 
BRANCH  10  12
ATOM     12  N   UNL A   1      34.483  24.143  23.239  1.00  0.00    -0.329 N 
ATOM     13  C   UNL A   1      35.377  23.153  23.384  1.00  0.00     0.315 C 
ATOM     14  H   UNL A   1      34.459  24.558  22.346  1.00  0.00     0.166 HD
ATOM     15  O   UNL A   1      36.300  23.072  22.572  1.00  0.00    -0.249 OA
ATOM     16  N   UNL A   1      35.422  22.381  24.482  1.00  0.00    -0.335 N 
ATOM     17  H   UNL A   1      36.207  22.591  25.037  1.00  0.00     0.165 HD
BRANCH  16  18
ATOM     18  C   UNL A   1      34.605  21.293  25.082  1.00  0.00     0.089 C 
ATOM     19  C   UNL A   1      34.679  21.476  26.605  1.00  0.00     0.025 C 
ATOM     20  C   UNL A   1      33.089  21.059  24.847  1.00  0.00    -0.015 C 
ATOM     21  C   UNL A   1      33.421  22.253  26.976  1.00  0.00     0.003 C 
ATOM     22  C   UNL A   1      32.386  21.966  25.883  1.00  0.00     0.008 C 
ATOM     23  C   UNL A   1      32.696  21.125  23.374  1.00  0.00     0.013 C 
ATOM     24  C   UNL A   1      32.663  19.620  25.269  1.00  0.00     0.013 C 
ENDBRANCH  16  18
ENDBRANCH  10  12
ENDBRANCH   6  10
ENDBRANCH   3   5
ENDBRANCH   2   3
ENDBRANCH   1   2
BRANCH   1  25
ATOM     25  C   UNL A   1      31.570  30.340  25.972  1.00  0.00     0.275 C 
BRANCH  25  26
ATOM     26  O   UNL A   1      32.976  30.620  26.088  1.00  0.00    -0.458 OA
BRANCH  26  27
ATOM     27  C   UNL A   1      33.301  31.554  27.011  1.00  0.00     0.338 C 
ATOM     28  O   UNL A   1      32.611  32.482  27.399  1.00  0.00    -0.246 OA
BRANCH  27  29
ATOM     29  C   UNL A   1      34.632  31.264  27.559  1.00  0.00     0.060 A 
ATOM     30  C   UNL A   1      34.952  29.955  27.910  1.00  0.00     0.016 A 
ATOM     31  C   UNL A   1      35.506  32.300  27.871  1.00  0.00     0.016 A 
ATOM     32  C   UNL A   1      36.073  29.683  28.678  1.00  0.00     0.010 A 
ATOM     33  C   UNL A   1      36.703  32.007  28.533  1.00  0.00     0.010 A 
ATOM     34  C   UNL A   1      36.978  30.701  28.980  1.00  0.00    -0.014 A 
BRANCH  34  35
ATOM     35  C   UNL A   1      38.179  30.399  29.803  1.00  0.00     0.031 A 
ATOM     36  C   UNL A   1      39.231  29.466  29.266  1.00  0.00     0.074 A 
ATOM     37  C   UNL A   1      38.339  30.979  31.009  1.00  0.00     0.049 A 
ATOM     38  N   UNL A   1      40.247  28.923  29.883  1.00  0.00    -0.248 NA
ATOM     39  C   UNL A   1      39.111  29.083  27.850  1.00  0.00     0.031 C 
ATOM     40  C   UNL A   1      37.427  31.960  31.608  1.00  0.00     0.029 A 
ATOM     41  N   UNL A   1      39.326  30.836  31.950  1.00  0.00    -0.354 N 
ATOM     42  C   UNL A   1      40.858  28.093  28.948  1.00  0.00     0.074 A 
ATOM     43  C   UNL A   1      40.084  28.192  27.729  1.00  0.00     0.031 C 
ATOM     44  C   UNL A   1      37.914  32.350  32.794  1.00  0.00     0.029 A 
ATOM     45  C   UNL A   1      39.107  31.572  33.094  1.00  0.00     0.049 A 
ATOM     46  H   UNL A   1      40.117  30.264  31.821  1.00  0.00     0.167 HD
ATOM     47  C   UNL A   1      41.962  27.320  29.101  1.00  0.00     0.034 A 
ATOM     48  C   UNL A   1      39.757  31.574  34.274  1.00  0.00     0.034 A 
ATOM     49  C   UNL A   1      42.733  27.267  30.320  1.00  0.00     0.049 A 
ATOM     50  C   UNL A   1      40.933  30.648  34.447  1.00  0.00     0.074 A 
ATOM     51  C   UNL A   1      43.871  26.528  30.589  1.00  0.00     0.029 A 
ATOM     52  N   UNL A   1      42.449  27.989  31.473  1.00  0.00    -0.354 N 
ATOM     53  N   UNL A   1      41.464  29.818  33.578  1.00  0.00    -0.248 NA
ATOM     54  C   UNL A   1      41.589  30.652  35.758  1.00  0.00     0.031 C 
ATOM     55  C   UNL A   1      44.232  26.747  31.923  1.00  0.00     0.029 A 
ATOM     56  C   UNL A   1      43.372  27.689  32.464  1.00  0.00     0.049 A 
ATOM     57  H   UNL A   1      41.701  28.622  31.573  1.00  0.00     0.167 HD
ATOM     58  C   UNL A   1      42.535  29.219  34.234  1.00  0.00     0.074 A 
ATOM     59  C   UNL A   1      42.584  29.800  35.560  1.00  0.00     0.031 C 
ATOM     60  C   UNL A   1      43.399  28.274  33.784  1.00  0.00     0.034 A 
BRANCH  47  61
ATOM     61  C   UNL A   1      42.358  26.429  27.949  1.00  0.00     0.023 A 
ATOM     62  C   UNL A   1      41.831  25.136  27.782  1.00  0.00     0.031 A 
ATOM     63  C   UNL A   1      43.304  26.877  27.008  1.00  0.00     0.131 A 
ATOM     64  C   UNL A   1      42.299  24.317  26.743  1.00  0.00     0.055 A 
ATOM     65  C   UNL A   1      43.707  26.086  25.930  1.00  0.00     0.041 A 
ATOM     66  F   UNL A   1      43.865  28.092  27.127  1.00  0.00    -0.206 F 
ATOM     67  C   UNL A   1      43.214  24.792  25.800  1.00  0.00     0.022 A 
BRANCH  64  68
ATOM     68  S   UNL A   1      41.802  22.572  26.722  1.00  0.00     0.124 S 
ATOM     69  O   UNL A   1      42.305  22.138  25.422  1.00  0.00    -0.237 OA
ATOM     70  O   UNL A   1      42.493  22.033  27.888  1.00  0.00    -0.237 OA
ATOM     71  O   UNL A   1      40.346  22.630  26.831  1.00  0.00    -0.744 OA
ENDBRANCH  64  68
ENDBRANCH  47  61
BRANCH  48  72
ATOM     72  C   UNL A   1      39.268  32.413  35.408  1.00  0.00     0.023 A 
ATOM     73  C   UNL A   1      39.713  33.734  35.576  1.00  0.00     0.031 A 
ATOM     74  C   UNL A   1      38.387  31.889  36.373  1.00  0.00     0.131 A 
ATOM     75  C   UNL A   1      39.314  34.467  36.705  1.00  0.00     0.055 A 
ATOM     76  C   UNL A   1      37.941  32.646  37.457  1.00  0.00     0.041 A 
ATOM     77  F   UNL A   1      37.933  30.630  36.268  1.00  0.00    -0.206 F 
ATOM     78  C   UNL A   1      38.418  33.939  37.637  1.00  0.00     0.022 A 
BRANCH  75  79
ATOM     79  S   UNL A   1      40.074  36.089  36.995  1.00  0.00     0.124 S 
ATOM     80  O   UNL A   1      41.457  35.722  37.275  1.00  0.00    -0.237 OA
ATOM     81  O   UNL A   1      39.833  36.767  35.726  1.00  0.00    -0.237 OA
ATOM     82  O   UNL A   1      39.325  36.616  38.135  1.00  0.00    -0.744 OA
ENDBRANCH  75  79
ENDBRANCH  48  72
BRANCH  60  83
ATOM     83  C   UNL A   1      44.499  27.856  34.727  1.00  0.00     0.023 A 
ATOM     84  C   UNL A   1      44.273  26.943  35.772  1.00  0.00     0.031 A 
ATOM     85  C   UNL A   1      45.790  28.397  34.589  1.00  0.00     0.131 A 
ATOM     86  C   UNL A   1      45.304  26.646  36.675  1.00  0.00     0.055 A 
ATOM     87  C   UNL A   1      46.830  28.047  35.450  1.00  0.00     0.041 A 
ATOM     88  F   UNL A   1      46.061  29.277  33.611  1.00  0.00    -0.206 F 
ATOM     89  C   UNL A   1      46.586  27.178  36.510  1.00  0.00     0.022 A 
BRANCH  86  90
ATOM     90  S   UNL A   1      44.920  25.637  38.132  1.00  0.00     0.124 S 
ATOM     91  O   UNL A   1      44.177  24.526  37.544  1.00  0.00    -0.237 OA
ATOM     92  O   UNL A   1      46.246  25.314  38.646  1.00  0.00    -0.237 OA
ATOM     93  O   UNL A   1      44.131  26.535  38.973  1.00  0.00    -0.744 OA
ENDBRANCH  86  90
ENDBRANCH  60  83
ENDBRANCH  34  35
ENDBRANCH  27  29
ENDBRANCH  26  27
ENDBRANCH  25  26
ENDBRANCH   1  25
TORSDOF 17
ENDMDL
MODEL 3
REMARK VINA RESULT:     -11.9      4.946      9.819
REMARK SMILES C[C@H](NC(=O)N[C@H]1CCCC1(C)C)c1nc(C(=O)OCCOC(=O)c2ccc(-c3c4nc(c(-c5cc(S(=O)(=O)[O-])ccc5F)c5ccc([nH]5)c(-c5cc(S(=O)(=O)[O-])ccc5F)c5nc(c(-c6cc(S(=O)(=O)[O-])ccc6F)c6ccc3[nH]6)C=C5)C=C4)cc2)cs1
REMARK SMILES IDX 20 1 19 2 17 3 18 4 16 5 14 6 15 7 89 8 88 9 2 10 1 11 3 12
REMARK SMILES IDX 4 13 5 15 6 16 7 18 8 19 11 20 9 21 10 22 12 23 13 24 21 25
REMARK SMILES IDX 22 26 23 27 24 28 25 29 26 30 87 31 27 32 86 33 28 34 29 35
REMARK SMILES IDX 30 36 80 37 31 38 85 39 79 40 81 41 32 42 84 43 78 44 77 45
REMARK SMILES IDX 33 47 65 48 45 49 64 50 46 51 49 52 63 53 82 54 47 55 48 56
REMARK SMILES IDX 62 58 83 59 50 60 34 61 35 62 43 63 36 64 42 65 44 66 41 67
REMARK SMILES IDX 37 68 38 69 39 70 40 71 66 72 67 73 75 74 68 75 74 76 76 77
REMARK SMILES IDX 73 78 69 79 70 80 71 81 72 82 51 83 52 84 60 85 53 86 59 87
REMARK SMILES IDX 61 88 58 89 54 90 55 91 56 92 57 93
REMARK H PARENT 3 14 6 17 81 46 49 57
REMARK Flexibility Score: inf
ROOT
ATOM      1  C   UNL A   1      32.145  28.500  27.333  1.00  0.00     0.275 C 
ENDROOT
BRANCH   1   2
ATOM      2  O   UNL A   1      31.003  27.637  27.162  1.00  0.00    -0.457 OA
BRANCH   2   3
ATOM      3  C   UNL A   1      31.209  26.505  26.417  1.00  0.00     0.357 C 
ATOM      4  O   UNL A   1      31.291  25.381  26.890  1.00  0.00    -0.244 OA
BRANCH   3   5
ATOM      5  C   UNL A   1      31.333  26.771  24.973  1.00  0.00     0.159 A 
ATOM      6  C   UNL A   1      32.046  26.241  22.939  1.00  0.00     0.116 A 
ATOM      7  N   UNL A   1      32.367  26.241  24.218  1.00  0.00    -0.232 NA
ATOM      8  S   UNL A   1      30.775  27.332  22.542  1.00  0.00    -0.124 S 
ATOM      9  C   UNL A   1      30.401  27.462  24.217  1.00  0.00     0.102 A 
BRANCH   6  10
ATOM     10  C   UNL A   1      32.576  25.191  21.983  1.00  0.00     0.140 C 
ATOM     11  C   UNL A   1      32.545  25.588  20.521  1.00  0.00     0.039 C 
BRANCH  10  12
ATOM     12  N   UNL A   1      31.984  23.893  22.245  1.00  0.00    -0.329 N 
ATOM     13  C   UNL A   1      32.549  22.776  22.728  1.00  0.00     0.315 C 
ATOM     14  H   UNL A   1      31.025  23.820  22.039  1.00  0.00     0.166 HD
ATOM     15  O   UNL A   1      31.972  21.702  22.552  1.00  0.00    -0.249 OA
ATOM     16  N   UNL A   1      33.803  22.755  23.209  1.00  0.00    -0.335 N 
ATOM     17  H   UNL A   1      34.415  22.286  22.597  1.00  0.00     0.165 HD
BRANCH  16  18
ATOM     18  C   UNL A   1      34.514  23.248  24.419  1.00  0.00     0.089 C 
ATOM     19  C   UNL A   1      33.603  22.948  25.617  1.00  0.00     0.025 C 
ATOM     20  C   UNL A   1      35.900  22.762  24.921  1.00  0.00    -0.015 C 
ATOM     21  C   UNL A   1      34.116  21.631  26.189  1.00  0.00     0.003 C 
ATOM     22  C   UNL A   1      35.590  21.518  25.784  1.00  0.00     0.008 C 
ATOM     23  C   UNL A   1      36.945  22.689  23.812  1.00  0.00     0.013 C 
ATOM     24  C   UNL A   1      36.522  23.768  25.935  1.00  0.00     0.013 C 
ENDBRANCH  16  18
ENDBRANCH  10  12
ENDBRANCH   6  10
ENDBRANCH   3   5
ENDBRANCH   2   3
ENDBRANCH   1   2
BRANCH   1  25
ATOM     25  C   UNL A   1      31.942  29.809  26.571  1.00  0.00     0.275 C 
BRANCH  25  26
ATOM     26  O   UNL A   1      33.223  30.407  26.305  1.00  0.00    -0.458 OA
BRANCH  26  27
ATOM     27  C   UNL A   1      33.620  31.338  27.203  1.00  0.00     0.338 C 
ATOM     28  O   UNL A   1      32.967  32.273  27.637  1.00  0.00    -0.246 OA
BRANCH  27  29
ATOM     29  C   UNL A   1      34.983  31.034  27.658  1.00  0.00     0.060 A 
ATOM     30  C   UNL A   1      35.292  29.737  28.058  1.00  0.00     0.016 A 
ATOM     31  C   UNL A   1      35.909  32.056  27.837  1.00  0.00     0.016 A 
ATOM     32  C   UNL A   1      36.464  29.470  28.748  1.00  0.00     0.010 A 
ATOM     33  C   UNL A   1      37.147  31.761  28.418  1.00  0.00     0.010 A 
ATOM     34  C   UNL A   1      37.420  30.473  28.917  1.00  0.00    -0.014 A 
BRANCH  34  35
ATOM     35  C   UNL A   1      38.675  30.178  29.657  1.00  0.00     0.031 A 
ATOM     36  C   UNL A   1      39.700  29.261  29.044  1.00  0.00     0.074 A 
ATOM     37  C   UNL A   1      38.907  30.749  30.856  1.00  0.00     0.049 A 
ATOM     38  N   UNL A   1      40.759  28.724  29.589  1.00  0.00    -0.248 NA
ATOM     39  C   UNL A   1      39.492  28.889  27.636  1.00  0.00     0.031 C 
ATOM     40  C   UNL A   1      38.026  31.715  31.521  1.00  0.00     0.029 A 
ATOM     41  N   UNL A   1      39.955  30.609  31.730  1.00  0.00    -0.354 N 
ATOM     42  C   UNL A   1      41.317  27.908  28.609  1.00  0.00     0.074 A 
ATOM     43  C   UNL A   1      40.464  28.009  27.443  1.00  0.00     0.031 C 
ATOM     44  C   UNL A   1      38.584  32.100  32.677  1.00  0.00     0.029 A 
ATOM     45  C   UNL A   1      39.803  31.332  32.892  1.00  0.00     0.049 A 
ATOM     46  H   UNL A   1      40.742  30.047  31.543  1.00  0.00     0.167 HD
ATOM     47  C   UNL A   1      42.436  27.147  28.682  1.00  0.00     0.034 A 
ATOM     48  C   UNL A   1      40.528  31.332  34.027  1.00  0.00     0.034 A 
ATOM     49  C   UNL A   1      43.286  27.092  29.848  1.00  0.00     0.049 A 
ATOM     50  C   UNL A   1      41.722  30.418  34.114  1.00  0.00     0.074 A 
ATOM     51  C   UNL A   1      44.446  26.363  30.036  1.00  0.00     0.029 A 
ATOM     52  N   UNL A   1      43.070  27.801  31.024  1.00  0.00    -0.354 N 
ATOM     53  N   UNL A   1      42.204  29.601  33.205  1.00  0.00    -0.248 NA
ATOM     54  C   UNL A   1      42.463  30.418  35.380  1.00  0.00     0.031 C 
ATOM     55  C   UNL A   1      44.892  26.575  31.346  1.00  0.00     0.029 A 
ATOM     56  C   UNL A   1      44.058  27.503  31.950  1.00  0.00     0.049 A 
ATOM     57  H   UNL A   1      42.323  28.425  31.178  1.00  0.00     0.167 HD
ATOM     58  C   UNL A   1      43.322  29.008  33.785  1.00  0.00     0.074 A 
ATOM     59  C   UNL A   1      43.452  29.579  35.110  1.00  0.00     0.031 C 
ATOM     60  C   UNL A   1      44.165  28.077  33.271  1.00  0.00     0.034 A 
BRANCH  47  61
ATOM     61  C   UNL A   1      42.766  26.270  27.499  1.00  0.00     0.023 A 
ATOM     62  C   UNL A   1      42.259  24.966  27.365  1.00  0.00     0.031 A 
ATOM     63  C   UNL A   1      43.628  26.745  26.492  1.00  0.00     0.131 A 
ATOM     64  C   UNL A   1      42.668  24.162  26.289  1.00  0.00     0.055 A 
ATOM     65  C   UNL A   1      43.967  25.968  25.382  1.00  0.00     0.041 A 
ATOM     66  F   UNL A   1      44.166  27.972  26.576  1.00  0.00    -0.206 F 
ATOM     67  C   UNL A   1      43.497  24.663  25.283  1.00  0.00     0.022 A 
BRANCH  64  68
ATOM     68  S   UNL A   1      42.212  22.406  26.295  1.00  0.00     0.124 S 
ATOM     69  O   UNL A   1      40.754  22.479  26.296  1.00  0.00    -0.237 OA
ATOM     70  O   UNL A   1      42.827  21.916  25.066  1.00  0.00    -0.237 OA
ATOM     71  O   UNL A   1      42.805  21.903  27.533  1.00  0.00    -0.744 OA
ENDBRANCH  64  68
ENDBRANCH  47  61
BRANCH  48  72
ATOM     72  C   UNL A   1      40.105  32.156  35.198  1.00  0.00     0.023 A 
ATOM     73  C   UNL A   1      39.229  31.644  36.166  1.00  0.00     0.031 A 
ATOM     74  C   UNL A   1      40.531  33.490  35.338  1.00  0.00     0.131 A 
ATOM     75  C   UNL A   1      38.770  32.472  37.203  1.00  0.00     0.055 A 
ATOM     76  C   UNL A   1      40.125  34.289  36.409  1.00  0.00     0.041 A 
ATOM     77  F   UNL A   1      41.366  34.037  34.439  1.00  0.00    -0.206 F 
ATOM     78  C   UNL A   1      39.226  33.785  37.340  1.00  0.00     0.022 A 
BRANCH  75  79
ATOM     79  S   UNL A   1      37.479  31.840  38.309  1.00  0.00     0.124 S 
ATOM     80  O   UNL A   1      38.148  31.893  39.605  1.00  0.00    -0.237 OA
ATOM     81  O   UNL A   1      36.403  32.803  38.101  1.00  0.00    -0.237 OA
ATOM     82  O   UNL A   1      37.220  30.496  37.795  1.00  0.00    -0.744 OA
ENDBRANCH  75  79
ENDBRANCH  48  72
BRANCH  60  83
ATOM     83  C   UNL A   1      45.329  27.663  34.137  1.00  0.00     0.023 A 
ATOM     84  C   UNL A   1      45.246  26.570  35.017  1.00  0.00     0.031 A 
ATOM     85  C   UNL A   1      46.533  28.389  34.093  1.00  0.00     0.131 A 
ATOM     86  C   UNL A   1      46.324  26.272  35.863  1.00  0.00     0.055 A 
ATOM     87  C   UNL A   1      47.626  28.046  34.889  1.00  0.00     0.041 A 
ATOM     88  F   UNL A   1      46.666  29.444  33.273  1.00  0.00    -0.206 F 
ATOM     89  C   UNL A   1      47.520  26.992  35.791  1.00  0.00     0.022 A 
BRANCH  86  90
ATOM     90  S   UNL A   1      46.106  24.997  37.133  1.00  0.00     0.124 S 
ATOM     91  O   UNL A   1      45.901  25.798  38.336  1.00  0.00    -0.237 OA
ATOM     92  O   UNL A   1      44.941  24.267  36.646  1.00  0.00    -0.237 OA
ATOM     93  O   UNL A   1      47.365  24.253  37.091  1.00  0.00    -0.744 OA
ENDBRANCH  86  90
ENDBRANCH  60  83
ENDBRANCH  34  35
ENDBRANCH  27  29
ENDBRANCH  26  27
ENDBRANCH  25  26
ENDBRANCH   1  25
TORSDOF 17
ENDMDL
