MODEL 1
REMARK VINA RESULT:     -11.0      0.000      0.000
REMARK SMILES O=C(OCCOC(=O)[C@@H](CCCCl)[P@TB4](=O)(c1ccccc1)c1ccccc1)c1ccc(-c2c3nc(c(-c4cc(S(=O)(=O)[O-])ccc4F)c4ccc([nH]4)c(-c4cc(S(=O)(=O)[O-])ccc4F)c4nc(c(-c5cc(S(=O)(=O)[O-])ccc5F)c5ccc2[nH]5)C=C4)C=C3)cc1
REMARK SMILES IDX 4 1 3 2 2 3 1 4 28 5 29 6 90 7 30 8 89 9 31 10 32 11 33 12
REMARK SMILES IDX 83 13 34 14 88 15 82 16 84 17 35 18 87 19 81 20 80 21 36 23
REMARK SMILES IDX 68 24 48 25 67 26 49 27 52 28 66 29 85 30 50 31 51 32 65 34
REMARK SMILES IDX 86 35 53 36 37 37 38 38 46 39 39 40 45 41 47 42 44 43 40 44
REMARK SMILES IDX 41 45 42 46 43 47 69 48 70 49 78 50 71 51 77 52 79 53 76 54
REMARK SMILES IDX 72 55 73 56 74 57 75 58 54 59 55 60 63 61 56 62 62 63 64 64
REMARK SMILES IDX 61 65 57 66 58 67 59 68 60 69 5 70 6 71 7 72 8 73 9 74 10 75
REMARK SMILES IDX 11 76 12 77 13 78 14 79 15 80 16 81 17 82 21 83 18 84 20 85
REMARK SMILES IDX 19 86 22 87 23 88 27 89 24 90 26 91 25 92
REMARK H PARENT 84 22 52 33
REMARK Flexibility Score: inf
ROOT
ATOM      1  C   UNL A   1      33.615  31.689  27.234  1.00  0.00       nan C 
ENDROOT
BRANCH   1   2
ATOM      2  O   UNL A   1      33.183  32.885  27.886  1.00  0.00       nan OA
BRANCH   2   3
ATOM      3  C   UNL A   1      33.868  33.718  28.707  1.00  0.00       nan C 
ATOM      4  O   UNL A   1      33.781  34.923  28.467  1.00  0.00       nan OA
BRANCH   3   5
ATOM      5  C   UNL A   1      34.924  33.271  29.705  1.00  0.00       nan A 
ATOM      6  C   UNL A   1      34.807  32.615  30.950  1.00  0.00       nan A 
ATOM      7  C   UNL A   1      36.216  33.336  29.190  1.00  0.00       nan A 
ATOM      8  C   UNL A   1      35.916  31.908  31.584  1.00  0.00       nan A 
ATOM      9  C   UNL A   1      37.251  32.567  29.766  1.00  0.00       nan A 
ATOM     10  C   UNL A   1      37.170  31.777  30.964  1.00  0.00       nan A 
BRANCH  10  11
ATOM     11  C   UNL A   1      38.349  30.731  31.280  1.00  0.00       inf A 
ATOM     12  C   UNL A   1      39.451  31.297  32.175  1.00  0.00     0.074 A 
ATOM     13  C   UNL A   1      38.675  29.494  30.738  1.00  0.00     0.049 A 
ATOM     14  N   UNL A   1      40.726  31.000  32.242  1.00  0.00    -0.248 NA
ATOM     15  C   UNL A   1      39.083  32.445  33.038  1.00  0.00     0.031 C 
ATOM     16  C   UNL A   1      37.889  28.623  29.839  1.00  0.00     0.029 A 
ATOM     17  N   UNL A   1      39.929  28.832  30.698  1.00  0.00    -0.354 N 
ATOM     18  C   UNL A   1      41.196  31.885  33.199  1.00  0.00     0.074 A 
ATOM     19  C   UNL A   1      40.277  32.993  33.218  1.00  0.00     0.031 C 
ATOM     20  C   UNL A   1      38.708  27.779  29.156  1.00  0.00     0.029 A 
ATOM     21  C   UNL A   1      40.086  27.939  29.613  1.00  0.00     0.049 A 
ATOM     22  H   UNL A   1      40.633  28.982  31.370  1.00  0.00     0.167 HD
ATOM     23  C   UNL A   1      41.951  31.591  34.289  1.00  0.00     0.034 A 
ATOM     24  C   UNL A   1      41.215  27.438  29.021  1.00  0.00     0.034 A 
ATOM     25  C   UNL A   1      42.714  30.393  34.398  1.00  0.00     0.049 A 
ATOM     26  C   UNL A   1      42.454  27.386  29.887  1.00  0.00     0.074 A 
ATOM     27  C   UNL A   1      43.348  29.852  35.498  1.00  0.00     0.029 A 
ATOM     28  N   UNL A   1      42.950  29.548  33.333  1.00  0.00    -0.354 N 
ATOM     29  N   UNL A   1      42.720  28.046  30.982  1.00  0.00    -0.248 NA
ATOM     30  C   UNL A   1      43.464  26.362  29.541  1.00  0.00     0.031 C 
ATOM     31  C   UNL A   1      44.026  28.702  35.077  1.00  0.00     0.029 A 
ATOM     32  C   UNL A   1      43.763  28.509  33.731  1.00  0.00     0.049 A 
ATOM     33  H   UNL A   1      42.589  29.669  32.424  1.00  0.00     0.167 HD
ATOM     34  C   UNL A   1      43.782  27.363  31.564  1.00  0.00     0.074 A 
ATOM     35  C   UNL A   1      44.228  26.365  30.621  1.00  0.00     0.031 C 
ATOM     36  C   UNL A   1      44.218  27.480  32.839  1.00  0.00     0.034 A 
BRANCH  23  37
ATOM     37  C   UNL A   1      41.748  32.480  35.490  1.00  0.00     0.023 A 
ATOM     38  C   UNL A   1      40.643  32.258  36.342  1.00  0.00     0.031 A 
ATOM     39  C   UNL A   1      42.546  33.600  35.726  1.00  0.00     0.131 A 
ATOM     40  C   UNL A   1      40.248  33.240  37.251  1.00  0.00     0.055 A 
ATOM     41  C   UNL A   1      42.226  34.510  36.738  1.00  0.00     0.041 A 
ATOM     42  F   UNL A   1      43.614  33.854  34.956  1.00  0.00    -0.206 F 
ATOM     43  C   UNL A   1      41.052  34.354  37.480  1.00  0.00     0.022 A 
BRANCH  40  44
ATOM     44  S   UNL A   1      38.571  33.137  37.941  1.00  0.00     0.124 S 
ATOM     45  O   UNL A   1      37.794  33.866  36.938  1.00  0.00    -0.237 OA
ATOM     46  O   UNL A   1      38.334  31.699  37.998  1.00  0.00    -0.237 OA
ATOM     47  O   UNL A   1      38.694  33.806  39.233  1.00  0.00    -0.744 OA
ENDBRANCH  40  44
ENDBRANCH  23  37
BRANCH  24  48
ATOM     48  C   UNL A   1      41.407  26.814  27.644  1.00  0.00     0.023 A 
ATOM     49  C   UNL A   1      41.468  25.424  27.419  1.00  0.00     0.031 A 
ATOM     50  C   UNL A   1      41.942  27.636  26.618  1.00  0.00     0.131 A 
ATOM     51  C   UNL A   1      42.057  24.913  26.230  1.00  0.00     0.055 A 
ATOM     52  C   UNL A   1      42.512  27.122  25.439  1.00  0.00     0.041 A 
ATOM     53  F   UNL A   1      42.006  28.966  26.783  1.00  0.00    -0.206 F 
ATOM     54  C   UNL A   1      42.562  25.752  25.233  1.00  0.00     0.022 A 
BRANCH  51  55
ATOM     55  S   UNL A   1      42.299  23.117  26.042  1.00  0.00     0.124 S 
ATOM     56  O   UNL A   1      43.162  22.817  27.177  1.00  0.00    -0.237 OA
ATOM     57  O   UNL A   1      40.932  22.611  26.121  1.00  0.00    -0.237 OA
ATOM     58  O   UNL A   1      42.927  22.989  24.727  1.00  0.00    -0.744 OA
ENDBRANCH  51  55
ENDBRANCH  24  48
BRANCH  36  59
ATOM     59  C   UNL A   1      45.074  26.383  33.384  1.00  0.00     0.023 A 
ATOM     60  C   UNL A   1      44.543  25.212  33.933  1.00  0.00     0.031 A 
ATOM     61  C   UNL A   1      46.474  26.536  33.349  1.00  0.00     0.131 A 
ATOM     62  C   UNL A   1      45.411  24.246  34.458  1.00  0.00     0.055 A 
ATOM     63  C   UNL A   1      47.333  25.541  33.807  1.00  0.00     0.041 A 
ATOM     64  F   UNL A   1      47.028  27.656  32.857  1.00  0.00    -0.206 F 
ATOM     65  C   UNL A   1      46.800  24.388  34.372  1.00  0.00     0.022 A 
BRANCH  62  66
ATOM     66  S   UNL A   1      44.694  22.828  35.326  1.00  0.00     0.124 S 
ATOM     67  O   UNL A   1      45.117  23.073  36.701  1.00  0.00    -0.237 OA
ATOM     68  O   UNL A   1      43.268  22.987  35.061  1.00  0.00    -0.237 OA
ATOM     69  O   UNL A   1      45.320  21.677  34.676  1.00  0.00    -0.744 OA
ENDBRANCH  62  66
ENDBRANCH  36  59
ENDBRANCH  10  11
ENDBRANCH   3   5
ENDBRANCH   2   3
ENDBRANCH   1   2
BRANCH   1  70
ATOM     70  C   UNL A   1      32.538  30.602  27.171  1.00  0.00       nan C 
BRANCH  70  71
ATOM     71  O   UNL A   1      32.531  29.844  25.950  1.00  0.00       nan OA
BRANCH  71  72
ATOM     72  C   UNL A   1      33.406  28.791  25.899  1.00  0.00       nan C 
ATOM     73  O   UNL A   1      34.512  28.788  26.441  1.00  0.00       nan OA
BRANCH  72  74
ATOM     74  C   UNL A   1      32.810  27.597  25.163  1.00  0.00       nan C 
BRANCH  74  75
ATOM     75  C   UNL A   1      32.455  26.580  26.177  1.00  0.00       nan C 
BRANCH  75  76
ATOM     76  C   UNL A   1      33.428  25.427  26.159  1.00  0.00       nan C 
BRANCH  76  77
ATOM     77  C   UNL A   1      33.197  23.928  26.195  1.00  0.00       nan C 
ATOM     78  Cl  UNL A   1      31.662  23.513  26.924  1.00  0.00       nan Cl
ENDBRANCH  76  77
ENDBRANCH  75  76
ENDBRANCH  74  75
BRANCH  74  79
ATOM     79  P   UNL A   1      31.489  28.204  24.052  1.00  0.00       nan P 
ATOM     80  O   UNL A   1      32.569  28.978  23.249  1.00  0.00       nan OA
BRANCH  79  81
ATOM     81  C   UNL A   1      31.450  26.237  23.224  1.00  0.00       nan A 
ATOM     82  C   UNL A   1      30.465  25.319  23.607  1.00  0.00       nan A 
ATOM     83  C   UNL A   1      32.537  25.720  22.467  1.00  0.00       nan A 
ATOM     84  C   UNL A   1      30.697  23.936  23.422  1.00  0.00       nan A 
ATOM     85  C   UNL A   1      32.732  24.358  22.234  1.00  0.00       nan A 
ATOM     86  C   UNL A   1      31.836  23.457  22.764  1.00  0.00       nan A 
ENDBRANCH  79  81
BRANCH  79  87
ATOM     87  C   UNL A   1      30.168  28.811  22.940  1.00  0.00       nan A 
ATOM     88  C   UNL A   1      30.201  29.717  21.884  1.00  0.00       nan A 
ATOM     89  C   UNL A   1      28.872  28.440  23.393  1.00  0.00       nan A 
ATOM     90  C   UNL A   1      29.037  30.356  21.436  1.00  0.00       nan A 
ATOM     91  C   UNL A   1      27.701  29.019  22.893  1.00  0.00       nan A 
ATOM     92  C   UNL A   1      27.789  30.010  21.930  1.00  0.00       nan A 
ENDBRANCH  79  87
ENDBRANCH  74  79
ENDBRANCH  72  74
ENDBRANCH  71  72
ENDBRANCH  70  71
ENDBRANCH   1  70
TORSDOF 20
ENDMDL
MODEL 2
REMARK VINA RESULT:     -10.8      1.516      3.116
REMARK SMILES O=C(OCCOC(=O)[C@@H](CCCCl)[P@TB4](=O)(c1ccccc1)c1ccccc1)c1ccc(-c2c3nc(c(-c4cc(S(=O)(=O)[O-])ccc4F)c4ccc([nH]4)c(-c4cc(S(=O)(=O)[O-])ccc4F)c4nc(c(-c5cc(S(=O)(=O)[O-])ccc5F)c5ccc2[nH]5)C=C4)C=C3)cc1
REMARK SMILES IDX 4 1 3 2 2 3 1 4 28 5 29 6 90 7 30 8 89 9 31 10 32 11 33 12
REMARK SMILES IDX 83 13 34 14 88 15 82 16 84 17 35 18 87 19 81 20 80 21 36 23
REMARK SMILES IDX 68 24 48 25 67 26 49 27 52 28 66 29 85 30 50 31 51 32 65 34
REMARK SMILES IDX 86 35 53 36 37 37 38 38 46 39 39 40 45 41 47 42 44 43 40 44
REMARK SMILES IDX 41 45 42 46 43 47 69 48 70 49 78 50 71 51 77 52 79 53 76 54
REMARK SMILES IDX 72 55 73 56 74 57 75 58 54 59 55 60 63 61 56 62 62 63 64 64
REMARK SMILES IDX 61 65 57 66 58 67 59 68 60 69 5 70 6 71 7 72 8 73 9 74 10 75
REMARK SMILES IDX 11 76 12 77 13 78 14 79 15 80 16 81 17 82 21 83 18 84 20 85
REMARK SMILES IDX 19 86 22 87 23 88 27 89 24 90 26 91 25 92
REMARK H PARENT 84 22 52 33
REMARK Flexibility Score: inf
ROOT
ATOM      1  C   UNL A   1      32.811  30.783  27.256  1.00  0.00       nan C 
ENDROOT
BRANCH   1   2
ATOM      2  O   UNL A   1      33.068  32.185  27.150  1.00  0.00       nan OA
BRANCH   2   3
ATOM      3  C   UNL A   1      33.503  33.058  28.091  1.00  0.00       nan C 
ATOM      4  O   UNL A   1      33.082  34.213  28.008  1.00  0.00       nan OA
BRANCH   3   5
ATOM      5  C   UNL A   1      34.653  32.792  29.049  1.00  0.00       nan A 
ATOM      6  C   UNL A   1      34.660  32.415  30.409  1.00  0.00       nan A 
ATOM      7  C   UNL A   1      35.884  32.705  28.405  1.00  0.00       nan A 
ATOM      8  C   UNL A   1      35.820  31.818  31.064  1.00  0.00       nan A 
ATOM      9  C   UNL A   1      36.964  32.038  29.023  1.00  0.00       nan A 
ATOM     10  C   UNL A   1      37.000  31.518  30.363  1.00  0.00       nan A 
BRANCH  10  11
ATOM     11  C   UNL A   1      38.193  30.521  30.772  1.00  0.00       inf A 
ATOM     12  C   UNL A   1      39.185  31.123  31.767  1.00  0.00     0.074 A 
ATOM     13  C   UNL A   1      38.621  29.307  30.249  1.00  0.00     0.049 A 
ATOM     14  N   UNL A   1      40.461  30.882  31.944  1.00  0.00    -0.248 NA
ATOM     15  C   UNL A   1      38.690  32.241  32.605  1.00  0.00     0.031 C 
ATOM     16  C   UNL A   1      37.959  28.415  29.275  1.00  0.00     0.029 A 
ATOM     17  N   UNL A   1      39.903  28.702  30.314  1.00  0.00    -0.354 N 
ATOM     18  C   UNL A   1      40.805  31.773  32.947  1.00  0.00     0.074 A 
ATOM     19  C   UNL A   1      39.838  32.839  32.896  1.00  0.00     0.031 C 
ATOM     20  C   UNL A   1      38.872  27.617  28.659  1.00  0.00     0.029 A 
ATOM     21  C   UNL A   1      40.196  27.832  29.239  1.00  0.00     0.049 A 
ATOM     22  H   UNL A   1      40.537  28.874  31.047  1.00  0.00     0.167 HD
ATOM     23  C   UNL A   1      41.473  31.497  34.097  1.00  0.00     0.034 A 
ATOM     24  C   UNL A   1      41.394  27.390  28.744  1.00  0.00     0.034 A 
ATOM     25  C   UNL A   1      42.277  30.333  34.262  1.00  0.00     0.049 A 
ATOM     26  C   UNL A   1      42.553  27.380  29.716  1.00  0.00     0.074 A 
ATOM     27  C   UNL A   1      42.834  29.806  35.408  1.00  0.00     0.029 A 
ATOM     28  N   UNL A   1      42.643  29.515  33.213  1.00  0.00    -0.354 N 
ATOM     29  N   UNL A   1      42.691  28.036  30.837  1.00  0.00    -0.248 NA
ATOM     30  C   UNL A   1      43.634  26.407  29.451  1.00  0.00     0.031 C 
ATOM     31  C   UNL A   1      43.599  28.693  35.038  1.00  0.00     0.029 A 
ATOM     32  C   UNL A   1      43.464  28.507  33.672  1.00  0.00     0.049 A 
ATOM     33  H   UNL A   1      42.359  29.632  32.278  1.00  0.00     0.167 HD
ATOM     34  C   UNL A   1      43.727  27.393  31.504  1.00  0.00     0.074 A 
ATOM     35  C   UNL A   1      44.299  26.429  30.595  1.00  0.00     0.031 C 
ATOM     36  C   UNL A   1      44.042  27.512  32.814  1.00  0.00     0.034 A 
BRANCH  23  37
ATOM     37  C   UNL A   1      41.124  32.360  35.284  1.00  0.00     0.023 A 
ATOM     38  C   UNL A   1      40.018  32.017  36.094  1.00  0.00     0.031 A 
ATOM     39  C   UNL A   1      41.782  33.563  35.545  1.00  0.00     0.131 A 
ATOM     40  C   UNL A   1      39.480  32.949  36.981  1.00  0.00     0.055 A 
ATOM     41  C   UNL A   1      41.322  34.433  36.538  1.00  0.00     0.041 A 
ATOM     42  F   UNL A   1      42.844  33.934  34.816  1.00  0.00    -0.206 F 
ATOM     43  C   UNL A   1      40.144  34.147  37.235  1.00  0.00     0.022 A 
BRANCH  40  44
ATOM     44  S   UNL A   1      37.800  32.661  37.605  1.00  0.00     0.124 S 
ATOM     45  O   UNL A   1      37.858  33.305  38.918  1.00  0.00    -0.237 OA
ATOM     46  O   UNL A   1      36.968  33.332  36.612  1.00  0.00    -0.237 OA
ATOM     47  O   UNL A   1      37.693  31.205  37.634  1.00  0.00    -0.744 OA
ENDBRANCH  40  44
ENDBRANCH  23  37
BRANCH  24  48
ATOM     48  C   UNL A   1      41.735  26.794  27.383  1.00  0.00     0.023 A 
ATOM     49  C   UNL A   1      41.795  25.409  27.131  1.00  0.00     0.031 A 
ATOM     50  C   UNL A   1      42.404  27.627  26.449  1.00  0.00     0.131 A 
ATOM     51  C   UNL A   1      42.510  24.913  26.007  1.00  0.00     0.055 A 
ATOM     52  C   UNL A   1      43.099  27.128  25.332  1.00  0.00     0.041 A 
ATOM     53  F   UNL A   1      42.474  28.952  26.656  1.00  0.00    -0.206 F 
ATOM     54  C   UNL A   1      43.146  25.763  25.099  1.00  0.00     0.022 A 
BRANCH  51  55
ATOM     55  S   UNL A   1      42.736  23.116  25.801  1.00  0.00     0.124 S 
ATOM     56  O   UNL A   1      43.249  23.040  24.439  1.00  0.00    -0.237 OA
ATOM     57  O   UNL A   1      43.683  22.799  26.865  1.00  0.00    -0.237 OA
ATOM     58  O   UNL A   1      41.390  22.575  25.994  1.00  0.00    -0.744 OA
ENDBRANCH  51  55
ENDBRANCH  24  48
BRANCH  36  59
ATOM     59  C   UNL A   1      44.896  26.447  33.422  1.00  0.00     0.023 A 
ATOM     60  C   UNL A   1      44.368  25.263  33.948  1.00  0.00     0.031 A 
ATOM     61  C   UNL A   1      46.291  26.643  33.474  1.00  0.00     0.131 A 
ATOM     62  C   UNL A   1      45.231  24.329  34.536  1.00  0.00     0.055 A 
ATOM     63  C   UNL A   1      47.149  25.679  33.994  1.00  0.00     0.041 A 
ATOM     64  F   UNL A   1      46.840  27.776  33.007  1.00  0.00    -0.206 F 
ATOM     65  C   UNL A   1      46.617  24.514  34.535  1.00  0.00     0.022 A 
BRANCH  62  66
ATOM     66  S   UNL A   1      44.504  22.895  35.370  1.00  0.00     0.124 S 
ATOM     67  O   UNL A   1      43.131  23.339  35.585  1.00  0.00    -0.237 OA
ATOM     68  O   UNL A   1      44.683  21.835  34.383  1.00  0.00    -0.237 OA
ATOM     69  O   UNL A   1      45.312  22.758  36.580  1.00  0.00    -0.744 OA
ENDBRANCH  62  66
ENDBRANCH  36  59
ENDBRANCH  10  11
ENDBRANCH   3   5
ENDBRANCH   2   3
ENDBRANCH   1   2
BRANCH   1  70
ATOM     70  C   UNL A   1      33.349  29.970  26.073  1.00  0.00       nan C 
BRANCH  70  71
ATOM     71  O   UNL A   1      32.370  29.136  25.433  1.00  0.00       nan OA
BRANCH  71  72
ATOM     72  C   UNL A   1      32.780  28.513  24.284  1.00  0.00       nan C 
ATOM     73  O   UNL A   1      33.625  28.972  23.515  1.00  0.00       nan OA
BRANCH  72  74
ATOM     74  C   UNL A   1      32.125  27.146  24.118  1.00  0.00       nan C 
BRANCH  74  75
ATOM     75  C   UNL A   1      31.277  27.203  22.908  1.00  0.00       nan C 
BRANCH  75  76
ATOM     76  C   UNL A   1      30.509  28.500  22.838  1.00  0.00       nan C 
BRANCH  76  77
ATOM     77  C   UNL A   1      29.036  28.774  22.603  1.00  0.00       nan C 
ATOM     78  Cl  UNL A   1      28.501  30.241  23.393  1.00  0.00       nan Cl
ENDBRANCH  76  77
ENDBRANCH  75  76
ENDBRANCH  74  75
BRANCH  74  79
ATOM     79  P   UNL A   1      33.430  25.866  24.197  1.00  0.00       nan P 
ATOM     80  O   UNL A   1      33.990  26.566  25.465  1.00  0.00       nan OA
BRANCH  79  81
ATOM     81  C   UNL A   1      31.912  24.536  24.891  1.00  0.00       nan A 
ATOM     82  C   UNL A   1      31.080  24.895  25.958  1.00  0.00       nan A 
ATOM     83  C   UNL A   1      31.857  23.178  24.475  1.00  0.00       nan A 
ATOM     84  C   UNL A   1      30.413  23.883  26.688  1.00  0.00       nan A 
ATOM     85  C   UNL A   1      31.150  22.191  25.163  1.00  0.00       nan A 
ATOM     86  C   UNL A   1      30.470  22.537  26.309  1.00  0.00       nan A 
ENDBRANCH  79  81
BRANCH  79  87
ATOM     87  C   UNL A   1      34.736  24.586  24.276  1.00  0.00       nan A 
ATOM     88  C   UNL A   1      35.164  23.653  23.336  1.00  0.00       nan A 
ATOM     89  C   UNL A   1      35.227  24.400  25.598  1.00  0.00       nan A 
ATOM     90  C   UNL A   1      35.874  22.507  23.720  1.00  0.00       nan A 
ATOM     91  C   UNL A   1      36.002  23.297  25.968  1.00  0.00       nan A 
ATOM     92  C   UNL A   1      36.298  22.326  25.027  1.00  0.00       nan A 
ENDBRANCH  79  87
ENDBRANCH  74  79
ENDBRANCH  72  74
ENDBRANCH  71  72
ENDBRANCH  70  71
ENDBRANCH   1  70
TORSDOF 20
ENDMDL
MODEL 3
REMARK VINA RESULT:     -10.8      5.014      9.897
REMARK SMILES O=C(OCCOC(=O)[C@@H](CCCCl)[P@TB4](=O)(c1ccccc1)c1ccccc1)c1ccc(-c2c3nc(c(-c4cc(S(=O)(=O)[O-])ccc4F)c4ccc([nH]4)c(-c4cc(S(=O)(=O)[O-])ccc4F)c4nc(c(-c5cc(S(=O)(=O)[O-])ccc5F)c5ccc2[nH]5)C=C4)C=C3)cc1
REMARK SMILES IDX 4 1 3 2 2 3 1 4 28 5 29 6 90 7 30 8 89 9 31 10 32 11 33 12
REMARK SMILES IDX 83 13 34 14 88 15 82 16 84 17 35 18 87 19 81 20 80 21 36 23
REMARK SMILES IDX 68 24 48 25 67 26 49 27 52 28 66 29 85 30 50 31 51 32 65 34
REMARK SMILES IDX 86 35 53 36 37 37 38 38 46 39 39 40 45 41 47 42 44 43 40 44
REMARK SMILES IDX 41 45 42 46 43 47 69 48 70 49 78 50 71 51 77 52 79 53 76 54
REMARK SMILES IDX 72 55 73 56 74 57 75 58 54 59 55 60 63 61 56 62 62 63 64 64
REMARK SMILES IDX 61 65 57 66 58 67 59 68 60 69 5 70 6 71 7 72 8 73 9 74 10 75
REMARK SMILES IDX 11 76 12 77 13 78 14 79 15 80 16 81 17 82 21 83 18 84 20 85
REMARK SMILES IDX 19 86 22 87 23 88 27 89 24 90 26 91 25 92
REMARK H PARENT 84 22 52 33
REMARK Flexibility Score: inf
ROOT
ATOM      1  C   UNL A   1      36.420  21.180  25.323  1.00  0.00       nan C 
ENDROOT
BRANCH   1   2
ATOM      2  O   UNL A   1      37.412  22.195  25.486  1.00  0.00       nan OA
BRANCH   2   3
ATOM      3  C   UNL A   1      38.672  22.101  25.977  1.00  0.00       nan C 
ATOM      4  O   UNL A   1      39.218  20.999  25.887  1.00  0.00       nan OA
BRANCH   3   5
ATOM      5  C   UNL A   1      39.338  23.150  26.853  1.00  0.00       nan A 
ATOM      6  C   UNL A   1      40.630  23.201  27.419  1.00  0.00       nan A 
ATOM      7  C   UNL A   1      38.617  24.338  26.916  1.00  0.00       nan A 
ATOM      8  C   UNL A   1      41.244  24.440  27.890  1.00  0.00       nan A 
ATOM      9  C   UNL A   1      39.259  25.541  27.285  1.00  0.00       nan A 
ATOM     10  C   UNL A   1      40.610  25.685  27.754  1.00  0.00       nan A 
BRANCH  10  11
ATOM     11  C   UNL A   1      41.251  27.158  27.818  1.00  0.00       inf A 
ATOM     12  C   UNL A   1      42.779  27.165  27.832  1.00  0.00     0.074 A 
ATOM     13  C   UNL A   1      40.702  28.409  28.074  1.00  0.00     0.049 A 
ATOM     14  N   UNL A   1      43.620  28.023  28.358  1.00  0.00    -0.248 NA
ATOM     15  C   UNL A   1      43.454  25.971  27.270  1.00  0.00     0.031 C 
ATOM     16  C   UNL A   1      39.284  28.820  28.142  1.00  0.00     0.029 A 
ATOM     17  N   UNL A   1      41.329  29.581  28.572  1.00  0.00    -0.354 N 
ATOM     18  C   UNL A   1      44.851  27.452  28.084  1.00  0.00     0.074 A 
ATOM     19  C   UNL A   1      44.618  26.043  27.903  1.00  0.00     0.031 C 
ATOM     20  C   UNL A   1      39.150  29.955  28.879  1.00  0.00     0.029 A 
ATOM     21  C   UNL A   1      40.466  30.453  29.274  1.00  0.00     0.049 A 
ATOM     22  H   UNL A   1      42.286  29.771  28.440  1.00  0.00     0.167 HD
ATOM     23  C   UNL A   1      45.928  28.056  27.516  1.00  0.00     0.034 A 
ATOM     24  C   UNL A   1      40.734  31.429  30.198  1.00  0.00     0.034 A 
ATOM     25  C   UNL A   1      46.092  29.470  27.486  1.00  0.00     0.049 A 
ATOM     26  C   UNL A   1      42.113  32.046  30.131  1.00  0.00     0.074 A 
ATOM     27  C   UNL A   1      46.996  30.235  26.777  1.00  0.00     0.029 A 
ATOM     28  N   UNL A   1      45.315  30.336  28.227  1.00  0.00    -0.354 N 
ATOM     29  N   UNL A   1      43.198  31.578  29.575  1.00  0.00    -0.248 NA
ATOM     30  C   UNL A   1      42.249  33.426  30.646  1.00  0.00     0.031 C 
ATOM     31  C   UNL A   1      46.803  31.572  27.144  1.00  0.00     0.029 A 
ATOM     32  C   UNL A   1      45.746  31.631  28.036  1.00  0.00     0.049 A 
ATOM     33  H   UNL A   1      44.563  30.069  28.805  1.00  0.00     0.167 HD
ATOM     34  C   UNL A   1      44.048  32.672  29.466  1.00  0.00     0.074 A 
ATOM     35  C   UNL A   1      43.437  33.771  30.175  1.00  0.00     0.031 C 
ATOM     36  C   UNL A   1      45.159  32.761  28.699  1.00  0.00     0.034 A 
BRANCH  23  37
ATOM     37  C   UNL A   1      46.825  27.164  26.695  1.00  0.00     0.023 A 
ATOM     38  C   UNL A   1      48.013  26.654  27.267  1.00  0.00     0.031 A 
ATOM     39  C   UNL A   1      46.590  26.919  25.342  1.00  0.00     0.131 A 
ATOM     40  C   UNL A   1      49.007  26.111  26.454  1.00  0.00     0.055 A 
ATOM     41  C   UNL A   1      47.531  26.243  24.559  1.00  0.00     0.041 A 
ATOM     42  F   UNL A   1      45.474  27.369  24.749  1.00  0.00    -0.206 F 
ATOM     43  C   UNL A   1      48.763  25.870  25.104  1.00  0.00     0.022 A 
BRANCH  40  44
ATOM     44  S   UNL A   1      50.678  25.946  27.146  1.00  0.00     0.124 S 
ATOM     45  O   UNL A   1      51.305  27.193  26.705  1.00  0.00    -0.237 OA
ATOM     46  O   UNL A   1      50.425  25.842  28.578  1.00  0.00    -0.237 OA
ATOM     47  O   UNL A   1      51.192  24.737  26.509  1.00  0.00    -0.744 OA
ENDBRANCH  40  44
ENDBRANCH  23  37
BRANCH  24  48
ATOM     48  C   UNL A   1      39.823  32.082  31.230  1.00  0.00     0.023 A 
ATOM     49  C   UNL A   1      39.756  31.678  32.578  1.00  0.00     0.031 A 
ATOM     50  C   UNL A   1      38.724  32.841  30.750  1.00  0.00     0.131 A 
ATOM     51  C   UNL A   1      38.626  32.013  33.373  1.00  0.00     0.055 A 
ATOM     52  C   UNL A   1      37.616  33.179  31.548  1.00  0.00     0.041 A 
ATOM     53  F   UNL A   1      38.661  33.195  29.457  1.00  0.00    -0.206 F 
ATOM     54  C   UNL A   1      37.567  32.774  32.873  1.00  0.00     0.022 A 
BRANCH  51  55
ATOM     55  S   UNL A   1      38.468  31.324  35.053  1.00  0.00     0.124 S 
ATOM     56  O   UNL A   1      38.366  29.897  34.775  1.00  0.00    -0.237 OA
ATOM     57  O   UNL A   1      39.704  31.769  35.688  1.00  0.00    -0.237 OA
ATOM     58  O   UNL A   1      37.250  31.950  35.569  1.00  0.00    -0.744 OA
ENDBRANCH  51  55
ENDBRANCH  24  48
BRANCH  36  59
ATOM     59  C   UNL A   1      45.686  34.126  28.396  1.00  0.00     0.023 A 
ATOM     60  C   UNL A   1      46.714  34.720  29.136  1.00  0.00     0.031 A 
ATOM     61  C   UNL A   1      45.123  34.848  27.326  1.00  0.00     0.131 A 
ATOM     62  C   UNL A   1      47.128  36.020  28.814  1.00  0.00     0.055 A 
ATOM     63  C   UNL A   1      45.589  36.109  26.966  1.00  0.00     0.041 A 
ATOM     64  F   UNL A   1      44.115  34.329  26.605  1.00  0.00    -0.206 F 
ATOM     65  C   UNL A   1      46.595  36.705  27.717  1.00  0.00     0.022 A 
BRANCH  62  66
ATOM     66  S   UNL A   1      48.328  36.832  29.898  1.00  0.00     0.124 S 
ATOM     67  O   UNL A   1      49.361  37.239  28.950  1.00  0.00    -0.237 OA
ATOM     68  O   UNL A   1      47.541  37.912  30.484  1.00  0.00    -0.237 OA
ATOM     69  O   UNL A   1      48.719  35.775  30.830  1.00  0.00    -0.744 OA
ENDBRANCH  62  66
ENDBRANCH  36  59
ENDBRANCH  10  11
ENDBRANCH   3   5
ENDBRANCH   2   3
ENDBRANCH   1   2
BRANCH   1  70
ATOM     70  C   UNL A   1      34.989  21.725  25.268  1.00  0.00       nan C 
BRANCH  70  71
ATOM     71  O   UNL A   1      34.902  23.141  25.041  1.00  0.00       nan OA
BRANCH  71  72
ATOM     72  C   UNL A   1      34.462  23.519  23.800  1.00  0.00       nan C 
ATOM     73  O   UNL A   1      35.114  23.377  22.765  1.00  0.00       nan OA
BRANCH  72  74
ATOM     74  C   UNL A   1      33.036  24.057  23.846  1.00  0.00       nan C 
BRANCH  74  75
ATOM     75  C   UNL A   1      32.134  22.910  24.088  1.00  0.00       nan C 
BRANCH  75  76
ATOM     76  C   UNL A   1      32.093  21.986  22.896  1.00  0.00       nan C 
BRANCH  76  77
ATOM     77  C   UNL A   1      32.153  20.473  22.807  1.00  0.00       nan C 
ATOM     78  Cl  UNL A   1      32.310  19.723  24.379  1.00  0.00       nan Cl
ENDBRANCH  76  77
ENDBRANCH  75  76
ENDBRANCH  74  75
BRANCH  74  79
ATOM     79  P   UNL A   1      32.986  25.457  25.024  1.00  0.00       nan P 
ATOM     80  O   UNL A   1      34.210  26.070  24.293  1.00  0.00       nan OA
BRANCH  79  81
ATOM     81  C   UNL A   1      31.270  26.137  23.952  1.00  0.00       nan A 
ATOM     82  C   UNL A   1      31.388  27.122  22.964  1.00  0.00       nan A 
ATOM     83  C   UNL A   1      29.949  25.807  24.362  1.00  0.00       nan A 
ATOM     84  C   UNL A   1      30.247  27.872  22.593  1.00  0.00       nan A 
ATOM     85  C   UNL A   1      28.818  26.511  23.949  1.00  0.00       nan A 
ATOM     86  C   UNL A   1      28.975  27.586  23.102  1.00  0.00       nan A 
ENDBRANCH  79  81
BRANCH  79  87
ATOM     87  C   UNL A   1      32.935  26.856  26.202  1.00  0.00       nan A 
ATOM     88  C   UNL A   1      31.936  27.290  27.070  1.00  0.00       nan A 
ATOM     89  C   UNL A   1      34.026  27.751  26.021  1.00  0.00       nan A 
ATOM     90  C   UNL A   1      31.927  28.599  27.573  1.00  0.00       nan A 
ATOM     91  C   UNL A   1      34.057  29.030  26.585  1.00  0.00       nan A 
ATOM     92  C   UNL A   1      32.982  29.468  27.339  1.00  0.00       nan A 
ENDBRANCH  79  87
ENDBRANCH  74  79
ENDBRANCH  72  74
ENDBRANCH  71  72
ENDBRANCH  70  71
ENDBRANCH   1  70
TORSDOF 20
ENDMDL
