MODEL 1
REMARK VINA RESULT:     -11.6      0.000      0.000
REMARK SMILES CCC([NH3+])(CC)C(=O)N1Cc2nc[nH]c2C[C@H]1C(=O)OCCOC(=O)c1ccc(-c2c3nc(c(-c4cc(S(=O)(=O)[O-])ccc4F)c4ccc([nH]4)c(-c4cc(S(=O)(=O)[O-])ccc4F)c4nc(c(-c5cc(S(=O)(=O)[O-])ccc5F)c5ccc2[nH]5)C=C4)C=C3)cc1
REMARK SMILES IDX 21 1 20 2 18 3 19 4 17 5 9 6 10 7 11 8 16 9 12 10 15 11
REMARK SMILES IDX 13 12 14 13 7 15 8 16 3 17 2 18 1 19 4 20 5 24 6 25 22 26
REMARK SMILES IDX 23 27 24 28 25 29 26 30 27 31 88 32 28 33 87 34 29 35 30 36
REMARK SMILES IDX 31 37 81 38 32 39 86 40 80 41 82 42 33 43 85 44 79 45 78 46
REMARK SMILES IDX 34 48 66 49 46 50 65 51 47 52 50 53 64 54 83 55 48 56 49 57
REMARK SMILES IDX 63 59 84 60 51 61 35 62 36 63 44 64 37 65 43 66 45 67 42 68
REMARK SMILES IDX 38 69 39 70 40 71 41 72 67 73 68 74 76 75 69 76 75 77 77 78
REMARK SMILES IDX 74 79 70 80 71 81 72 82 73 83 52 84 53 85 61 86 54 87 60 88
REMARK SMILES IDX 62 89 59 90 55 91 56 92 57 93 58 94
REMARK H PARENT 14 14 4 21 4 22 4 23 82 47 50 58
REMARK Flexibility Score: inf
ROOT
ATOM      1  C   UNL A   1      37.363  21.859  24.935  1.00  0.00     0.274 C 
ENDROOT
BRANCH   1   2
ATOM      2  O   UNL A   1      36.310  22.410  25.745  1.00  0.00    -0.461 OA
BRANCH   2   3
ATOM      3  C   UNL A   1      35.215  22.913  25.115  1.00  0.00     0.329 C 
ATOM      4  O   UNL A   1      35.186  23.199  23.918  1.00  0.00    -0.250 OA
BRANCH   3   5
ATOM      5  C   UNL A   1      34.048  23.255  26.079  1.00  0.00     0.201 C 
ATOM      6  N   UNL A   1      32.665  23.567  25.565  1.00  0.00    -0.317 N 
ATOM      7  C   UNL A   1      32.017  22.525  24.734  1.00  0.00     0.178 C 
ATOM      8  C   UNL A   1      32.389  21.166  25.244  1.00  0.00     0.081 A 
ATOM      9  C   UNL A   1      33.973  22.021  27.032  1.00  0.00     0.093 C 
ATOM     10  N   UNL A   1      32.062  19.980  24.639  1.00  0.00    -0.240 NA
ATOM     11  C   UNL A   1      33.273  20.945  26.279  1.00  0.00     0.042 A 
ATOM     12  C   UNL A   1      32.734  19.063  25.301  1.00  0.00     0.197 A 
ATOM     13  N   UNL A   1      33.483  19.601  26.314  1.00  0.00    -0.348 N 
ATOM     14  H   UNL A   1      34.060  19.111  26.943  1.00  0.00     0.167 HD
BRANCH   6  15
ATOM     15  C   UNL A   1      31.783  24.374  26.300  1.00  0.00     0.284 C 
ATOM     16  O   UNL A   1      31.181  23.908  27.272  1.00  0.00    -0.268 OA
BRANCH  15  17
ATOM     17  C   UNL A   1      31.531  25.862  25.822  1.00  0.00     0.173 C 
BRANCH  17  18
ATOM     18  C   UNL A   1      32.767  26.765  26.139  1.00  0.00     0.075 C 
ATOM     19  C   UNL A   1      32.557  27.885  27.157  1.00  0.00     0.011 C 
ENDBRANCH  17  18
BRANCH  17  20
ATOM     20  N   UNL A   1      30.356  26.400  26.529  1.00  0.00    -0.345 N 
ATOM     21  H   UNL A   1      30.511  26.346  27.536  1.00  0.00     0.345 HD
ATOM     22  H   UNL A   1      29.531  25.854  26.281  1.00  0.00     0.345 HD
ATOM     23  H   UNL A   1      30.214  27.374  26.259  1.00  0.00     0.345 HD
ENDBRANCH  17  20
BRANCH  17  24
ATOM     24  C   UNL A   1      31.240  25.984  24.304  1.00  0.00     0.075 C 
ATOM     25  C   UNL A   1      30.246  27.078  23.932  1.00  0.00     0.011 C 
ENDBRANCH  17  24
ENDBRANCH  15  17
ENDBRANCH   6  15
ENDBRANCH   3   5
ENDBRANCH   2   3
ENDBRANCH   1   2
BRANCH   1  26
ATOM     26  C   UNL A   1      38.628  21.690  25.765  1.00  0.00     0.275 C 
BRANCH  26  27
ATOM     27  O   UNL A   1      38.937  22.888  26.484  1.00  0.00    -0.458 OA
BRANCH  27  28
ATOM     28  C   UNL A   1      40.176  22.892  27.021  1.00  0.00     0.338 C 
ATOM     29  O   UNL A   1      40.745  21.965  27.576  1.00  0.00    -0.246 OA
BRANCH  28  30
ATOM     30  C   UNL A   1      40.724  24.240  27.065  1.00  0.00     0.060 A 
ATOM     31  C   UNL A   1      41.838  24.420  27.888  1.00  0.00     0.016 A 
ATOM     32  C   UNL A   1      39.894  25.296  26.687  1.00  0.00     0.016 A 
ATOM     33  C   UNL A   1      41.964  25.608  28.563  1.00  0.00     0.010 A 
ATOM     34  C   UNL A   1      40.055  26.503  27.323  1.00  0.00     0.010 A 
ATOM     35  C   UNL A   1      41.022  26.610  28.326  1.00  0.00    -0.014 A 
BRANCH  35  36
ATOM     36  C   UNL A   1      41.164  27.844  29.069  1.00  0.00     0.031 A 
ATOM     37  C   UNL A   1      42.231  28.725  28.539  1.00  0.00     0.074 A 
ATOM     38  C   UNL A   1      40.284  28.214  30.016  1.00  0.00     0.049 A 
ATOM     39  N   UNL A   1      43.235  29.240  29.163  1.00  0.00    -0.248 NA
ATOM     40  C   UNL A   1      42.260  28.933  27.080  1.00  0.00     0.031 C 
ATOM     41  C   UNL A   1      39.044  27.533  30.399  1.00  0.00     0.029 A 
ATOM     42  N   UNL A   1      40.227  29.381  30.709  1.00  0.00    -0.354 N 
ATOM     43  C   UNL A   1      43.901  30.012  28.220  1.00  0.00     0.074 A 
ATOM     44  C   UNL A   1      43.382  29.631  26.936  1.00  0.00     0.031 C 
ATOM     45  C   UNL A   1      38.240  28.417  31.028  1.00  0.00     0.029 A 
ATOM     46  C   UNL A   1      38.954  29.675  31.182  1.00  0.00     0.049 A 
ATOM     47  H   UNL A   1      41.007  29.960  30.861  1.00  0.00     0.167 HD
ATOM     48  C   UNL A   1      44.655  31.083  28.581  1.00  0.00     0.034 A 
ATOM     49  C   UNL A   1      38.491  30.898  31.545  1.00  0.00     0.034 A 
ATOM     50  C   UNL A   1      45.058  31.004  29.964  1.00  0.00     0.049 A 
ATOM     51  C   UNL A   1      39.672  31.756  31.819  1.00  0.00     0.074 A 
ATOM     52  C   UNL A   1      45.749  30.065  30.708  1.00  0.00     0.029 A 
ATOM     53  N   UNL A   1      44.429  31.811  30.885  1.00  0.00    -0.354 N 
ATOM     54  N   UNL A   1      40.505  31.546  32.802  1.00  0.00    -0.248 NA
ATOM     55  C   UNL A   1      40.201  32.569  30.732  1.00  0.00     0.031 C 
ATOM     56  C   UNL A   1      45.092  30.041  31.972  1.00  0.00     0.029 A 
ATOM     57  C   UNL A   1      44.085  31.008  31.947  1.00  0.00     0.049 A 
ATOM     58  H   UNL A   1      44.259  32.777  30.800  1.00  0.00     0.167 HD
ATOM     59  C   UNL A   1      41.760  31.812  32.276  1.00  0.00     0.074 A 
ATOM     60  C   UNL A   1      41.503  32.546  31.039  1.00  0.00     0.031 C 
ATOM     61  C   UNL A   1      42.876  31.168  32.733  1.00  0.00     0.034 A 
BRANCH  48  62
ATOM     62  C   UNL A   1      44.727  32.357  27.772  1.00  0.00     0.023 A 
ATOM     63  C   UNL A   1      44.055  33.481  28.280  1.00  0.00     0.031 A 
ATOM     64  C   UNL A   1      45.160  32.450  26.427  1.00  0.00     0.131 A 
ATOM     65  C   UNL A   1      43.765  34.578  27.450  1.00  0.00     0.055 A 
ATOM     66  C   UNL A   1      44.940  33.577  25.633  1.00  0.00     0.041 A 
ATOM     67  F   UNL A   1      45.728  31.431  25.771  1.00  0.00    -0.206 F 
ATOM     68  C   UNL A   1      44.209  34.638  26.133  1.00  0.00     0.022 A 
BRANCH  65  69
ATOM     69  S   UNL A   1      42.622  35.837  28.072  1.00  0.00     0.124 S 
ATOM     70  O   UNL A   1      42.293  36.565  26.852  1.00  0.00    -0.237 OA
ATOM     71  O   UNL A   1      41.558  35.018  28.643  1.00  0.00    -0.237 OA
ATOM     72  O   UNL A   1      43.430  36.575  29.040  1.00  0.00    -0.744 OA
ENDBRANCH  65  69
ENDBRANCH  48  62
BRANCH  49  73
ATOM     73  C   UNL A   1      37.114  31.420  31.331  1.00  0.00     0.023 A 
ATOM     74  C   UNL A   1      36.392  32.069  32.349  1.00  0.00     0.031 A 
ATOM     75  C   UNL A   1      36.559  31.469  30.029  1.00  0.00     0.131 A 
ATOM     76  C   UNL A   1      35.167  32.711  32.051  1.00  0.00     0.055 A 
ATOM     77  C   UNL A   1      35.341  32.085  29.745  1.00  0.00     0.041 A 
ATOM     78  F   UNL A   1      37.225  30.991  28.966  1.00  0.00    -0.206 F 
ATOM     79  C   UNL A   1      34.640  32.717  30.758  1.00  0.00     0.022 A 
BRANCH  76  80
ATOM     80  S   UNL A   1      34.292  33.655  33.338  1.00  0.00     0.124 S 
ATOM     81  O   UNL A   1      35.112  33.403  34.517  1.00  0.00    -0.237 OA
ATOM     82  O   UNL A   1      34.319  35.013  32.806  1.00  0.00    -0.237 OA
ATOM     83  O   UNL A   1      32.965  33.039  33.368  1.00  0.00    -0.744 OA
ENDBRANCH  76  80
ENDBRANCH  49  73
BRANCH  61  84
ATOM     84  C   UNL A   1      42.775  30.355  34.008  1.00  0.00     0.023 A 
ATOM     85  C   UNL A   1      42.518  28.966  34.054  1.00  0.00     0.031 A 
ATOM     86  C   UNL A   1      43.088  30.997  35.220  1.00  0.00     0.131 A 
ATOM     87  C   UNL A   1      42.563  28.277  35.282  1.00  0.00     0.055 A 
ATOM     88  C   UNL A   1      43.152  30.309  36.431  1.00  0.00     0.041 A 
ATOM     89  F   UNL A   1      43.376  32.309  35.240  1.00  0.00    -0.206 F 
ATOM     90  C   UNL A   1      42.883  28.945  36.468  1.00  0.00     0.022 A 
BRANCH  87  91
ATOM     91  S   UNL A   1      42.188  26.495  35.362  1.00  0.00     0.124 S 
ATOM     92  O   UNL A   1      43.236  25.887  34.553  1.00  0.00    -0.237 OA
ATOM     93  O   UNL A   1      42.247  26.225  36.796  1.00  0.00    -0.237 OA
ATOM     94  O   UNL A   1      40.845  26.406  34.785  1.00  0.00    -0.744 OA
ENDBRANCH  87  91
ENDBRANCH  61  84
ENDBRANCH  35  36
ENDBRANCH  28  30
ENDBRANCH  27  28
ENDBRANCH  26  27
ENDBRANCH   1  26
TORSDOF 19
ENDMDL
MODEL 2
REMARK VINA RESULT:     -11.1      3.829      8.576
REMARK SMILES CCC([NH3+])(CC)C(=O)N1Cc2nc[nH]c2C[C@H]1C(=O)OCCOC(=O)c1ccc(-c2c3nc(c(-c4cc(S(=O)(=O)[O-])ccc4F)c4ccc([nH]4)c(-c4cc(S(=O)(=O)[O-])ccc4F)c4nc(c(-c5cc(S(=O)(=O)[O-])ccc5F)c5ccc2[nH]5)C=C4)C=C3)cc1
REMARK SMILES IDX 21 1 20 2 18 3 19 4 17 5 9 6 10 7 11 8 16 9 12 10 15 11
REMARK SMILES IDX 13 12 14 13 7 15 8 16 3 17 2 18 1 19 4 20 5 24 6 25 22 26
REMARK SMILES IDX 23 27 24 28 25 29 26 30 27 31 88 32 28 33 87 34 29 35 30 36
REMARK SMILES IDX 31 37 81 38 32 39 86 40 80 41 82 42 33 43 85 44 79 45 78 46
REMARK SMILES IDX 34 48 66 49 46 50 65 51 47 52 50 53 64 54 83 55 48 56 49 57
REMARK SMILES IDX 63 59 84 60 51 61 35 62 36 63 44 64 37 65 43 66 45 67 42 68
REMARK SMILES IDX 38 69 39 70 40 71 41 72 67 73 68 74 76 75 69 76 75 77 77 78
REMARK SMILES IDX 74 79 70 80 71 81 72 82 73 83 52 84 53 85 61 86 54 87 60 88
REMARK SMILES IDX 62 89 59 90 55 91 56 92 57 93 58 94
REMARK H PARENT 14 14 4 21 4 22 4 23 82 47 50 58
REMARK Flexibility Score: inf
ROOT
ATOM      1  C   UNL A   1      34.410  28.983  26.665  1.00  0.00     0.274 C 
ENDROOT
BRANCH   1   2
ATOM      2  O   UNL A   1      33.016  28.709  26.438  1.00  0.00    -0.461 OA
BRANCH   2   3
ATOM      3  C   UNL A   1      32.498  29.000  25.216  1.00  0.00     0.329 C 
ATOM      4  O   UNL A   1      31.833  30.008  24.976  1.00  0.00    -0.250 OA
BRANCH   3   5
ATOM      5  C   UNL A   1      32.678  27.859  24.180  1.00  0.00     0.201 C 
ATOM      6  N   UNL A   1      31.711  26.704  24.099  1.00  0.00    -0.317 N 
ATOM      7  C   UNL A   1      30.290  27.047  23.861  1.00  0.00     0.178 C 
ATOM      8  C   UNL A   1      30.201  28.226  22.939  1.00  0.00     0.081 A 
ATOM      9  C   UNL A   1      32.706  28.599  22.805  1.00  0.00     0.093 C 
ATOM     10  N   UNL A   1      29.042  28.879  22.604  1.00  0.00    -0.240 NA
ATOM     11  C   UNL A   1      31.294  28.923  22.469  1.00  0.00     0.042 A 
ATOM     12  C   UNL A   1      29.433  29.946  21.941  1.00  0.00     0.197 A 
ATOM     13  N   UNL A   1      30.797  30.014  21.827  1.00  0.00    -0.348 N 
ATOM     14  H   UNL A   1      31.314  30.716  21.370  1.00  0.00     0.167 HD
BRANCH   6  15
ATOM     15  C   UNL A   1      32.113  25.455  23.602  1.00  0.00     0.284 C 
ATOM     16  O   UNL A   1      31.785  25.106  22.464  1.00  0.00    -0.268 OA
BRANCH  15  17
ATOM     17  C   UNL A   1      32.933  24.485  24.546  1.00  0.00     0.173 C 
BRANCH  17  18
ATOM     18  C   UNL A   1      34.470  24.708  24.373  1.00  0.00     0.075 C 
ATOM     19  C   UNL A   1      35.366  24.237  25.518  1.00  0.00     0.011 C 
ENDBRANCH  17  18
BRANCH  17  20
ATOM     20  N   UNL A   1      32.613  23.090  24.195  1.00  0.00    -0.345 N 
ATOM     21  H   UNL A   1      31.608  22.999  24.050  1.00  0.00     0.345 HD
ATOM     22  H   UNL A   1      32.906  22.473  24.953  1.00  0.00     0.345 HD
ATOM     23  H   UNL A   1      33.105  22.834  23.339  1.00  0.00     0.345 HD
ENDBRANCH  17  20
BRANCH  17  24
ATOM     24  C   UNL A   1      32.602  24.659  26.051  1.00  0.00     0.075 C 
ATOM     25  C   UNL A   1      31.231  24.140  26.466  1.00  0.00     0.011 C 
ENDBRANCH  17  24
ENDBRANCH  15  17
ENDBRANCH   6  15
ENDBRANCH   3   5
ENDBRANCH   2   3
ENDBRANCH   1   2
BRANCH   1  26
ATOM     26  C   UNL A   1      34.568  29.995  27.791  1.00  0.00     0.275 C 
BRANCH  26  27
ATOM     27  O   UNL A   1      35.874  30.582  27.779  1.00  0.00    -0.458 OA
BRANCH  27  28
ATOM     28  C   UNL A   1      36.635  30.228  28.836  1.00  0.00     0.338 C 
ATOM     29  O   UNL A   1      36.668  30.759  29.935  1.00  0.00    -0.246 OA
BRANCH  28  30
ATOM     30  C   UNL A   1      37.623  29.227  28.459  1.00  0.00     0.060 A 
ATOM     31  C   UNL A   1      38.048  28.373  29.479  1.00  0.00     0.016 A 
ATOM     32  C   UNL A   1      38.383  29.458  27.311  1.00  0.00     0.016 A 
ATOM     33  C   UNL A   1      39.358  27.966  29.485  1.00  0.00     0.010 A 
ATOM     34  C   UNL A   1      39.678  29.002  27.292  1.00  0.00     0.010 A 
ATOM     35  C   UNL A   1      40.177  28.351  28.423  1.00  0.00    -0.014 A 
BRANCH  35  36
ATOM     36  C   UNL A   1      41.561  27.928  28.465  1.00  0.00     0.031 A 
ATOM     37  C   UNL A   1      41.785  26.603  27.841  1.00  0.00     0.074 A 
ATOM     38  C   UNL A   1      42.549  28.750  28.861  1.00  0.00     0.049 A 
ATOM     39  N   UNL A   1      42.349  25.558  28.348  1.00  0.00    -0.248 NA
ATOM     40  C   UNL A   1      41.160  26.371  26.527  1.00  0.00     0.031 C 
ATOM     41  C   UNL A   1      42.442  30.166  29.222  1.00  0.00     0.029 A 
ATOM     42  N   UNL A   1      43.890  28.531  28.848  1.00  0.00    -0.354 N 
ATOM     43  C   UNL A   1      42.339  24.606  27.336  1.00  0.00     0.074 A 
ATOM     44  C   UNL A   1      41.433  25.085  26.330  1.00  0.00     0.031 C 
ATOM     45  C   UNL A   1      43.663  30.735  29.116  1.00  0.00     0.029 A 
ATOM     46  C   UNL A   1      44.635  29.702  28.792  1.00  0.00     0.049 A 
ATOM     47  H   UNL A   1      44.292  27.634  28.875  1.00  0.00     0.167 HD
ATOM     48  C   UNL A   1      43.262  23.611  27.287  1.00  0.00     0.034 A 
ATOM     49  C   UNL A   1      45.922  29.820  28.378  1.00  0.00     0.034 A 
ATOM     50  C   UNL A   1      43.868  23.387  28.577  1.00  0.00     0.049 A 
ATOM     51  C   UNL A   1      46.541  28.472  28.463  1.00  0.00     0.074 A 
ATOM     52  C   UNL A   1      43.368  23.079  29.830  1.00  0.00     0.029 A 
ATOM     53  N   UNL A   1      45.150  23.840  28.796  1.00  0.00    -0.354 N 
ATOM     54  N   UNL A   1      46.739  27.839  29.588  1.00  0.00    -0.248 NA
ATOM     55  C   UNL A   1      46.513  27.623  27.280  1.00  0.00     0.031 C 
ATOM     56  C   UNL A   1      44.162  23.836  30.739  1.00  0.00     0.029 A 
ATOM     57  C   UNL A   1      45.135  24.508  29.998  1.00  0.00     0.049 A 
ATOM     58  H   UNL A   1      45.926  23.711  28.205  1.00  0.00     0.167 HD
ATOM     59  C   UNL A   1      46.426  26.515  29.317  1.00  0.00     0.074 A 
ATOM     60  C   UNL A   1      46.407  26.423  27.859  1.00  0.00     0.031 C 
ATOM     61  C   UNL A   1      45.928  25.688  30.285  1.00  0.00     0.034 A 
BRANCH  48  62
ATOM     62  C   UNL A   1      43.851  23.090  25.998  1.00  0.00     0.023 A 
ATOM     63  C   UNL A   1      43.840  21.699  25.800  1.00  0.00     0.031 A 
ATOM     64  C   UNL A   1      44.661  23.835  25.107  1.00  0.00     0.131 A 
ATOM     65  C   UNL A   1      44.665  21.106  24.829  1.00  0.00     0.055 A 
ATOM     66  C   UNL A   1      45.416  23.246  24.091  1.00  0.00     0.041 A 
ATOM     67  F   UNL A   1      44.852  25.154  25.224  1.00  0.00    -0.206 F 
ATOM     68  C   UNL A   1      45.447  21.869  23.967  1.00  0.00     0.022 A 
BRANCH  65  69
ATOM     69  S   UNL A   1      44.845  19.305  24.849  1.00  0.00     0.124 S 
ATOM     70  O   UNL A   1      46.087  19.141  25.596  1.00  0.00    -0.237 OA
ATOM     71  O   UNL A   1      43.622  18.891  25.529  1.00  0.00    -0.237 OA
ATOM     72  O   UNL A   1      44.919  18.959  23.431  1.00  0.00    -0.744 OA
ENDBRANCH  65  69
ENDBRANCH  48  62
BRANCH  49  73
ATOM     73  C   UNL A   1      46.501  30.955  27.611  1.00  0.00     0.023 A 
ATOM     74  C   UNL A   1      45.696  31.924  26.983  1.00  0.00     0.031 A 
ATOM     75  C   UNL A   1      47.891  31.222  27.661  1.00  0.00     0.131 A 
ATOM     76  C   UNL A   1      46.285  33.083  26.426  1.00  0.00     0.055 A 
ATOM     77  C   UNL A   1      48.468  32.356  27.091  1.00  0.00     0.041 A 
ATOM     78  F   UNL A   1      48.731  30.427  28.342  1.00  0.00    -0.206 F 
ATOM     79  C   UNL A   1      47.664  33.299  26.475  1.00  0.00     0.022 A 
BRANCH  76  80
ATOM     80  S   UNL A   1      45.236  34.395  25.723  1.00  0.00     0.124 S 
ATOM     81  O   UNL A   1      43.934  34.095  26.308  1.00  0.00    -0.237 OA
ATOM     82  O   UNL A   1      45.895  35.609  26.192  1.00  0.00    -0.237 OA
ATOM     83  O   UNL A   1      45.330  34.169  24.281  1.00  0.00    -0.744 OA
ENDBRANCH  76  80
ENDBRANCH  49  73
BRANCH  61  84
ATOM     84  C   UNL A   1      45.975  26.148  31.729  1.00  0.00     0.023 A 
ATOM     85  C   UNL A   1      44.880  26.708  32.426  1.00  0.00     0.031 A 
ATOM     86  C   UNL A   1      47.143  25.880  32.464  1.00  0.00     0.131 A 
ATOM     87  C   UNL A   1      44.987  26.994  33.801  1.00  0.00     0.055 A 
ATOM     88  C   UNL A   1      47.239  26.144  33.830  1.00  0.00     0.041 A 
ATOM     89  F   UNL A   1      48.208  25.317  31.869  1.00  0.00    -0.206 F 
ATOM     90  C   UNL A   1      46.162  26.709  34.504  1.00  0.00     0.022 A 
BRANCH  87  91
ATOM     91  S   UNL A   1      43.600  27.759  34.702  1.00  0.00     0.124 S 
ATOM     92  O   UNL A   1      42.421  27.261  34.004  1.00  0.00    -0.237 OA
ATOM     93  O   UNL A   1      43.796  27.264  36.063  1.00  0.00    -0.237 OA
ATOM     94  O   UNL A   1      43.842  29.193  34.540  1.00  0.00    -0.744 OA
ENDBRANCH  87  91
ENDBRANCH  61  84
ENDBRANCH  35  36
ENDBRANCH  28  30
ENDBRANCH  27  28
ENDBRANCH  26  27
ENDBRANCH   1  26
TORSDOF 19
ENDMDL
MODEL 3
REMARK VINA RESULT:     -11.1      2.095      2.353
REMARK SMILES CCC([NH3+])(CC)C(=O)N1Cc2nc[nH]c2C[C@H]1C(=O)OCCOC(=O)c1ccc(-c2c3nc(c(-c4cc(S(=O)(=O)[O-])ccc4F)c4ccc([nH]4)c(-c4cc(S(=O)(=O)[O-])ccc4F)c4nc(c(-c5cc(S(=O)(=O)[O-])ccc5F)c5ccc2[nH]5)C=C4)C=C3)cc1
REMARK SMILES IDX 21 1 20 2 18 3 19 4 17 5 9 6 10 7 11 8 16 9 12 10 15 11
REMARK SMILES IDX 13 12 14 13 7 15 8 16 3 17 2 18 1 19 4 20 5 24 6 25 22 26
REMARK SMILES IDX 23 27 24 28 25 29 26 30 27 31 88 32 28 33 87 34 29 35 30 36
REMARK SMILES IDX 31 37 81 38 32 39 86 40 80 41 82 42 33 43 85 44 79 45 78 46
REMARK SMILES IDX 34 48 66 49 46 50 65 51 47 52 50 53 64 54 83 55 48 56 49 57
REMARK SMILES IDX 63 59 84 60 51 61 35 62 36 63 44 64 37 65 43 66 45 67 42 68
REMARK SMILES IDX 38 69 39 70 40 71 41 72 67 73 68 74 76 75 69 76 75 77 77 78
REMARK SMILES IDX 74 79 70 80 71 81 72 82 73 83 52 84 53 85 61 86 54 87 60 88
REMARK SMILES IDX 62 89 59 90 55 91 56 92 57 93 58 94
REMARK H PARENT 14 14 4 21 4 22 4 23 82 47 50 58
REMARK Flexibility Score: inf
ROOT
ATOM      1  C   UNL A   1      37.631  21.667  25.259  1.00  0.00     0.274 C 
ENDROOT
BRANCH   1   2
ATOM      2  O   UNL A   1      36.491  22.134  26.001  1.00  0.00    -0.461 OA
BRANCH   2   3
ATOM      3  C   UNL A   1      35.502  22.769  25.320  1.00  0.00     0.329 C 
ATOM      4  O   UNL A   1      35.591  23.109  24.141  1.00  0.00    -0.250 OA
BRANCH   3   5
ATOM      5  C   UNL A   1      34.301  23.181  26.213  1.00  0.00     0.201 C 
ATOM      6  N   UNL A   1      32.984  23.613  25.618  1.00  0.00    -0.317 N 
ATOM      7  C   UNL A   1      32.316  22.643  24.718  1.00  0.00     0.178 C 
ATOM      8  C   UNL A   1      32.546  21.249  25.216  1.00  0.00     0.081 A 
ATOM      9  C   UNL A   1      34.066  21.937  27.127  1.00  0.00     0.093 C 
ATOM     10  N   UNL A   1      32.170  20.105  24.560  1.00  0.00    -0.240 NA
ATOM     11  C   UNL A   1      33.338  20.936  26.301  1.00  0.00     0.042 A 
ATOM     12  C   UNL A   1      32.723  19.124  25.240  1.00  0.00     0.197 A 
ATOM     13  N   UNL A   1      33.440  19.580  26.315  1.00  0.00    -0.348 N 
ATOM     14  H   UNL A   1      33.933  19.033  26.968  1.00  0.00     0.167 HD
BRANCH   6  15
ATOM     15  C   UNL A   1      32.120  24.472  26.314  1.00  0.00     0.284 C 
ATOM     16  O   UNL A   1      31.445  24.042  27.254  1.00  0.00    -0.268 OA
BRANCH  15  17
ATOM     17  C   UNL A   1      31.982  25.972  25.831  1.00  0.00     0.173 C 
BRANCH  17  18
ATOM     18  C   UNL A   1      33.382  26.662  25.749  1.00  0.00     0.075 C 
ATOM     19  C   UNL A   1      33.890  27.022  24.353  1.00  0.00     0.011 C 
ENDBRANCH  17  18
BRANCH  17  20
ATOM     20  N   UNL A   1      31.145  26.711  26.792  1.00  0.00    -0.345 N 
ATOM     21  H   UNL A   1      30.822  27.578  26.365  1.00  0.00     0.345 HD
ATOM     22  H   UNL A   1      31.692  26.924  27.626  1.00  0.00     0.345 HD
ATOM     23  H   UNL A   1      30.340  26.139  27.051  1.00  0.00     0.345 HD
ENDBRANCH  17  20
BRANCH  17  24
ATOM     24  C   UNL A   1      31.309  26.116  24.441  1.00  0.00     0.075 C 
ATOM     25  C   UNL A   1      30.115  27.064  24.407  1.00  0.00     0.011 C 
ENDBRANCH  17  24
ENDBRANCH  15  17
ENDBRANCH   6  15
ENDBRANCH   3   5
ENDBRANCH   2   3
ENDBRANCH   1   2
BRANCH   1  26
ATOM     26  C   UNL A   1      38.882  21.731  26.125  1.00  0.00     0.275 C 
BRANCH  26  27
ATOM     27  O   UNL A   1      39.108  23.058  26.609  1.00  0.00    -0.458 OA
BRANCH  27  28
ATOM     28  C   UNL A   1      40.252  23.190  27.313  1.00  0.00     0.338 C 
ATOM     29  O   UNL A   1      40.755  22.373  28.067  1.00  0.00    -0.246 OA
BRANCH  28  30
ATOM     30  C   UNL A   1      40.754  24.556  27.248  1.00  0.00     0.060 A 
ATOM     31  C   UNL A   1      41.879  24.831  28.026  1.00  0.00     0.016 A 
ATOM     32  C   UNL A   1      39.878  25.554  26.819  1.00  0.00     0.016 A 
ATOM     33  C   UNL A   1      41.980  26.067  28.614  1.00  0.00     0.010 A 
ATOM     34  C   UNL A   1      40.012  26.807  27.364  1.00  0.00     0.010 A 
ATOM     35  C   UNL A   1      40.998  27.017  28.331  1.00  0.00    -0.014 A 
BRANCH  35  36
ATOM     36  C   UNL A   1      41.114  28.305  28.981  1.00  0.00     0.031 A 
ATOM     37  C   UNL A   1      42.225  29.129  28.450  1.00  0.00     0.074 A 
ATOM     38  C   UNL A   1      40.184  28.759  29.840  1.00  0.00     0.049 A 
ATOM     39  N   UNL A   1      43.198  29.682  29.093  1.00  0.00    -0.248 NA
ATOM     40  C   UNL A   1      42.345  29.220  26.984  1.00  0.00     0.031 C 
ATOM     41  C   UNL A   1      38.914  28.124  30.199  1.00  0.00     0.029 A 
ATOM     42  N   UNL A   1      40.104  29.978  30.435  1.00  0.00    -0.354 N 
ATOM     43  C   UNL A   1      43.932  30.369  28.134  1.00  0.00     0.074 A 
ATOM     44  C   UNL A   1      43.485  29.892  26.855  1.00  0.00     0.031 C 
ATOM     45  C   UNL A   1      38.086  29.065  30.705  1.00  0.00     0.029 A 
ATOM     46  C   UNL A   1      38.810  30.323  30.803  1.00  0.00     0.049 A 
ATOM     47  H   UNL A   1      40.883  30.559  30.588  1.00  0.00     0.167 HD
ATOM     48  C   UNL A   1      44.680  31.457  28.455  1.00  0.00     0.034 A 
ATOM     49  C   UNL A   1      38.345  31.577  31.039  1.00  0.00     0.034 A 
ATOM     50  C   UNL A   1      44.997  31.484  29.862  1.00  0.00     0.049 A 
ATOM     51  C   UNL A   1      39.521  32.441  31.317  1.00  0.00     0.074 A 
ATOM     52  C   UNL A   1      45.626  30.599  30.720  1.00  0.00     0.029 A 
ATOM     53  N   UNL A   1      44.326  32.368  30.677  1.00  0.00    -0.354 N 
ATOM     54  N   UNL A   1      40.289  32.301  32.363  1.00  0.00    -0.248 NA
ATOM     55  C   UNL A   1      40.128  33.159  30.204  1.00  0.00     0.031 C 
ATOM     56  C   UNL A   1      44.893  30.683  31.938  1.00  0.00     0.029 A 
ATOM     57  C   UNL A   1      43.905  31.656  31.775  1.00  0.00     0.049 A 
ATOM     58  H   UNL A   1      44.176  33.326  30.505  1.00  0.00     0.167 HD
ATOM     59  C   UNL A   1      41.578  32.510  31.896  1.00  0.00     0.074 A 
ATOM     60  C   UNL A   1      41.408  33.146  30.592  1.00  0.00     0.031 C 
ATOM     61  C   UNL A   1      42.654  31.892  32.470  1.00  0.00     0.034 A 
BRANCH  48  62
ATOM     62  C   UNL A   1      44.820  32.661  27.554  1.00  0.00     0.023 A 
ATOM     63  C   UNL A   1      46.086  32.902  26.994  1.00  0.00     0.031 A 
ATOM     64  C   UNL A   1      43.885  33.718  27.447  1.00  0.00     0.131 A 
ATOM     65  C   UNL A   1      46.402  34.160  26.452  1.00  0.00     0.055 A 
ATOM     66  C   UNL A   1      44.180  34.937  26.834  1.00  0.00     0.041 A 
ATOM     67  F   UNL A   1      42.672  33.680  28.013  1.00  0.00    -0.206 F 
ATOM     68  C   UNL A   1      45.457  35.177  26.361  1.00  0.00     0.022 A 
BRANCH  65  69
ATOM     69  S   UNL A   1      48.133  34.503  26.051  1.00  0.00     0.124 S 
ATOM     70  O   UNL A   1      48.776  33.245  26.417  1.00  0.00    -0.237 OA
ATOM     71  O   UNL A   1      48.056  34.798  24.624  1.00  0.00    -0.237 OA
ATOM     72  O   UNL A   1      48.457  35.642  26.908  1.00  0.00    -0.744 OA
ENDBRANCH  65  69
ENDBRANCH  48  62
BRANCH  49  73
ATOM     73  C   UNL A   1      36.992  32.094  30.700  1.00  0.00     0.023 A 
ATOM     74  C   UNL A   1      36.155  32.691  31.661  1.00  0.00     0.031 A 
ATOM     75  C   UNL A   1      36.580  32.197  29.350  1.00  0.00     0.131 A 
ATOM     76  C   UNL A   1      34.961  33.334  31.261  1.00  0.00     0.055 A 
ATOM     77  C   UNL A   1      35.391  32.814  28.962  1.00  0.00     0.041 A 
ATOM     78  F   UNL A   1      37.364  31.773  28.345  1.00  0.00    -0.206 F 
ATOM     79  C   UNL A   1      34.576  33.393  29.919  1.00  0.00     0.022 A 
BRANCH  76  80
ATOM     80  S   UNL A   1      33.938  34.211  32.486  1.00  0.00     0.124 S 
ATOM     81  O   UNL A   1      34.933  34.985  33.219  1.00  0.00    -0.237 OA
ATOM     82  O   UNL A   1      33.018  34.967  31.643  1.00  0.00    -0.237 OA
ATOM     83  O   UNL A   1      33.317  33.127  33.248  1.00  0.00    -0.744 OA
ENDBRANCH  76  80
ENDBRANCH  49  73
BRANCH  61  84
ATOM     84  C   UNL A   1      42.463  31.184  33.797  1.00  0.00     0.023 A 
ATOM     85  C   UNL A   1      42.633  31.794  35.061  1.00  0.00     0.031 A 
ATOM     86  C   UNL A   1      41.955  29.873  33.772  1.00  0.00     0.131 A 
ATOM     87  C   UNL A   1      42.316  31.087  36.237  1.00  0.00     0.055 A 
ATOM     88  C   UNL A   1      41.622  29.183  34.937  1.00  0.00     0.041 A 
ATOM     89  F   UNL A   1      41.737  29.249  32.603  1.00  0.00    -0.206 F 
ATOM     90  C   UNL A   1      41.807  29.786  36.177  1.00  0.00     0.022 A 
BRANCH  87  91
ATOM     91  S   UNL A   1      42.576  31.843  37.875  1.00  0.00     0.124 S 
ATOM     92  O   UNL A   1      43.243  33.103  37.569  1.00  0.00    -0.237 OA
ATOM     93  O   UNL A   1      41.214  31.949  38.393  1.00  0.00    -0.237 OA
ATOM     94  O   UNL A   1      43.413  30.864  38.570  1.00  0.00    -0.744 OA
ENDBRANCH  87  91
ENDBRANCH  61  84
ENDBRANCH  35  36
ENDBRANCH  28  30
ENDBRANCH  27  28
ENDBRANCH  26  27
ENDBRANCH   1  26
TORSDOF 19
ENDMDL
