MODEL 1
REMARK VINA RESULT:     -11.5      0.000      0.000
REMARK SMILES CC(C)c1ccc(O[C@H](C)C(=O)Nc2ccccc2C(=O)OCCOC(=O)c2ccc(-c3c4nc(c(-c5cc(S(=O)(=O)[O-])ccc5F)c5ccc([nH]5)c(-c5cc(S(=O)(=O)[O-])ccc5F)c5nc(c(-c6cc(S(=O)(=O)[O-])ccc6F)c6ccc3[nH]6)C=C5)C=C4)cc2)cc1
REMARK SMILES IDX 23 1 22 2 20 3 21 4 19 5 14 6 15 7 16 8 18 9 17 10 13 11
REMARK SMILES IDX 11 12 12 13 9 15 10 16 8 17 7 18 4 19 5 20 92 21 6 22 91 23
REMARK SMILES IDX 2 24 1 25 3 26 24 27 25 28 26 29 27 30 28 31 29 32 90 33
REMARK SMILES IDX 30 34 89 35 31 36 32 37 33 38 83 39 34 40 88 41 82 42 84 43
REMARK SMILES IDX 35 44 87 45 81 46 80 47 36 49 68 50 48 51 67 52 49 53 52 54
REMARK SMILES IDX 66 55 85 56 50 57 51 58 65 60 86 61 53 62 37 63 38 64 46 65
REMARK SMILES IDX 39 66 45 67 47 68 44 69 40 70 41 71 42 72 43 73 69 74 70 75
REMARK SMILES IDX 78 76 71 77 77 78 79 79 76 80 72 81 73 82 74 83 75 84 54 85
REMARK SMILES IDX 55 86 63 87 56 88 62 89 64 90 61 91 57 92 58 93 59 94 60 95
REMARK H PARENT 13 14 84 48 52 59
REMARK Flexibility Score: inf
ROOT
ATOM      1  C   UNL A   1      33.149  28.383  23.233  1.00  0.00     0.275 C 
ENDROOT
BRANCH   1   2
ATOM      2  O   UNL A   1      33.158  26.981  23.576  1.00  0.00    -0.458 OA
BRANCH   2   3
ATOM      3  C   UNL A   1      33.274  26.171  22.501  1.00  0.00     0.340 C 
ATOM      4  O   UNL A   1      33.631  26.535  21.388  1.00  0.00    -0.246 OA
BRANCH   3   5
ATOM      5  C   UNL A   1      32.868  24.785  22.750  1.00  0.00     0.083 A 
ATOM      6  C   UNL A   1      31.609  24.468  23.282  1.00  0.00     0.055 A 
ATOM      7  C   UNL A   1      31.288  23.125  23.510  1.00  0.00     0.027 A 
ATOM      8  C   UNL A   1      32.155  22.108  23.095  1.00  0.00     0.002 A 
ATOM      9  C   UNL A   1      33.747  23.761  22.367  1.00  0.00     0.018 A 
ATOM     10  C   UNL A   1      33.380  22.424  22.514  1.00  0.00     0.001 A 
BRANCH   6  11
ATOM     11  N   UNL A   1      30.641  25.432  23.622  1.00  0.00    -0.322 N 
ATOM     12  C   UNL A   1      30.268  25.875  24.870  1.00  0.00     0.265 C 
ATOM     13  O   UNL A   1      29.123  26.327  25.000  1.00  0.00    -0.270 OA
ATOM     14  H   UNL A   1      30.167  25.844  22.864  1.00  0.00     0.170 HD
BRANCH  12  15
ATOM     15  C   UNL A   1      31.315  26.001  26.026  1.00  0.00     0.259 C 
ATOM     16  C   UNL A   1      31.114  27.308  26.796  1.00  0.00     0.064 C 
BRANCH  15  17
ATOM     17  O   UNL A   1      31.442  24.789  26.761  1.00  0.00    -0.481 OA
BRANCH  17  18
ATOM     18  C   UNL A   1      32.588  24.061  26.695  1.00  0.00     0.120 A 
ATOM     19  C   UNL A   1      34.794  22.439  25.973  1.00  0.00    -0.045 A 
ATOM     20  C   UNL A   1      33.624  21.884  26.506  1.00  0.00     0.008 A 
ATOM     21  C   UNL A   1      34.831  23.836  25.813  1.00  0.00     0.008 A 
ATOM     22  C   UNL A   1      32.546  22.686  26.868  1.00  0.00     0.047 A 
ATOM     23  C   UNL A   1      33.731  24.640  26.160  1.00  0.00     0.047 A 
BRANCH  19  24
ATOM     24  C   UNL A   1      35.903  21.499  25.507  1.00  0.00     0.013 C 
ATOM     25  C   UNL A   1      35.421  20.138  24.992  1.00  0.00     0.012 C 
ATOM     26  C   UNL A   1      36.795  22.143  24.433  1.00  0.00     0.012 C 
ENDBRANCH  19  24
ENDBRANCH  17  18
ENDBRANCH  15  17
ENDBRANCH  12  15
ENDBRANCH   6  11
ENDBRANCH   3   5
ENDBRANCH   2   3
ENDBRANCH   1   2
BRANCH   1  27
ATOM     27  C   UNL A   1      32.673  29.333  24.344  1.00  0.00     0.275 C 
BRANCH  27  28
ATOM     28  O   UNL A   1      33.638  29.546  25.392  1.00  0.00    -0.458 OA
BRANCH  28  29
ATOM     29  C   UNL A   1      33.243  30.425  26.343  1.00  0.00     0.338 C 
ATOM     30  O   UNL A   1      32.224  31.096  26.334  1.00  0.00    -0.246 OA
BRANCH  29  31
ATOM     31  C   UNL A   1      34.198  30.491  27.464  1.00  0.00     0.060 A 
ATOM     32  C   UNL A   1      34.983  31.635  27.627  1.00  0.00     0.016 A 
ATOM     33  C   UNL A   1      34.504  29.331  28.172  1.00  0.00     0.016 A 
ATOM     34  C   UNL A   1      36.137  31.599  28.400  1.00  0.00     0.010 A 
ATOM     35  C   UNL A   1      35.624  29.316  29.008  1.00  0.00     0.010 A 
ATOM     36  C   UNL A   1      36.479  30.433  29.086  1.00  0.00    -0.014 A 
BRANCH  36  37
ATOM     37  C   UNL A   1      37.783  30.321  29.787  1.00  0.00     0.031 A 
ATOM     38  C   UNL A   1      38.878  29.510  29.151  1.00  0.00     0.074 A 
ATOM     39  C   UNL A   1      37.992  30.934  30.968  1.00  0.00     0.049 A 
ATOM     40  N   UNL A   1      39.959  29.007  29.683  1.00  0.00    -0.248 NA
ATOM     41  C   UNL A   1      38.713  29.210  27.719  1.00  0.00     0.031 C 
ATOM     42  C   UNL A   1      37.059  31.848  31.627  1.00  0.00     0.029 A 
ATOM     43  N   UNL A   1      39.053  30.859  31.833  1.00  0.00    -0.354 N 
ATOM     44  C   UNL A   1      40.572  28.274  28.671  1.00  0.00     0.074 A 
ATOM     45  C   UNL A   1      39.739  28.403  27.493  1.00  0.00     0.031 C 
ATOM     46  C   UNL A   1      37.583  32.240  32.798  1.00  0.00     0.029 A 
ATOM     47  C   UNL A   1      38.834  31.524  33.018  1.00  0.00     0.049 A 
ATOM     48  H   UNL A   1      39.887  30.377  31.628  1.00  0.00     0.167 HD
ATOM     49  C   UNL A   1      41.716  27.550  28.735  1.00  0.00     0.034 A 
ATOM     50  C   UNL A   1      39.524  31.493  34.176  1.00  0.00     0.034 A 
ATOM     51  C   UNL A   1      42.533  27.472  29.923  1.00  0.00     0.049 A 
ATOM     52  C   UNL A   1      40.745  30.614  34.262  1.00  0.00     0.074 A 
ATOM     53  C   UNL A   1      43.703  26.763  30.127  1.00  0.00     0.029 A 
ATOM     54  N   UNL A   1      42.262  28.141  31.113  1.00  0.00    -0.354 N 
ATOM     55  N   UNL A   1      41.269  29.837  33.341  1.00  0.00    -0.248 NA
ATOM     56  C   UNL A   1      41.461  30.597  35.543  1.00  0.00     0.031 C 
ATOM     57  C   UNL A   1      44.104  26.953  31.454  1.00  0.00     0.029 A 
ATOM     58  C   UNL A   1      43.232  27.845  32.058  1.00  0.00     0.049 A 
ATOM     59  H   UNL A   1      41.494  28.737  31.262  1.00  0.00     0.167 HD
ATOM     60  C   UNL A   1      42.396  29.264  33.924  1.00  0.00     0.074 A 
ATOM     61  C   UNL A   1      42.476  29.788  35.273  1.00  0.00     0.031 C 
ATOM     62  C   UNL A   1      43.289  28.390  33.393  1.00  0.00     0.034 A 
BRANCH  49  63
ATOM     63  C   UNL A   1      42.095  26.729  27.524  1.00  0.00     0.023 A 
ATOM     64  C   UNL A   1      41.782  25.363  27.414  1.00  0.00     0.031 A 
ATOM     65  C   UNL A   1      42.828  27.319  26.479  1.00  0.00     0.131 A 
ATOM     66  C   UNL A   1      42.264  24.619  26.325  1.00  0.00     0.055 A 
ATOM     67  C   UNL A   1      43.234  26.593  25.357  1.00  0.00     0.041 A 
ATOM     68  F   UNL A   1      43.181  28.613  26.537  1.00  0.00    -0.206 F 
ATOM     69  C   UNL A   1      42.967  25.230  25.283  1.00  0.00     0.022 A 
BRANCH  66  70
ATOM     70  S   UNL A   1      42.090  22.814  26.360  1.00  0.00     0.124 S 
ATOM     71  O   UNL A   1      40.642  22.659  26.488  1.00  0.00    -0.237 OA
ATOM     72  O   UNL A   1      42.664  22.417  25.079  1.00  0.00    -0.237 OA
ATOM     73  O   UNL A   1      42.858  22.416  27.538  1.00  0.00    -0.744 OA
ENDBRANCH  66  70
ENDBRANCH  49  63
BRANCH  50  74
ATOM     74  C   UNL A   1      39.029  32.245  35.365  1.00  0.00     0.023 A 
ATOM     75  C   UNL A   1      38.434  31.579  36.446  1.00  0.00     0.031 A 
ATOM     76  C   UNL A   1      39.118  33.648  35.425  1.00  0.00     0.131 A 
ATOM     77  C   UNL A   1      37.920  32.317  37.525  1.00  0.00     0.055 A 
ATOM     78  C   UNL A   1      38.657  34.373  36.525  1.00  0.00     0.041 A 
ATOM     79  F   UNL A   1      39.675  34.339  34.416  1.00  0.00    -0.206 F 
ATOM     80  C   UNL A   1      38.042  33.707  37.579  1.00  0.00     0.022 A 
BRANCH  77  81
ATOM     81  S   UNL A   1      37.011  31.435  38.823  1.00  0.00     0.124 S 
ATOM     82  O   UNL A   1      37.907  31.581  39.964  1.00  0.00    -0.237 OA
ATOM     83  O   UNL A   1      35.764  32.189  38.884  1.00  0.00    -0.237 OA
ATOM     84  O   UNL A   1      36.891  30.078  38.292  1.00  0.00    -0.744 OA
ENDBRANCH  77  81
ENDBRANCH  50  74
BRANCH  62  85
ATOM     85  C   UNL A   1      44.469  28.013  34.252  1.00  0.00     0.023 A 
ATOM     86  C   UNL A   1      44.430  26.923  35.137  1.00  0.00     0.031 A 
ATOM     87  C   UNL A   1      45.659  28.759  34.166  1.00  0.00     0.131 A 
ATOM     88  C   UNL A   1      45.547  26.636  35.936  1.00  0.00     0.055 A 
ATOM     89  C   UNL A   1      46.785  28.435  34.922  1.00  0.00     0.041 A 
ATOM     90  F   UNL A   1      45.747  29.811  33.336  1.00  0.00    -0.206 F 
ATOM     91  C   UNL A   1      46.729  27.374  35.821  1.00  0.00     0.022 A 
BRANCH  88  92
ATOM     92  S   UNL A   1      45.414  25.326  37.182  1.00  0.00     0.124 S 
ATOM     93  O   UNL A   1      44.265  25.767  37.965  1.00  0.00    -0.237 OA
ATOM     94  O   UNL A   1      45.211  24.134  36.365  1.00  0.00    -0.237 OA
ATOM     95  O   UNL A   1      46.698  25.385  37.880  1.00  0.00    -0.744 OA
ENDBRANCH  88  92
ENDBRANCH  62  85
ENDBRANCH  36  37
ENDBRANCH  29  31
ENDBRANCH  28  29
ENDBRANCH  27  28
ENDBRANCH   1  27
TORSDOF 19
ENDMDL
MODEL 2
REMARK VINA RESULT:     -11.4      4.766      7.325
REMARK SMILES CC(C)c1ccc(O[C@H](C)C(=O)Nc2ccccc2C(=O)OCCOC(=O)c2ccc(-c3c4nc(c(-c5cc(S(=O)(=O)[O-])ccc5F)c5ccc([nH]5)c(-c5cc(S(=O)(=O)[O-])ccc5F)c5nc(c(-c6cc(S(=O)(=O)[O-])ccc6F)c6ccc3[nH]6)C=C5)C=C4)cc2)cc1
REMARK SMILES IDX 23 1 22 2 20 3 21 4 19 5 14 6 15 7 16 8 18 9 17 10 13 11
REMARK SMILES IDX 11 12 12 13 9 15 10 16 8 17 7 18 4 19 5 20 92 21 6 22 91 23
REMARK SMILES IDX 2 24 1 25 3 26 24 27 25 28 26 29 27 30 28 31 29 32 90 33
REMARK SMILES IDX 30 34 89 35 31 36 32 37 33 38 83 39 34 40 88 41 82 42 84 43
REMARK SMILES IDX 35 44 87 45 81 46 80 47 36 49 68 50 48 51 67 52 49 53 52 54
REMARK SMILES IDX 66 55 85 56 50 57 51 58 65 60 86 61 53 62 37 63 38 64 46 65
REMARK SMILES IDX 39 66 45 67 47 68 44 69 40 70 41 71 42 72 43 73 69 74 70 75
REMARK SMILES IDX 78 76 71 77 77 78 79 79 76 80 72 81 73 82 74 83 75 84 54 85
REMARK SMILES IDX 55 86 63 87 56 88 62 89 64 90 61 91 57 92 58 93 59 94 60 95
REMARK H PARENT 13 14 84 48 52 59
REMARK Flexibility Score: inf
ROOT
ATOM      1  C   UNL A   1      37.715  19.932  24.686  1.00  0.00     0.275 C 
ENDROOT
BRANCH   1   2
ATOM      2  O   UNL A   1      36.912  20.902  25.392  1.00  0.00    -0.458 OA
BRANCH   2   3
ATOM      3  C   UNL A   1      36.458  21.896  24.599  1.00  0.00     0.340 C 
ATOM      4  O   UNL A   1      36.915  22.173  23.497  1.00  0.00    -0.246 OA
BRANCH   3   5
ATOM      5  C   UNL A   1      35.383  22.693  25.194  1.00  0.00     0.083 A 
ATOM      6  C   UNL A   1      34.298  22.096  25.853  1.00  0.00     0.055 A 
ATOM      7  C   UNL A   1      33.295  22.913  26.388  1.00  0.00     0.027 A 
ATOM      8  C   UNL A   1      33.435  24.306  26.378  1.00  0.00     0.002 A 
ATOM      9  C   UNL A   1      35.500  24.091  25.160  1.00  0.00     0.018 A 
ATOM     10  C   UNL A   1      34.542  24.895  25.774  1.00  0.00     0.001 A 
BRANCH   6  11
ATOM     11  N   UNL A   1      34.143  20.704  25.998  1.00  0.00    -0.322 N 
ATOM     12  C   UNL A   1      33.214  19.875  25.413  1.00  0.00     0.265 C 
ATOM     13  O   UNL A   1      32.926  18.827  26.006  1.00  0.00    -0.270 OA
ATOM     14  H   UNL A   1      34.788  20.265  26.599  1.00  0.00     0.170 HD
BRANCH  12  15
ATOM     15  C   UNL A   1      32.703  20.139  23.958  1.00  0.00     0.259 C 
ATOM     16  C   UNL A   1      32.565  18.823  23.188  1.00  0.00     0.064 C 
BRANCH  15  17
ATOM     17  O   UNL A   1      31.617  21.059  23.937  1.00  0.00    -0.481 OA
BRANCH  17  18
ATOM     18  C   UNL A   1      31.736  22.249  23.293  1.00  0.00     0.120 A 
ATOM     19  C   UNL A   1      32.298  24.897  22.461  1.00  0.00    -0.045 A 
ATOM     20  C   UNL A   1      31.142  24.591  23.188  1.00  0.00     0.008 A 
ATOM     21  C   UNL A   1      33.169  23.836  22.157  1.00  0.00     0.008 A 
ATOM     22  C   UNL A   1      30.865  23.287  23.587  1.00  0.00     0.047 A 
ATOM     23  C   UNL A   1      32.896  22.523  22.580  1.00  0.00     0.047 A 
BRANCH  19  24
ATOM     24  C   UNL A   1      32.593  26.359  22.135  1.00  0.00     0.013 C 
ATOM     25  C   UNL A   1      31.356  27.260  22.040  1.00  0.00     0.012 C 
ATOM     26  C   UNL A   1      33.582  26.987  23.130  1.00  0.00     0.012 C 
ENDBRANCH  19  24
ENDBRANCH  17  18
ENDBRANCH  15  17
ENDBRANCH  12  15
ENDBRANCH   6  11
ENDBRANCH   3   5
ENDBRANCH   2   3
ENDBRANCH   1   2
BRANCH   1  27
ATOM     27  C   UNL A   1      38.977  19.455  25.424  1.00  0.00     0.275 C 
BRANCH  27  28
ATOM     28  O   UNL A   1      39.966  20.482  25.628  1.00  0.00    -0.458 OA
BRANCH  28  29
ATOM     29  C   UNL A   1      40.449  20.547  26.891  1.00  0.00     0.338 C 
ATOM     30  O   UNL A   1      40.819  19.608  27.577  1.00  0.00    -0.246 OA
BRANCH  29  31
ATOM     31  C   UNL A   1      40.510  21.934  27.387  1.00  0.00     0.060 A 
ATOM     32  C   UNL A   1      39.652  22.892  26.842  1.00  0.00     0.016 A 
ATOM     33  C   UNL A   1      41.585  22.331  28.178  1.00  0.00     0.016 A 
ATOM     34  C   UNL A   1      39.924  24.248  26.983  1.00  0.00     0.010 A 
ATOM     35  C   UNL A   1      41.816  23.695  28.382  1.00  0.00     0.010 A 
ATOM     36  C   UNL A   1      41.019  24.664  27.741  1.00  0.00    -0.014 A 
BRANCH  36  37
ATOM     37  C   UNL A   1      41.418  26.093  27.776  1.00  0.00     0.031 A 
ATOM     38  C   UNL A   1      42.730  26.491  27.158  1.00  0.00     0.074 A 
ATOM     39  C   UNL A   1      40.626  27.022  28.343  1.00  0.00     0.049 A 
ATOM     40  N   UNL A   1      43.436  27.576  27.327  1.00  0.00    -0.248 NA
ATOM     41  C   UNL A   1      43.333  25.516  26.235  1.00  0.00     0.031 C 
ATOM     42  C   UNL A   1      39.279  26.787  28.865  1.00  0.00     0.029 A 
ATOM     43  N   UNL A   1      40.854  28.351  28.596  1.00  0.00    -0.354 N 
ATOM     44  C   UNL A   1      44.600  27.389  26.588  1.00  0.00     0.074 A 
ATOM     45  C   UNL A   1      44.500  26.085  25.968  1.00  0.00     0.031 C 
ATOM     46  C   UNL A   1      38.805  27.930  29.385  1.00  0.00     0.029 A 
ATOM     47  C   UNL A   1      39.851  28.944  29.330  1.00  0.00     0.049 A 
ATOM     48  H   UNL A   1      41.654  28.833  28.285  1.00  0.00     0.167 HD
ATOM     49  C   UNL A   1      45.657  28.229  26.461  1.00  0.00     0.034 A 
ATOM     50  C   UNL A   1      39.816  30.137  29.954  1.00  0.00     0.034 A 
ATOM     51  C   UNL A   1      45.703  29.535  27.075  1.00  0.00     0.049 A 
ATOM     52  C   UNL A   1      41.033  31.024  29.879  1.00  0.00     0.074 A 
ATOM     53  C   UNL A   1      46.717  30.475  27.039  1.00  0.00     0.029 A 
ATOM     54  N   UNL A   1      44.676  30.088  27.833  1.00  0.00    -0.354 N 
ATOM     55  N   UNL A   1      42.176  30.806  29.269  1.00  0.00    -0.248 NA
ATOM     56  C   UNL A   1      40.961  32.310  30.583  1.00  0.00     0.031 C 
ATOM     57  C   UNL A   1      46.329  31.567  27.824  1.00  0.00     0.029 A 
ATOM     58  C   UNL A   1      45.041  31.346  28.285  1.00  0.00     0.049 A 
ATOM     59  H   UNL A   1      43.815  29.650  28.021  1.00  0.00     0.167 HD
ATOM     60  C   UNL A   1      42.947  31.944  29.490  1.00  0.00     0.074 A 
ATOM     61  C   UNL A   1      42.137  32.845  30.285  1.00  0.00     0.031 C 
ATOM     62  C   UNL A   1      44.207  32.225  29.070  1.00  0.00     0.034 A 
BRANCH  49  63
ATOM     63  C   UNL A   1      46.866  27.725  25.706  1.00  0.00     0.023 A 
ATOM     64  C   UNL A   1      47.111  28.067  24.365  1.00  0.00     0.031 A 
ATOM     65  C   UNL A   1      47.766  26.845  26.334  1.00  0.00     0.131 A 
ATOM     66  C   UNL A   1      48.181  27.475  23.676  1.00  0.00     0.055 A 
ATOM     67  C   UNL A   1      48.877  26.323  25.667  1.00  0.00     0.041 A 
ATOM     68  F   UNL A   1      47.572  26.459  27.605  1.00  0.00    -0.206 F 
ATOM     69  C   UNL A   1      49.081  26.624  24.324  1.00  0.00     0.022 A 
BRANCH  66  70
ATOM     70  S   UNL A   1      48.297  27.712  21.881  1.00  0.00     0.124 S 
ATOM     71  O   UNL A   1      48.539  26.347  21.418  1.00  0.00    -0.237 OA
ATOM     72  O   UNL A   1      46.992  28.275  21.552  1.00  0.00    -0.237 OA
ATOM     73  O   UNL A   1      49.428  28.625  21.726  1.00  0.00    -0.744 OA
ENDBRANCH  66  70
ENDBRANCH  49  63
BRANCH  50  74
ATOM     74  C   UNL A   1      38.631  30.522  30.773  1.00  0.00     0.023 A 
ATOM     75  C   UNL A   1      37.567  31.244  30.213  1.00  0.00     0.031 A 
ATOM     76  C   UNL A   1      38.557  30.197  32.141  1.00  0.00     0.131 A 
ATOM     77  C   UNL A   1      36.492  31.647  31.022  1.00  0.00     0.055 A 
ATOM     78  C   UNL A   1      37.460  30.551  32.928  1.00  0.00     0.041 A 
ATOM     79  F   UNL A   1      39.549  29.510  32.731  1.00  0.00    -0.206 F 
ATOM     80  C   UNL A   1      36.424  31.291  32.371  1.00  0.00     0.022 A 
BRANCH  77  81
ATOM     81  S   UNL A   1      35.220  32.718  30.301  1.00  0.00     0.124 S 
ATOM     82  O   UNL A   1      34.365  32.981  31.452  1.00  0.00    -0.237 OA
ATOM     83  O   UNL A   1      36.012  33.845  29.818  1.00  0.00    -0.237 OA
ATOM     84  O   UNL A   1      34.625  31.885  29.257  1.00  0.00    -0.744 OA
ENDBRANCH  77  81
ENDBRANCH  50  74
BRANCH  62  85
ATOM     85  C   UNL A   1      44.748  33.593  29.398  1.00  0.00     0.023 A 
ATOM     86  C   UNL A   1      45.509  33.836  30.555  1.00  0.00     0.031 A 
ATOM     87  C   UNL A   1      44.502  34.667  28.524  1.00  0.00     0.131 A 
ATOM     88  C   UNL A   1      45.961  35.137  30.827  1.00  0.00     0.055 A 
ATOM     89  C   UNL A   1      45.002  35.945  28.772  1.00  0.00     0.041 A 
ATOM     90  F   UNL A   1      43.780  34.486  27.406  1.00  0.00    -0.206 F 
ATOM     91  C   UNL A   1      45.727  36.188  29.935  1.00  0.00     0.022 A 
BRANCH  88  92
ATOM     92  S   UNL A   1      46.802  35.455  32.402  1.00  0.00     0.124 S 
ATOM     93  O   UNL A   1      45.724  36.006  33.216  1.00  0.00    -0.237 OA
ATOM     94  O   UNL A   1      47.273  34.126  32.780  1.00  0.00    -0.237 OA
ATOM     95  O   UNL A   1      47.854  36.405  32.042  1.00  0.00    -0.744 OA
ENDBRANCH  88  92
ENDBRANCH  62  85
ENDBRANCH  36  37
ENDBRANCH  29  31
ENDBRANCH  28  29
ENDBRANCH  27  28
ENDBRANCH   1  27
TORSDOF 19
ENDMDL
MODEL 3
REMARK VINA RESULT:     -11.3      4.701      9.451
REMARK SMILES CC(C)c1ccc(O[C@H](C)C(=O)Nc2ccccc2C(=O)OCCOC(=O)c2ccc(-c3c4nc(c(-c5cc(S(=O)(=O)[O-])ccc5F)c5ccc([nH]5)c(-c5cc(S(=O)(=O)[O-])ccc5F)c5nc(c(-c6cc(S(=O)(=O)[O-])ccc6F)c6ccc3[nH]6)C=C5)C=C4)cc2)cc1
REMARK SMILES IDX 23 1 22 2 20 3 21 4 19 5 14 6 15 7 16 8 18 9 17 10 13 11
REMARK SMILES IDX 11 12 12 13 9 15 10 16 8 17 7 18 4 19 5 20 92 21 6 22 91 23
REMARK SMILES IDX 2 24 1 25 3 26 24 27 25 28 26 29 27 30 28 31 29 32 90 33
REMARK SMILES IDX 30 34 89 35 31 36 32 37 33 38 83 39 34 40 88 41 82 42 84 43
REMARK SMILES IDX 35 44 87 45 81 46 80 47 36 49 68 50 48 51 67 52 49 53 52 54
REMARK SMILES IDX 66 55 85 56 50 57 51 58 65 60 86 61 53 62 37 63 38 64 46 65
REMARK SMILES IDX 39 66 45 67 47 68 44 69 40 70 41 71 42 72 43 73 69 74 70 75
REMARK SMILES IDX 78 76 71 77 77 78 79 79 76 80 72 81 73 82 74 83 75 84 54 85
REMARK SMILES IDX 55 86 63 87 56 88 62 89 64 90 61 91 57 92 58 93 59 94 60 95
REMARK H PARENT 13 14 84 48 52 59
REMARK Flexibility Score: inf
ROOT
ATOM      1  C   UNL A   1      35.476  22.535  25.449  1.00  0.00     0.275 C 
ENDROOT
BRANCH   1   2
ATOM      2  O   UNL A   1      34.456  22.266  24.463  1.00  0.00    -0.458 OA
BRANCH   2   3
ATOM      3  C   UNL A   1      34.608  22.984  23.330  1.00  0.00     0.340 C 
ATOM      4  O   UNL A   1      35.626  23.006  22.650  1.00  0.00    -0.246 OA
BRANCH   3   5
ATOM      5  C   UNL A   1      33.453  23.817  22.990  1.00  0.00     0.083 A 
ATOM      6  C   UNL A   1      32.143  23.433  23.313  1.00  0.00     0.055 A 
ATOM      7  C   UNL A   1      31.080  24.267  22.946  1.00  0.00     0.027 A 
ATOM      8  C   UNL A   1      31.327  25.523  22.381  1.00  0.00     0.002 A 
ATOM      9  C   UNL A   1      33.691  25.064  22.392  1.00  0.00     0.018 A 
ATOM     10  C   UNL A   1      32.632  25.927  22.114  1.00  0.00     0.001 A 
BRANCH   6  11
ATOM     11  N   UNL A   1      31.824  22.234  23.979  1.00  0.00    -0.322 N 
ATOM     12  C   UNL A   1      31.593  22.029  25.320  1.00  0.00     0.265 C 
ATOM     13  O   UNL A   1      31.809  20.897  25.773  1.00  0.00    -0.270 OA
ATOM     14  H   UNL A   1      31.756  21.435  23.408  1.00  0.00     0.170 HD
BRANCH  12  15
ATOM     15  C   UNL A   1      30.885  23.118  26.191  1.00  0.00     0.259 C 
ATOM     16  C   UNL A   1      29.733  22.504  26.991  1.00  0.00     0.064 C 
BRANCH  15  17
ATOM     17  O   UNL A   1      31.822  23.946  26.871  1.00  0.00    -0.481 OA
BRANCH  17  18
ATOM     18  C   UNL A   1      31.985  25.245  26.505  1.00  0.00     0.120 A 
ATOM     19  C   UNL A   1      32.277  27.723  25.166  1.00  0.00    -0.045 A 
ATOM     20  C   UNL A   1      33.385  26.920  25.464  1.00  0.00     0.008 A 
ATOM     21  C   UNL A   1      31.013  27.251  25.561  1.00  0.00     0.008 A 
ATOM     22  C   UNL A   1      33.238  25.706  26.131  1.00  0.00     0.047 A 
ATOM     23  C   UNL A   1      30.867  26.015  26.215  1.00  0.00     0.047 A 
BRANCH  19  24
ATOM     24  C   UNL A   1      32.494  28.995  24.350  1.00  0.00     0.013 C 
ATOM     25  C   UNL A   1      33.761  28.999  23.488  1.00  0.00     0.012 C 
ATOM     26  C   UNL A   1      31.289  29.322  23.454  1.00  0.00     0.012 C 
ENDBRANCH  19  24
ENDBRANCH  17  18
ENDBRANCH  15  17
ENDBRANCH  12  15
ENDBRANCH   6  11
ENDBRANCH   3   5
ENDBRANCH   2   3
ENDBRANCH   1   2
BRANCH   1  27
ATOM     27  C   UNL A   1      36.582  21.475  25.564  1.00  0.00     0.275 C 
BRANCH  27  28
ATOM     28  O   UNL A   1      37.843  21.872  24.990  1.00  0.00    -0.458 OA
BRANCH  28  29
ATOM     29  C   UNL A   1      38.920  21.583  25.757  1.00  0.00     0.338 C 
ATOM     30  O   UNL A   1      39.549  20.537  25.762  1.00  0.00    -0.246 OA
BRANCH  29  31
ATOM     31  C   UNL A   1      39.301  22.715  26.620  1.00  0.00     0.060 A 
ATOM     32  C   UNL A   1      38.812  23.991  26.329  1.00  0.00     0.016 A 
ATOM     33  C   UNL A   1      40.341  22.560  27.533  1.00  0.00     0.016 A 
ATOM     34  C   UNL A   1      39.428  25.122  26.853  1.00  0.00     0.010 A 
ATOM     35  C   UNL A   1      40.912  23.694  28.118  1.00  0.00     0.010 A 
ATOM     36  C   UNL A   1      40.496  24.986  27.740  1.00  0.00    -0.014 A 
BRANCH  36  37
ATOM     37  C   UNL A   1      41.266  26.173  28.186  1.00  0.00     0.031 A 
ATOM     38  C   UNL A   1      40.551  27.250  28.955  1.00  0.00     0.074 A 
ATOM     39  C   UNL A   1      42.580  26.292  27.917  1.00  0.00     0.049 A 
ATOM     40  N   UNL A   1      40.900  28.489  29.176  1.00  0.00    -0.248 NA
ATOM     41  C   UNL A   1      39.252  26.876  29.537  1.00  0.00     0.031 C 
ATOM     42  C   UNL A   1      43.414  25.266  27.291  1.00  0.00     0.029 A 
ATOM     43  N   UNL A   1      43.438  27.343  28.117  1.00  0.00    -0.354 N 
ATOM     44  C   UNL A   1      39.835  29.064  29.863  1.00  0.00     0.074 A 
ATOM     45  C   UNL A   1      38.830  28.034  30.024  1.00  0.00     0.031 C 
ATOM     46  C   UNL A   1      44.661  25.741  27.148  1.00  0.00     0.029 A 
ATOM     47  C   UNL A   1      44.685  27.137  27.573  1.00  0.00     0.049 A 
ATOM     48  H   UNL A   1      43.187  28.163  28.601  1.00  0.00     0.167 HD
ATOM     49  C   UNL A   1      39.712  30.342  30.300  1.00  0.00     0.034 A 
ATOM     50  C   UNL A   1      45.701  27.998  27.367  1.00  0.00     0.034 A 
ATOM     51  C   UNL A   1      40.752  31.331  30.144  1.00  0.00     0.049 A 
ATOM     52  C   UNL A   1      45.517  29.437  27.777  1.00  0.00     0.074 A 
ATOM     53  C   UNL A   1      40.749  32.661  30.525  1.00  0.00     0.029 A 
ATOM     54  N   UNL A   1      41.993  31.088  29.563  1.00  0.00    -0.354 N 
ATOM     55  N   UNL A   1      44.472  30.010  28.331  1.00  0.00    -0.248 NA
ATOM     56  C   UNL A   1      46.640  30.347  27.525  1.00  0.00     0.031 C 
ATOM     57  C   UNL A   1      41.959  33.235  30.119  1.00  0.00     0.029 A 
ATOM     58  C   UNL A   1      42.752  32.247  29.558  1.00  0.00     0.049 A 
ATOM     59  H   UNL A   1      42.288  30.220  29.207  1.00  0.00     0.167 HD
ATOM     60  C   UNL A   1      44.827  31.342  28.523  1.00  0.00     0.074 A 
ATOM     61  C   UNL A   1      46.182  31.485  28.029  1.00  0.00     0.031 C 
ATOM     62  C   UNL A   1      44.105  32.356  29.064  1.00  0.00     0.034 A 
BRANCH  49  63
ATOM     63  C   UNL A   1      38.388  30.753  30.902  1.00  0.00     0.023 A 
ATOM     64  C   UNL A   1      37.374  31.362  30.143  1.00  0.00     0.031 A 
ATOM     65  C   UNL A   1      38.158  30.571  32.278  1.00  0.00     0.131 A 
ATOM     66  C   UNL A   1      36.213  31.833  30.776  1.00  0.00     0.055 A 
ATOM     67  C   UNL A   1      36.965  30.968  32.887  1.00  0.00     0.041 A 
ATOM     68  F   UNL A   1      39.097  30.019  33.062  1.00  0.00    -0.206 F 
ATOM     69  C   UNL A   1      35.990  31.619  32.139  1.00  0.00     0.022 A 
BRANCH  66  70
ATOM     70  S   UNL A   1      35.062  32.865  29.826  1.00  0.00     0.124 S 
ATOM     71  O   UNL A   1      34.196  33.389  30.880  1.00  0.00    -0.237 OA
ATOM     72  O   UNL A   1      35.953  33.830  29.193  1.00  0.00    -0.237 OA
ATOM     73  O   UNL A   1      34.421  31.917  28.916  1.00  0.00    -0.744 OA
ENDBRANCH  66  70
ENDBRANCH  49  63
BRANCH  50  74
ATOM     74  C   UNL A   1      46.938  27.548  26.667  1.00  0.00     0.023 A 
ATOM     75  C   UNL A   1      47.123  27.788  25.298  1.00  0.00     0.031 A 
ATOM     76  C   UNL A   1      47.944  26.841  27.353  1.00  0.00     0.131 A 
ATOM     77  C   UNL A   1      48.270  27.298  24.651  1.00  0.00     0.055 A 
ATOM     78  C   UNL A   1      49.107  26.405  26.718  1.00  0.00     0.041 A 
ATOM     79  F   UNL A   1      47.817  26.579  28.665  1.00  0.00    -0.206 F 
ATOM     80  C   UNL A   1      49.270  26.623  25.355  1.00  0.00     0.022 A 
BRANCH  77  81
ATOM     81  S   UNL A   1      48.395  27.484  22.852  1.00  0.00     0.124 S 
ATOM     82  O   UNL A   1      49.652  28.209  22.715  1.00  0.00    -0.237 OA
ATOM     83  O   UNL A   1      48.401  26.095  22.404  1.00  0.00    -0.237 OA
ATOM     84  O   UNL A   1      47.194  28.243  22.504  1.00  0.00    -0.744 OA
ENDBRANCH  77  81
ENDBRANCH  50  74
BRANCH  62  85
ATOM     85  C   UNL A   1      44.801  33.684  29.220  1.00  0.00     0.023 A 
ATOM     86  C   UNL A   1      45.564  33.997  30.357  1.00  0.00     0.031 A 
ATOM     87  C   UNL A   1      44.703  34.645  28.198  1.00  0.00     0.131 A 
ATOM     88  C   UNL A   1      46.165  35.261  30.464  1.00  0.00     0.055 A 
ATOM     89  C   UNL A   1      45.348  35.878  28.285  1.00  0.00     0.041 A 
ATOM     90  F   UNL A   1      43.985  34.395  27.091  1.00  0.00    -0.206 F 
ATOM     91  C   UNL A   1      46.076  36.196  29.428  1.00  0.00     0.022 A 
BRANCH  88  92
ATOM     92  S   UNL A   1      47.009  35.697  32.008  1.00  0.00     0.124 S 
ATOM     93  O   UNL A   1      46.213  34.984  33.001  1.00  0.00    -0.237 OA
ATOM     94  O   UNL A   1      48.357  35.186  31.785  1.00  0.00    -0.237 OA
ATOM     95  O   UNL A   1      46.900  37.155  32.058  1.00  0.00    -0.744 OA
ENDBRANCH  88  92
ENDBRANCH  62  85
ENDBRANCH  36  37
ENDBRANCH  29  31
ENDBRANCH  28  29
ENDBRANCH  27  28
ENDBRANCH   1  27
TORSDOF 19
ENDMDL
