MODEL 1
REMARK VINA RESULT:     -11.1      0.000      0.000
REMARK SMILES O=C(CC[NH2+]C[C@H](O)Cn1c2ccccc2c2ccccc21)OCCOC(=O)c1ccc(-c2c3nc(c(-c4cc(S(=O)(=O)[O-])ccc4F)c4ccc([nH]4)c(-c4cc(S(=O)(=O)[O-])ccc4F)c4nc(c(-c5cc(S(=O)(=O)[O-])ccc5F)c5ccc2[nH]5)C=C4)C=C3)cc1
REMARK SMILES IDX 23 1 2 2 1 3 3 4 4 5 5 6 6 9 7 10 9 11 10 12 11 13 22 14
REMARK SMILES IDX 12 15 16 16 17 17 21 18 13 19 15 20 18 21 20 22 14 23 19 24
REMARK SMILES IDX 8 25 24 27 25 28 26 29 27 30 28 31 29 32 30 33 91 34 31 35
REMARK SMILES IDX 90 36 32 37 33 38 34 39 84 40 35 41 89 42 83 43 85 44 36 45
REMARK SMILES IDX 88 46 82 47 81 48 37 50 69 51 49 52 68 53 50 54 53 55 67 56
REMARK SMILES IDX 86 57 51 58 52 59 66 61 87 62 54 63 38 64 39 65 47 66 40 67
REMARK SMILES IDX 46 68 48 69 45 70 41 71 42 72 43 73 44 74 70 75 71 76 79 77
REMARK SMILES IDX 72 78 78 79 80 80 77 81 73 82 74 83 75 84 76 85 55 86 56 87
REMARK SMILES IDX 64 88 57 89 63 90 65 91 62 92 58 93 59 94 60 95 61 96
REMARK H PARENT 5 7 5 8 8 26 85 49 53 60
REMARK Flexibility Score: inf
ROOT
ATOM      1  O   UNL A   1      42.612  19.385  25.328  1.00  0.00    -0.462 OA
ENDROOT
BRANCH   1   2
ATOM      2  C   UNL A   1      43.781  18.726  25.399  1.00  0.00     0.311 C 
ATOM      3  O   UNL A   1      43.892  17.768  26.156  1.00  0.00    -0.252 OA
BRANCH   2   4
ATOM      4  C   UNL A   1      44.928  19.246  24.555  1.00  0.00     0.184 C 
BRANCH   4   5
ATOM      5  C   UNL A   1      46.021  20.149  25.090  1.00  0.00     0.272 C 
BRANCH   5   6
ATOM      6  N   UNL A   1      46.568  21.146  24.189  1.00  0.00    -0.344 N 
ATOM      7  H   UNL A   1      46.302  20.903  23.235  1.00  0.00     0.346 HD
ATOM      8  H   UNL A   1      47.580  21.148  24.315  1.00  0.00     0.346 HD
BRANCH   6   9
ATOM      9  C   UNL A   1      46.089  22.501  24.477  1.00  0.00     0.294 C 
BRANCH   9  10
ATOM     10  C   UNL A   1      44.547  22.608  24.529  1.00  0.00     0.189 C 
BRANCH  10  11
ATOM     11  C   UNL A   1      44.062  23.961  25.062  1.00  0.00     0.160 C 
BRANCH  11  12
ATOM     12  N   UNL A   1      44.751  24.593  26.178  1.00  0.00    -0.338 N 
ATOM     13  C   UNL A   1      44.626  24.162  27.500  1.00  0.00     0.049 A 
ATOM     14  C   UNL A   1      45.408  25.806  26.132  1.00  0.00     0.049 A 
ATOM     15  C   UNL A   1      43.961  23.064  28.084  1.00  0.00     0.027 A 
ATOM     16  C   UNL A   1      45.208  25.134  28.312  1.00  0.00     0.007 A 
ATOM     17  C   UNL A   1      45.633  26.194  27.456  1.00  0.00     0.007 A 
ATOM     18  C   UNL A   1      45.788  26.630  25.059  1.00  0.00     0.027 A 
ATOM     19  C   UNL A   1      43.894  22.942  29.477  1.00  0.00     0.002 A 
ATOM     20  C   UNL A   1      45.170  24.971  29.721  1.00  0.00     0.011 A 
ATOM     21  C   UNL A   1      46.149  27.481  27.708  1.00  0.00     0.011 A 
ATOM     22  C   UNL A   1      46.347  27.877  25.334  1.00  0.00     0.002 A 
ATOM     23  C   UNL A   1      44.502  23.881  30.292  1.00  0.00     0.001 A 
ATOM     24  C   UNL A   1      46.496  28.312  26.641  1.00  0.00     0.001 A 
ENDBRANCH  11  12
ENDBRANCH  10  11
BRANCH  10  25
ATOM     25  O   UNL A   1      44.049  22.403  23.199  1.00  0.00    -0.385 OA
ATOM     26  H   UNL A   1      43.560  21.566  23.163  1.00  0.00     0.211 HD
ENDBRANCH  10  25
ENDBRANCH   9  10
ENDBRANCH   6   9
ENDBRANCH   5   6
ENDBRANCH   4   5
ENDBRANCH   2   4
ENDBRANCH   1   2
BRANCH   1  27
ATOM     27  C   UNL A   1      42.258  20.232  26.431  1.00  0.00     0.274 C 
BRANCH  27  28
ATOM     28  C   UNL A   1      40.772  20.227  26.859  1.00  0.00     0.275 C 
BRANCH  28  29
ATOM     29  O   UNL A   1      40.388  21.477  27.475  1.00  0.00    -0.458 OA
BRANCH  29  30
ATOM     30  C   UNL A   1      39.596  22.300  26.711  1.00  0.00     0.338 C 
ATOM     31  O   UNL A   1      38.806  21.937  25.883  1.00  0.00    -0.246 OA
BRANCH  30  32
ATOM     32  C   UNL A   1      39.654  23.687  27.290  1.00  0.00     0.060 A 
ATOM     33  C   UNL A   1      38.744  24.708  26.969  1.00  0.00     0.016 A 
ATOM     34  C   UNL A   1      40.810  24.003  28.011  1.00  0.00     0.016 A 
ATOM     35  C   UNL A   1      39.051  26.047  27.279  1.00  0.00     0.010 A 
ATOM     36  C   UNL A   1      41.104  25.335  28.325  1.00  0.00     0.010 A 
ATOM     37  C   UNL A   1      40.248  26.375  27.941  1.00  0.00    -0.014 A 
BRANCH  37  38
ATOM     38  C   UNL A   1      40.442  27.684  28.602  1.00  0.00     0.031 A 
ATOM     39  C   UNL A   1      41.492  28.497  27.996  1.00  0.00     0.074 A 
ATOM     40  C   UNL A   1      39.778  28.254  29.630  1.00  0.00     0.049 A 
ATOM     41  N   UNL A   1      42.604  28.774  28.598  1.00  0.00    -0.248 NA
ATOM     42  C   UNL A   1      41.428  28.882  26.590  1.00  0.00     0.031 C 
ATOM     43  C   UNL A   1      39.133  27.541  30.709  1.00  0.00     0.029 A 
ATOM     44  N   UNL A   1      39.556  29.583  29.958  1.00  0.00    -0.354 N 
ATOM     45  C   UNL A   1      43.249  29.640  27.746  1.00  0.00     0.074 A 
ATOM     46  C   UNL A   1      42.618  29.472  26.457  1.00  0.00     0.031 C 
ATOM     47  C   UNL A   1      38.453  28.413  31.481  1.00  0.00     0.029 A 
ATOM     48  C   UNL A   1      38.553  29.746  30.914  1.00  0.00     0.049 A 
ATOM     49  H   UNL A   1      40.055  30.333  29.559  1.00  0.00     0.167 HD
ATOM     50  C   UNL A   1      44.000  30.651  28.256  1.00  0.00     0.034 A 
ATOM     51  C   UNL A   1      38.156  30.812  31.652  1.00  0.00     0.034 A 
ATOM     52  C   UNL A   1      44.296  30.481  29.657  1.00  0.00     0.049 A 
ATOM     53  C   UNL A   1      39.370  31.510  32.111  1.00  0.00     0.074 A 
ATOM     54  C   UNL A   1      45.159  29.712  30.408  1.00  0.00     0.029 A 
ATOM     55  N   UNL A   1      43.365  31.001  30.522  1.00  0.00    -0.354 N 
ATOM     56  N   UNL A   1      40.152  31.055  33.049  1.00  0.00    -0.248 NA
ATOM     57  C   UNL A   1      39.915  32.606  31.312  1.00  0.00     0.031 C 
ATOM     58  C   UNL A   1      44.686  29.742  31.750  1.00  0.00     0.029 A 
ATOM     59  C   UNL A   1      43.533  30.518  31.798  1.00  0.00     0.049 A 
ATOM     60  H   UNL A   1      42.663  31.639  30.261  1.00  0.00     0.167 HD
ATOM     61  C   UNL A   1      41.407  31.447  32.630  1.00  0.00     0.074 A 
ATOM     62  C   UNL A   1      41.192  32.537  31.692  1.00  0.00     0.031 C 
ATOM     63  C   UNL A   1      42.482  30.628  32.787  1.00  0.00     0.034 A 
BRANCH  50  64
ATOM     64  C   UNL A   1      44.103  31.993  27.581  1.00  0.00     0.023 A 
ATOM     65  C   UNL A   1      43.516  33.152  28.122  1.00  0.00     0.031 A 
ATOM     66  C   UNL A   1      44.966  32.188  26.490  1.00  0.00     0.131 A 
ATOM     67  C   UNL A   1      43.715  34.413  27.558  1.00  0.00     0.055 A 
ATOM     68  C   UNL A   1      45.234  33.462  25.974  1.00  0.00     0.041 A 
ATOM     69  F   UNL A   1      45.604  31.154  25.922  1.00  0.00    -0.206 F 
ATOM     70  C   UNL A   1      44.597  34.583  26.499  1.00  0.00     0.022 A 
BRANCH  67  71
ATOM     71  S   UNL A   1      42.805  35.842  28.204  1.00  0.00     0.124 S 
ATOM     72  O   UNL A   1      41.421  35.435  27.999  1.00  0.00    -0.237 OA
ATOM     73  O   UNL A   1      43.261  35.878  29.591  1.00  0.00    -0.237 OA
ATOM     74  O   UNL A   1      43.273  36.948  27.373  1.00  0.00    -0.744 OA
ENDBRANCH  67  71
ENDBRANCH  50  64
BRANCH  51  75
ATOM     75  C   UNL A   1      36.862  31.518  31.438  1.00  0.00     0.023 A 
ATOM     76  C   UNL A   1      36.354  31.782  30.152  1.00  0.00     0.031 A 
ATOM     77  C   UNL A   1      36.120  32.003  32.532  1.00  0.00     0.131 A 
ATOM     78  C   UNL A   1      35.184  32.545  29.991  1.00  0.00     0.055 A 
ATOM     79  C   UNL A   1      34.947  32.751  32.370  1.00  0.00     0.041 A 
ATOM     80  F   UNL A   1      36.527  31.766  33.790  1.00  0.00    -0.206 F 
ATOM     81  C   UNL A   1      34.477  33.033  31.094  1.00  0.00     0.022 A 
BRANCH  78  82
ATOM     82  S   UNL A   1      34.537  32.907  28.334  1.00  0.00     0.124 S 
ATOM     83  O   UNL A   1      33.719  34.096  28.564  1.00  0.00    -0.237 OA
ATOM     84  O   UNL A   1      35.766  33.130  27.579  1.00  0.00    -0.237 OA
ATOM     85  O   UNL A   1      33.787  31.701  27.995  1.00  0.00    -0.744 OA
ENDBRANCH  78  82
ENDBRANCH  51  75
BRANCH  63  86
ATOM     86  C   UNL A   1      42.463  29.645  33.918  1.00  0.00     0.023 A 
ATOM     87  C   UNL A   1      43.107  30.005  35.111  1.00  0.00     0.031 A 
ATOM     88  C   UNL A   1      41.976  28.335  33.805  1.00  0.00     0.131 A 
ATOM     89  C   UNL A   1      43.274  29.058  36.127  1.00  0.00     0.055 A 
ATOM     90  C   UNL A   1      42.058  27.420  34.857  1.00  0.00     0.041 A 
ATOM     91  F   UNL A   1      41.493  27.882  32.646  1.00  0.00    -0.206 F 
ATOM     92  C   UNL A   1      42.723  27.777  36.024  1.00  0.00     0.022 A 
BRANCH  89  93
ATOM     93  S   UNL A   1      44.407  29.391  37.502  1.00  0.00     0.124 S 
ATOM     94  O   UNL A   1      44.506  28.088  38.150  1.00  0.00    -0.237 OA
ATOM     95  O   UNL A   1      45.613  29.837  36.805  1.00  0.00    -0.237 OA
ATOM     96  O   UNL A   1      43.729  30.428  38.273  1.00  0.00    -0.744 OA
ENDBRANCH  89  93
ENDBRANCH  63  86
ENDBRANCH  37  38
ENDBRANCH  30  32
ENDBRANCH  29  30
ENDBRANCH  28  29
ENDBRANCH  27  28
ENDBRANCH   1  27
TORSDOF 21
ENDMDL
MODEL 2
REMARK VINA RESULT:     -10.3      4.611     10.756
REMARK SMILES O=C(CC[NH2+]C[C@H](O)Cn1c2ccccc2c2ccccc21)OCCOC(=O)c1ccc(-c2c3nc(c(-c4cc(S(=O)(=O)[O-])ccc4F)c4ccc([nH]4)c(-c4cc(S(=O)(=O)[O-])ccc4F)c4nc(c(-c5cc(S(=O)(=O)[O-])ccc5F)c5ccc2[nH]5)C=C4)C=C3)cc1
REMARK SMILES IDX 23 1 2 2 1 3 3 4 4 5 5 6 6 9 7 10 9 11 10 12 11 13 22 14
REMARK SMILES IDX 12 15 16 16 17 17 21 18 13 19 15 20 18 21 20 22 14 23 19 24
REMARK SMILES IDX 8 25 24 27 25 28 26 29 27 30 28 31 29 32 30 33 91 34 31 35
REMARK SMILES IDX 90 36 32 37 33 38 34 39 84 40 35 41 89 42 83 43 85 44 36 45
REMARK SMILES IDX 88 46 82 47 81 48 37 50 69 51 49 52 68 53 50 54 53 55 67 56
REMARK SMILES IDX 86 57 51 58 52 59 66 61 87 62 54 63 38 64 39 65 47 66 40 67
REMARK SMILES IDX 46 68 48 69 45 70 41 71 42 72 43 73 44 74 70 75 71 76 79 77
REMARK SMILES IDX 72 78 78 79 80 80 77 81 73 82 74 83 75 84 76 85 55 86 56 87
REMARK SMILES IDX 64 88 57 89 63 90 65 91 62 92 58 93 59 94 60 95 61 96
REMARK H PARENT 5 7 5 8 8 26 85 49 53 60
REMARK Flexibility Score: inf
ROOT
ATOM      1  O   UNL A   1      31.351  28.894  25.243  1.00  0.00    -0.462 OA
ENDROOT
BRANCH   1   2
ATOM      2  C   UNL A   1      31.625  27.654  24.804  1.00  0.00     0.311 C 
ATOM      3  O   UNL A   1      32.088  27.498  23.680  1.00  0.00    -0.252 OA
BRANCH   2   4
ATOM      4  C   UNL A   1      31.295  26.498  25.728  1.00  0.00     0.184 C 
BRANCH   4   5
ATOM      5  C   UNL A   1      30.041  25.657  25.605  1.00  0.00     0.272 C 
BRANCH   5   6
ATOM      6  N   UNL A   1      29.860  24.578  26.558  1.00  0.00    -0.344 N 
ATOM      7  H   UNL A   1      28.878  24.545  26.830  1.00  0.00     0.346 HD
ATOM      8  H   UNL A   1      30.470  24.769  27.353  1.00  0.00     0.346 HD
BRANCH   6   9
ATOM      9  C   UNL A   1      30.240  23.269  26.019  1.00  0.00     0.294 C 
BRANCH   9  10
ATOM     10  C   UNL A   1      31.613  22.771  26.529  1.00  0.00     0.189 C 
BRANCH  10  11
ATOM     11  C   UNL A   1      32.693  22.791  25.442  1.00  0.00     0.160 C 
BRANCH  11  12
ATOM     12  N   UNL A   1      33.774  21.816  25.471  1.00  0.00    -0.338 N 
ATOM     13  C   UNL A   1      35.122  22.166  25.573  1.00  0.00     0.049 A 
ATOM     14  C   UNL A   1      33.651  20.473  25.173  1.00  0.00     0.049 A 
ATOM     15  C   UNL A   1      35.771  23.405  25.753  1.00  0.00     0.027 A 
ATOM     16  C   UNL A   1      35.871  21.019  25.319  1.00  0.00     0.007 A 
ATOM     17  C   UNL A   1      34.948  19.978  25.000  1.00  0.00     0.007 A 
ATOM     18  C   UNL A   1      32.529  19.649  24.990  1.00  0.00     0.027 A 
ATOM     19  C   UNL A   1      37.167  23.482  25.691  1.00  0.00     0.002 A 
ATOM     20  C   UNL A   1      37.287  21.107  25.304  1.00  0.00     0.011 A 
ATOM     21  C   UNL A   1      35.114  18.661  24.528  1.00  0.00     0.011 A 
ATOM     22  C   UNL A   1      32.722  18.333  24.574  1.00  0.00     0.002 A 
ATOM     23  C   UNL A   1      37.923  22.342  25.478  1.00  0.00     0.001 A 
ATOM     24  C   UNL A   1      33.996  17.853  24.315  1.00  0.00     0.001 A 
ENDBRANCH  11  12
ENDBRANCH  10  11
BRANCH  10  25
ATOM     25  O   UNL A   1      32.006  23.614  27.621  1.00  0.00    -0.385 OA
ATOM     26  H   UNL A   1      31.243  24.130  27.921  1.00  0.00     0.211 HD
ENDBRANCH  10  25
ENDBRANCH   9  10
ENDBRANCH   6   9
ENDBRANCH   5   6
ENDBRANCH   4   5
ENDBRANCH   2   4
ENDBRANCH   1   2
BRANCH   1  27
ATOM     27  C   UNL A   1      31.901  29.290  26.508  1.00  0.00     0.274 C 
BRANCH  27  28
ATOM     28  C   UNL A   1      32.795  30.551  26.511  1.00  0.00     0.275 C 
BRANCH  28  29
ATOM     29  O   UNL A   1      33.590  30.642  27.715  1.00  0.00    -0.458 OA
BRANCH  29  30
ATOM     30  C   UNL A   1      34.660  31.503  27.659  1.00  0.00     0.338 C 
ATOM     31  O   UNL A   1      34.592  32.701  27.646  1.00  0.00    -0.246 OA
BRANCH  30  32
ATOM     32  C   UNL A   1      35.915  30.719  27.926  1.00  0.00     0.060 A 
ATOM     33  C   UNL A   1      36.025  29.330  27.740  1.00  0.00     0.016 A 
ATOM     34  C   UNL A   1      36.935  31.401  28.595  1.00  0.00     0.016 A 
ATOM     35  C   UNL A   1      37.099  28.626  28.318  1.00  0.00     0.010 A 
ATOM     36  C   UNL A   1      38.005  30.697  29.159  1.00  0.00     0.010 A 
ATOM     37  C   UNL A   1      38.088  29.302  29.054  1.00  0.00    -0.014 A 
BRANCH  37  38
ATOM     38  C   UNL A   1      39.396  28.682  29.357  1.00  0.00     0.031 A 
ATOM     39  C   UNL A   1      39.725  28.673  30.780  1.00  0.00     0.074 A 
ATOM     40  C   UNL A   1      40.296  28.089  28.543  1.00  0.00     0.049 A 
ATOM     41  N   UNL A   1      40.687  29.376  31.285  1.00  0.00    -0.248 NA
ATOM     42  C   UNL A   1      38.854  28.016  31.749  1.00  0.00     0.031 C 
ATOM     43  C   UNL A   1      40.512  28.417  27.153  1.00  0.00     0.029 A 
ATOM     44  N   UNL A   1      41.233  27.093  28.778  1.00  0.00    -0.354 N 
ATOM     45  C   UNL A   1      40.732  28.997  32.606  1.00  0.00     0.074 A 
ATOM     46  C   UNL A   1      39.459  28.373  32.883  1.00  0.00     0.031 C 
ATOM     47  C   UNL A   1      41.383  27.541  26.614  1.00  0.00     0.029 A 
ATOM     48  C   UNL A   1      41.740  26.539  27.603  1.00  0.00     0.049 A 
ATOM     49  H   UNL A   1      41.511  26.809  29.678  1.00  0.00     0.167 HD
ATOM     50  C   UNL A   1      41.929  28.922  33.245  1.00  0.00     0.034 A 
ATOM     51  C   UNL A   1      42.784  25.709  27.358  1.00  0.00     0.034 A 
ATOM     52  C   UNL A   1      42.992  29.584  32.528  1.00  0.00     0.049 A 
ATOM     53  C   UNL A   1      43.910  26.153  28.201  1.00  0.00     0.074 A 
ATOM     54  C   UNL A   1      43.394  30.886  32.321  1.00  0.00     0.029 A 
ATOM     55  N   UNL A   1      43.655  28.807  31.611  1.00  0.00    -0.354 N 
ATOM     56  N   UNL A   1      44.609  27.226  27.963  1.00  0.00    -0.248 NA
ATOM     57  C   UNL A   1      44.095  25.559  29.523  1.00  0.00     0.031 C 
ATOM     58  C   UNL A   1      44.286  30.876  31.211  1.00  0.00     0.029 A 
ATOM     59  C   UNL A   1      44.404  29.571  30.748  1.00  0.00     0.049 A 
ATOM     60  H   UNL A   1      43.601  27.826  31.575  1.00  0.00     0.167 HD
ATOM     61  C   UNL A   1      44.904  27.695  29.227  1.00  0.00     0.074 A 
ATOM     62  C   UNL A   1      44.742  26.560  30.121  1.00  0.00     0.031 C 
ATOM     63  C   UNL A   1      44.892  29.029  29.497  1.00  0.00     0.034 A 
BRANCH  50  64
ATOM     64  C   UNL A   1      42.211  27.890  34.303  1.00  0.00     0.023 A 
ATOM     65  C   UNL A   1      42.840  26.666  34.010  1.00  0.00     0.031 A 
ATOM     66  C   UNL A   1      42.048  28.191  35.666  1.00  0.00     0.131 A 
ATOM     67  C   UNL A   1      43.207  25.765  35.011  1.00  0.00     0.055 A 
ATOM     68  C   UNL A   1      42.492  27.327  36.675  1.00  0.00     0.041 A 
ATOM     69  F   UNL A   1      41.492  29.348  36.056  1.00  0.00    -0.206 F 
ATOM     70  C   UNL A   1      43.063  26.099  36.351  1.00  0.00     0.022 A 
BRANCH  67  71
ATOM     71  S   UNL A   1      43.867  24.138  34.560  1.00  0.00     0.124 S 
ATOM     72  O   UNL A   1      42.658  23.325  34.517  1.00  0.00    -0.237 OA
ATOM     73  O   UNL A   1      44.492  24.422  33.271  1.00  0.00    -0.237 OA
ATOM     74  O   UNL A   1      44.799  23.836  35.643  1.00  0.00    -0.744 OA
ENDBRANCH  67  71
ENDBRANCH  50  64
BRANCH  51  75
ATOM     75  C   UNL A   1      42.620  24.294  26.927  1.00  0.00     0.023 A 
ATOM     76  C   UNL A   1      43.638  23.588  26.258  1.00  0.00     0.031 A 
ATOM     77  C   UNL A   1      41.398  23.620  27.126  1.00  0.00     0.131 A 
ATOM     78  C   UNL A   1      43.404  22.289  25.773  1.00  0.00     0.055 A 
ATOM     79  C   UNL A   1      41.173  22.321  26.654  1.00  0.00     0.041 A 
ATOM     80  F   UNL A   1      40.390  24.219  27.781  1.00  0.00    -0.206 F 
ATOM     81  C   UNL A   1      42.176  21.651  25.966  1.00  0.00     0.022 A 
BRANCH  78  82
ATOM     82  S   UNL A   1      44.708  21.384  24.890  1.00  0.00     0.124 S 
ATOM     83  O   UNL A   1      44.529  21.833  23.511  1.00  0.00    -0.237 OA
ATOM     84  O   UNL A   1      45.911  21.873  25.555  1.00  0.00    -0.237 OA
ATOM     85  O   UNL A   1      44.366  19.985  25.130  1.00  0.00    -0.744 OA
ENDBRANCH  78  82
ENDBRANCH  51  75
BRANCH  63  86
ATOM     86  C   UNL A   1      45.188  29.979  28.377  1.00  0.00     0.023 A 
ATOM     87  C   UNL A   1      46.528  30.326  28.147  1.00  0.00     0.031 A 
ATOM     88  C   UNL A   1      44.201  30.657  27.647  1.00  0.00     0.131 A 
ATOM     89  C   UNL A   1      46.840  31.343  27.238  1.00  0.00     0.055 A 
ATOM     90  C   UNL A   1      44.519  31.604  26.671  1.00  0.00     0.041 A 
ATOM     91  F   UNL A   1      42.906  30.488  27.926  1.00  0.00    -0.206 F 
ATOM     92  C   UNL A   1      45.847  31.961  26.471  1.00  0.00     0.022 A 
BRANCH  89  93
ATOM     93  S   UNL A   1      48.510  32.046  27.199  1.00  0.00     0.124 S 
ATOM     94  O   UNL A   1      48.653  32.591  28.544  1.00  0.00    -0.237 OA
ATOM     95  O   UNL A   1      49.331  30.871  26.909  1.00  0.00    -0.237 OA
ATOM     96  O   UNL A   1      48.452  33.031  26.123  1.00  0.00    -0.744 OA
ENDBRANCH  89  93
ENDBRANCH  63  86
ENDBRANCH  37  38
ENDBRANCH  30  32
ENDBRANCH  29  30
ENDBRANCH  28  29
ENDBRANCH  27  28
ENDBRANCH   1  27
TORSDOF 21
ENDMDL
MODEL 3
REMARK VINA RESULT:     -10.3      4.741     10.569
REMARK SMILES O=C(CC[NH2+]C[C@H](O)Cn1c2ccccc2c2ccccc21)OCCOC(=O)c1ccc(-c2c3nc(c(-c4cc(S(=O)(=O)[O-])ccc4F)c4ccc([nH]4)c(-c4cc(S(=O)(=O)[O-])ccc4F)c4nc(c(-c5cc(S(=O)(=O)[O-])ccc5F)c5ccc2[nH]5)C=C4)C=C3)cc1
REMARK SMILES IDX 23 1 2 2 1 3 3 4 4 5 5 6 6 9 7 10 9 11 10 12 11 13 22 14
REMARK SMILES IDX 12 15 16 16 17 17 21 18 13 19 15 20 18 21 20 22 14 23 19 24
REMARK SMILES IDX 8 25 24 27 25 28 26 29 27 30 28 31 29 32 30 33 91 34 31 35
REMARK SMILES IDX 90 36 32 37 33 38 34 39 84 40 35 41 89 42 83 43 85 44 36 45
REMARK SMILES IDX 88 46 82 47 81 48 37 50 69 51 49 52 68 53 50 54 53 55 67 56
REMARK SMILES IDX 86 57 51 58 52 59 66 61 87 62 54 63 38 64 39 65 47 66 40 67
REMARK SMILES IDX 46 68 48 69 45 70 41 71 42 72 43 73 44 74 70 75 71 76 79 77
REMARK SMILES IDX 72 78 78 79 80 80 77 81 73 82 74 83 75 84 76 85 55 86 56 87
REMARK SMILES IDX 64 88 57 89 63 90 65 91 62 92 58 93 59 94 60 95 61 96
REMARK H PARENT 5 7 5 8 8 26 85 49 53 60
REMARK Flexibility Score: inf
ROOT
ATOM      1  O   UNL A   1      32.086  28.064  26.280  1.00  0.00    -0.462 OA
ENDROOT
BRANCH   1   2
ATOM      2  C   UNL A   1      31.186  27.197  25.786  1.00  0.00     0.311 C 
ATOM      3  O   UNL A   1      30.656  26.383  26.533  1.00  0.00    -0.252 OA
BRANCH   2   4
ATOM      4  C   UNL A   1      30.910  27.250  24.296  1.00  0.00     0.184 C 
BRANCH   4   5
ATOM      5  C   UNL A   1      30.434  26.060  23.488  1.00  0.00     0.272 C 
BRANCH   5   6
ATOM      6  N   UNL A   1      31.169  25.733  22.280  1.00  0.00    -0.344 N 
ATOM      7  H   UNL A   1      30.952  26.431  21.569  1.00  0.00     0.346 HD
ATOM      8  H   UNL A   1      30.884  24.796  21.995  1.00  0.00     0.346 HD
BRANCH   6   9
ATOM      9  C   UNL A   1      32.620  25.707  22.482  1.00  0.00     0.294 C 
BRANCH   9  10
ATOM     10  C   UNL A   1      33.334  24.608  21.660  1.00  0.00     0.189 C 
BRANCH  10  11
ATOM     11  C   UNL A   1      33.170  23.210  22.267  1.00  0.00     0.160 C 
BRANCH  11  12
ATOM     12  N   UNL A   1      33.576  22.962  23.644  1.00  0.00    -0.338 N 
ATOM     13  C   UNL A   1      32.674  22.880  24.706  1.00  0.00     0.049 A 
ATOM     14  C   UNL A   1      34.871  23.011  24.120  1.00  0.00     0.049 A 
ATOM     15  C   UNL A   1      31.265  22.909  24.762  1.00  0.00     0.027 A 
ATOM     16  C   UNL A   1      33.417  22.889  25.886  1.00  0.00     0.007 A 
ATOM     17  C   UNL A   1      34.787  23.043  25.515  1.00  0.00     0.007 A 
ATOM     18  C   UNL A   1      36.112  23.078  23.465  1.00  0.00     0.027 A 
ATOM     19  C   UNL A   1      30.611  22.935  26.000  1.00  0.00     0.002 A 
ATOM     20  C   UNL A   1      32.738  22.870  27.131  1.00  0.00     0.011 A 
ATOM     21  C   UNL A   1      35.963  23.256  26.261  1.00  0.00     0.011 A 
ATOM     22  C   UNL A   1      37.267  23.235  24.229  1.00  0.00     0.002 A 
ATOM     23  C   UNL A   1      31.339  22.905  27.177  1.00  0.00     0.001 A 
ATOM     24  C   UNL A   1      37.193  23.356  25.607  1.00  0.00     0.001 A 
ENDBRANCH  11  12
ENDBRANCH  10  11
BRANCH  10  25
ATOM     25  O   UNL A   1      32.786  24.629  20.334  1.00  0.00    -0.385 OA
ATOM     26  H   UNL A   1      33.349  24.105  19.744  1.00  0.00     0.211 HD
ENDBRANCH  10  25
ENDBRANCH   9  10
ENDBRANCH   6   9
ENDBRANCH   5   6
ENDBRANCH   4   5
ENDBRANCH   2   4
ENDBRANCH   1   2
BRANCH   1  27
ATOM     27  C   UNL A   1      32.264  29.307  25.585  1.00  0.00     0.274 C 
BRANCH  27  28
ATOM     28  C   UNL A   1      32.455  30.568  26.459  1.00  0.00     0.275 C 
BRANCH  28  29
ATOM     29  O   UNL A   1      33.387  30.335  27.539  1.00  0.00    -0.458 OA
BRANCH  29  30
ATOM     30  C   UNL A   1      34.203  31.394  27.862  1.00  0.00     0.338 C 
ATOM     31  O   UNL A   1      33.848  32.533  27.995  1.00  0.00    -0.246 OA
BRANCH  30  32
ATOM     32  C   UNL A   1      35.529  30.850  28.316  1.00  0.00     0.060 A 
ATOM     33  C   UNL A   1      36.564  31.646  28.835  1.00  0.00     0.016 A 
ATOM     34  C   UNL A   1      35.790  29.516  27.990  1.00  0.00     0.016 A 
ATOM     35  C   UNL A   1      37.872  31.129  28.922  1.00  0.00     0.010 A 
ATOM     36  C   UNL A   1      37.089  29.006  28.088  1.00  0.00     0.010 A 
ATOM     37  C   UNL A   1      38.151  29.809  28.526  1.00  0.00    -0.014 A 
BRANCH  37  38
ATOM     38  C   UNL A   1      39.393  29.118  28.932  1.00  0.00     0.031 A 
ATOM     39  C   UNL A   1      39.631  29.139  30.373  1.00  0.00     0.074 A 
ATOM     40  C   UNL A   1      40.301  28.439  28.197  1.00  0.00     0.049 A 
ATOM     41  N   UNL A   1      40.605  29.797  30.916  1.00  0.00    -0.248 NA
ATOM     42  C   UNL A   1      38.660  28.575  31.304  1.00  0.00     0.031 C 
ATOM     43  C   UNL A   1      40.624  28.702  26.814  1.00  0.00     0.029 A 
ATOM     44  N   UNL A   1      41.153  27.394  28.524  1.00  0.00    -0.354 N 
ATOM     45  C   UNL A   1      40.542  29.464  32.249  1.00  0.00     0.074 A 
ATOM     46  C   UNL A   1      39.215  28.934  32.463  1.00  0.00     0.031 C 
ATOM     47  C   UNL A   1      41.467  27.752  26.361  1.00  0.00     0.029 A 
ATOM     48  C   UNL A   1      41.694  26.766  27.402  1.00  0.00     0.049 A 
ATOM     49  H   UNL A   1      41.354  27.125  29.449  1.00  0.00     0.167 HD
ATOM     50  C   UNL A   1      41.690  29.335  32.966  1.00  0.00     0.034 A 
ATOM     51  C   UNL A   1      42.694  25.862  27.252  1.00  0.00     0.034 A 
ATOM     52  C   UNL A   1      42.836  29.901  32.298  1.00  0.00     0.049 A 
ATOM     53  C   UNL A   1      43.791  26.262  28.151  1.00  0.00     0.074 A 
ATOM     54  C   UNL A   1      43.337  31.165  32.075  1.00  0.00     0.029 A 
ATOM     55  N   UNL A   1      43.502  29.050  31.451  1.00  0.00    -0.354 N 
ATOM     56  N   UNL A   1      44.574  27.279  27.925  1.00  0.00    -0.248 NA
ATOM     57  C   UNL A   1      43.853  25.706  29.501  1.00  0.00     0.031 C 
ATOM     58  C   UNL A   1      44.293  31.057  31.026  1.00  0.00     0.029 A 
ATOM     59  C   UNL A   1      44.353  29.731  30.614  1.00  0.00     0.049 A 
ATOM     60  H   UNL A   1      43.385  28.073  31.443  1.00  0.00     0.167 HD
ATOM     61  C   UNL A   1      44.820  27.773  29.190  1.00  0.00     0.074 A 
ATOM     62  C   UNL A   1      44.528  26.684  30.107  1.00  0.00     0.031 C 
ATOM     63  C   UNL A   1      44.880  29.114  29.415  1.00  0.00     0.034 A 
BRANCH  50  64
ATOM     64  C   UNL A   1      41.835  28.326  34.073  1.00  0.00     0.023 A 
ATOM     65  C   UNL A   1      42.533  27.116  33.899  1.00  0.00     0.031 A 
ATOM     66  C   UNL A   1      41.461  28.640  35.389  1.00  0.00     0.131 A 
ATOM     67  C   UNL A   1      42.768  26.240  34.960  1.00  0.00     0.055 A 
ATOM     68  C   UNL A   1      41.769  27.803  36.469  1.00  0.00     0.041 A 
ATOM     69  F   UNL A   1      40.822  29.786  35.671  1.00  0.00    -0.206 F 
ATOM     70  C   UNL A   1      42.416  26.588  36.256  1.00  0.00     0.022 A 
BRANCH  67  71
ATOM     71  S   UNL A   1      43.531  24.627  34.642  1.00  0.00     0.124 S 
ATOM     72  O   UNL A   1      44.054  24.802  33.292  1.00  0.00    -0.237 OA
ATOM     73  O   UNL A   1      44.526  24.557  35.708  1.00  0.00    -0.237 OA
ATOM     74  O   UNL A   1      42.418  23.691  34.776  1.00  0.00    -0.744 OA
ENDBRANCH  67  71
ENDBRANCH  50  64
BRANCH  51  75
ATOM     75  C   UNL A   1      42.462  24.445  26.857  1.00  0.00     0.023 A 
ATOM     76  C   UNL A   1      43.420  23.697  26.148  1.00  0.00     0.031 A 
ATOM     77  C   UNL A   1      41.233  23.814  27.135  1.00  0.00     0.131 A 
ATOM     78  C   UNL A   1      43.120  22.397  25.700  1.00  0.00     0.055 A 
ATOM     79  C   UNL A   1      40.943  22.516  26.700  1.00  0.00     0.041 A 
ATOM     80  F   UNL A   1      40.282  24.456  27.832  1.00  0.00    -0.206 F 
ATOM     81  C   UNL A   1      41.885  21.802  25.971  1.00  0.00     0.022 A 
BRANCH  78  82
ATOM     82  S   UNL A   1      44.345  21.437  24.765  1.00  0.00     0.124 S 
ATOM     83  O   UNL A   1      45.549  21.577  25.581  1.00  0.00    -0.237 OA
ATOM     84  O   UNL A   1      43.742  20.108  24.763  1.00  0.00    -0.237 OA
ATOM     85  O   UNL A   1      44.393  22.120  23.476  1.00  0.00    -0.744 OA
ENDBRANCH  78  82
ENDBRANCH  51  75
BRANCH  63  86
ATOM     86  C   UNL A   1      45.309  30.002  28.286  1.00  0.00     0.023 A 
ATOM     87  C   UNL A   1      46.684  30.194  28.088  1.00  0.00     0.031 A 
ATOM     88  C   UNL A   1      44.422  30.769  27.518  1.00  0.00     0.131 A 
ATOM     89  C   UNL A   1      47.130  31.151  27.169  1.00  0.00     0.055 A 
ATOM     90  C   UNL A   1      44.868  31.654  26.533  1.00  0.00     0.041 A 
ATOM     91  F   UNL A   1      43.110  30.750  27.764  1.00  0.00    -0.206 F 
ATOM     92  C   UNL A   1      46.232  31.858  26.364  1.00  0.00     0.022 A 
BRANCH  89  93
ATOM     93  S   UNL A   1      48.868  31.664  27.164  1.00  0.00     0.124 S 
ATOM     94  O   UNL A   1      49.152  31.826  28.585  1.00  0.00    -0.237 OA
ATOM     95  O   UNL A   1      49.523  30.525  26.520  1.00  0.00    -0.237 OA
ATOM     96  O   UNL A   1      48.869  32.894  26.377  1.00  0.00    -0.744 OA
ENDBRANCH  89  93
ENDBRANCH  63  86
ENDBRANCH  37  38
ENDBRANCH  30  32
ENDBRANCH  29  30
ENDBRANCH  28  29
ENDBRANCH  27  28
ENDBRANCH   1  27
TORSDOF 21
ENDMDL
