MODEL 1
REMARK VINA RESULT:     -11.5      0.000      0.000
REMARK SMILES COc1ccccc1-c1ccc(O)c(C(=O)OCCOC(=O)c2ccc(-c3c4nc(c(-c5cc(S(=O)(=O)[O-])ccc5F)c5ccc([nH]5)c(-c5cc(S(=O)(=O)[O-])ccc5F)c5nc(c(-c6cc(S(=O)(=O)[O-])ccc6F)c6ccc3[nH]6)C=C5)C=C4)cc2)c1
REMARK SMILES IDX 19 1 18 2 17 3 15 4 16 5 14 6 9 7 10 8 86 9 11 10 12 11 8 12
REMARK SMILES IDX 3 13 4 14 5 15 7 16 6 17 2 18 1 19 13 20 20 22 21 23 22 24
REMARK SMILES IDX 23 25 24 26 85 27 25 28 84 29 26 30 27 31 28 32 78 33 29 34
REMARK SMILES IDX 83 35 77 36 79 37 30 38 82 39 76 40 75 41 31 43 63 44 43 45
REMARK SMILES IDX 62 46 44 47 47 48 61 49 80 50 45 51 46 52 60 54 81 55 48 56
REMARK SMILES IDX 32 57 33 58 41 59 34 60 40 61 42 62 39 63 35 64 36 65 37 66
REMARK SMILES IDX 38 67 64 68 65 69 73 70 66 71 72 72 74 73 71 74 67 75 68 76
REMARK SMILES IDX 69 77 70 78 49 79 50 80 58 81 51 82 57 83 59 84 56 85 52 86
REMARK SMILES IDX 53 87 54 88 55 89
REMARK H PARENT 13 21 79 42 47 53
REMARK Flexibility Score: inf
ROOT
ATOM      1  C   UNL A   1      31.708  29.800  25.431  1.00  0.00     0.275 C 
ENDROOT
BRANCH   1   2
ATOM      2  C   UNL A   1      31.537  28.278  25.401  1.00  0.00     0.275 C 
BRANCH   2   3
ATOM      3  O   UNL A   1      30.637  27.875  24.353  1.00  0.00    -0.458 OA
BRANCH   3   4
ATOM      4  C   UNL A   1      30.299  26.564  24.331  1.00  0.00     0.342 C 
ATOM      5  O   UNL A   1      29.290  26.067  24.815  1.00  0.00    -0.246 OA
BRANCH   4   6
ATOM      6  C   UNL A   1      31.271  25.754  23.558  1.00  0.00     0.102 A 
ATOM      7  C   UNL A   1      32.733  23.815  23.318  1.00  0.00    -0.014 A 
ATOM      8  C   UNL A   1      33.147  24.306  22.068  1.00  0.00     0.013 A 
ATOM      9  C   UNL A   1      31.840  24.587  24.084  1.00  0.00     0.028 A 
ATOM     10  C   UNL A   1      32.586  25.465  21.538  1.00  0.00     0.048 A 
ATOM     11  C   UNL A   1      31.615  26.154  22.258  1.00  0.00     0.130 A 
BRANCH   7  12
ATOM     12  C   UNL A   1      33.095  22.448  23.723  1.00  0.00     0.024 A 
ATOM     13  C   UNL A   1      34.296  22.178  24.415  1.00  0.00     0.126 A 
ATOM     14  C   UNL A   1      34.612  20.882  24.833  1.00  0.00     0.047 A 
ATOM     15  C   UNL A   1      33.721  19.837  24.601  1.00  0.00     0.004 A 
ATOM     16  C   UNL A   1      32.219  21.374  23.488  1.00  0.00     0.012 A 
ATOM     17  C   UNL A   1      32.528  20.082  23.926  1.00  0.00     0.001 A 
BRANCH  13  18
ATOM     18  O   UNL A   1      35.252  23.135  24.663  1.00  0.00    -0.496 OA
ATOM     19  C   UNL A   1      36.367  23.029  23.773  1.00  0.00     0.278 C 
ENDBRANCH  13  18
ENDBRANCH   7  12
BRANCH  11  20
ATOM     20  O   UNL A   1      31.054  27.228  21.622  1.00  0.00    -0.507 OA
ATOM     21  H   UNL A   1      30.259  27.123  21.138  1.00  0.00     0.293 HD
ENDBRANCH  11  20
ENDBRANCH   4   6
ENDBRANCH   3   4
ENDBRANCH   2   3
ENDBRANCH   1   2
BRANCH   1  22
ATOM     22  O   UNL A   1      33.055  30.167  25.783  1.00  0.00    -0.458 OA
BRANCH  22  23
ATOM     23  C   UNL A   1      33.162  31.091  26.769  1.00  0.00     0.338 C 
ATOM     24  O   UNL A   1      32.298  31.878  27.128  1.00  0.00    -0.246 OA
BRANCH  23  25
ATOM     25  C   UNL A   1      34.425  30.885  27.500  1.00  0.00     0.060 A 
ATOM     26  C   UNL A   1      34.711  29.585  27.923  1.00  0.00     0.016 A 
ATOM     27  C   UNL A   1      35.312  31.926  27.786  1.00  0.00     0.016 A 
ATOM     28  C   UNL A   1      35.906  29.299  28.577  1.00  0.00     0.010 A 
ATOM     29  C   UNL A   1      36.494  31.647  28.487  1.00  0.00     0.010 A 
ATOM     30  C   UNL A   1      36.801  30.331  28.878  1.00  0.00    -0.014 A 
BRANCH  30  31
ATOM     31  C   UNL A   1      37.998  30.029  29.700  1.00  0.00     0.031 A 
ATOM     32  C   UNL A   1      39.035  29.088  29.157  1.00  0.00     0.074 A 
ATOM     33  C   UNL A   1      38.183  30.628  30.891  1.00  0.00     0.049 A 
ATOM     34  N   UNL A   1      40.128  28.644  29.719  1.00  0.00    -0.248 NA
ATOM     35  C   UNL A   1      38.809  28.586  27.793  1.00  0.00     0.031 C 
ATOM     36  C   UNL A   1      37.286  31.621  31.481  1.00  0.00     0.029 A 
ATOM     37  N   UNL A   1      39.185  30.487  31.818  1.00  0.00    -0.354 N 
ATOM     38  C   UNL A   1      40.720  27.803  28.783  1.00  0.00     0.074 A 
ATOM     39  C   UNL A   1      39.851  27.787  27.625  1.00  0.00     0.031 C 
ATOM     40  C   UNL A   1      37.769  31.984  32.682  1.00  0.00     0.029 A 
ATOM     41  C   UNL A   1      38.984  31.222  32.964  1.00  0.00     0.049 A 
ATOM     42  H   UNL A   1      39.973  29.915  31.676  1.00  0.00     0.167 HD
ATOM     43  C   UNL A   1      41.879  27.107  28.886  1.00  0.00     0.034 A 
ATOM     44  C   UNL A   1      39.679  31.244  34.120  1.00  0.00     0.034 A 
ATOM     45  C   UNL A   1      42.726  27.124  30.054  1.00  0.00     0.049 A 
ATOM     46  C   UNL A   1      40.914  30.381  34.248  1.00  0.00     0.074 A 
ATOM     47  C   UNL A   1      43.922  26.458  30.260  1.00  0.00     0.029 A 
ATOM     48  N   UNL A   1      42.461  27.832  31.220  1.00  0.00    -0.354 N 
ATOM     49  N   UNL A   1      41.459  29.580  33.361  1.00  0.00    -0.248 NA
ATOM     50  C   UNL A   1      41.626  30.426  35.532  1.00  0.00     0.031 C 
ATOM     51  C   UNL A   1      44.340  26.702  31.573  1.00  0.00     0.029 A 
ATOM     52  C   UNL A   1      43.449  27.585  32.162  1.00  0.00     0.049 A 
ATOM     53  H   UNL A   1      41.685  28.420  31.358  1.00  0.00     0.167 HD
ATOM     54  C   UNL A   1      42.593  29.050  33.973  1.00  0.00     0.074 A 
ATOM     55  C   UNL A   1      42.661  29.634  35.296  1.00  0.00     0.031 C 
ATOM     56  C   UNL A   1      43.500  28.166  33.484  1.00  0.00     0.034 A 
BRANCH  43  57
ATOM     57  C   UNL A   1      42.251  26.212  27.731  1.00  0.00     0.023 A 
ATOM     58  C   UNL A   1      41.792  24.887  27.633  1.00  0.00     0.031 A 
ATOM     59  C   UNL A   1      43.109  26.689  26.724  1.00  0.00     0.131 A 
ATOM     60  C   UNL A   1      42.242  24.068  26.585  1.00  0.00     0.055 A 
ATOM     61  C   UNL A   1      43.495  25.893  25.646  1.00  0.00     0.041 A 
ATOM     62  F   UNL A   1      43.599  27.938  26.780  1.00  0.00    -0.206 F 
ATOM     63  C   UNL A   1      43.071  24.569  25.578  1.00  0.00     0.022 A 
BRANCH  60  64
ATOM     64  S   UNL A   1      41.833  22.301  26.625  1.00  0.00     0.124 S 
ATOM     65  O   UNL A   1      42.434  21.829  25.381  1.00  0.00    -0.237 OA
ATOM     66  O   UNL A   1      42.475  21.855  27.855  1.00  0.00    -0.237 OA
ATOM     67  O   UNL A   1      40.371  22.288  26.645  1.00  0.00    -0.744 OA
ENDBRANCH  60  64
ENDBRANCH  43  57
BRANCH  44  68
ATOM     68  C   UNL A   1      39.196  32.049  35.281  1.00  0.00     0.023 A 
ATOM     69  C   UNL A   1      39.632  33.366  35.497  1.00  0.00     0.031 A 
ATOM     70  C   UNL A   1      38.343  31.473  36.242  1.00  0.00     0.131 A 
ATOM     71  C   UNL A   1      39.258  34.045  36.669  1.00  0.00     0.055 A 
ATOM     72  C   UNL A   1      37.927  32.172  37.376  1.00  0.00     0.041 A 
ATOM     73  F   UNL A   1      37.902  30.214  36.093  1.00  0.00    -0.206 F 
ATOM     74  C   UNL A   1      38.398  33.462  37.602  1.00  0.00     0.022 A 
BRANCH  71  75
ATOM     75  S   UNL A   1      39.997  35.666  37.011  1.00  0.00     0.124 S 
ATOM     76  O   UNL A   1      39.309  36.052  38.238  1.00  0.00    -0.237 OA
ATOM     77  O   UNL A   1      41.411  35.334  37.145  1.00  0.00    -0.237 OA
ATOM     78  O   UNL A   1      39.652  36.454  35.829  1.00  0.00    -0.744 OA
ENDBRANCH  71  75
ENDBRANCH  44  68
BRANCH  56  79
ATOM     79  C   UNL A   1      44.669  27.815  34.373  1.00  0.00     0.023 A 
ATOM     80  C   UNL A   1      44.633  26.718  35.251  1.00  0.00     0.031 A 
ATOM     81  C   UNL A   1      45.838  28.597  34.343  1.00  0.00     0.131 A 
ATOM     82  C   UNL A   1      45.722  26.463  36.099  1.00  0.00     0.055 A 
ATOM     83  C   UNL A   1      46.941  28.305  35.145  1.00  0.00     0.041 A 
ATOM     84  F   UNL A   1      45.928  29.659  33.524  1.00  0.00    -0.206 F 
ATOM     85  C   UNL A   1      46.882  27.240  36.039  1.00  0.00     0.022 A 
BRANCH  82  86
ATOM     86  S   UNL A   1      45.574  25.153  37.344  1.00  0.00     0.124 S 
ATOM     87  O   UNL A   1      44.133  25.108  37.570  1.00  0.00    -0.237 OA
ATOM     88  O   UNL A   1      46.147  24.001  36.656  1.00  0.00    -0.237 OA
ATOM     89  O   UNL A   1      46.362  25.656  38.468  1.00  0.00    -0.744 OA
ENDBRANCH  82  86
ENDBRANCH  56  79
ENDBRANCH  30  31
ENDBRANCH  23  25
ENDBRANCH  22  23
ENDBRANCH   1  22
TORSDOF 17
ENDMDL
MODEL 2
REMARK VINA RESULT:     -11.5      4.985      7.557
REMARK SMILES COc1ccccc1-c1ccc(O)c(C(=O)OCCOC(=O)c2ccc(-c3c4nc(c(-c5cc(S(=O)(=O)[O-])ccc5F)c5ccc([nH]5)c(-c5cc(S(=O)(=O)[O-])ccc5F)c5nc(c(-c6cc(S(=O)(=O)[O-])ccc6F)c6ccc3[nH]6)C=C5)C=C4)cc2)c1
REMARK SMILES IDX 19 1 18 2 17 3 15 4 16 5 14 6 9 7 10 8 86 9 11 10 12 11 8 12
REMARK SMILES IDX 3 13 4 14 5 15 7 16 6 17 2 18 1 19 13 20 20 22 21 23 22 24
REMARK SMILES IDX 23 25 24 26 85 27 25 28 84 29 26 30 27 31 28 32 78 33 29 34
REMARK SMILES IDX 83 35 77 36 79 37 30 38 82 39 76 40 75 41 31 43 63 44 43 45
REMARK SMILES IDX 62 46 44 47 47 48 61 49 80 50 45 51 46 52 60 54 81 55 48 56
REMARK SMILES IDX 32 57 33 58 41 59 34 60 40 61 42 62 39 63 35 64 36 65 37 66
REMARK SMILES IDX 38 67 64 68 65 69 73 70 66 71 72 72 74 73 71 74 67 75 68 76
REMARK SMILES IDX 69 77 70 78 49 79 50 80 58 81 51 82 57 83 59 84 56 85 52 86
REMARK SMILES IDX 53 87 54 88 55 89
REMARK H PARENT 13 21 79 42 47 53
REMARK Flexibility Score: inf
ROOT
ATOM      1  C   UNL A   1      37.244  20.310  25.004  1.00  0.00     0.275 C 
ENDROOT
BRANCH   1   2
ATOM      2  C   UNL A   1      35.769  20.721  25.042  1.00  0.00     0.275 C 
BRANCH   2   3
ATOM      3  O   UNL A   1      35.575  21.894  25.853  1.00  0.00    -0.458 OA
BRANCH   3   4
ATOM      4  C   UNL A   1      34.411  21.955  26.542  1.00  0.00     0.342 C 
ATOM      5  O   UNL A   1      34.173  21.415  27.614  1.00  0.00    -0.246 OA
BRANCH   4   6
ATOM      6  C   UNL A   1      33.425  22.847  25.884  1.00  0.00     0.102 A 
ATOM      7  C   UNL A   1      32.786  25.001  24.932  1.00  0.00    -0.014 A 
ATOM      8  C   UNL A   1      31.497  24.493  24.697  1.00  0.00     0.013 A 
ATOM      9  C   UNL A   1      33.725  24.183  25.590  1.00  0.00     0.028 A 
ATOM     10  C   UNL A   1      31.192  23.166  24.988  1.00  0.00     0.048 A 
ATOM     11  C   UNL A   1      32.169  22.335  25.528  1.00  0.00     0.130 A 
BRANCH   7  12
ATOM     12  C   UNL A   1      33.182  26.290  24.345  1.00  0.00     0.024 A 
ATOM     13  C   UNL A   1      33.508  26.407  22.975  1.00  0.00     0.126 A 
ATOM     14  C   UNL A   1      33.842  27.643  22.416  1.00  0.00     0.047 A 
ATOM     15  C   UNL A   1      33.822  28.793  23.202  1.00  0.00     0.004 A 
ATOM     16  C   UNL A   1      33.184  27.462  25.120  1.00  0.00     0.012 A 
ATOM     17  C   UNL A   1      33.498  28.702  24.553  1.00  0.00     0.001 A 
BRANCH  13  18
ATOM     18  O   UNL A   1      33.587  25.328  22.126  1.00  0.00    -0.496 OA
ATOM     19  C   UNL A   1      32.689  25.442  21.019  1.00  0.00     0.278 C 
ENDBRANCH  13  18
ENDBRANCH   7  12
BRANCH  11  20
ATOM     20  O   UNL A   1      31.809  21.026  25.695  1.00  0.00    -0.507 OA
ATOM     21  H   UNL A   1      31.225  20.618  25.085  1.00  0.00     0.293 HD
ENDBRANCH  11  20
ENDBRANCH   4   6
ENDBRANCH   3   4
ENDBRANCH   2   3
ENDBRANCH   1   2
BRANCH   1  22
ATOM     22  O   UNL A   1      38.106  21.435  25.260  1.00  0.00    -0.458 OA
BRANCH  22  23
ATOM     23  C   UNL A   1      39.158  21.181  26.076  1.00  0.00     0.338 C 
ATOM     24  O   UNL A   1      39.685  20.096  26.272  1.00  0.00    -0.246 OA
BRANCH  23  25
ATOM     25  C   UNL A   1      39.720  22.454  26.563  1.00  0.00     0.060 A 
ATOM     26  C   UNL A   1      39.161  23.631  26.058  1.00  0.00     0.016 A 
ATOM     27  C   UNL A   1      40.776  22.516  27.476  1.00  0.00     0.016 A 
ATOM     28  C   UNL A   1      39.603  24.873  26.504  1.00  0.00     0.010 A 
ATOM     29  C   UNL A   1      41.254  23.767  27.888  1.00  0.00     0.010 A 
ATOM     30  C   UNL A   1      40.664  24.952  27.411  1.00  0.00    -0.014 A 
BRANCH  30  31
ATOM     31  C   UNL A   1      41.214  26.284  27.763  1.00  0.00     0.031 A 
ATOM     32  C   UNL A   1      42.621  26.619  27.363  1.00  0.00     0.074 A 
ATOM     33  C   UNL A   1      40.448  27.201  28.382  1.00  0.00     0.049 A 
ATOM     34  N   UNL A   1      43.320  27.696  27.607  1.00  0.00    -0.248 NA
ATOM     35  C   UNL A   1      43.334  25.602  26.575  1.00  0.00     0.031 C 
ATOM     36  C   UNL A   1      39.043  27.018  28.744  1.00  0.00     0.029 A 
ATOM     37  N   UNL A   1      40.745  28.469  28.818  1.00  0.00    -0.354 N 
ATOM     38  C   UNL A   1      44.559  27.488  27.012  1.00  0.00     0.074 A 
ATOM     39  C   UNL A   1      44.518  26.171  26.410  1.00  0.00     0.031 C 
ATOM     40  C   UNL A   1      38.606  28.127  29.367  1.00  0.00     0.029 A 
ATOM     41  C   UNL A   1      39.708  29.080  29.485  1.00  0.00     0.049 A 
ATOM     42  H   UNL A   1      41.617  28.899  28.668  1.00  0.00     0.167 HD
ATOM     43  C   UNL A   1      45.630  28.318  26.976  1.00  0.00     0.034 A 
ATOM     44  C   UNL A   1      39.667  30.255  30.148  1.00  0.00     0.034 A 
ATOM     45  C   UNL A   1      45.657  29.623  27.593  1.00  0.00     0.049 A 
ATOM     46  C   UNL A   1      40.907  31.119  30.179  1.00  0.00     0.074 A 
ATOM     47  C   UNL A   1      46.690  30.545  27.613  1.00  0.00     0.029 A 
ATOM     48  N   UNL A   1      44.610  30.186  28.312  1.00  0.00    -0.354 N 
ATOM     49  N   UNL A   1      42.078  30.908  29.623  1.00  0.00    -0.248 NA
ATOM     50  C   UNL A   1      40.820  32.380  30.928  1.00  0.00     0.031 C 
ATOM     51  C   UNL A   1      46.295  31.629  28.405  1.00  0.00     0.029 A 
ATOM     52  C   UNL A   1      44.987  31.423  28.813  1.00  0.00     0.049 A 
ATOM     53  H   UNL A   1      43.730  29.767  28.448  1.00  0.00     0.167 HD
ATOM     54  C   UNL A   1      42.854  32.023  29.931  1.00  0.00     0.074 A 
ATOM     55  C   UNL A   1      42.013  32.909  30.709  1.00  0.00     0.031 C 
ATOM     56  C   UNL A   1      44.142  32.294  29.598  1.00  0.00     0.034 A 
BRANCH  43  57
ATOM     57  C   UNL A   1      46.881  27.803  26.311  1.00  0.00     0.023 A 
ATOM     58  C   UNL A   1      47.154  28.036  24.951  1.00  0.00     0.031 A 
ATOM     59  C   UNL A   1      47.802  27.038  27.047  1.00  0.00     0.131 A 
ATOM     60  C   UNL A   1      48.287  27.458  24.358  1.00  0.00     0.055 A 
ATOM     61  C   UNL A   1      48.964  26.525  26.469  1.00  0.00     0.041 A 
ATOM     62  F   UNL A   1      47.579  26.762  28.342  1.00  0.00    -0.206 F 
ATOM     63  C   UNL A   1      49.206  26.724  25.113  1.00  0.00     0.022 A 
BRANCH  60  64
ATOM     64  S   UNL A   1      48.479  27.568  22.557  1.00  0.00     0.124 S 
ATOM     65  O   UNL A   1      49.749  28.279  22.436  1.00  0.00    -0.237 OA
ATOM     66  O   UNL A   1      48.489  26.167  22.154  1.00  0.00    -0.237 OA
ATOM     67  O   UNL A   1      47.305  28.330  22.134  1.00  0.00    -0.744 OA
ENDBRANCH  60  64
ENDBRANCH  43  57
BRANCH  44  68
ATOM     68  C   UNL A   1      38.444  30.660  30.901  1.00  0.00     0.023 A 
ATOM     69  C   UNL A   1      37.397  31.362  30.281  1.00  0.00     0.031 A 
ATOM     70  C   UNL A   1      38.344  30.416  32.284  1.00  0.00     0.131 A 
ATOM     71  C   UNL A   1      36.323  31.840  31.050  1.00  0.00     0.055 A 
ATOM     72  C   UNL A   1      37.246  30.842  33.033  1.00  0.00     0.041 A 
ATOM     73  F   UNL A   1      39.319  29.758  32.930  1.00  0.00    -0.206 F 
ATOM     74  C   UNL A   1      36.234  31.572  32.419  1.00  0.00     0.022 A 
BRANCH  71  75
ATOM     75  S   UNL A   1      35.090  32.909  30.258  1.00  0.00     0.124 S 
ATOM     76  O   UNL A   1      35.918  34.007  29.771  1.00  0.00    -0.237 OA
ATOM     77  O   UNL A   1      34.532  32.025  29.240  1.00  0.00    -0.237 OA
ATOM     78  O   UNL A   1      34.181  33.250  31.351  1.00  0.00    -0.744 OA
ENDBRANCH  71  75
ENDBRANCH  44  68
BRANCH  56  79
ATOM     79  C   UNL A   1      44.702  33.626  30.036  1.00  0.00     0.023 A 
ATOM     80  C   UNL A   1      44.534  34.792  29.269  1.00  0.00     0.031 A 
ATOM     81  C   UNL A   1      45.422  33.727  31.240  1.00  0.00     0.131 A 
ATOM     82  C   UNL A   1      45.120  35.997  29.689  1.00  0.00     0.055 A 
ATOM     83  C   UNL A   1      45.953  34.938  31.683  1.00  0.00     0.041 A 
ATOM     84  F   UNL A   1      45.616  32.644  32.013  1.00  0.00    -0.206 F 
ATOM     85  C   UNL A   1      45.813  36.080  30.899  1.00  0.00     0.022 A 
BRANCH  82  86
ATOM     86  S   UNL A   1      45.037  37.439  28.592  1.00  0.00     0.124 S 
ATOM     87  O   UNL A   1      45.309  36.845  27.287  1.00  0.00    -0.237 OA
ATOM     88  O   UNL A   1      43.674  37.915  28.803  1.00  0.00    -0.237 OA
ATOM     89  O   UNL A   1      46.087  38.320  29.102  1.00  0.00    -0.744 OA
ENDBRANCH  82  86
ENDBRANCH  56  79
ENDBRANCH  30  31
ENDBRANCH  23  25
ENDBRANCH  22  23
ENDBRANCH   1  22
TORSDOF 17
ENDMDL
MODEL 3
REMARK VINA RESULT:     -11.5      5.070     10.038
REMARK SMILES COc1ccccc1-c1ccc(O)c(C(=O)OCCOC(=O)c2ccc(-c3c4nc(c(-c5cc(S(=O)(=O)[O-])ccc5F)c5ccc([nH]5)c(-c5cc(S(=O)(=O)[O-])ccc5F)c5nc(c(-c6cc(S(=O)(=O)[O-])ccc6F)c6ccc3[nH]6)C=C5)C=C4)cc2)c1
REMARK SMILES IDX 19 1 18 2 17 3 15 4 16 5 14 6 9 7 10 8 86 9 11 10 12 11 8 12
REMARK SMILES IDX 3 13 4 14 5 15 7 16 6 17 2 18 1 19 13 20 20 22 21 23 22 24
REMARK SMILES IDX 23 25 24 26 85 27 25 28 84 29 26 30 27 31 28 32 78 33 29 34
REMARK SMILES IDX 83 35 77 36 79 37 30 38 82 39 76 40 75 41 31 43 63 44 43 45
REMARK SMILES IDX 62 46 44 47 47 48 61 49 80 50 45 51 46 52 60 54 81 55 48 56
REMARK SMILES IDX 32 57 33 58 41 59 34 60 40 61 42 62 39 63 35 64 36 65 37 66
REMARK SMILES IDX 38 67 64 68 65 69 73 70 66 71 72 72 74 73 71 74 67 75 68 76
REMARK SMILES IDX 69 77 70 78 49 79 50 80 58 81 51 82 57 83 59 84 56 85 52 86
REMARK SMILES IDX 53 87 54 88 55 89
REMARK H PARENT 13 21 79 42 47 53
REMARK Flexibility Score: inf
ROOT
ATOM      1  C   UNL A   1      36.704  20.527  24.991  1.00  0.00     0.275 C 
ENDROOT
BRANCH   1   2
ATOM      2  C   UNL A   1      35.206  20.847  24.984  1.00  0.00     0.275 C 
BRANCH   2   3
ATOM      3  O   UNL A   1      34.936  22.096  25.647  1.00  0.00    -0.458 OA
BRANCH   3   4
ATOM      4  C   UNL A   1      34.022  22.054  26.645  1.00  0.00     0.342 C 
ATOM      5  O   UNL A   1      34.116  21.423  27.689  1.00  0.00    -0.246 OA
BRANCH   4   6
ATOM      6  C   UNL A   1      32.873  22.953  26.380  1.00  0.00     0.102 A 
ATOM      7  C   UNL A   1      31.892  25.180  26.202  1.00  0.00    -0.014 A 
ATOM      8  C   UNL A   1      30.647  24.589  25.926  1.00  0.00     0.013 A 
ATOM      9  C   UNL A   1      32.987  24.345  26.493  1.00  0.00     0.028 A 
ATOM     10  C   UNL A   1      30.526  23.206  25.813  1.00  0.00     0.048 A 
ATOM     11  C   UNL A   1      31.646  22.399  25.987  1.00  0.00     0.130 A 
BRANCH   7  12
ATOM     12  C   UNL A   1      32.071  26.628  26.014  1.00  0.00     0.024 A 
ATOM     13  C   UNL A   1      32.517  27.163  24.786  1.00  0.00     0.126 A 
ATOM     14  C   UNL A   1      32.643  28.543  24.602  1.00  0.00     0.047 A 
ATOM     15  C   UNL A   1      32.293  29.418  25.628  1.00  0.00     0.004 A 
ATOM     16  C   UNL A   1      31.737  27.531  27.039  1.00  0.00     0.012 A 
ATOM     17  C   UNL A   1      31.844  28.913  26.846  1.00  0.00     0.001 A 
BRANCH  13  18
ATOM     18  O   UNL A   1      32.917  26.382  23.727  1.00  0.00    -0.496 OA
ATOM     19  C   UNL A   1      31.904  26.268  22.723  1.00  0.00     0.278 C 
ENDBRANCH  13  18
ENDBRANCH   7  12
BRANCH  11  20
ATOM     20  O   UNL A   1      31.454  21.062  25.767  1.00  0.00    -0.507 OA
ATOM     21  H   UNL A   1      30.741  20.772  25.232  1.00  0.00     0.293 HD
ENDBRANCH  11  20
ENDBRANCH   4   6
ENDBRANCH   3   4
ENDBRANCH   2   3
ENDBRANCH   1   2
BRANCH   1  22
ATOM     22  O   UNL A   1      37.441  21.494  25.762  1.00  0.00    -0.458 OA
BRANCH  22  23
ATOM     23  C   UNL A   1      38.730  21.164  26.021  1.00  0.00     0.338 C 
ATOM     24  O   UNL A   1      39.281  20.107  25.748  1.00  0.00    -0.246 OA
BRANCH  23  25
ATOM     25  C   UNL A   1      39.451  22.350  26.514  1.00  0.00     0.060 A 
ATOM     26  C   UNL A   1      38.994  23.598  26.082  1.00  0.00     0.016 A 
ATOM     27  C   UNL A   1      40.555  22.266  27.365  1.00  0.00     0.016 A 
ATOM     28  C   UNL A   1      39.591  24.769  26.541  1.00  0.00     0.010 A 
ATOM     29  C   UNL A   1      41.187  23.443  27.789  1.00  0.00     0.010 A 
ATOM     30  C   UNL A   1      40.702  24.700  27.386  1.00  0.00    -0.014 A 
BRANCH  30  31
ATOM     31  C   UNL A   1      41.410  25.953  27.748  1.00  0.00     0.031 A 
ATOM     32  C   UNL A   1      40.673  27.008  28.521  1.00  0.00     0.074 A 
ATOM     33  C   UNL A   1      42.709  26.122  27.436  1.00  0.00     0.049 A 
ATOM     34  N   UNL A   1      41.075  28.194  28.898  1.00  0.00    -0.248 NA
ATOM     35  C   UNL A   1      39.300  26.677  28.928  1.00  0.00     0.031 C 
ATOM     36  C   UNL A   1      43.548  25.133  26.762  1.00  0.00     0.029 A 
ATOM     37  N   UNL A   1      43.547  27.189  27.645  1.00  0.00    -0.354 N 
ATOM     38  C   UNL A   1      40.003  28.757  29.581  1.00  0.00     0.074 A 
ATOM     39  C   UNL A   1      38.928  27.787  29.548  1.00  0.00     0.031 C 
ATOM     40  C   UNL A   1      44.778  25.649  26.593  1.00  0.00     0.029 A 
ATOM     41  C   UNL A   1      44.803  27.016  27.109  1.00  0.00     0.049 A 
ATOM     42  H   UNL A   1      43.277  28.000  28.132  1.00  0.00     0.167 HD
ATOM     43  C   UNL A   1      39.924  29.973  30.174  1.00  0.00     0.034 A 
ATOM     44  C   UNL A   1      45.837  27.877  27.012  1.00  0.00     0.034 A 
ATOM     45  C   UNL A   1      41.002  30.933  30.186  1.00  0.00     0.049 A 
ATOM     46  C   UNL A   1      45.691  29.265  27.594  1.00  0.00     0.074 A 
ATOM     47  C   UNL A   1      41.027  32.192  30.762  1.00  0.00     0.029 A 
ATOM     48  N   UNL A   1      42.239  30.750  29.581  1.00  0.00    -0.354 N 
ATOM     49  N   UNL A   1      44.668  29.792  28.228  1.00  0.00    -0.248 NA
ATOM     50  C   UNL A   1      46.836  30.172  27.448  1.00  0.00     0.031 C 
ATOM     51  C   UNL A   1      42.248  32.797  30.442  1.00  0.00     0.029 A 
ATOM     52  C   UNL A   1      43.018  31.887  29.736  1.00  0.00     0.049 A 
ATOM     53  H   UNL A   1      42.521  29.933  29.111  1.00  0.00     0.167 HD
ATOM     54  C   UNL A   1      45.062  31.082  28.580  1.00  0.00     0.074 A 
ATOM     55  C   UNL A   1      46.418  31.245  28.101  1.00  0.00     0.031 C 
ATOM     56  C   UNL A   1      44.368  32.042  29.243  1.00  0.00     0.034 A 
BRANCH  43  57
ATOM     57  C   UNL A   1      38.603  30.356  30.793  1.00  0.00     0.023 A 
ATOM     58  C   UNL A   1      37.603  31.025  30.066  1.00  0.00     0.031 A 
ATOM     59  C   UNL A   1      38.355  30.070  32.147  1.00  0.00     0.131 A 
ATOM     60  C   UNL A   1      36.429  31.439  30.712  1.00  0.00     0.055 A 
ATOM     61  C   UNL A   1      37.155  30.420  32.766  1.00  0.00     0.041 A 
ATOM     62  F   UNL A   1      39.284  29.455  32.896  1.00  0.00    -0.206 F 
ATOM     63  C   UNL A   1      36.188  31.120  32.052  1.00  0.00     0.022 A 
BRANCH  60  64
ATOM     64  S   UNL A   1      35.274  32.514  29.816  1.00  0.00     0.124 S 
ATOM     65  O   UNL A   1      34.313  32.855  30.862  1.00  0.00    -0.237 OA
ATOM     66  O   UNL A   1      36.137  33.598  29.364  1.00  0.00    -0.237 OA
ATOM     67  O   UNL A   1      34.752  31.650  28.759  1.00  0.00    -0.744 OA
ENDBRANCH  60  64
ENDBRANCH  43  57
BRANCH  44  68
ATOM     68  C   UNL A   1      47.078  27.494  26.276  1.00  0.00     0.023 A 
ATOM     69  C   UNL A   1      47.260  27.818  24.922  1.00  0.00     0.031 A 
ATOM     70  C   UNL A   1      48.073  26.723  26.906  1.00  0.00     0.131 A 
ATOM     71  C   UNL A   1      48.380  27.328  24.229  1.00  0.00     0.055 A 
ATOM     72  C   UNL A   1      49.213  26.288  26.229  1.00  0.00     0.041 A 
ATOM     73  F   UNL A   1      47.947  26.376  28.198  1.00  0.00    -0.206 F 
ATOM     74  C   UNL A   1      49.364  26.578  24.877  1.00  0.00     0.022 A 
BRANCH  71  75
ATOM     75  S   UNL A   1      48.484  27.597  22.438  1.00  0.00     0.124 S 
ATOM     76  O   UNL A   1      47.212  28.256  22.162  1.00  0.00    -0.237 OA
ATOM     77  O   UNL A   1      49.676  28.431  22.325  1.00  0.00    -0.237 OA
ATOM     78  O   UNL A   1      48.616  26.246  21.897  1.00  0.00    -0.744 OA
ENDBRANCH  71  75
ENDBRANCH  44  68
BRANCH  56  79
ATOM     79  C   UNL A   1      45.087  33.339  29.530  1.00  0.00     0.023 A 
ATOM     80  C   UNL A   1      45.012  34.439  28.658  1.00  0.00     0.031 A 
ATOM     81  C   UNL A   1      45.865  33.471  30.694  1.00  0.00     0.131 A 
ATOM     82  C   UNL A   1      45.742  35.605  28.937  1.00  0.00     0.055 A 
ATOM     83  C   UNL A   1      46.542  34.652  30.997  1.00  0.00     0.041 A 
ATOM     84  F   UNL A   1      45.975  32.451  31.562  1.00  0.00    -0.206 F 
ATOM     85  C   UNL A   1      46.493  35.724  30.110  1.00  0.00     0.022 A 
BRANCH  82  86
ATOM     86  S   UNL A   1      45.768  36.937  27.707  1.00  0.00     0.124 S 
ATOM     87  O   UNL A   1      44.450  36.812  27.094  1.00  0.00    -0.237 OA
ATOM     88  O   UNL A   1      45.976  38.122  28.533  1.00  0.00    -0.237 OA
ATOM     89  O   UNL A   1      46.891  36.583  26.840  1.00  0.00    -0.744 OA
ENDBRANCH  82  86
ENDBRANCH  56  79
ENDBRANCH  30  31
ENDBRANCH  23  25
ENDBRANCH  22  23
ENDBRANCH   1  22
TORSDOF 17
ENDMDL
