MODEL 1
REMARK VINA RESULT:     -12.7      0.000      0.000
REMARK SMILES CS(=O)(=O)N(Cc1ccc(Cl)cc1)c1ccc(C(=O)Nc2ccccc2C(=O)OCCOC(=O)c2ccc(-c3c4nc(c(-c5cc(S(=O)(=O)[O-])ccc5F)c5ccc([nH]5)c(-c5cc(S(=O)(=O)[O-])ccc5F)c5nc(c(-c6cc(S(=O)(=O)[O-])ccc6F)c6ccc3[nH]6)C=C5)C=C4)cc2)cc1
REMARK SMILES IDX 30 1 29 2 27 3 28 4 26 5 21 6 22 7 23 8 25 9 24 10 20 11
REMARK SMILES IDX 18 12 19 13 17 15 14 16 15 17 99 18 16 19 98 20 5 21 2 22
REMARK SMILES IDX 1 23 3 24 4 25 6 26 7 27 8 28 13 29 9 30 12 31 10 32 11 33
REMARK SMILES IDX 31 34 32 35 33 36 34 37 35 38 36 39 97 40 37 41 96 42 38 43
REMARK SMILES IDX 39 44 40 45 90 46 41 47 95 48 89 49 91 50 42 51 94 52 88 53
REMARK SMILES IDX 87 54 43 56 75 57 55 58 74 59 56 60 59 61 73 62 92 63 57 64
REMARK SMILES IDX 58 65 72 67 93 68 60 69 44 70 45 71 53 72 46 73 52 74 54 75
REMARK SMILES IDX 51 76 47 77 48 78 49 79 50 80 76 81 77 82 85 83 78 84 84 85
REMARK SMILES IDX 86 86 83 87 79 88 80 89 81 90 82 91 61 92 62 93 70 94 63 95
REMARK SMILES IDX 69 96 71 97 68 98 64 99 65 100 66 101 67 102
REMARK H PARENT 20 14 91 55 59 66
REMARK Flexibility Score: inf
ROOT
ATOM      1  C   UNL A   1      33.157  29.770  25.391  1.00  0.00     0.275 C 
ENDROOT
BRANCH   1   2
ATOM      2  O   UNL A   1      32.538  29.610  24.097  1.00  0.00    -0.458 OA
BRANCH   2   3
ATOM      3  C   UNL A   1      32.703  28.381  23.557  1.00  0.00     0.340 C 
ATOM      4  O   UNL A   1      33.665  28.034  22.885  1.00  0.00    -0.246 OA
BRANCH   3   5
ATOM      5  C   UNL A   1      31.566  27.468  23.818  1.00  0.00     0.083 A 
ATOM      6  C   UNL A   1      31.103  26.528  22.887  1.00  0.00     0.056 A 
ATOM      7  C   UNL A   1      30.003  25.717  23.227  1.00  0.00     0.027 A 
ATOM      8  C   UNL A   1      29.467  25.730  24.516  1.00  0.00     0.002 A 
ATOM      9  C   UNL A   1      31.003  27.478  25.108  1.00  0.00     0.018 A 
ATOM     10  C   UNL A   1      29.980  26.601  25.465  1.00  0.00     0.001 A 
BRANCH   6  11
ATOM     11  N   UNL A   1      31.678  26.248  21.636  1.00  0.00    -0.321 N 
ATOM     12  C   UNL A   1      32.651  25.355  21.236  1.00  0.00     0.255 C 
ATOM     13  O   UNL A   1      33.130  25.501  20.108  1.00  0.00    -0.269 OA
ATOM     14  H   UNL A   1      31.318  26.796  20.903  1.00  0.00     0.170 HD
BRANCH  12  15
ATOM     15  C   UNL A   1      33.094  24.179  22.051  1.00  0.00     0.040 A 
ATOM     16  C   UNL A   1      33.866  22.177  23.928  1.00  0.00     0.052 A 
ATOM     17  C   UNL A   1      34.662  23.300  23.695  1.00  0.00     0.028 A 
ATOM     18  C   UNL A   1      32.769  22.002  23.077  1.00  0.00     0.028 A 
ATOM     19  C   UNL A   1      34.255  24.318  22.818  1.00  0.00     0.016 A 
ATOM     20  C   UNL A   1      32.446  22.947  22.089  1.00  0.00     0.016 A 
BRANCH  16  21
ATOM     21  N   UNL A   1      34.127  21.341  25.114  1.00  0.00    -0.266 N 
BRANCH  21  22
ATOM     22  S   UNL A   1      34.459  22.236  26.545  1.00  0.00     0.232 S 
ATOM     23  C   UNL A   1      33.236  23.531  26.548  1.00  0.00     0.183 C 
ATOM     24  O   UNL A   1      35.748  22.873  26.375  1.00  0.00    -0.207 OA
ATOM     25  O   UNL A   1      34.190  21.379  27.681  1.00  0.00    -0.207 OA
ENDBRANCH  21  22
BRANCH  21  26
ATOM     26  C   UNL A   1      35.071  20.184  24.871  1.00  0.00     0.170 C 
BRANCH  26  27
ATOM     27  C   UNL A   1      34.344  18.842  24.796  1.00  0.00    -0.027 A 
ATOM     28  C   UNL A   1      33.075  18.692  25.378  1.00  0.00     0.007 A 
ATOM     29  C   UNL A   1      34.967  17.705  24.254  1.00  0.00     0.007 A 
ATOM     30  C   UNL A   1      32.518  17.424  25.566  1.00  0.00     0.021 A 
ATOM     31  C   UNL A   1      34.381  16.441  24.389  1.00  0.00     0.021 A 
ATOM     32  C   UNL A   1      33.182  16.301  25.085  1.00  0.00     0.041 A 
ATOM     33  Cl  UNL A   1      32.537  14.733  25.383  1.00  0.00    -0.084 Cl
ENDBRANCH  26  27
ENDBRANCH  21  26
ENDBRANCH  16  21
ENDBRANCH  12  15
ENDBRANCH   6  11
ENDBRANCH   3   5
ENDBRANCH   2   3
ENDBRANCH   1   2
BRANCH   1  34
ATOM     34  C   UNL A   1      32.354  30.664  26.341  1.00  0.00     0.275 C 
BRANCH  34  35
ATOM     35  O   UNL A   1      32.987  30.788  27.628  1.00  0.00    -0.458 OA
BRANCH  35  36
ATOM     36  C   UNL A   1      33.812  31.855  27.741  1.00  0.00     0.338 C 
ATOM     37  O   UNL A   1      33.498  33.033  27.690  1.00  0.00    -0.246 OA
BRANCH  36  38
ATOM     38  C   UNL A   1      35.193  31.433  28.014  1.00  0.00     0.060 A 
ATOM     39  C   UNL A   1      35.417  30.113  28.380  1.00  0.00     0.016 A 
ATOM     40  C   UNL A   1      36.209  32.374  28.164  1.00  0.00     0.016 A 
ATOM     41  C   UNL A   1      36.572  29.753  29.054  1.00  0.00     0.010 A 
ATOM     42  C   UNL A   1      37.440  31.971  28.697  1.00  0.00     0.010 A 
ATOM     43  C   UNL A   1      37.616  30.666  29.195  1.00  0.00    -0.014 A 
BRANCH  43  44
ATOM     44  C   UNL A   1      38.863  30.254  29.894  1.00  0.00     0.031 A 
ATOM     45  C   UNL A   1      39.775  29.241  29.256  1.00  0.00     0.074 A 
ATOM     46  C   UNL A   1      39.187  30.806  31.083  1.00  0.00     0.049 A 
ATOM     47  N   UNL A   1      40.767  28.572  29.783  1.00  0.00    -0.248 NA
ATOM     48  C   UNL A   1      39.522  28.922  27.841  1.00  0.00     0.031 C 
ATOM     49  C   UNL A   1      38.433  31.864  31.765  1.00  0.00     0.029 A 
ATOM     50  N   UNL A   1      40.237  30.559  31.933  1.00  0.00    -0.354 N 
ATOM     51  C   UNL A   1      41.213  27.706  28.788  1.00  0.00     0.074 A 
ATOM     52  C   UNL A   1      40.378  27.934  27.628  1.00  0.00     0.031 C 
ATOM     53  C   UNL A   1      39.059  32.195  32.901  1.00  0.00     0.029 A 
ATOM     54  C   UNL A   1      40.177  31.286  33.101  1.00  0.00     0.049 A 
ATOM     55  H   UNL A   1      40.960  29.924  31.728  1.00  0.00     0.167 HD
ATOM     56  C   UNL A   1      42.221  26.803  28.854  1.00  0.00     0.034 A 
ATOM     57  C   UNL A   1      40.888  31.183  34.239  1.00  0.00     0.034 A 
ATOM     58  C   UNL A   1      43.061  26.638  30.018  1.00  0.00     0.049 A 
ATOM     59  C   UNL A   1      41.954  30.123  34.314  1.00  0.00     0.074 A 
ATOM     60  C   UNL A   1      44.120  25.768  30.199  1.00  0.00     0.029 A 
ATOM     61  N   UNL A   1      42.938  27.365  31.196  1.00  0.00    -0.354 N 
ATOM     62  N   UNL A   1      42.323  29.259  33.395  1.00  0.00    -0.248 NA
ATOM     63  C   UNL A   1      42.691  30.016  35.576  1.00  0.00     0.031 C 
ATOM     64  C   UNL A   1      44.587  25.913  31.509  1.00  0.00     0.029 A 
ATOM     65  C   UNL A   1      43.880  26.938  32.119  1.00  0.00     0.049 A 
ATOM     66  H   UNL A   1      42.279  28.078  31.353  1.00  0.00     0.167 HD
ATOM     67  C   UNL A   1      43.354  28.520  33.965  1.00  0.00     0.074 A 
ATOM     68  C   UNL A   1      43.562  29.060  35.294  1.00  0.00     0.031 C 
ATOM     69  C   UNL A   1      44.063  27.487  33.443  1.00  0.00     0.034 A 
BRANCH  56  70
ATOM     70  C   UNL A   1      42.419  25.878  27.676  1.00  0.00     0.023 A 
ATOM     71  C   UNL A   1      41.893  24.576  27.639  1.00  0.00     0.031 A 
ATOM     72  C   UNL A   1      43.166  26.313  26.566  1.00  0.00     0.131 A 
ATOM     73  C   UNL A   1      42.172  23.737  26.548  1.00  0.00     0.055 A 
ATOM     74  C   UNL A   1      43.374  25.503  25.447  1.00  0.00     0.041 A 
ATOM     75  F   UNL A   1      43.718  27.537  26.552  1.00  0.00    -0.206 F 
ATOM     76  C   UNL A   1      42.885  24.201  25.440  1.00  0.00     0.022 A 
BRANCH  73  77
ATOM     77  S   UNL A   1      41.703  21.988  26.651  1.00  0.00     0.124 S 
ATOM     78  O   UNL A   1      42.885  21.332  26.099  1.00  0.00    -0.237 OA
ATOM     79  O   UNL A   1      41.478  21.804  28.080  1.00  0.00    -0.237 OA
ATOM     80  O   UNL A   1      40.506  21.904  25.816  1.00  0.00    -0.744 OA
ENDBRANCH  73  77
ENDBRANCH  56  70
BRANCH  57  81
ATOM     81  C   UNL A   1      40.557  32.031  35.423  1.00  0.00     0.023 A 
ATOM     82  C   UNL A   1      39.419  31.779  36.203  1.00  0.00     0.031 A 
ATOM     83  C   UNL A   1      41.353  33.143  35.766  1.00  0.00     0.131 A 
ATOM     84  C   UNL A   1      39.079  32.651  37.249  1.00  0.00     0.055 A 
ATOM     85  C   UNL A   1      41.051  33.964  36.853  1.00  0.00     0.041 A 
ATOM     86  F   UNL A   1      42.451  33.441  35.053  1.00  0.00    -0.206 F 
ATOM     87  C   UNL A   1      39.898  33.730  37.592  1.00  0.00     0.022 A 
BRANCH  84  88
ATOM     88  S   UNL A   1      37.484  32.424  38.082  1.00  0.00     0.124 S 
ATOM     89  O   UNL A   1      37.391  30.971  38.151  1.00  0.00    -0.237 OA
ATOM     90  O   UNL A   1      37.703  33.115  39.347  1.00  0.00    -0.237 OA
ATOM     91  O   UNL A   1      36.535  33.069  37.176  1.00  0.00    -0.744 OA
ENDBRANCH  84  88
ENDBRANCH  57  81
BRANCH  69  92
ATOM     92  C   UNL A   1      45.165  26.921  34.303  1.00  0.00     0.023 A 
ATOM     93  C   UNL A   1      44.948  25.823  35.153  1.00  0.00     0.031 A 
ATOM     94  C   UNL A   1      46.442  27.509  34.290  1.00  0.00     0.131 A 
ATOM     95  C   UNL A   1      45.972  25.391  36.007  1.00  0.00     0.055 A 
ATOM     96  C   UNL A   1      47.479  27.027  35.087  1.00  0.00     0.041 A 
ATOM     97  F   UNL A   1      46.702  28.563  33.500  1.00  0.00    -0.206 F 
ATOM     98  C   UNL A   1      47.243  25.971  35.964  1.00  0.00     0.022 A 
BRANCH  95  99
ATOM     99  S   UNL A   1      45.587  24.137  37.257  1.00  0.00     0.124 S 
ATOM    100  O   UNL A   1      45.185  23.001  36.433  1.00  0.00    -0.237 OA
ATOM    101  O   UNL A   1      46.857  23.994  37.960  1.00  0.00    -0.237 OA
ATOM    102  O   UNL A   1      44.512  24.749  38.037  1.00  0.00    -0.744 OA
ENDBRANCH  95  99
ENDBRANCH  69  92
ENDBRANCH  43  44
ENDBRANCH  36  38
ENDBRANCH  35  36
ENDBRANCH  34  35
ENDBRANCH   1  34
TORSDOF 20
ENDMDL
MODEL 2
REMARK VINA RESULT:     -12.7      1.665      7.410
REMARK SMILES CS(=O)(=O)N(Cc1ccc(Cl)cc1)c1ccc(C(=O)Nc2ccccc2C(=O)OCCOC(=O)c2ccc(-c3c4nc(c(-c5cc(S(=O)(=O)[O-])ccc5F)c5ccc([nH]5)c(-c5cc(S(=O)(=O)[O-])ccc5F)c5nc(c(-c6cc(S(=O)(=O)[O-])ccc6F)c6ccc3[nH]6)C=C5)C=C4)cc2)cc1
REMARK SMILES IDX 30 1 29 2 27 3 28 4 26 5 21 6 22 7 23 8 25 9 24 10 20 11
REMARK SMILES IDX 18 12 19 13 17 15 14 16 15 17 99 18 16 19 98 20 5 21 2 22
REMARK SMILES IDX 1 23 3 24 4 25 6 26 7 27 8 28 13 29 9 30 12 31 10 32 11 33
REMARK SMILES IDX 31 34 32 35 33 36 34 37 35 38 36 39 97 40 37 41 96 42 38 43
REMARK SMILES IDX 39 44 40 45 90 46 41 47 95 48 89 49 91 50 42 51 94 52 88 53
REMARK SMILES IDX 87 54 43 56 75 57 55 58 74 59 56 60 59 61 73 62 92 63 57 64
REMARK SMILES IDX 58 65 72 67 93 68 60 69 44 70 45 71 53 72 46 73 52 74 54 75
REMARK SMILES IDX 51 76 47 77 48 78 49 79 50 80 76 81 77 82 85 83 78 84 84 85
REMARK SMILES IDX 86 86 83 87 79 88 80 89 81 90 82 91 61 92 62 93 70 94 63 95
REMARK SMILES IDX 69 96 71 97 68 98 64 99 65 100 66 101 67 102
REMARK H PARENT 20 14 91 55 59 66
REMARK Flexibility Score: inf
ROOT
ATOM      1  C   UNL A   1      31.313  30.998  26.271  1.00  0.00     0.275 C 
ENDROOT
BRANCH   1   2
ATOM      2  O   UNL A   1      32.016  29.990  27.028  1.00  0.00    -0.458 OA
BRANCH   2   3
ATOM      3  C   UNL A   1      31.854  28.733  26.555  1.00  0.00     0.340 C 
ATOM      4  O   UNL A   1      31.352  27.808  27.180  1.00  0.00    -0.246 OA
BRANCH   3   5
ATOM      5  C   UNL A   1      32.389  28.549  25.185  1.00  0.00     0.083 A 
ATOM      6  C   UNL A   1      31.621  28.065  24.117  1.00  0.00     0.056 A 
ATOM      7  C   UNL A   1      32.229  27.910  22.857  1.00  0.00     0.027 A 
ATOM      8  C   UNL A   1      33.527  28.366  22.620  1.00  0.00     0.002 A 
ATOM      9  C   UNL A   1      33.701  28.989  24.932  1.00  0.00     0.018 A 
ATOM     10  C   UNL A   1      34.259  28.923  23.657  1.00  0.00     0.001 A 
BRANCH   6  11
ATOM     11  N   UNL A   1      30.247  27.773  24.150  1.00  0.00    -0.321 N 
ATOM     12  C   UNL A   1      29.543  26.589  24.077  1.00  0.00     0.255 C 
ATOM     13  O   UNL A   1      28.326  26.660  23.886  1.00  0.00    -0.269 OA
ATOM     14  H   UNL A   1      29.675  28.568  24.242  1.00  0.00     0.170 HD
BRANCH  12  15
ATOM     15  C   UNL A   1      30.151  25.239  24.298  1.00  0.00     0.040 A 
ATOM     16  C   UNL A   1      31.660  22.838  24.592  1.00  0.00     0.052 A 
ATOM     17  C   UNL A   1      31.341  23.344  23.331  1.00  0.00     0.028 A 
ATOM     18  C   UNL A   1      31.060  23.467  25.688  1.00  0.00     0.028 A 
ATOM     19  C   UNL A   1      30.652  24.559  23.182  1.00  0.00     0.016 A 
ATOM     20  C   UNL A   1      30.240  24.597  25.530  1.00  0.00     0.016 A 
BRANCH  16  21
ATOM     21  N   UNL A   1      32.694  21.794  24.709  1.00  0.00    -0.266 N 
BRANCH  21  22
ATOM     22  S   UNL A   1      34.222  22.375  25.243  1.00  0.00     0.232 S 
ATOM     23  C   UNL A   1      34.558  21.439  26.720  1.00  0.00     0.183 C 
ATOM     24  O   UNL A   1      34.050  23.755  25.649  1.00  0.00    -0.207 OA
ATOM     25  O   UNL A   1      35.214  22.003  24.255  1.00  0.00    -0.207 OA
ENDBRANCH  21  22
BRANCH  21  26
ATOM     26  C   UNL A   1      32.767  20.846  23.531  1.00  0.00     0.170 C 
BRANCH  26  27
ATOM     27  C   UNL A   1      32.693  19.380  23.954  1.00  0.00    -0.027 A 
ATOM     28  C   UNL A   1      32.530  19.042  25.308  1.00  0.00     0.007 A 
ATOM     29  C   UNL A   1      32.902  18.343  23.030  1.00  0.00     0.007 A 
ATOM     30  C   UNL A   1      32.737  17.732  25.750  1.00  0.00     0.021 A 
ATOM     31  C   UNL A   1      33.050  17.021  23.466  1.00  0.00     0.021 A 
ATOM     32  C   UNL A   1      33.013  16.729  24.828  1.00  0.00     0.041 A 
ATOM     33  Cl  UNL A   1      33.344  15.132  25.376  1.00  0.00    -0.084 Cl
ENDBRANCH  26  27
ENDBRANCH  21  26
ENDBRANCH  16  21
ENDBRANCH  12  15
ENDBRANCH   6  11
ENDBRANCH   3   5
ENDBRANCH   2   3
ENDBRANCH   1   2
BRANCH   1  34
ATOM     34  C   UNL A   1      31.458  32.406  26.855  1.00  0.00     0.275 C 
BRANCH  34  35
ATOM     35  O   UNL A   1      32.768  32.955  26.619  1.00  0.00    -0.458 OA
BRANCH  35  36
ATOM     36  C   UNL A   1      33.351  33.491  27.717  1.00  0.00     0.338 C 
ATOM     37  O   UNL A   1      32.919  34.402  28.405  1.00  0.00    -0.246 OA
BRANCH  36  38
ATOM     38  C   UNL A   1      34.594  32.786  28.059  1.00  0.00     0.060 A 
ATOM     39  C   UNL A   1      34.549  31.405  28.196  1.00  0.00     0.016 A 
ATOM     40  C   UNL A   1      35.715  33.487  28.492  1.00  0.00     0.016 A 
ATOM     41  C   UNL A   1      35.524  30.734  28.916  1.00  0.00     0.010 A 
ATOM     42  C   UNL A   1      36.777  32.785  29.076  1.00  0.00     0.010 A 
ATOM     43  C   UNL A   1      36.670  31.406  29.340  1.00  0.00    -0.014 A 
BRANCH  43  44
ATOM     44  C   UNL A   1      37.723  30.664  30.084  1.00  0.00     0.031 A 
ATOM     45  C   UNL A   1      37.922  30.926  31.553  1.00  0.00     0.074 A 
ATOM     46  C   UNL A   1      38.478  29.741  29.450  1.00  0.00     0.049 A 
ATOM     47  N   UNL A   1      38.915  30.579  32.328  1.00  0.00    -0.248 NA
ATOM     48  C   UNL A   1      36.872  31.702  32.234  1.00  0.00     0.031 C 
ATOM     49  C   UNL A   1      38.324  29.330  28.051  1.00  0.00     0.029 A 
ATOM     50  N   UNL A   1      39.527  28.977  29.898  1.00  0.00    -0.354 N 
ATOM     51  C   UNL A   1      38.645  31.150  33.569  1.00  0.00     0.074 A 
ATOM     52  C   UNL A   1      37.396  31.869  33.439  1.00  0.00     0.031 C 
ATOM     53  C   UNL A   1      39.216  28.372  27.767  1.00  0.00     0.029 A 
ATOM     54  C   UNL A   1      40.093  28.196  28.914  1.00  0.00     0.049 A 
ATOM     55  H   UNL A   1      39.844  28.987  30.830  1.00  0.00     0.167 HD
ATOM     56  C   UNL A   1      39.386  31.080  34.702  1.00  0.00     0.034 A 
ATOM     57  C   UNL A   1      41.233  27.480  28.906  1.00  0.00     0.034 A 
ATOM     58  C   UNL A   1      40.607  30.314  34.804  1.00  0.00     0.049 A 
ATOM     59  C   UNL A   1      42.076  27.478  30.153  1.00  0.00     0.074 A 
ATOM     60  C   UNL A   1      41.436  30.156  35.899  1.00  0.00     0.029 A 
ATOM     61  N   UNL A   1      41.168  29.573  33.770  1.00  0.00    -0.354 N 
ATOM     62  N   UNL A   1      41.852  28.078  31.300  1.00  0.00    -0.248 NA
ATOM     63  C   UNL A   1      43.325  26.714  30.103  1.00  0.00     0.031 C 
ATOM     64  C   UNL A   1      42.535  29.386  35.508  1.00  0.00     0.029 A 
ATOM     65  C   UNL A   1      42.349  28.985  34.194  1.00  0.00     0.049 A 
ATOM     66  H   UNL A   1      40.784  29.480  32.869  1.00  0.00     0.167 HD
ATOM     67  C   UNL A   1      42.926  27.742  32.117  1.00  0.00     0.074 A 
ATOM     68  C   UNL A   1      43.779  26.867  31.337  1.00  0.00     0.031 C 
ATOM     69  C   UNL A   1      43.188  28.122  33.394  1.00  0.00     0.034 A 
BRANCH  56  70
ATOM     70  C   UNL A   1      38.945  31.907  35.887  1.00  0.00     0.023 A 
ATOM     71  C   UNL A   1      38.220  31.364  36.961  1.00  0.00     0.031 A 
ATOM     72  C   UNL A   1      39.250  33.281  35.931  1.00  0.00     0.131 A 
ATOM     73  C   UNL A   1      37.775  32.198  38.000  1.00  0.00     0.055 A 
ATOM     74  C   UNL A   1      38.873  34.090  37.005  1.00  0.00     0.041 A 
ATOM     75  F   UNL A   1      39.916  33.865  34.922  1.00  0.00    -0.206 F 
ATOM     76  C   UNL A   1      38.120  33.551  38.042  1.00  0.00     0.022 A 
BRANCH  73  77
ATOM     77  S   UNL A   1      36.626  31.521  39.229  1.00  0.00     0.124 S 
ATOM     78  O   UNL A   1      37.370  31.720  40.470  1.00  0.00    -0.237 OA
ATOM     79  O   UNL A   1      35.445  32.357  39.052  1.00  0.00    -0.237 OA
ATOM     80  O   UNL A   1      36.470  30.126  38.821  1.00  0.00    -0.744 OA
ENDBRANCH  73  77
ENDBRANCH  56  70
BRANCH  57  81
ATOM     81  C   UNL A   1      41.692  26.794  27.662  1.00  0.00     0.023 A 
ATOM     82  C   UNL A   1      41.548  25.408  27.500  1.00  0.00     0.031 A 
ATOM     83  C   UNL A   1      42.330  27.511  26.629  1.00  0.00     0.131 A 
ATOM     84  C   UNL A   1      42.078  24.776  26.365  1.00  0.00     0.055 A 
ATOM     85  C   UNL A   1      42.790  26.888  25.468  1.00  0.00     0.041 A 
ATOM     86  F   UNL A   1      42.506  28.838  26.729  1.00  0.00    -0.206 F 
ATOM     87  C   UNL A   1      42.679  25.509  25.339  1.00  0.00     0.022 A 
BRANCH  84  88
ATOM     88  S   UNL A   1      42.075  22.963  26.302  1.00  0.00     0.124 S 
ATOM     89  O   UNL A   1      42.915  22.627  27.446  1.00  0.00    -0.237 OA
ATOM     90  O   UNL A   1      40.655  22.658  26.435  1.00  0.00    -0.237 OA
ATOM     91  O   UNL A   1      42.655  22.669  24.993  1.00  0.00    -0.744 OA
ENDBRANCH  84  88
ENDBRANCH  57  81
BRANCH  69  92
ATOM     92  C   UNL A   1      44.425  27.540  34.031  1.00  0.00     0.023 A 
ATOM     93  C   UNL A   1      44.377  26.362  34.796  1.00  0.00     0.031 A 
ATOM     94  C   UNL A   1      45.663  28.192  33.892  1.00  0.00     0.131 A 
ATOM     95  C   UNL A   1      45.531  25.911  35.452  1.00  0.00     0.055 A 
ATOM     96  C   UNL A   1      46.823  27.695  34.485  1.00  0.00     0.041 A 
ATOM     97  F   UNL A   1      45.764  29.323  33.176  1.00  0.00    -0.206 F 
ATOM     98  C   UNL A   1      46.758  26.557  35.284  1.00  0.00     0.022 A 
BRANCH  95  99
ATOM     99  S   UNL A   1      45.381  24.534  36.621  1.00  0.00     0.124 S 
ATOM    100  O   UNL A   1      44.874  23.464  35.766  1.00  0.00    -0.237 OA
ATOM    101  O   UNL A   1      46.751  24.374  37.095  1.00  0.00    -0.237 OA
ATOM    102  O   UNL A   1      44.433  25.032  37.618  1.00  0.00    -0.744 OA
ENDBRANCH  95  99
ENDBRANCH  69  92
ENDBRANCH  43  44
ENDBRANCH  36  38
ENDBRANCH  35  36
ENDBRANCH  34  35
ENDBRANCH   1  34
TORSDOF 20
ENDMDL
MODEL 3
REMARK VINA RESULT:     -12.2      1.850      2.215
REMARK SMILES CS(=O)(=O)N(Cc1ccc(Cl)cc1)c1ccc(C(=O)Nc2ccccc2C(=O)OCCOC(=O)c2ccc(-c3c4nc(c(-c5cc(S(=O)(=O)[O-])ccc5F)c5ccc([nH]5)c(-c5cc(S(=O)(=O)[O-])ccc5F)c5nc(c(-c6cc(S(=O)(=O)[O-])ccc6F)c6ccc3[nH]6)C=C5)C=C4)cc2)cc1
REMARK SMILES IDX 30 1 29 2 27 3 28 4 26 5 21 6 22 7 23 8 25 9 24 10 20 11
REMARK SMILES IDX 18 12 19 13 17 15 14 16 15 17 99 18 16 19 98 20 5 21 2 22
REMARK SMILES IDX 1 23 3 24 4 25 6 26 7 27 8 28 13 29 9 30 12 31 10 32 11 33
REMARK SMILES IDX 31 34 32 35 33 36 34 37 35 38 36 39 97 40 37 41 96 42 38 43
REMARK SMILES IDX 39 44 40 45 90 46 41 47 95 48 89 49 91 50 42 51 94 52 88 53
REMARK SMILES IDX 87 54 43 56 75 57 55 58 74 59 56 60 59 61 73 62 92 63 57 64
REMARK SMILES IDX 58 65 72 67 93 68 60 69 44 70 45 71 53 72 46 73 52 74 54 75
REMARK SMILES IDX 51 76 47 77 48 78 49 79 50 80 76 81 77 82 85 83 78 84 84 85
REMARK SMILES IDX 86 86 83 87 79 88 80 89 81 90 82 91 61 92 62 93 70 94 63 95
REMARK SMILES IDX 69 96 71 97 68 98 64 99 65 100 66 101 67 102
REMARK H PARENT 20 14 91 55 59 66
REMARK Flexibility Score: inf
ROOT
ATOM      1  C   UNL A   1      31.605  29.423  24.484  1.00  0.00     0.275 C 
ENDROOT
BRANCH   1   2
ATOM      2  O   UNL A   1      30.349  28.896  24.006  1.00  0.00    -0.458 OA
BRANCH   2   3
ATOM      3  C   UNL A   1      30.475  27.823  23.193  1.00  0.00     0.340 C 
ATOM      4  O   UNL A   1      30.628  27.877  21.980  1.00  0.00    -0.246 OA
BRANCH   3   5
ATOM      5  C   UNL A   1      30.368  26.530  23.909  1.00  0.00     0.083 A 
ATOM      6  C   UNL A   1      30.809  25.313  23.370  1.00  0.00     0.056 A 
ATOM      7  C   UNL A   1      30.647  24.136  24.125  1.00  0.00     0.027 A 
ATOM      8  C   UNL A   1      30.197  24.180  25.446  1.00  0.00     0.002 A 
ATOM      9  C   UNL A   1      29.902  26.554  25.236  1.00  0.00     0.018 A 
ATOM     10  C   UNL A   1      29.840  25.396  26.009  1.00  0.00     0.001 A 
BRANCH   6  11
ATOM     11  N   UNL A   1      31.481  25.143  22.148  1.00  0.00    -0.321 N 
ATOM     12  C   UNL A   1      32.818  25.035  21.825  1.00  0.00     0.255 C 
ATOM     13  O   UNL A   1      33.127  25.137  20.635  1.00  0.00    -0.269 OA
ATOM     14  H   UNL A   1      30.881  25.091  21.370  1.00  0.00     0.170 HD
BRANCH  12  15
ATOM     15  C   UNL A   1      33.895  24.720  22.816  1.00  0.00     0.040 A 
ATOM     16  C   UNL A   1      35.642  24.011  24.954  1.00  0.00     0.052 A 
ATOM     17  C   UNL A   1      34.841  25.152  25.020  1.00  0.00     0.028 A 
ATOM     18  C   UNL A   1      35.671  23.337  23.728  1.00  0.00     0.028 A 
ATOM     19  C   UNL A   1      33.934  25.470  23.997  1.00  0.00     0.016 A 
ATOM     20  C   UNL A   1      34.876  23.747  22.645  1.00  0.00     0.016 A 
BRANCH  16  21
ATOM     21  N   UNL A   1      36.280  23.505  26.184  1.00  0.00    -0.266 N 
BRANCH  21  22
ATOM     22  S   UNL A   1      37.969  23.221  26.034  1.00  0.00     0.232 S 
ATOM     23  C   UNL A   1      38.687  24.101  27.405  1.00  0.00     0.183 C 
ATOM     24  O   UNL A   1      38.420  23.881  24.826  1.00  0.00    -0.207 OA
ATOM     25  O   UNL A   1      38.206  21.808  26.250  1.00  0.00    -0.207 OA
ENDBRANCH  21  22
BRANCH  21  26
ATOM     26  C   UNL A   1      35.520  22.392  26.873  1.00  0.00     0.170 C 
BRANCH  26  27
ATOM     27  C   UNL A   1      34.711  21.543  25.895  1.00  0.00    -0.027 A 
ATOM     28  C   UNL A   1      33.339  21.787  25.713  1.00  0.00     0.007 A 
ATOM     29  C   UNL A   1      35.280  20.434  25.247  1.00  0.00     0.007 A 
ATOM     30  C   UNL A   1      32.529  20.864  25.047  1.00  0.00     0.021 A 
ATOM     31  C   UNL A   1      34.478  19.539  24.529  1.00  0.00     0.021 A 
ATOM     32  C   UNL A   1      33.099  19.733  24.473  1.00  0.00     0.041 A 
ATOM     33  Cl  UNL A   1      32.094  18.557  23.720  1.00  0.00    -0.084 Cl
ENDBRANCH  26  27
ENDBRANCH  21  26
ENDBRANCH  16  21
ENDBRANCH  12  15
ENDBRANCH   6  11
ENDBRANCH   3   5
ENDBRANCH   2   3
ENDBRANCH   1   2
BRANCH   1  34
ATOM     34  C   UNL A   1      31.463  30.286  25.740  1.00  0.00     0.275 C 
BRANCH  34  35
ATOM     35  O   UNL A   1      32.549  30.079  26.662  1.00  0.00    -0.458 OA
BRANCH  35  36
ATOM     36  C   UNL A   1      33.110  31.221  27.124  1.00  0.00     0.338 C 
ATOM     37  O   UNL A   1      32.555  32.294  27.294  1.00  0.00    -0.246 OA
BRANCH  36  38
ATOM     38  C   UNL A   1      34.520  31.013  27.484  1.00  0.00     0.060 A 
ATOM     39  C   UNL A   1      34.928  29.733  27.831  1.00  0.00     0.016 A 
ATOM     40  C   UNL A   1      35.360  32.096  27.731  1.00  0.00     0.016 A 
ATOM     41  C   UNL A   1      36.078  29.534  28.577  1.00  0.00     0.010 A 
ATOM     42  C   UNL A   1      36.601  31.874  28.340  1.00  0.00     0.010 A 
ATOM     43  C   UNL A   1      36.951  30.595  28.816  1.00  0.00    -0.014 A 
BRANCH  43  44
ATOM     44  C   UNL A   1      38.198  30.360  29.592  1.00  0.00     0.031 A 
ATOM     45  C   UNL A   1      39.278  29.482  29.018  1.00  0.00     0.074 A 
ATOM     46  C   UNL A   1      38.370  30.953  30.793  1.00  0.00     0.049 A 
ATOM     47  N   UNL A   1      40.319  28.958  29.609  1.00  0.00    -0.248 NA
ATOM     48  C   UNL A   1      39.157  29.131  27.594  1.00  0.00     0.031 C 
ATOM     49  C   UNL A   1      37.438  31.897  31.419  1.00  0.00     0.029 A 
ATOM     50  N   UNL A   1      39.391  30.853  31.706  1.00  0.00    -0.354 N 
ATOM     51  C   UNL A   1      40.939  28.161  28.651  1.00  0.00     0.074 A 
ATOM     52  C   UNL A   1      40.152  28.270  27.441  1.00  0.00     0.031 C 
ATOM     53  C   UNL A   1      37.943  32.312  32.588  1.00  0.00     0.029 A 
ATOM     54  C   UNL A   1      39.161  31.566  32.862  1.00  0.00     0.049 A 
ATOM     55  H   UNL A   1      40.206  30.324  31.550  1.00  0.00     0.167 HD
ATOM     56  C   UNL A   1      42.056  27.405  28.784  1.00  0.00     0.034 A 
ATOM     57  C   UNL A   1      39.810  31.563  34.041  1.00  0.00     0.034 A 
ATOM     58  C   UNL A   1      42.840  27.359  29.997  1.00  0.00     0.049 A 
ATOM     59  C   UNL A   1      41.005  30.660  34.189  1.00  0.00     0.074 A 
ATOM     60  C   UNL A   1      43.996  26.644  30.249  1.00  0.00     0.029 A 
ATOM     61  N   UNL A   1      42.547  28.063  31.160  1.00  0.00    -0.354 N 
ATOM     62  N   UNL A   1      41.544  29.855  33.301  1.00  0.00    -0.248 NA
ATOM     63  C   UNL A   1      41.673  30.657  35.493  1.00  0.00     0.031 C 
ATOM     64  C   UNL A   1      44.358  26.853  31.583  1.00  0.00     0.029 A 
ATOM     65  C   UNL A   1      43.481  27.771  32.141  1.00  0.00     0.049 A 
ATOM     66  H   UNL A   1      41.787  28.678  31.271  1.00  0.00     0.167 HD
ATOM     67  C   UNL A   1      42.631  29.266  33.938  1.00  0.00     0.074 A 
ATOM     68  C   UNL A   1      42.683  29.831  35.272  1.00  0.00     0.031 C 
ATOM     69  C   UNL A   1      43.507  28.341  33.468  1.00  0.00     0.034 A 
BRANCH  56  70
ATOM     70  C   UNL A   1      42.450  26.516  27.628  1.00  0.00     0.023 A 
ATOM     71  C   UNL A   1      42.192  25.135  27.614  1.00  0.00     0.031 A 
ATOM     72  C   UNL A   1      43.114  27.070  26.518  1.00  0.00     0.131 A 
ATOM     73  C   UNL A   1      42.647  24.348  26.544  1.00  0.00     0.055 A 
ATOM     74  C   UNL A   1      43.494  26.296  25.419  1.00  0.00     0.041 A 
ATOM     75  F   UNL A   1      43.415  28.378  26.484  1.00  0.00    -0.206 F 
ATOM     76  C   UNL A   1      43.271  24.923  25.434  1.00  0.00     0.022 A 
BRANCH  73  77
ATOM     77  S   UNL A   1      42.530  22.543  26.678  1.00  0.00     0.124 S 
ATOM     78  O   UNL A   1      43.933  22.148  26.588  1.00  0.00    -0.237 OA
ATOM     79  O   UNL A   1      41.898  22.363  27.980  1.00  0.00    -0.237 OA
ATOM     80  O   UNL A   1      41.709  22.165  25.529  1.00  0.00    -0.744 OA
ENDBRANCH  73  77
ENDBRANCH  56  70
BRANCH  57  81
ATOM     81  C   UNL A   1      39.295  32.358  35.196  1.00  0.00     0.023 A 
ATOM     82  C   UNL A   1      39.718  33.677  35.418  1.00  0.00     0.031 A 
ATOM     83  C   UNL A   1      38.403  31.791  36.128  1.00  0.00     0.131 A 
ATOM     84  C   UNL A   1      39.294  34.364  36.565  1.00  0.00     0.055 A 
ATOM     85  C   UNL A   1      37.926  32.505  37.228  1.00  0.00     0.041 A 
ATOM     86  F   UNL A   1      37.967  30.530  35.975  1.00  0.00    -0.206 F 
ATOM     87  C   UNL A   1      38.386  33.795  37.461  1.00  0.00     0.022 A 
BRANCH  84  88
ATOM     88  S   UNL A   1      40.042  35.975  36.935  1.00  0.00     0.124 S 
ATOM     89  O   UNL A   1      41.437  35.610  37.154  1.00  0.00    -0.237 OA
ATOM     90  O   UNL A   1      39.758  36.726  35.718  1.00  0.00    -0.237 OA
ATOM     91  O   UNL A   1      39.318  36.419  38.124  1.00  0.00    -0.744 OA
ENDBRANCH  84  88
ENDBRANCH  57  81
BRANCH  69  92
ATOM     92  C   UNL A   1      44.622  27.933  34.397  1.00  0.00     0.023 A 
ATOM     93  C   UNL A   1      44.423  26.993  35.424  1.00  0.00     0.031 A 
ATOM     94  C   UNL A   1      45.895  28.516  34.269  1.00  0.00     0.131 A 
ATOM     95  C   UNL A   1      45.460  26.717  36.325  1.00  0.00     0.055 A 
ATOM     96  C   UNL A   1      46.945  28.180  35.123  1.00  0.00     0.041 A 
ATOM     97  F   UNL A   1      46.139  29.423  33.309  1.00  0.00    -0.206 F 
ATOM     98  C   UNL A   1      46.726  27.287  36.169  1.00  0.00     0.022 A 
BRANCH  95  99
ATOM     99  S   UNL A   1      45.097  25.690  37.774  1.00  0.00     0.124 S 
ATOM    100  O   UNL A   1      45.349  24.346  37.263  1.00  0.00    -0.237 OA
ATOM    101  O   UNL A   1      46.054  26.187  38.757  1.00  0.00    -0.237 OA
ATOM    102  O   UNL A   1      43.696  25.991  38.066  1.00  0.00    -0.744 OA
ENDBRANCH  95  99
ENDBRANCH  69  92
ENDBRANCH  43  44
ENDBRANCH  36  38
ENDBRANCH  35  36
ENDBRANCH  34  35
ENDBRANCH   1  34
TORSDOF 20
ENDMDL
