MODEL 1
REMARK VINA RESULT:     -11.6      0.000      0.000
REMARK SMILES C/C(=N/OCc1ccccc1Nc1c(Cl)cccc1Cl)C(=O)OCCOC(=O)c1ccc(-c2c3nc(c(-c4cc(S(=O)(=O)[O-])ccc4F)c4ccc([nH]4)c(-c4cc(S(=O)(=O)[O-])ccc4F)c4nc(c(-c5cc(S(=O)(=O)[O-])ccc5F)c5ccc2[nH]5)C=C4)C=C3)cc1
REMARK SMILES IDX 24 1 23 2 21 3 22 4 2 5 1 6 3 7 4 8 5 9 6 10 7 11 11 12 8 13
REMARK SMILES IDX 10 14 9 15 12 16 13 18 14 19 19 20 15 21 16 22 18 23 20 24
REMARK SMILES IDX 17 25 25 26 26 27 27 28 28 29 29 30 30 31 91 32 31 33 90 34
REMARK SMILES IDX 32 35 33 36 34 37 84 38 35 39 89 40 83 41 85 42 36 43 88 44
REMARK SMILES IDX 82 45 81 46 37 48 69 49 49 50 68 51 50 52 53 53 67 54 86 55
REMARK SMILES IDX 51 56 52 57 66 59 87 60 54 61 38 62 39 63 47 64 40 65 46 66
REMARK SMILES IDX 48 67 45 68 41 69 42 70 43 71 44 72 70 73 71 74 79 75 72 76
REMARK SMILES IDX 78 77 80 78 77 79 73 80 74 81 75 82 76 83 55 84 56 85 64 86
REMARK SMILES IDX 57 87 63 88 65 89 62 90 58 91 59 92 60 93 61 94
REMARK H PARENT 12 17 85 47 53 58
REMARK Flexibility Score: inf
ROOT
ATOM      1  C   UNL A   1      32.235  28.389  24.782  1.00  0.00     0.275 C 
ENDROOT
BRANCH   1   2
ATOM      2  O   UNL A   1      32.723  27.298  25.586  1.00  0.00    -0.458 OA
BRANCH   2   3
ATOM      3  C   UNL A   1      31.835  26.684  26.388  1.00  0.00     0.355 C 
ATOM      4  O   UNL A   1      31.399  27.108  27.447  1.00  0.00    -0.245 OA
BRANCH   3   5
ATOM      5  C   UNL A   1      31.310  25.377  25.801  1.00  0.00     0.161 C 
ATOM      6  C   UNL A   1      29.916  25.409  25.231  1.00  0.00     0.079 C 
ATOM      7  N   UNL A   1      31.936  24.239  25.778  1.00  0.00    -0.084 NA
BRANCH   7   8
ATOM      8  O   UNL A   1      33.133  24.255  26.501  1.00  0.00    -0.390 OA
BRANCH   8   9
ATOM      9  C   UNL A   1      33.559  22.896  26.676  1.00  0.00     0.302 C 
BRANCH   9  10
ATOM     10  C   UNL A   1      34.917  22.676  26.043  1.00  0.00     0.016 A 
ATOM     11  C   UNL A   1      35.788  23.775  25.919  1.00  0.00     0.009 A 
ATOM     12  C   UNL A   1      35.293  21.422  25.516  1.00  0.00     0.045 A 
ATOM     13  C   UNL A   1      37.024  23.641  25.293  1.00  0.00     0.001 A 
ATOM     14  C   UNL A   1      36.549  21.307  24.899  1.00  0.00     0.026 A 
ATOM     15  C   UNL A   1      37.405  22.405  24.784  1.00  0.00     0.002 A 
BRANCH  12  16
ATOM     16  N   UNL A   1      34.421  20.313  25.620  1.00  0.00    -0.353 N 
ATOM     17  H   UNL A   1      34.153  20.076  26.538  1.00  0.00     0.167 HD
BRANCH  16  18
ATOM     18  C   UNL A   1      33.876  19.494  24.603  1.00  0.00     0.076 A 
ATOM     19  C   UNL A   1      34.444  18.230  24.337  1.00  0.00     0.066 A 
ATOM     20  C   UNL A   1      32.722  19.839  23.873  1.00  0.00     0.066 A 
ATOM     21  Cl  UNL A   1      35.885  17.715  25.125  1.00  0.00    -0.082 Cl
ATOM     22  C   UNL A   1      33.872  17.338  23.422  1.00  0.00     0.023 A 
ATOM     23  C   UNL A   1      32.151  18.945  22.953  1.00  0.00     0.023 A 
ATOM     24  Cl  UNL A   1      31.998  21.410  23.972  1.00  0.00    -0.082 Cl
ATOM     25  C   UNL A   1      32.718  17.692  22.738  1.00  0.00     0.003 A 
ENDBRANCH  16  18
ENDBRANCH  12  16
ENDBRANCH   9  10
ENDBRANCH   8   9
ENDBRANCH   7   8
ENDBRANCH   3   5
ENDBRANCH   2   3
ENDBRANCH   1   2
BRANCH   1  26
ATOM     26  C   UNL A   1      32.844  29.719  25.231  1.00  0.00     0.275 C 
BRANCH  26  27
ATOM     27  O   UNL A   1      32.617  29.950  26.633  1.00  0.00    -0.458 OA
BRANCH  27  28
ATOM     28  C   UNL A   1      33.114  31.119  27.099  1.00  0.00     0.338 C 
ATOM     29  O   UNL A   1      32.520  32.176  27.222  1.00  0.00    -0.246 OA
BRANCH  28  30
ATOM     30  C   UNL A   1      34.468  30.908  27.624  1.00  0.00     0.060 A 
ATOM     31  C   UNL A   1      34.802  29.614  28.014  1.00  0.00     0.016 A 
ATOM     32  C   UNL A   1      35.347  31.962  27.854  1.00  0.00     0.016 A 
ATOM     33  C   UNL A   1      35.976  29.362  28.704  1.00  0.00     0.010 A 
ATOM     34  C   UNL A   1      36.565  31.700  28.494  1.00  0.00     0.010 A 
ATOM     35  C   UNL A   1      36.876  30.401  28.945  1.00  0.00    -0.014 A 
BRANCH  35  36
ATOM     36  C   UNL A   1      38.112  30.118  29.713  1.00  0.00     0.031 A 
ATOM     37  C   UNL A   1      39.185  29.260  29.107  1.00  0.00     0.074 A 
ATOM     38  C   UNL A   1      38.287  30.676  30.926  1.00  0.00     0.049 A 
ATOM     39  N   UNL A   1      40.273  28.786  29.653  1.00  0.00    -0.248 NA
ATOM     40  C   UNL A   1      39.001  28.880  27.698  1.00  0.00     0.031 C 
ATOM     41  C   UNL A   1      37.348  31.593  31.579  1.00  0.00     0.029 A 
ATOM     42  N   UNL A   1      39.317  30.567  31.825  1.00  0.00    -0.354 N 
ATOM     43  C   UNL A   1      40.887  28.017  28.669  1.00  0.00     0.074 A 
ATOM     44  C   UNL A   1      40.037  28.077  27.499  1.00  0.00     0.031 C 
ATOM     45  C   UNL A   1      37.855  31.976  32.760  1.00  0.00     0.029 A 
ATOM     46  C   UNL A   1      39.106  31.266  32.991  1.00  0.00     0.049 A 
ATOM     47  H   UNL A   1      40.129  30.037  31.653  1.00  0.00     0.167 HD
ATOM     48  C   UNL A   1      42.050  27.324  28.746  1.00  0.00     0.034 A 
ATOM     49  C   UNL A   1      39.817  31.293  34.135  1.00  0.00     0.034 A 
ATOM     50  C   UNL A   1      42.886  27.302  29.923  1.00  0.00     0.049 A 
ATOM     51  C   UNL A   1      41.065  30.455  34.223  1.00  0.00     0.074 A 
ATOM     52  C   UNL A   1      44.084  26.636  30.118  1.00  0.00     0.029 A 
ATOM     53  N   UNL A   1      42.613  27.978  31.107  1.00  0.00    -0.354 N 
ATOM     54  N   UNL A   1      41.606  29.681  33.310  1.00  0.00    -0.248 NA
ATOM     55  C   UNL A   1      41.793  30.486  35.497  1.00  0.00     0.031 C 
ATOM     56  C   UNL A   1      44.498  26.855  31.438  1.00  0.00     0.029 A 
ATOM     57  C   UNL A   1      43.602  27.721  32.045  1.00  0.00     0.049 A 
ATOM     58  H   UNL A   1      41.830  28.555  31.258  1.00  0.00     0.167 HD
ATOM     59  C   UNL A   1      42.750  29.148  33.894  1.00  0.00     0.074 A 
ATOM     60  C   UNL A   1      42.830  29.706  35.230  1.00  0.00     0.031 C 
ATOM     61  C   UNL A   1      43.653  28.277  33.377  1.00  0.00     0.034 A 
BRANCH  48  62
ATOM     62  C   UNL A   1      42.439  26.483  27.553  1.00  0.00     0.023 A 
ATOM     63  C   UNL A   1      41.992  25.160  27.390  1.00  0.00     0.031 A 
ATOM     64  C   UNL A   1      43.309  27.007  26.580  1.00  0.00     0.131 A 
ATOM     65  C   UNL A   1      42.474  24.385  26.323  1.00  0.00     0.055 A 
ATOM     66  C   UNL A   1      43.721  26.257  25.476  1.00  0.00     0.041 A 
ATOM     67  F   UNL A   1      43.791  28.255  26.694  1.00  0.00    -0.206 F 
ATOM     68  C   UNL A   1      43.315  24.933  25.351  1.00  0.00     0.022 A 
BRANCH  65  69
ATOM     69  S   UNL A   1      42.103  22.609  26.301  1.00  0.00     0.124 S 
ATOM     70  O   UNL A   1      42.650  22.209  25.007  1.00  0.00    -0.237 OA
ATOM     71  O   UNL A   1      42.817  22.123  27.476  1.00  0.00    -0.237 OA
ATOM     72  O   UNL A   1      40.645  22.563  26.394  1.00  0.00    -0.744 OA
ENDBRANCH  65  69
ENDBRANCH  48  62
BRANCH  49  73
ATOM     73  C   UNL A   1      39.330  32.076  35.308  1.00  0.00     0.023 A 
ATOM     74  C   UNL A   1      39.741  33.401  35.522  1.00  0.00     0.031 A 
ATOM     75  C   UNL A   1      38.467  31.494  36.255  1.00  0.00     0.131 A 
ATOM     76  C   UNL A   1      39.320  34.085  36.674  1.00  0.00     0.055 A 
ATOM     77  C   UNL A   1      38.005  32.197  37.368  1.00  0.00     0.041 A 
ATOM     78  F   UNL A   1      38.045  30.228  36.103  1.00  0.00    -0.206 F 
ATOM     79  C   UNL A   1      38.443  33.498  37.588  1.00  0.00     0.022 A 
BRANCH  76  80
ATOM     80  S   UNL A   1      40.007  35.731  37.007  1.00  0.00     0.124 S 
ATOM     81  O   UNL A   1      39.654  36.452  35.789  1.00  0.00    -0.237 OA
ATOM     82  O   UNL A   1      39.287  36.121  38.215  1.00  0.00    -0.237 OA
ATOM     83  O   UNL A   1      41.434  35.475  37.188  1.00  0.00    -0.744 OA
ENDBRANCH  76  80
ENDBRANCH  49  73
BRANCH  61  84
ATOM     84  C   UNL A   1      44.826  27.916  34.255  1.00  0.00     0.023 A 
ATOM     85  C   UNL A   1      44.807  26.780  35.082  1.00  0.00     0.031 A 
ATOM     86  C   UNL A   1      45.969  28.735  34.278  1.00  0.00     0.131 A 
ATOM     87  C   UNL A   1      45.886  26.526  35.942  1.00  0.00     0.055 A 
ATOM     88  C   UNL A   1      47.064  28.442  35.091  1.00  0.00     0.041 A 
ATOM     89  F   UNL A   1      46.038  29.834  33.511  1.00  0.00    -0.206 F 
ATOM     90  C   UNL A   1      47.021  27.340  35.940  1.00  0.00     0.022 A 
BRANCH  87  91
ATOM     91  S   UNL A   1      45.745  25.169  37.139  1.00  0.00     0.124 S 
ATOM     92  O   UNL A   1      45.696  25.887  38.408  1.00  0.00    -0.237 OA
ATOM     93  O   UNL A   1      44.506  24.517  36.726  1.00  0.00    -0.237 OA
ATOM     94  O   UNL A   1      46.960  24.387  36.915  1.00  0.00    -0.744 OA
ENDBRANCH  87  91
ENDBRANCH  61  84
ENDBRANCH  35  36
ENDBRANCH  28  30
ENDBRANCH  27  28
ENDBRANCH  26  27
ENDBRANCH   1  26
TORSDOF 19
ENDMDL
MODEL 2
REMARK VINA RESULT:     -11.6      5.108     10.013
REMARK SMILES C/C(=N/OCc1ccccc1Nc1c(Cl)cccc1Cl)C(=O)OCCOC(=O)c1ccc(-c2c3nc(c(-c4cc(S(=O)(=O)[O-])ccc4F)c4ccc([nH]4)c(-c4cc(S(=O)(=O)[O-])ccc4F)c4nc(c(-c5cc(S(=O)(=O)[O-])ccc5F)c5ccc2[nH]5)C=C4)C=C3)cc1
REMARK SMILES IDX 24 1 23 2 21 3 22 4 2 5 1 6 3 7 4 8 5 9 6 10 7 11 11 12 8 13
REMARK SMILES IDX 10 14 9 15 12 16 13 18 14 19 19 20 15 21 16 22 18 23 20 24
REMARK SMILES IDX 17 25 25 26 26 27 27 28 28 29 29 30 30 31 91 32 31 33 90 34
REMARK SMILES IDX 32 35 33 36 34 37 84 38 35 39 89 40 83 41 85 42 36 43 88 44
REMARK SMILES IDX 82 45 81 46 37 48 69 49 49 50 68 51 50 52 53 53 67 54 86 55
REMARK SMILES IDX 51 56 52 57 66 59 87 60 54 61 38 62 39 63 47 64 40 65 46 66
REMARK SMILES IDX 48 67 45 68 41 69 42 70 43 71 44 72 70 73 71 74 79 75 72 76
REMARK SMILES IDX 78 77 80 78 77 79 73 80 74 81 75 82 76 83 55 84 56 85 64 86
REMARK SMILES IDX 57 87 63 88 65 89 62 90 58 91 59 92 60 93 61 94
REMARK H PARENT 12 17 85 47 53 58
REMARK Flexibility Score: inf
ROOT
ATOM      1  C   UNL A   1      35.000  20.804  24.640  1.00  0.00     0.275 C 
ENDROOT
BRANCH   1   2
ATOM      2  O   UNL A   1      33.996  20.414  25.596  1.00  0.00    -0.458 OA
BRANCH   2   3
ATOM      3  C   UNL A   1      32.775  20.115  25.114  1.00  0.00     0.355 C 
ATOM      4  O   UNL A   1      32.185  19.053  25.239  1.00  0.00    -0.245 OA
BRANCH   3   5
ATOM      5  C   UNL A   1      32.099  21.302  24.435  1.00  0.00     0.161 C 
ATOM      6  C   UNL A   1      32.234  21.385  22.937  1.00  0.00     0.079 C 
ATOM      7  N   UNL A   1      31.450  22.259  25.027  1.00  0.00    -0.084 NA
BRANCH   7   8
ATOM      8  O   UNL A   1      31.545  22.206  26.421  1.00  0.00    -0.390 OA
BRANCH   8   9
ATOM      9  C   UNL A   1      31.609  23.555  26.908  1.00  0.00     0.302 C 
BRANCH   9  10
ATOM     10  C   UNL A   1      32.819  24.270  26.341  1.00  0.00     0.016 A 
ATOM     11  C   UNL A   1      34.068  23.623  26.393  1.00  0.00     0.009 A 
ATOM     12  C   UNL A   1      32.731  25.584  25.835  1.00  0.00     0.045 A 
ATOM     13  C   UNL A   1      35.221  24.258  25.939  1.00  0.00     0.001 A 
ATOM     14  C   UNL A   1      33.905  26.201  25.373  1.00  0.00     0.026 A 
ATOM     15  C   UNL A   1      35.138  25.547  25.428  1.00  0.00     0.002 A 
BRANCH  12  16
ATOM     16  N   UNL A   1      31.484  26.251  25.792  1.00  0.00    -0.353 N 
ATOM     17  H   UNL A   1      30.854  26.007  26.509  1.00  0.00     0.167 HD
BRANCH  16  18
ATOM     18  C   UNL A   1      31.007  27.216  24.873  1.00  0.00     0.076 A 
ATOM     19  C   UNL A   1      30.274  26.808  23.740  1.00  0.00     0.066 A 
ATOM     20  C   UNL A   1      31.158  28.603  25.067  1.00  0.00     0.066 A 
ATOM     21  Cl  UNL A   1      30.066  25.141  23.364  1.00  0.00    -0.082 Cl
ATOM     22  C   UNL A   1      29.685  27.729  22.866  1.00  0.00     0.023 A 
ATOM     23  C   UNL A   1      30.570  29.527  24.189  1.00  0.00     0.023 A 
ATOM     24  Cl  UNL A   1      32.158  29.261  26.321  1.00  0.00    -0.082 Cl
ATOM     25  C   UNL A   1      29.824  29.090  23.097  1.00  0.00     0.003 A 
ENDBRANCH  16  18
ENDBRANCH  12  16
ENDBRANCH   9  10
ENDBRANCH   8   9
ENDBRANCH   7   8
ENDBRANCH   3   5
ENDBRANCH   2   3
ENDBRANCH   1   2
BRANCH   1  26
ATOM     26  C   UNL A   1      36.392  20.351  25.088  1.00  0.00     0.275 C 
BRANCH  26  27
ATOM     27  O   UNL A   1      37.167  21.460  25.580  1.00  0.00    -0.458 OA
BRANCH  27  28
ATOM     28  C   UNL A   1      38.466  21.173  25.823  1.00  0.00     0.338 C 
ATOM     29  O   UNL A   1      39.082  20.183  25.470  1.00  0.00    -0.246 OA
BRANCH  28  30
ATOM     30  C   UNL A   1      39.122  22.331  26.444  1.00  0.00     0.060 A 
ATOM     31  C   UNL A   1      38.662  23.592  26.076  1.00  0.00     0.016 A 
ATOM     32  C   UNL A   1      40.240  22.199  27.263  1.00  0.00     0.016 A 
ATOM     33  C   UNL A   1      39.348  24.734  26.451  1.00  0.00     0.010 A 
ATOM     34  C   UNL A   1      40.899  23.356  27.698  1.00  0.00     0.010 A 
ATOM     35  C   UNL A   1      40.471  24.630  27.275  1.00  0.00    -0.014 A 
BRANCH  35  36
ATOM     36  C   UNL A   1      41.212  25.862  27.639  1.00  0.00     0.031 A 
ATOM     37  C   UNL A   1      40.543  26.910  28.480  1.00  0.00     0.074 A 
ATOM     38  C   UNL A   1      42.496  26.007  27.259  1.00  0.00     0.049 A 
ATOM     39  N   UNL A   1      40.961  28.107  28.799  1.00  0.00    -0.248 NA
ATOM     40  C   UNL A   1      39.223  26.565  29.030  1.00  0.00     0.031 C 
ATOM     41  C   UNL A   1      43.273  25.015  26.509  1.00  0.00     0.029 A 
ATOM     42  N   UNL A   1      43.381  27.036  27.457  1.00  0.00    -0.354 N 
ATOM     43  C   UNL A   1      39.940  28.677  29.552  1.00  0.00     0.074 A 
ATOM     44  C   UNL A   1      38.877  27.697  29.627  1.00  0.00     0.031 C 
ATOM     45  C   UNL A   1      44.519  25.476  26.330  1.00  0.00     0.029 A 
ATOM     46  C   UNL A   1      44.607  26.827  26.870  1.00  0.00     0.049 A 
ATOM     47  H   UNL A   1      43.159  27.847  27.970  1.00  0.00     0.167 HD
ATOM     48  C   UNL A   1      39.899  29.907  30.123  1.00  0.00     0.034 A 
ATOM     49  C   UNL A   1      45.665  27.650  26.738  1.00  0.00     0.034 A 
ATOM     50  C   UNL A   1      40.987  30.854  30.047  1.00  0.00     0.049 A 
ATOM     51  C   UNL A   1      45.568  29.039  27.312  1.00  0.00     0.074 A 
ATOM     52  C   UNL A   1      41.060  32.128  30.582  1.00  0.00     0.029 A 
ATOM     53  N   UNL A   1      42.194  30.630  29.394  1.00  0.00    -0.354 N 
ATOM     54  N   UNL A   1      44.574  29.593  27.970  1.00  0.00    -0.248 NA
ATOM     55  C   UNL A   1      46.728  29.917  27.120  1.00  0.00     0.031 C 
ATOM     56  C   UNL A   1      42.280  32.697  30.197  1.00  0.00     0.029 A 
ATOM     57  C   UNL A   1      43.005  31.751  29.489  1.00  0.00     0.049 A 
ATOM     58  H   UNL A   1      42.439  29.796  28.933  1.00  0.00     0.167 HD
ATOM     59  C   UNL A   1      44.999  30.878  28.287  1.00  0.00     0.074 A 
ATOM     60  C   UNL A   1      46.346  31.009  27.766  1.00  0.00     0.031 C 
ATOM     61  C   UNL A   1      44.340  31.865  28.947  1.00  0.00     0.034 A 
BRANCH  48  62
ATOM     62  C   UNL A   1      38.616  30.315  30.806  1.00  0.00     0.023 A 
ATOM     63  C   UNL A   1      37.568  30.951  30.119  1.00  0.00     0.031 A 
ATOM     64  C   UNL A   1      38.459  30.099  32.188  1.00  0.00     0.131 A 
ATOM     65  C   UNL A   1      36.445  31.412  30.825  1.00  0.00     0.055 A 
ATOM     66  C   UNL A   1      37.304  30.487  32.870  1.00  0.00     0.041 A 
ATOM     67  F   UNL A   1      39.436  29.519  32.905  1.00  0.00    -0.206 F 
ATOM     68  C   UNL A   1      36.295  31.160  32.191  1.00  0.00     0.022 A 
BRANCH  65  69
ATOM     69  S   UNL A   1      35.250  32.470  29.963  1.00  0.00     0.124 S 
ATOM     70  O   UNL A   1      34.317  32.798  31.038  1.00  0.00    -0.237 OA
ATOM     71  O   UNL A   1      36.086  33.566  29.486  1.00  0.00    -0.237 OA
ATOM     72  O   UNL A   1      34.709  31.599  28.921  1.00  0.00    -0.744 OA
ENDBRANCH  65  69
ENDBRANCH  48  62
BRANCH  49  73
ATOM     73  C   UNL A   1      46.869  27.215  25.973  1.00  0.00     0.023 A 
ATOM     74  C   UNL A   1      47.104  27.666  24.665  1.00  0.00     0.031 A 
ATOM     75  C   UNL A   1      47.790  26.310  26.532  1.00  0.00     0.131 A 
ATOM     76  C   UNL A   1      48.209  27.181  23.947  1.00  0.00     0.055 A 
ATOM     77  C   UNL A   1      48.918  25.875  25.836  1.00  0.00     0.041 A 
ATOM     78  F   UNL A   1      47.613  25.842  27.779  1.00  0.00    -0.206 F 
ATOM     79  C   UNL A   1      49.126  26.302  24.529  1.00  0.00     0.022 A 
BRANCH  76  80
ATOM     80  S   UNL A   1      48.388  27.649  22.203  1.00  0.00     0.124 S 
ATOM     81  O   UNL A   1      48.432  26.346  21.549  1.00  0.00    -0.237 OA
ATOM     82  O   UNL A   1      47.182  28.440  21.977  1.00  0.00    -0.237 OA
ATOM     83  O   UNL A   1      49.639  28.402  22.179  1.00  0.00    -0.744 OA
ENDBRANCH  76  80
ENDBRANCH  49  73
BRANCH  61  84
ATOM     84  C   UNL A   1      45.094  33.151  29.175  1.00  0.00     0.023 A 
ATOM     85  C   UNL A   1      45.014  34.224  28.271  1.00  0.00     0.031 A 
ATOM     86  C   UNL A   1      45.923  33.293  30.302  1.00  0.00     0.131 A 
ATOM     87  C   UNL A   1      45.795  35.370  28.478  1.00  0.00     0.055 A 
ATOM     88  C   UNL A   1      46.649  34.461  30.535  1.00  0.00     0.041 A 
ATOM     89  F   UNL A   1      46.039  32.297  31.195  1.00  0.00    -0.206 F 
ATOM     90  C   UNL A   1      46.599  35.503  29.613  1.00  0.00     0.022 A 
BRANCH  87  91
ATOM     91  S   UNL A   1      45.821  36.651  27.193  1.00  0.00     0.124 S 
ATOM     92  O   UNL A   1      44.405  36.778  26.863  1.00  0.00    -0.237 OA
ATOM     93  O   UNL A   1      46.416  37.784  27.894  1.00  0.00    -0.237 OA
ATOM     94  O   UNL A   1      46.653  36.066  26.143  1.00  0.00    -0.744 OA
ENDBRANCH  87  91
ENDBRANCH  61  84
ENDBRANCH  35  36
ENDBRANCH  28  30
ENDBRANCH  27  28
ENDBRANCH  26  27
ENDBRANCH   1  26
TORSDOF 19
ENDMDL
MODEL 3
REMARK VINA RESULT:     -11.3      5.011      8.085
REMARK SMILES C/C(=N/OCc1ccccc1Nc1c(Cl)cccc1Cl)C(=O)OCCOC(=O)c1ccc(-c2c3nc(c(-c4cc(S(=O)(=O)[O-])ccc4F)c4ccc([nH]4)c(-c4cc(S(=O)(=O)[O-])ccc4F)c4nc(c(-c5cc(S(=O)(=O)[O-])ccc5F)c5ccc2[nH]5)C=C4)C=C3)cc1
REMARK SMILES IDX 24 1 23 2 21 3 22 4 2 5 1 6 3 7 4 8 5 9 6 10 7 11 11 12 8 13
REMARK SMILES IDX 10 14 9 15 12 16 13 18 14 19 19 20 15 21 16 22 18 23 20 24
REMARK SMILES IDX 17 25 25 26 26 27 27 28 28 29 29 30 30 31 91 32 31 33 90 34
REMARK SMILES IDX 32 35 33 36 34 37 84 38 35 39 89 40 83 41 85 42 36 43 88 44
REMARK SMILES IDX 82 45 81 46 37 48 69 49 49 50 68 51 50 52 53 53 67 54 86 55
REMARK SMILES IDX 51 56 52 57 66 59 87 60 54 61 38 62 39 63 47 64 40 65 46 66
REMARK SMILES IDX 48 67 45 68 41 69 42 70 43 71 44 72 70 73 71 74 79 75 72 76
REMARK SMILES IDX 78 77 80 78 77 79 73 80 74 81 75 82 76 83 55 84 56 85 64 86
REMARK SMILES IDX 57 87 63 88 65 89 62 90 58 91 59 92 60 93 61 94
REMARK H PARENT 12 17 85 47 53 58
REMARK Flexibility Score: inf
ROOT
ATOM      1  C   UNL A   1      37.755  19.693  24.954  1.00  0.00     0.275 C 
ENDROOT
BRANCH   1   2
ATOM      2  O   UNL A   1      37.638  21.124  24.836  1.00  0.00    -0.458 OA
BRANCH   2   3
ATOM      3  C   UNL A   1      36.485  21.680  25.250  1.00  0.00     0.355 C 
ATOM      4  O   UNL A   1      35.578  21.115  25.841  1.00  0.00    -0.245 OA
BRANCH   3   5
ATOM      5  C   UNL A   1      36.425  23.183  24.992  1.00  0.00     0.161 C 
ATOM      6  C   UNL A   1      36.904  24.075  26.107  1.00  0.00     0.079 C 
ATOM      7  N   UNL A   1      35.971  23.760  23.921  1.00  0.00    -0.084 NA
BRANCH   7   8
ATOM      8  O   UNL A   1      35.368  22.868  23.028  1.00  0.00    -0.390 OA
BRANCH   8   9
ATOM      9  C   UNL A   1      34.065  23.377  22.712  1.00  0.00     0.302 C 
BRANCH   9  10
ATOM     10  C   UNL A   1      33.098  23.113  23.848  1.00  0.00     0.016 A 
ATOM     11  C   UNL A   1      32.692  21.787  24.092  1.00  0.00     0.009 A 
ATOM     12  C   UNL A   1      32.549  24.165  24.612  1.00  0.00     0.045 A 
ATOM     13  C   UNL A   1      31.762  21.496  25.086  1.00  0.00     0.001 A 
ATOM     14  C   UNL A   1      31.621  23.847  25.616  1.00  0.00     0.026 A 
ATOM     15  C   UNL A   1      31.228  22.527  25.849  1.00  0.00     0.002 A 
BRANCH  12  16
ATOM     16  N   UNL A   1      32.938  25.503  24.367  1.00  0.00    -0.353 N 
ATOM     17  H   UNL A   1      33.909  25.666  24.379  1.00  0.00     0.167 HD
BRANCH  16  18
ATOM     18  C   UNL A   1      32.140  26.642  24.107  1.00  0.00     0.076 A 
ATOM     19  C   UNL A   1      31.866  27.562  25.141  1.00  0.00     0.066 A 
ATOM     20  C   UNL A   1      31.652  26.964  22.825  1.00  0.00     0.066 A 
ATOM     21  Cl  UNL A   1      32.361  27.256  26.761  1.00  0.00    -0.082 Cl
ATOM     22  C   UNL A   1      31.179  28.759  24.907  1.00  0.00     0.023 A 
ATOM     23  C   UNL A   1      30.961  28.163  22.591  1.00  0.00     0.023 A 
ATOM     24  Cl  UNL A   1      31.771  25.870  21.487  1.00  0.00    -0.082 Cl
ATOM     25  C   UNL A   1      30.736  29.065  23.628  1.00  0.00     0.003 A 
ENDBRANCH  16  18
ENDBRANCH  12  16
ENDBRANCH   9  10
ENDBRANCH   8   9
ENDBRANCH   7   8
ENDBRANCH   3   5
ENDBRANCH   2   3
ENDBRANCH   1   2
BRANCH   1  26
ATOM     26  C   UNL A   1      39.083  19.300  25.605  1.00  0.00     0.275 C 
BRANCH  26  27
ATOM     27  O   UNL A   1      39.911  20.455  25.838  1.00  0.00    -0.458 OA
BRANCH  27  28
ATOM     28  C   UNL A   1      40.532  20.468  27.039  1.00  0.00     0.338 C 
ATOM     29  O   UNL A   1      40.945  19.509  27.667  1.00  0.00    -0.246 OA
BRANCH  28  30
ATOM     30  C   UNL A   1      40.815  21.853  27.436  1.00  0.00     0.060 A 
ATOM     31  C   UNL A   1      40.227  22.862  26.679  1.00  0.00     0.016 A 
ATOM     32  C   UNL A   1      41.732  22.165  28.435  1.00  0.00     0.016 A 
ATOM     33  C   UNL A   1      40.596  24.185  26.850  1.00  0.00     0.010 A 
ATOM     34  C   UNL A   1      42.061  23.509  28.655  1.00  0.00     0.010 A 
ATOM     35  C   UNL A   1      41.512  24.525  27.848  1.00  0.00    -0.014 A 
BRANCH  35  36
ATOM     36  C   UNL A   1      41.919  25.943  27.994  1.00  0.00     0.031 A 
ATOM     37  C   UNL A   1      43.239  26.399  27.442  1.00  0.00     0.074 A 
ATOM     38  C   UNL A   1      41.079  26.824  28.572  1.00  0.00     0.049 A 
ATOM     39  N   UNL A   1      43.840  27.553  27.577  1.00  0.00    -0.248 NA
ATOM     40  C   UNL A   1      43.985  25.420  26.636  1.00  0.00     0.031 C 
ATOM     41  C   UNL A   1      39.737  26.509  29.071  1.00  0.00     0.029 A 
ATOM     42  N   UNL A   1      41.220  28.163  28.831  1.00  0.00    -0.354 N 
ATOM     43  C   UNL A   1      45.053  27.428  26.909  1.00  0.00     0.074 A 
ATOM     44  C   UNL A   1      45.107  26.080  26.385  1.00  0.00     0.031 C 
ATOM     45  C   UNL A   1      39.174  27.626  29.554  1.00  0.00     0.029 A 
ATOM     46  C   UNL A   1      40.142  28.713  29.484  1.00  0.00     0.049 A 
ATOM     47  H   UNL A   1      42.018  28.681  28.574  1.00  0.00     0.167 HD
ATOM     48  C   UNL A   1      46.028  28.358  26.755  1.00  0.00     0.034 A 
ATOM     49  C   UNL A   1      39.973  29.941  30.012  1.00  0.00     0.034 A 
ATOM     50  C   UNL A   1      45.934  29.702  27.273  1.00  0.00     0.049 A 
ATOM     51  C   UNL A   1      41.101  30.932  29.896  1.00  0.00     0.074 A 
ATOM     52  C   UNL A   1      46.857  30.729  27.180  1.00  0.00     0.029 A 
ATOM     53  N   UNL A   1      44.849  30.209  27.980  1.00  0.00    -0.354 N 
ATOM     54  N   UNL A   1      42.271  30.787  29.316  1.00  0.00    -0.248 NA
ATOM     55  C   UNL A   1      40.891  32.248  30.512  1.00  0.00     0.031 C 
ATOM     56  C   UNL A   1      46.361  31.831  27.888  1.00  0.00     0.029 A 
ATOM     57  C   UNL A   1      45.093  31.522  28.355  1.00  0.00     0.049 A 
ATOM     58  H   UNL A   1      44.027  29.709  28.184  1.00  0.00     0.167 HD
ATOM     59  C   UNL A   1      42.929  32.001  29.482  1.00  0.00     0.074 A 
ATOM     60  C   UNL A   1      42.016  32.872  30.197  1.00  0.00     0.031 C 
ATOM     61  C   UNL A   1      44.173  32.367  29.082  1.00  0.00     0.034 A 
BRANCH  48  62
ATOM     62  C   UNL A   1      47.300  27.924  26.065  1.00  0.00     0.023 A 
ATOM     63  C   UNL A   1      47.480  28.046  24.676  1.00  0.00     0.031 A 
ATOM     64  C   UNL A   1      48.338  27.338  26.812  1.00  0.00     0.131 A 
ATOM     65  C   UNL A   1      48.634  27.523  24.071  1.00  0.00     0.055 A 
ATOM     66  C   UNL A   1      49.519  26.893  26.215  1.00  0.00     0.041 A 
ATOM     67  F   UNL A   1      48.214  27.170  28.139  1.00  0.00    -0.206 F 
ATOM     68  C   UNL A   1      49.666  26.971  24.834  1.00  0.00     0.022 A 
BRANCH  65  69
ATOM     69  S   UNL A   1      48.706  27.442  22.260  1.00  0.00     0.124 S 
ATOM     70  O   UNL A   1      50.026  28.009  21.992  1.00  0.00    -0.237 OA
ATOM     71  O   UNL A   1      48.558  26.015  22.001  1.00  0.00    -0.237 OA
ATOM     72  O   UNL A   1      47.581  28.274  21.835  1.00  0.00    -0.744 OA
ENDBRANCH  65  69
ENDBRANCH  48  62
BRANCH  49  73
ATOM     73  C   UNL A   1      38.726  30.277  30.759  1.00  0.00     0.023 A 
ATOM     74  C   UNL A   1      37.681  30.989  30.151  1.00  0.00     0.031 A 
ATOM     75  C   UNL A   1      38.576  29.915  32.111  1.00  0.00     0.131 A 
ATOM     76  C   UNL A   1      36.552  31.351  30.903  1.00  0.00     0.055 A 
ATOM     77  C   UNL A   1      37.427  30.226  32.838  1.00  0.00     0.041 A 
ATOM     78  F   UNL A   1      39.546  29.236  32.745  1.00  0.00    -0.206 F 
ATOM     79  C   UNL A   1      36.411  30.960  32.236  1.00  0.00     0.022 A 
BRANCH  76  80
ATOM     80  S   UNL A   1      35.301  32.418  30.136  1.00  0.00     0.124 S 
ATOM     81  O   UNL A   1      34.909  31.629  28.974  1.00  0.00    -0.237 OA
ATOM     82  O   UNL A   1      34.308  32.533  31.199  1.00  0.00    -0.237 OA
ATOM     83  O   UNL A   1      36.037  33.645  29.838  1.00  0.00    -0.744 OA
ENDBRANCH  76  80
ENDBRANCH  49  73
BRANCH  61  84
ATOM     84  C   UNL A   1      44.591  33.787  29.376  1.00  0.00     0.023 A 
ATOM     85  C   UNL A   1      44.388  34.823  28.449  1.00  0.00     0.031 A 
ATOM     86  C   UNL A   1      45.219  34.099  30.594  1.00  0.00     0.131 A 
ATOM     87  C   UNL A   1      44.864  36.112  28.729  1.00  0.00     0.055 A 
ATOM     88  C   UNL A   1      45.635  35.397  30.893  1.00  0.00     0.041 A 
ATOM     89  F   UNL A   1      45.440  33.147  31.514  1.00  0.00    -0.206 F 
ATOM     90  C   UNL A   1      45.470  36.410  29.952  1.00  0.00     0.022 A 
BRANCH  87  91
ATOM     91  S   UNL A   1      44.767  37.378  27.433  1.00  0.00     0.124 S 
ATOM     92  O   UNL A   1      44.936  38.609  28.198  1.00  0.00    -0.237 OA
ATOM     93  O   UNL A   1      45.877  37.014  26.558  1.00  0.00    -0.237 OA
ATOM     94  O   UNL A   1      43.437  37.180  26.859  1.00  0.00    -0.744 OA
ENDBRANCH  87  91
ENDBRANCH  61  84
ENDBRANCH  35  36
ENDBRANCH  28  30
ENDBRANCH  27  28
ENDBRANCH  26  27
ENDBRANCH   1  26
TORSDOF 19
ENDMDL
