MODEL 1
REMARK VINA RESULT:     -12.9      0.000      0.000
REMARK SMILES CC1(C)[C@H](O)CC[C@]2(C)[C@@H]1CC[C@]1(C)Oc3oc(C(=O)OCCOC(=O)c4ccc(-c5c6nc(c(-c7cc(S(=O)(=O)[O-])ccc7F)c7ccc([nH]7)c(-c7cc(S(=O)(=O)[O-])ccc7F)c7nc(c(-c8cc(S(=O)(=O)[O-])ccc8F)c8ccc5[nH]8)C=C7)C=C6)cc4)cc(=O)c3C[C@H]21
REMARK SMILES IDX 23 1 22 2 21 3 19 4 20 5 18 6 1 7 2 8 3 9 4 10 10 11 6 12
REMARK SMILES IDX 8 13 11 14 7 15 9 16 95 17 12 18 13 19 94 20 14 21 15 22
REMARK SMILES IDX 93 23 16 24 91 25 17 26 90 27 92 28 5 29 24 31 25 32 26 33
REMARK SMILES IDX 27 34 28 35 89 36 29 37 88 38 30 39 31 40 32 41 82 42 33 43
REMARK SMILES IDX 87 44 81 45 83 46 34 47 86 48 80 49 79 50 35 52 67 53 47 54
REMARK SMILES IDX 66 55 48 56 51 57 65 58 84 59 49 60 50 61 64 63 85 64 52 65
REMARK SMILES IDX 36 66 37 67 45 68 38 69 44 70 46 71 43 72 39 73 40 74 41 75
REMARK SMILES IDX 42 76 68 77 69 78 77 79 70 80 76 81 78 82 75 83 71 84 72 85
REMARK SMILES IDX 73 86 74 87 53 88 54 89 62 90 55 91 61 92 63 93 60 94 56 95
REMARK SMILES IDX 57 96 58 97 59 98
REMARK H PARENT 5 30 83 51 51 62
REMARK Flexibility Score: inf
ROOT
ATOM      1  C   UNL A   1      43.826  21.676  25.361  1.00  0.00     0.275 C 
ENDROOT
BRANCH   1   2
ATOM      2  C   UNL A   1      42.936  20.672  26.100  1.00  0.00     0.275 C 
BRANCH   2   3
ATOM      3  O   UNL A   1      41.566  20.782  25.669  1.00  0.00    -0.456 OA
BRANCH   3   4
ATOM      4  C   UNL A   1      40.629  20.680  26.648  1.00  0.00     0.374 C 
ATOM      5  O   UNL A   1      40.767  20.094  27.708  1.00  0.00    -0.242 OA
BRANCH   4   6
ATOM      6  C   UNL A   1      39.408  21.456  26.307  1.00  0.00     0.219 A 
ATOM      7  C   UNL A   1      32.131  25.529  26.613  1.00  0.00     0.014 C 
ATOM      8  C   UNL A   1      31.554  24.362  25.748  1.00  0.00    -0.006 C 
ATOM      9  C   UNL A   1      30.331  23.837  26.531  1.00  0.00     0.014 C 
ATOM     10  C   UNL A   1      31.095  24.993  24.407  1.00  0.00     0.120 C 
ATOM     11  C   UNL A   1      32.695  23.277  25.568  1.00  0.00     0.004 C 
ATOM     12  C   UNL A   1      32.239  25.429  23.476  1.00  0.00     0.033 C 
ATOM     13  C   UNL A   1      33.405  23.221  24.164  1.00  0.00    -0.022 C 
ATOM     14  C   UNL A   1      32.473  21.861  26.133  1.00  0.00     0.009 C 
ATOM     15  C   UNL A   1      33.566  24.677  23.663  1.00  0.00     0.010 C 
ATOM     16  C   UNL A   1      32.636  22.457  23.049  1.00  0.00     0.012 C 
ATOM     17  C   UNL A   1      34.810  22.499  24.367  1.00  0.00     0.044 C 
ATOM     18  C   UNL A   1      33.821  21.133  26.319  1.00  0.00     0.049 C 
ATOM     19  C   UNL A   1      34.719  21.094  25.061  1.00  0.00     0.113 C 
ATOM     20  C   UNL A   1      35.817  23.414  25.107  1.00  0.00     0.055 C 
ATOM     21  C   UNL A   1      34.193  19.986  24.123  1.00  0.00     0.057 C 
ATOM     22  O   UNL A   1      36.017  20.561  25.425  1.00  0.00    -0.458 OA
ATOM     23  C   UNL A   1      37.037  22.701  25.547  1.00  0.00     0.081 A 
ATOM     24  C   UNL A   1      37.101  21.371  25.644  1.00  0.00     0.292 A 
ATOM     25  C   UNL A   1      38.231  23.509  25.882  1.00  0.00     0.192 A 
ATOM     26  O   UNL A   1      38.284  20.724  25.964  1.00  0.00    -0.418 OA
ATOM     27  C   UNL A   1      39.443  22.790  26.295  1.00  0.00     0.107 A 
ATOM     28  O   UNL A   1      38.233  24.732  25.821  1.00  0.00    -0.289 OA
BRANCH  10  29
ATOM     29  O   UNL A   1      30.195  24.148  23.692  1.00  0.00    -0.393 OA
ATOM     30  H   UNL A   1      29.492  24.685  23.295  1.00  0.00     0.210 HD
ENDBRANCH  10  29
ENDBRANCH   4   6
ENDBRANCH   3   4
ENDBRANCH   2   3
ENDBRANCH   1   2
BRANCH   1  31
ATOM     31  O   UNL A   1      43.094  22.859  24.997  1.00  0.00    -0.458 OA
BRANCH  31  32
ATOM     32  C   UNL A   1      43.768  24.023  25.134  1.00  0.00     0.338 C 
ATOM     33  O   UNL A   1      44.746  24.389  24.501  1.00  0.00    -0.246 OA
BRANCH  32  34
ATOM     34  C   UNL A   1      43.083  24.873  26.116  1.00  0.00     0.060 A 
ATOM     35  C   UNL A   1      43.425  26.224  26.172  1.00  0.00     0.016 A 
ATOM     36  C   UNL A   1      42.197  24.326  27.045  1.00  0.00     0.016 A 
ATOM     37  C   UNL A   1      42.936  27.028  27.191  1.00  0.00     0.010 A 
ATOM     38  C   UNL A   1      41.668  25.149  28.046  1.00  0.00     0.010 A 
ATOM     39  C   UNL A   1      42.058  26.496  28.141  1.00  0.00    -0.014 A 
BRANCH  39  40
ATOM     40  C   UNL A   1      41.593  27.357  29.254  1.00  0.00     0.031 A 
ATOM     41  C   UNL A   1      42.377  27.417  30.532  1.00  0.00     0.074 A 
ATOM     42  C   UNL A   1      40.493  28.118  29.090  1.00  0.00     0.049 A 
ATOM     43  N   UNL A   1      42.121  28.089  31.622  1.00  0.00    -0.248 NA
ATOM     44  C   UNL A   1      43.614  26.620  30.593  1.00  0.00     0.031 C 
ATOM     45  C   UNL A   1      39.684  28.168  27.872  1.00  0.00     0.029 A 
ATOM     46  N   UNL A   1      39.873  28.997  29.940  1.00  0.00    -0.354 N 
ATOM     47  C   UNL A   1      43.147  27.782  32.507  1.00  0.00     0.074 A 
ATOM     48  C   UNL A   1      44.023  26.848  31.833  1.00  0.00     0.031 C 
ATOM     49  C   UNL A   1      38.681  29.040  28.049  1.00  0.00     0.029 A 
ATOM     50  C   UNL A   1      38.745  29.574  29.407  1.00  0.00     0.049 A 
ATOM     51  H   UNL A   1      40.205  29.197  30.846  1.00  0.00     0.167 HD
ATOM     52  C   UNL A   1      43.342  28.249  33.761  1.00  0.00     0.034 A 
ATOM     53  C   UNL A   1      37.851  30.423  29.955  1.00  0.00     0.034 A 
ATOM     54  C   UNL A   1      42.473  29.198  34.408  1.00  0.00     0.049 A 
ATOM     55  C   UNL A   1      38.076  30.905  31.365  1.00  0.00     0.074 A 
ATOM     56  C   UNL A   1      42.594  29.738  35.676  1.00  0.00     0.029 A 
ATOM     57  N   UNL A   1      41.334  29.751  33.842  1.00  0.00    -0.354 N 
ATOM     58  N   UNL A   1      39.063  30.622  32.182  1.00  0.00    -0.248 NA
ATOM     59  C   UNL A   1      37.077  31.823  31.929  1.00  0.00     0.031 C 
ATOM     60  C   UNL A   1      41.506  30.585  35.893  1.00  0.00     0.029 A 
ATOM     61  C   UNL A   1      40.736  30.618  34.741  1.00  0.00     0.049 A 
ATOM     62  H   UNL A   1      41.002  29.558  32.936  1.00  0.00     0.167 HD
ATOM     63  C   UNL A   1      38.818  31.344  33.346  1.00  0.00     0.074 A 
ATOM     64  C   UNL A   1      37.598  32.092  33.120  1.00  0.00     0.031 C 
ATOM     65  C   UNL A   1      39.536  31.380  34.495  1.00  0.00     0.034 A 
BRANCH  52  66
ATOM     66  C   UNL A   1      44.533  27.756  34.537  1.00  0.00     0.023 A 
ATOM     67  C   UNL A   1      44.401  26.646  35.391  1.00  0.00     0.031 A 
ATOM     68  C   UNL A   1      45.753  28.454  34.531  1.00  0.00     0.131 A 
ATOM     69  C   UNL A   1      45.460  26.287  36.233  1.00  0.00     0.055 A 
ATOM     70  C   UNL A   1      46.817  28.072  35.348  1.00  0.00     0.041 A 
ATOM     71  F   UNL A   1      45.927  29.515  33.726  1.00  0.00    -0.206 F 
ATOM     72  C   UNL A   1      46.669  26.990  36.212  1.00  0.00     0.022 A 
BRANCH  69  73
ATOM     73  S   UNL A   1      45.294  24.920  37.411  1.00  0.00     0.124 S 
ATOM     74  O   UNL A   1      46.628  24.871  38.008  1.00  0.00    -0.237 OA
ATOM     75  O   UNL A   1      44.234  25.404  38.290  1.00  0.00    -0.237 OA
ATOM     76  O   UNL A   1      44.952  23.776  36.574  1.00  0.00    -0.744 OA
ENDBRANCH  69  73
ENDBRANCH  52  66
BRANCH  53  77
ATOM     77  C   UNL A   1      36.688  30.878  29.142  1.00  0.00     0.023 A 
ATOM     78  C   UNL A   1      35.755  29.954  28.639  1.00  0.00     0.031 A 
ATOM     79  C   UNL A   1      36.547  32.227  28.778  1.00  0.00     0.131 A 
ATOM     80  C   UNL A   1      34.758  30.381  27.752  1.00  0.00     0.055 A 
ATOM     81  C   UNL A   1      35.514  32.658  27.943  1.00  0.00     0.041 A 
ATOM     82  F   UNL A   1      37.419  33.143  29.226  1.00  0.00    -0.206 F 
ATOM     83  C   UNL A   1      34.622  31.731  27.414  1.00  0.00     0.022 A 
BRANCH  80  84
ATOM     84  S   UNL A   1      33.669  29.185  26.930  1.00  0.00     0.124 S 
ATOM     85  O   UNL A   1      34.604  28.132  26.550  1.00  0.00    -0.237 OA
ATOM     86  O   UNL A   1      32.738  28.846  28.004  1.00  0.00    -0.237 OA
ATOM     87  O   UNL A   1      33.094  29.944  25.825  1.00  0.00    -0.744 OA
ENDBRANCH  80  84
ENDBRANCH  53  77
BRANCH  65  88
ATOM     88  C   UNL A   1      39.060  32.269  35.615  1.00  0.00     0.023 A 
ATOM     89  C   UNL A   1      39.569  33.576  35.733  1.00  0.00     0.031 A 
ATOM     90  C   UNL A   1      38.241  31.773  36.643  1.00  0.00     0.131 A 
ATOM     91  C   UNL A   1      39.285  34.331  36.877  1.00  0.00     0.055 A 
ATOM     92  C   UNL A   1      37.926  32.546  37.762  1.00  0.00     0.041 A 
ATOM     93  F   UNL A   1      37.742  30.529  36.578  1.00  0.00    -0.206 F 
ATOM     94  C   UNL A   1      38.460  33.826  37.888  1.00  0.00     0.022 A 
BRANCH  91  95
ATOM     95  S   UNL A   1      40.033  35.964  37.128  1.00  0.00     0.124 S 
ATOM     96  O   UNL A   1      39.330  36.440  38.317  1.00  0.00    -0.237 OA
ATOM     97  O   UNL A   1      41.440  35.630  37.328  1.00  0.00    -0.237 OA
ATOM     98  O   UNL A   1      39.727  36.686  35.898  1.00  0.00    -0.744 OA
ENDBRANCH  91  95
ENDBRANCH  65  88
ENDBRANCH  39  40
ENDBRANCH  32  34
ENDBRANCH  31  32
ENDBRANCH   1  31
TORSDOF 15
ENDMDL
MODEL 2
REMARK VINA RESULT:     -12.7      4.825      8.803
REMARK SMILES CC1(C)[C@H](O)CC[C@]2(C)[C@@H]1CC[C@]1(C)Oc3oc(C(=O)OCCOC(=O)c4ccc(-c5c6nc(c(-c7cc(S(=O)(=O)[O-])ccc7F)c7ccc([nH]7)c(-c7cc(S(=O)(=O)[O-])ccc7F)c7nc(c(-c8cc(S(=O)(=O)[O-])ccc8F)c8ccc5[nH]8)C=C7)C=C6)cc4)cc(=O)c3C[C@H]21
REMARK SMILES IDX 23 1 22 2 21 3 19 4 20 5 18 6 1 7 2 8 3 9 4 10 10 11 6 12
REMARK SMILES IDX 8 13 11 14 7 15 9 16 95 17 12 18 13 19 94 20 14 21 15 22
REMARK SMILES IDX 93 23 16 24 91 25 17 26 90 27 92 28 5 29 24 31 25 32 26 33
REMARK SMILES IDX 27 34 28 35 89 36 29 37 88 38 30 39 31 40 32 41 82 42 33 43
REMARK SMILES IDX 87 44 81 45 83 46 34 47 86 48 80 49 79 50 35 52 67 53 47 54
REMARK SMILES IDX 66 55 48 56 51 57 65 58 84 59 49 60 50 61 64 63 85 64 52 65
REMARK SMILES IDX 36 66 37 67 45 68 38 69 44 70 46 71 43 72 39 73 40 74 41 75
REMARK SMILES IDX 42 76 68 77 69 78 77 79 70 80 76 81 78 82 75 83 71 84 72 85
REMARK SMILES IDX 73 86 74 87 53 88 54 89 62 90 55 91 61 92 63 93 60 94 56 95
REMARK SMILES IDX 57 96 58 97 59 98
REMARK H PARENT 5 30 83 51 51 62
REMARK Flexibility Score: inf
ROOT
ATOM      1  C   UNL A   1      36.654  20.239  25.028  1.00  0.00     0.275 C 
ENDROOT
BRANCH   1   2
ATOM      2  C   UNL A   1      35.162  20.379  25.344  1.00  0.00     0.275 C 
BRANCH   2   3
ATOM      3  O   UNL A   1      34.410  19.292  24.773  1.00  0.00    -0.456 OA
BRANCH   3   4
ATOM      4  C   UNL A   1      33.082  19.522  24.595  1.00  0.00     0.374 C 
ATOM      5  O   UNL A   1      32.188  18.714  24.775  1.00  0.00    -0.242 OA
BRANCH   4   6
ATOM      6  C   UNL A   1      32.827  20.939  24.224  1.00  0.00     0.219 A 
ATOM      7  C   UNL A   1      33.127  29.254  23.588  1.00  0.00     0.014 C 
ATOM      8  C   UNL A   1      31.743  29.261  24.311  1.00  0.00    -0.006 C 
ATOM      9  C   UNL A   1      31.922  30.191  25.532  1.00  0.00     0.014 C 
ATOM     10  C   UNL A   1      30.728  29.883  23.317  1.00  0.00     0.120 C 
ATOM     11  C   UNL A   1      31.391  27.768  24.709  1.00  0.00     0.004 C 
ATOM     12  C   UNL A   1      30.362  28.983  22.124  1.00  0.00     0.033 C 
ATOM     13  C   UNL A   1      30.302  27.040  23.835  1.00  0.00    -0.022 C 
ATOM     14  C   UNL A   1      31.236  27.409  26.199  1.00  0.00     0.009 C 
ATOM     15  C   UNL A   1      30.516  27.473  22.364  1.00  0.00     0.010 C 
ATOM     16  C   UNL A   1      28.824  27.377  24.181  1.00  0.00     0.012 C 
ATOM     17  C   UNL A   1      30.501  25.472  24.032  1.00  0.00     0.044 C 
ATOM     18  C   UNL A   1      31.405  25.889  26.412  1.00  0.00     0.049 C 
ATOM     19  C   UNL A   1      30.494  25.004  25.530  1.00  0.00     0.113 C 
ATOM     20  C   UNL A   1      31.770  24.965  23.303  1.00  0.00     0.055 C 
ATOM     21  C   UNL A   1      29.083  24.986  26.155  1.00  0.00     0.057 C 
ATOM     22  O   UNL A   1      30.889  23.618  25.689  1.00  0.00    -0.458 OA
ATOM     23  C   UNL A   1      32.137  23.579  23.670  1.00  0.00     0.081 A 
ATOM     24  C   UNL A   1      31.676  22.975  24.768  1.00  0.00     0.292 A 
ATOM     25  C   UNL A   1      33.049  22.839  22.769  1.00  0.00     0.192 A 
ATOM     26  O   UNL A   1      31.956  21.645  25.037  1.00  0.00    -0.418 OA
ATOM     27  C   UNL A   1      33.389  21.458  23.130  1.00  0.00     0.107 A 
ATOM     28  O   UNL A   1      33.513  23.340  21.751  1.00  0.00    -0.289 OA
BRANCH  10  29
ATOM     29  O   UNL A   1      29.535  30.323  23.965  1.00  0.00    -0.393 OA
ATOM     30  H   UNL A   1      29.468  31.289  23.898  1.00  0.00     0.210 HD
ENDBRANCH  10  29
ENDBRANCH   4   6
ENDBRANCH   3   4
ENDBRANCH   2   3
ENDBRANCH   1   2
BRANCH   1  31
ATOM     31  O   UNL A   1      37.402  21.370  25.509  1.00  0.00    -0.458 OA
BRANCH  31  32
ATOM     32  C   UNL A   1      38.677  21.107  25.875  1.00  0.00     0.338 C 
ATOM     33  O   UNL A   1      39.292  20.065  25.715  1.00  0.00    -0.246 OA
BRANCH  32  34
ATOM     34  C   UNL A   1      39.290  22.324  26.424  1.00  0.00     0.060 A 
ATOM     35  C   UNL A   1      38.707  23.553  26.116  1.00  0.00     0.016 A 
ATOM     36  C   UNL A   1      40.487  22.265  27.137  1.00  0.00     0.016 A 
ATOM     37  C   UNL A   1      39.344  24.736  26.464  1.00  0.00     0.010 A 
ATOM     38  C   UNL A   1      41.106  23.458  27.528  1.00  0.00     0.010 A 
ATOM     39  C   UNL A   1      40.552  24.699  27.168  1.00  0.00    -0.014 A 
BRANCH  39  40
ATOM     40  C   UNL A   1      41.244  25.972  27.479  1.00  0.00     0.031 A 
ATOM     41  C   UNL A   1      40.565  27.004  28.329  1.00  0.00     0.074 A 
ATOM     42  C   UNL A   1      42.500  26.170  27.034  1.00  0.00     0.049 A 
ATOM     43  N   UNL A   1      40.994  28.183  28.690  1.00  0.00    -0.248 NA
ATOM     44  C   UNL A   1      39.227  26.667  28.845  1.00  0.00     0.031 C 
ATOM     45  C   UNL A   1      43.268  25.212  26.238  1.00  0.00     0.029 A 
ATOM     46  N   UNL A   1      43.353  27.233  27.194  1.00  0.00    -0.354 N 
ATOM     47  C   UNL A   1      39.977  28.740  29.456  1.00  0.00     0.074 A 
ATOM     48  C   UNL A   1      38.899  27.777  29.492  1.00  0.00     0.031 C 
ATOM     49  C   UNL A   1      44.481  25.726  25.988  1.00  0.00     0.029 A 
ATOM     50  C   UNL A   1      44.562  27.067  26.561  1.00  0.00     0.049 A 
ATOM     51  H   UNL A   1      43.121  28.037  27.712  1.00  0.00     0.167 HD
ATOM     52  C   UNL A   1      39.955  29.942  30.077  1.00  0.00     0.034 A 
ATOM     53  C   UNL A   1      45.611  27.906  26.440  1.00  0.00     0.034 A 
ATOM     54  C   UNL A   1      41.047  30.879  30.049  1.00  0.00     0.049 A 
ATOM     55  C   UNL A   1      45.549  29.250  27.118  1.00  0.00     0.074 A 
ATOM     56  C   UNL A   1      41.122  32.119  30.659  1.00  0.00     0.029 A 
ATOM     57  N   UNL A   1      42.251  30.681  29.390  1.00  0.00    -0.354 N 
ATOM     58  N   UNL A   1      44.588  29.755  27.856  1.00  0.00    -0.248 NA
ATOM     59  C   UNL A   1      46.708  30.138  26.958  1.00  0.00     0.031 C 
ATOM     60  C   UNL A   1      42.353  32.690  30.332  1.00  0.00     0.029 A 
ATOM     61  C   UNL A   1      43.071  31.784  29.566  1.00  0.00     0.049 A 
ATOM     62  H   UNL A   1      42.489  29.877  28.875  1.00  0.00     0.167 HD
ATOM     63  C   UNL A   1      45.035  31.007  28.266  1.00  0.00     0.074 A 
ATOM     64  C   UNL A   1      46.362  31.176  27.710  1.00  0.00     0.031 C 
ATOM     65  C   UNL A   1      44.402  31.930  29.031  1.00  0.00     0.034 A 
BRANCH  52  66
ATOM     66  C   UNL A   1      38.722  30.333  30.845  1.00  0.00     0.023 A 
ATOM     67  C   UNL A   1      37.685  31.029  30.197  1.00  0.00     0.031 A 
ATOM     68  C   UNL A   1      38.628  30.133  32.233  1.00  0.00     0.131 A 
ATOM     69  C   UNL A   1      36.615  31.535  30.945  1.00  0.00     0.055 A 
ATOM     70  C   UNL A   1      37.543  30.610  32.968  1.00  0.00     0.041 A 
ATOM     71  F   UNL A   1      39.591  29.468  32.893  1.00  0.00    -0.206 F 
ATOM     72  C   UNL A   1      36.535  31.324  32.325  1.00  0.00     0.022 A 
BRANCH  69  73
ATOM     73  S   UNL A   1      35.308  32.514  30.158  1.00  0.00     0.124 S 
ATOM     74  O   UNL A   1      36.027  33.728  29.775  1.00  0.00    -0.237 OA
ATOM     75  O   UNL A   1      34.906  31.651  29.052  1.00  0.00    -0.237 OA
ATOM     76  O   UNL A   1      34.319  32.692  31.216  1.00  0.00    -0.744 OA
ENDBRANCH  69  73
ENDBRANCH  52  66
BRANCH  53  77
ATOM     77  C   UNL A   1      46.807  27.468  25.666  1.00  0.00     0.023 A 
ATOM     78  C   UNL A   1      47.012  27.910  24.347  1.00  0.00     0.031 A 
ATOM     79  C   UNL A   1      47.706  26.529  26.198  1.00  0.00     0.131 A 
ATOM     80  C   UNL A   1      48.055  27.369  23.584  1.00  0.00     0.055 A 
ATOM     81  C   UNL A   1      48.782  26.039  25.455  1.00  0.00     0.041 A 
ATOM     82  F   UNL A   1      47.544  26.071  27.448  1.00  0.00    -0.206 F 
ATOM     83  C   UNL A   1      48.951  26.448  24.136  1.00  0.00     0.022 A 
BRANCH  80  84
ATOM     84  S   UNL A   1      48.224  27.768  21.822  1.00  0.00     0.124 S 
ATOM     85  O   UNL A   1      48.495  26.458  21.238  1.00  0.00    -0.237 OA
ATOM     86  O   UNL A   1      46.912  28.334  21.520  1.00  0.00    -0.237 OA
ATOM     87  O   UNL A   1      49.333  28.714  21.786  1.00  0.00    -0.744 OA
ENDBRANCH  80  84
ENDBRANCH  53  77
BRANCH  65  88
ATOM     88  C   UNL A   1      45.120  33.215  29.351  1.00  0.00     0.023 A 
ATOM     89  C   UNL A   1      45.065  34.291  28.445  1.00  0.00     0.031 A 
ATOM     90  C   UNL A   1      45.980  33.316  30.459  1.00  0.00     0.131 A 
ATOM     91  C   UNL A   1      45.887  35.407  28.640  1.00  0.00     0.055 A 
ATOM     92  C   UNL A   1      46.766  34.449  30.671  1.00  0.00     0.041 A 
ATOM     93  F   UNL A   1      46.073  32.311  31.343  1.00  0.00    -0.206 F 
ATOM     94  C   UNL A   1      46.731  35.495  29.752  1.00  0.00     0.022 A 
BRANCH  91  95
ATOM     95  S   UNL A   1      45.945  36.750  27.422  1.00  0.00     0.124 S 
ATOM     96  O   UNL A   1      45.924  36.015  26.160  1.00  0.00    -0.237 OA
ATOM     97  O   UNL A   1      44.729  37.496  27.730  1.00  0.00    -0.237 OA
ATOM     98  O   UNL A   1      47.197  37.439  27.717  1.00  0.00    -0.744 OA
ENDBRANCH  91  95
ENDBRANCH  65  88
ENDBRANCH  39  40
ENDBRANCH  32  34
ENDBRANCH  31  32
ENDBRANCH   1  31
TORSDOF 15
ENDMDL
MODEL 3
REMARK VINA RESULT:     -12.7      4.810      7.398
REMARK SMILES CC1(C)[C@H](O)CC[C@]2(C)[C@@H]1CC[C@]1(C)Oc3oc(C(=O)OCCOC(=O)c4ccc(-c5c6nc(c(-c7cc(S(=O)(=O)[O-])ccc7F)c7ccc([nH]7)c(-c7cc(S(=O)(=O)[O-])ccc7F)c7nc(c(-c8cc(S(=O)(=O)[O-])ccc8F)c8ccc5[nH]8)C=C7)C=C6)cc4)cc(=O)c3C[C@H]21
REMARK SMILES IDX 23 1 22 2 21 3 19 4 20 5 18 6 1 7 2 8 3 9 4 10 10 11 6 12
REMARK SMILES IDX 8 13 11 14 7 15 9 16 95 17 12 18 13 19 94 20 14 21 15 22
REMARK SMILES IDX 93 23 16 24 91 25 17 26 90 27 92 28 5 29 24 31 25 32 26 33
REMARK SMILES IDX 27 34 28 35 89 36 29 37 88 38 30 39 31 40 32 41 82 42 33 43
REMARK SMILES IDX 87 44 81 45 83 46 34 47 86 48 80 49 79 50 35 52 67 53 47 54
REMARK SMILES IDX 66 55 48 56 51 57 65 58 84 59 49 60 50 61 64 63 85 64 52 65
REMARK SMILES IDX 36 66 37 67 45 68 38 69 44 70 46 71 43 72 39 73 40 74 41 75
REMARK SMILES IDX 42 76 68 77 69 78 77 79 70 80 76 81 78 82 75 83 71 84 72 85
REMARK SMILES IDX 73 86 74 87 53 88 54 89 62 90 55 91 61 92 63 93 60 94 56 95
REMARK SMILES IDX 57 96 58 97 59 98
REMARK H PARENT 5 30 83 51 51 62
REMARK Flexibility Score: inf
ROOT
ATOM      1  C   UNL A   1      37.102  20.058  24.997  1.00  0.00     0.275 C 
ENDROOT
BRANCH   1   2
ATOM      2  C   UNL A   1      35.638  20.348  25.338  1.00  0.00     0.275 C 
BRANCH   2   3
ATOM      3  O   UNL A   1      34.773  19.323  24.813  1.00  0.00    -0.456 OA
BRANCH   3   4
ATOM      4  C   UNL A   1      33.440  19.578  24.889  1.00  0.00     0.374 C 
ATOM      5  O   UNL A   1      32.589  18.809  25.301  1.00  0.00    -0.242 OA
BRANCH   4   6
ATOM      6  C   UNL A   1      33.136  20.974  24.478  1.00  0.00     0.219 A 
ATOM      7  C   UNL A   1      33.097  29.278  23.658  1.00  0.00     0.014 C 
ATOM      8  C   UNL A   1      31.689  29.240  24.335  1.00  0.00    -0.006 C 
ATOM      9  C   UNL A   1      31.787  30.203  25.539  1.00  0.00     0.014 C 
ATOM     10  C   UNL A   1      30.683  29.794  23.294  1.00  0.00     0.120 C 
ATOM     11  C   UNL A   1      31.390  27.742  24.755  1.00  0.00     0.004 C 
ATOM     12  C   UNL A   1      30.397  28.854  22.111  1.00  0.00     0.033 C 
ATOM     13  C   UNL A   1      30.363  26.947  23.864  1.00  0.00    -0.022 C 
ATOM     14  C   UNL A   1      31.200  27.409  26.248  1.00  0.00     0.009 C 
ATOM     15  C   UNL A   1      30.608  27.357  22.391  1.00  0.00     0.010 C 
ATOM     16  C   UNL A   1      28.861  27.226  24.153  1.00  0.00     0.012 C 
ATOM     17  C   UNL A   1      30.623  25.395  24.104  1.00  0.00     0.044 C 
ATOM     18  C   UNL A   1      31.428  25.903  26.502  1.00  0.00     0.049 C 
ATOM     19  C   UNL A   1      30.587  24.960  25.611  1.00  0.00     0.113 C 
ATOM     20  C   UNL A   1      31.937  24.928  23.428  1.00  0.00     0.055 C 
ATOM     21  C   UNL A   1      29.157  24.892  26.190  1.00  0.00     0.057 C 
ATOM     22  O   UNL A   1      31.036  23.596  25.815  1.00  0.00    -0.458 OA
ATOM     23  C   UNL A   1      32.351  23.568  23.839  1.00  0.00     0.081 A 
ATOM     24  C   UNL A   1      31.880  22.969  24.935  1.00  0.00     0.292 A 
ATOM     25  C   UNL A   1      33.325  22.850  22.986  1.00  0.00     0.192 A 
ATOM     26  O   UNL A   1      32.209  21.658  25.244  1.00  0.00    -0.418 OA
ATOM     27  C   UNL A   1      33.712  21.493  23.390  1.00  0.00     0.107 A 
ATOM     28  O   UNL A   1      33.800  23.349  21.973  1.00  0.00    -0.289 OA
BRANCH  10  29
ATOM     29  O   UNL A   1      29.451  30.196  23.892  1.00  0.00    -0.393 OA
ATOM     30  H   UNL A   1      28.848  30.522  23.206  1.00  0.00     0.210 HD
ENDBRANCH  10  29
ENDBRANCH   4   6
ENDBRANCH   3   4
ENDBRANCH   2   3
ENDBRANCH   1   2
BRANCH   1  31
ATOM     31  O   UNL A   1      37.939  21.199  25.259  1.00  0.00    -0.458 OA
BRANCH  31  32
ATOM     32  C   UNL A   1      39.061  20.943  25.967  1.00  0.00     0.338 C 
ATOM     33  O   UNL A   1      39.639  19.873  26.076  1.00  0.00    -0.246 OA
BRANCH  32  34
ATOM     34  C   UNL A   1      39.578  22.196  26.534  1.00  0.00     0.060 A 
ATOM     35  C   UNL A   1      38.982  23.394  26.142  1.00  0.00     0.016 A 
ATOM     36  C   UNL A   1      40.708  22.199  27.353  1.00  0.00     0.016 A 
ATOM     37  C   UNL A   1      39.543  24.608  26.513  1.00  0.00     0.010 A 
ATOM     38  C   UNL A   1      41.246  23.424  27.764  1.00  0.00     0.010 A 
ATOM     39  C   UNL A   1      40.684  24.634  27.322  1.00  0.00    -0.014 A 
BRANCH  39  40
ATOM     40  C   UNL A   1      41.299  25.939  27.658  1.00  0.00     0.031 A 
ATOM     41  C   UNL A   1      42.685  26.258  27.180  1.00  0.00     0.074 A 
ATOM     42  C   UNL A   1      40.587  26.850  28.349  1.00  0.00     0.049 A 
ATOM     43  N   UNL A   1      43.400  27.331  27.390  1.00  0.00    -0.248 NA
ATOM     44  C   UNL A   1      43.357  25.239  26.355  1.00  0.00     0.031 C 
ATOM     45  C   UNL A   1      39.216  26.658  28.822  1.00  0.00     0.029 A 
ATOM     46  N   UNL A   1      40.911  28.116  28.767  1.00  0.00    -0.354 N 
ATOM     47  C   UNL A   1      44.611  27.112  26.746  1.00  0.00     0.074 A 
ATOM     48  C   UNL A   1      44.543  25.795  26.152  1.00  0.00     0.031 C 
ATOM     49  C   UNL A   1      38.812  27.769  29.454  1.00  0.00     0.029 A 
ATOM     50  C   UNL A   1      39.909  28.733  29.477  1.00  0.00     0.049 A 
ATOM     51  H   UNL A   1      41.778  28.542  28.575  1.00  0.00     0.167 HD
ATOM     52  C   UNL A   1      45.675  27.942  26.653  1.00  0.00     0.034 A 
ATOM     53  C   UNL A   1      39.882  29.933  30.094  1.00  0.00     0.034 A 
ATOM     54  C   UNL A   1      45.716  29.260  27.230  1.00  0.00     0.049 A 
ATOM     55  C   UNL A   1      41.091  30.827  29.998  1.00  0.00     0.074 A 
ATOM     56  C   UNL A   1      46.748  30.182  27.180  1.00  0.00     0.029 A 
ATOM     57  N   UNL A   1      44.688  29.848  27.952  1.00  0.00    -0.354 N 
ATOM     58  N   UNL A   1      42.222  30.614  29.368  1.00  0.00    -0.248 NA
ATOM     59  C   UNL A   1      41.025  32.122  30.688  1.00  0.00     0.031 C 
ATOM     60  C   UNL A   1      46.361  31.308  27.908  1.00  0.00     0.029 A 
ATOM     61  C   UNL A   1      45.066  31.115  28.364  1.00  0.00     0.049 A 
ATOM     62  H   UNL A   1      43.818  29.428  28.141  1.00  0.00     0.167 HD
ATOM     63  C   UNL A   1      42.992  31.756  29.565  1.00  0.00     0.074 A 
ATOM     64  C   UNL A   1      42.191  32.665  30.358  1.00  0.00     0.031 C 
ATOM     65  C   UNL A   1      44.248  32.024  29.130  1.00  0.00     0.034 A 
BRANCH  52  66
ATOM     66  C   UNL A   1      46.893  27.473  25.904  1.00  0.00     0.023 A 
ATOM     67  C   UNL A   1      47.093  27.877  24.571  1.00  0.00     0.031 A 
ATOM     68  C   UNL A   1      47.779  26.534  26.459  1.00  0.00     0.131 A 
ATOM     69  C   UNL A   1      48.134  27.313  23.824  1.00  0.00     0.055 A 
ATOM     70  C   UNL A   1      48.836  26.001  25.721  1.00  0.00     0.041 A 
ATOM     71  F   UNL A   1      47.632  26.125  27.730  1.00  0.00    -0.206 F 
ATOM     72  C   UNL A   1      49.010  26.383  24.393  1.00  0.00     0.022 A 
BRANCH  69  73
ATOM     73  S   UNL A   1      48.367  27.740  22.078  1.00  0.00     0.124 S 
ATOM     74  O   UNL A   1      47.165  28.525  21.795  1.00  0.00    -0.237 OA
ATOM     75  O   UNL A   1      49.613  28.498  22.115  1.00  0.00    -0.237 OA
ATOM     76  O   UNL A   1      48.430  26.447  21.406  1.00  0.00    -0.744 OA
ENDBRANCH  69  73
ENDBRANCH  52  66
BRANCH  53  77
ATOM     77  C   UNL A   1      38.650  30.347  30.823  1.00  0.00     0.023 A 
ATOM     78  C   UNL A   1      37.609  31.018  30.155  1.00  0.00     0.031 A 
ATOM     79  C   UNL A   1      38.537  30.165  32.210  1.00  0.00     0.131 A 
ATOM     80  C   UNL A   1      36.531  31.534  30.884  1.00  0.00     0.055 A 
ATOM     81  C   UNL A   1      37.430  30.626  32.925  1.00  0.00     0.041 A 
ATOM     82  F   UNL A   1      39.510  29.539  32.891  1.00  0.00    -0.206 F 
ATOM     83  C   UNL A   1      36.427  31.328  32.264  1.00  0.00     0.022 A 
BRANCH  80  84
ATOM     84  S   UNL A   1      35.279  32.575  30.084  1.00  0.00     0.124 S 
ATOM     85  O   UNL A   1      34.832  31.725  28.986  1.00  0.00    -0.237 OA
ATOM     86  O   UNL A   1      34.316  32.766  31.167  1.00  0.00    -0.237 OA
ATOM     87  O   UNL A   1      36.021  33.769  29.694  1.00  0.00    -0.744 OA
ENDBRANCH  80  84
ENDBRANCH  53  77
BRANCH  65  88
ATOM     88  C   UNL A   1      44.859  33.359  29.467  1.00  0.00     0.023 A 
ATOM     89  C   UNL A   1      44.751  34.426  28.555  1.00  0.00     0.031 A 
ATOM     90  C   UNL A   1      45.675  33.525  30.599  1.00  0.00     0.131 A 
ATOM     91  C   UNL A   1      45.481  35.601  28.771  1.00  0.00     0.055 A 
ATOM     92  C   UNL A   1      46.368  34.714  30.831  1.00  0.00     0.041 A 
ATOM     93  F   UNL A   1      45.816  32.531  31.489  1.00  0.00    -0.206 F 
ATOM     94  C   UNL A   1      46.283  35.753  29.907  1.00  0.00     0.022 A 
BRANCH  91  95
ATOM     95  S   UNL A   1      45.476  36.942  27.550  1.00  0.00     0.124 S 
ATOM     96  O   UNL A   1      46.186  38.002  28.261  1.00  0.00    -0.237 OA
ATOM     97  O   UNL A   1      46.203  36.344  26.434  1.00  0.00    -0.237 OA
ATOM     98  O   UNL A   1      44.059  37.198  27.312  1.00  0.00    -0.744 OA
ENDBRANCH  91  95
ENDBRANCH  65  88
ENDBRANCH  39  40
ENDBRANCH  32  34
ENDBRANCH  31  32
ENDBRANCH   1  31
TORSDOF 15
ENDMDL
