MODEL 1
REMARK VINA RESULT:     -11.1      0.000      0.000
REMARK SMILES C[C@@H](Oc1cncc(C(=O)OCCOC(=O)c2ccc(-c3c4nc(c(-c5cc(S(=O)(=O)[O-])ccc5F)c5ccc([nH]5)c(-c5cc(S(=O)(=O)[O-])ccc5F)c5nc(c(-c6cc(S(=O)(=O)[O-])ccc6F)c6ccc3[nH]6)C=C5)C=C4)cc2)n1)C(F)(F)F
REMARK SMILES IDX 12 1 11 2 9 3 10 4 8 5 4 6 5 7 80 8 6 9 7 10 3 11 2 12 1 13
REMARK SMILES IDX 81 14 82 15 83 16 84 17 13 18 14 19 15 20 16 21 17 22 18 23
REMARK SMILES IDX 79 24 19 25 78 26 20 27 21 28 22 29 72 30 23 31 77 32 71 33
REMARK SMILES IDX 73 34 24 35 76 36 70 37 69 38 25 40 57 41 37 42 56 43 38 44
REMARK SMILES IDX 41 45 55 46 74 47 39 48 40 49 54 51 75 52 42 53 26 54 27 55
REMARK SMILES IDX 35 56 28 57 34 58 36 59 33 60 29 61 30 62 31 63 32 64 58 65
REMARK SMILES IDX 59 66 67 67 60 68 66 69 68 70 65 71 61 72 62 73 63 74 64 75
REMARK SMILES IDX 43 76 44 77 52 78 45 79 51 80 53 81 50 82 46 83 47 84 48 85
REMARK SMILES IDX 49 86
REMARK H PARENT 73 39 41 50
REMARK Flexibility Score: inf
ROOT
ATOM      1  C   UNL A   1      35.031  20.612  25.003  1.00  0.00     0.275 C 
ENDROOT
BRANCH   1   2
ATOM      2  O   UNL A   1      34.839  21.993  25.380  1.00  0.00    -0.457 OA
BRANCH   2   3
ATOM      3  C   UNL A   1      34.137  22.175  26.528  1.00  0.00     0.358 C 
ATOM      4  O   UNL A   1      34.388  21.649  27.604  1.00  0.00    -0.244 OA
BRANCH   3   5
ATOM      5  C   UNL A   1      33.034  23.155  26.391  1.00  0.00     0.170 A 
ATOM      6  C   UNL A   1      31.850  24.712  25.217  1.00  0.00     0.233 A 
ATOM      7  C   UNL A   1      30.769  24.537  26.079  1.00  0.00     0.179 A 
ATOM      8  N   UNL A   1      33.014  24.031  25.346  1.00  0.00    -0.203 NA
ATOM      9  N   UNL A   1      30.813  23.717  27.145  1.00  0.00    -0.257 NA
ATOM     10  C   UNL A   1      31.957  23.011  27.262  1.00  0.00     0.147 A 
BRANCH   6  11
ATOM     11  O   UNL A   1      31.678  25.419  24.055  1.00  0.00    -0.464 OA
BRANCH  11  12
ATOM     12  C   UNL A   1      32.488  26.611  23.989  1.00  0.00     0.277 C 
ATOM     13  C   UNL A   1      31.616  27.868  24.068  1.00  0.00     0.063 C 
BRANCH  12  14
ATOM     14  C   UNL A   1      33.228  26.608  22.648  1.00  0.00     0.425 C 
ATOM     15  F   UNL A   1      32.356  26.586  21.612  1.00  0.00    -0.167 F 
ATOM     16  F   UNL A   1      33.999  27.708  22.493  1.00  0.00    -0.167 F 
ATOM     17  F   UNL A   1      34.027  25.523  22.519  1.00  0.00    -0.167 F 
ENDBRANCH  12  14
ENDBRANCH  11  12
ENDBRANCH   6  11
ENDBRANCH   3   5
ENDBRANCH   2   3
ENDBRANCH   1   2
BRANCH   1  18
ATOM     18  C   UNL A   1      36.511  20.233  24.931  1.00  0.00     0.275 C 
BRANCH  18  19
ATOM     19  O   UNL A   1      37.344  21.380  25.186  1.00  0.00    -0.458 OA
BRANCH  19  20
ATOM     20  C   UNL A   1      38.567  21.110  25.698  1.00  0.00     0.338 C 
ATOM     21  O   UNL A   1      39.191  20.061  25.595  1.00  0.00    -0.246 OA
BRANCH  20  22
ATOM     22  C   UNL A   1      39.116  22.284  26.397  1.00  0.00     0.060 A 
ATOM     23  C   UNL A   1      38.602  23.545  26.122  1.00  0.00     0.016 A 
ATOM     24  C   UNL A   1      40.260  22.160  27.183  1.00  0.00     0.016 A 
ATOM     25  C   UNL A   1      39.310  24.687  26.496  1.00  0.00     0.010 A 
ATOM     26  C   UNL A   1      40.890  23.311  27.678  1.00  0.00     0.010 A 
ATOM     27  C   UNL A   1      40.460  24.595  27.295  1.00  0.00    -0.014 A 
BRANCH  27  28
ATOM     28  C   UNL A   1      41.232  25.822  27.682  1.00  0.00     0.031 A 
ATOM     29  C   UNL A   1      40.597  26.880  28.557  1.00  0.00     0.074 A 
ATOM     30  C   UNL A   1      42.508  26.000  27.274  1.00  0.00     0.049 A 
ATOM     31  N   UNL A   1      41.004  28.098  28.821  1.00  0.00    -0.248 NA
ATOM     32  C   UNL A   1      39.322  26.529  29.200  1.00  0.00     0.031 C 
ATOM     33  C   UNL A   1      43.282  25.055  26.466  1.00  0.00     0.029 A 
ATOM     34  N   UNL A   1      43.388  27.034  27.494  1.00  0.00    -0.354 N 
ATOM     35  C   UNL A   1      40.002  28.681  29.595  1.00  0.00     0.074 A 
ATOM     36  C   UNL A   1      38.967  27.680  29.751  1.00  0.00     0.031 C 
ATOM     37  C   UNL A   1      44.530  25.520  26.312  1.00  0.00     0.029 A 
ATOM     38  C   UNL A   1      44.618  26.849  26.902  1.00  0.00     0.049 A 
ATOM     39  H   UNL A   1      43.160  27.831  28.025  1.00  0.00     0.167 HD
ATOM     40  C   UNL A   1      39.950  29.931  30.121  1.00  0.00     0.034 A 
ATOM     41  C   UNL A   1      45.682  27.670  26.790  1.00  0.00     0.034 A 
ATOM     42  C   UNL A   1      41.021  30.896  30.018  1.00  0.00     0.049 A 
ATOM     43  C   UNL A   1      45.597  29.059  27.363  1.00  0.00     0.074 A 
ATOM     44  C   UNL A   1      41.078  32.181  30.531  1.00  0.00     0.029 A 
ATOM     45  N   UNL A   1      42.233  30.675  29.377  1.00  0.00    -0.354 N 
ATOM     46  N   UNL A   1      44.605  29.626  28.007  1.00  0.00    -0.248 NA
ATOM     47  C   UNL A   1      46.769  29.923  27.175  1.00  0.00     0.031 C 
ATOM     48  C   UNL A   1      42.298  32.755  30.155  1.00  0.00     0.029 A 
ATOM     49  C   UNL A   1      43.034  31.806  29.465  1.00  0.00     0.049 A 
ATOM     50  H   UNL A   1      42.488  29.839  28.925  1.00  0.00     0.167 HD
ATOM     51  C   UNL A   1      45.035  30.916  28.302  1.00  0.00     0.074 A 
ATOM     52  C   UNL A   1      46.387  31.031  27.793  1.00  0.00     0.031 C 
ATOM     53  C   UNL A   1      44.372  31.916  28.934  1.00  0.00     0.034 A 
BRANCH  40  54
ATOM     54  C   UNL A   1      38.666  30.352  30.801  1.00  0.00     0.023 A 
ATOM     55  C   UNL A   1      37.614  30.974  30.107  1.00  0.00     0.031 A 
ATOM     56  C   UNL A   1      38.507  30.143  32.184  1.00  0.00     0.131 A 
ATOM     57  C   UNL A   1      36.485  31.426  30.809  1.00  0.00     0.055 A 
ATOM     58  C   UNL A   1      37.349  30.525  32.862  1.00  0.00     0.041 A 
ATOM     59  F   UNL A   1      39.485  29.571  32.905  1.00  0.00    -0.206 F 
ATOM     60  C   UNL A   1      36.334  31.186  32.177  1.00  0.00     0.022 A 
BRANCH  57  61
ATOM     61  S   UNL A   1      35.276  32.462  29.936  1.00  0.00     0.124 S 
ATOM     62  O   UNL A   1      34.847  31.572  28.859  1.00  0.00    -0.237 OA
ATOM     63  O   UNL A   1      34.287  32.735  30.972  1.00  0.00    -0.237 OA
ATOM     64  O   UNL A   1      36.063  33.616  29.503  1.00  0.00    -0.744 OA
ENDBRANCH  57  61
ENDBRANCH  40  54
BRANCH  41  65
ATOM     65  C   UNL A   1      46.890  27.233  26.031  1.00  0.00     0.023 A 
ATOM     66  C   UNL A   1      47.123  27.669  24.718  1.00  0.00     0.031 A 
ATOM     67  C   UNL A   1      47.820  26.347  26.607  1.00  0.00     0.131 A 
ATOM     68  C   UNL A   1      48.243  27.197  24.014  1.00  0.00     0.055 A 
ATOM     69  C   UNL A   1      48.961  25.926  25.923  1.00  0.00     0.041 A 
ATOM     70  F   UNL A   1      47.643  25.896  27.859  1.00  0.00    -0.206 F 
ATOM     71  C   UNL A   1      49.172  26.344  24.615  1.00  0.00     0.022 A 
BRANCH  68  72
ATOM     72  S   UNL A   1      48.433  27.658  22.270  1.00  0.00     0.124 S 
ATOM     73  O   UNL A   1      48.571  26.355  21.630  1.00  0.00    -0.237 OA
ATOM     74  O   UNL A   1      47.188  28.373  22.007  1.00  0.00    -0.237 OA
ATOM     75  O   UNL A   1      49.636  28.487  22.266  1.00  0.00    -0.744 OA
ENDBRANCH  68  72
ENDBRANCH  41  65
BRANCH  53  76
ATOM     76  C   UNL A   1      45.124  33.208  29.133  1.00  0.00     0.023 A 
ATOM     77  C   UNL A   1      45.033  34.262  28.207  1.00  0.00     0.031 A 
ATOM     78  C   UNL A   1      45.967  33.370  30.245  1.00  0.00     0.131 A 
ATOM     79  C   UNL A   1      45.819  35.411  28.380  1.00  0.00     0.055 A 
ATOM     80  C   UNL A   1      46.708  34.537  30.440  1.00  0.00     0.041 A 
ATOM     81  F   UNL A   1      46.092  32.392  31.156  1.00  0.00    -0.206 F 
ATOM     82  C   UNL A   1      46.646  35.560  29.497  1.00  0.00     0.022 A 
BRANCH  79  83
ATOM     83  S   UNL A   1      45.816  36.674  27.079  1.00  0.00     0.124 S 
ATOM     84  O   UNL A   1      46.687  37.698  27.648  1.00  0.00    -0.237 OA
ATOM     85  O   UNL A   1      46.352  35.946  25.934  1.00  0.00    -0.237 OA
ATOM     86  O   UNL A   1      44.408  37.051  26.969  1.00  0.00    -0.744 OA
ENDBRANCH  79  83
ENDBRANCH  53  76
ENDBRANCH  27  28
ENDBRANCH  20  22
ENDBRANCH  19  20
ENDBRANCH  18  19
ENDBRANCH   1  18
TORSDOF 17
ENDMDL
MODEL 2
REMARK VINA RESULT:     -10.9      5.535     10.183
REMARK SMILES C[C@@H](Oc1cncc(C(=O)OCCOC(=O)c2ccc(-c3c4nc(c(-c5cc(S(=O)(=O)[O-])ccc5F)c5ccc([nH]5)c(-c5cc(S(=O)(=O)[O-])ccc5F)c5nc(c(-c6cc(S(=O)(=O)[O-])ccc6F)c6ccc3[nH]6)C=C5)C=C4)cc2)n1)C(F)(F)F
REMARK SMILES IDX 12 1 11 2 9 3 10 4 8 5 4 6 5 7 80 8 6 9 7 10 3 11 2 12 1 13
REMARK SMILES IDX 81 14 82 15 83 16 84 17 13 18 14 19 15 20 16 21 17 22 18 23
REMARK SMILES IDX 79 24 19 25 78 26 20 27 21 28 22 29 72 30 23 31 77 32 71 33
REMARK SMILES IDX 73 34 24 35 76 36 70 37 69 38 25 40 57 41 37 42 56 43 38 44
REMARK SMILES IDX 41 45 55 46 74 47 39 48 40 49 54 51 75 52 42 53 26 54 27 55
REMARK SMILES IDX 35 56 28 57 34 58 36 59 33 60 29 61 30 62 31 63 32 64 58 65
REMARK SMILES IDX 59 66 67 67 60 68 66 69 68 70 65 71 61 72 62 73 63 74 64 75
REMARK SMILES IDX 43 76 44 77 52 78 45 79 51 80 53 81 50 82 46 83 47 84 48 85
REMARK SMILES IDX 49 86
REMARK H PARENT 73 39 41 50
REMARK Flexibility Score: inf
ROOT
ATOM      1  C   UNL A   1      31.778  28.815  27.504  1.00  0.00     0.275 C 
ENDROOT
BRANCH   1   2
ATOM      2  O   UNL A   1      32.273  27.850  26.549  1.00  0.00    -0.457 OA
BRANCH   2   3
ATOM      3  C   UNL A   1      31.331  27.006  26.055  1.00  0.00     0.358 C 
ATOM      4  O   UNL A   1      30.743  26.146  26.697  1.00  0.00    -0.244 OA
BRANCH   3   5
ATOM      5  C   UNL A   1      31.005  27.260  24.632  1.00  0.00     0.170 A 
ATOM      6  C   UNL A   1      30.377  28.627  22.917  1.00  0.00     0.233 A 
ATOM      7  C   UNL A   1      30.889  27.711  22.001  1.00  0.00     0.179 A 
ATOM      8  N   UNL A   1      30.416  28.432  24.257  1.00  0.00    -0.203 NA
ATOM      9  N   UNL A   1      31.416  26.529  22.371  1.00  0.00    -0.257 NA
ATOM     10  C   UNL A   1      31.487  26.340  23.705  1.00  0.00     0.147 A 
BRANCH   6  11
ATOM     11  O   UNL A   1      30.023  29.882  22.490  1.00  0.00    -0.464 OA
BRANCH  11  12
ATOM     12  C   UNL A   1      28.606  30.133  22.572  1.00  0.00     0.277 C 
ATOM     13  C   UNL A   1      28.028  30.453  21.189  1.00  0.00     0.063 C 
BRANCH  12  14
ATOM     14  C   UNL A   1      28.389  31.339  23.489  1.00  0.00     0.425 C 
ATOM     15  F   UNL A   1      28.242  32.477  22.768  1.00  0.00    -0.167 F 
ATOM     16  F   UNL A   1      27.278  31.207  24.247  1.00  0.00    -0.167 F 
ATOM     17  F   UNL A   1      29.438  31.530  24.324  1.00  0.00    -0.167 F 
ENDBRANCH  12  14
ENDBRANCH  11  12
ENDBRANCH   6  11
ENDBRANCH   3   5
ENDBRANCH   2   3
ENDBRANCH   1   2
BRANCH   1  18
ATOM     18  C   UNL A   1      31.572  30.194  26.876  1.00  0.00     0.275 C 
BRANCH  18  19
ATOM     19  O   UNL A   1      32.827  30.751  26.441  1.00  0.00    -0.458 OA
BRANCH  19  20
ATOM     20  C   UNL A   1      33.348  31.708  27.241  1.00  0.00     0.338 C 
ATOM     21  O   UNL A   1      32.792  32.732  27.619  1.00  0.00    -0.246 OA
BRANCH  20  22
ATOM     22  C   UNL A   1      34.714  31.354  27.665  1.00  0.00     0.060 A 
ATOM     23  C   UNL A   1      35.031  30.023  27.906  1.00  0.00     0.016 A 
ATOM     24  C   UNL A   1      35.625  32.354  28.001  1.00  0.00     0.016 A 
ATOM     25  C   UNL A   1      36.183  29.696  28.622  1.00  0.00     0.010 A 
ATOM     26  C   UNL A   1      36.848  32.008  28.592  1.00  0.00     0.010 A 
ATOM     27  C   UNL A   1      37.123  30.679  28.967  1.00  0.00    -0.014 A 
BRANCH  27  28
ATOM     28  C   UNL A   1      38.353  30.331  29.752  1.00  0.00     0.031 A 
ATOM     29  C   UNL A   1      39.392  29.397  29.171  1.00  0.00     0.074 A 
ATOM     30  C   UNL A   1      38.565  30.851  30.980  1.00  0.00     0.049 A 
ATOM     31  N   UNL A   1      40.400  28.802  29.759  1.00  0.00    -0.248 NA
ATOM     32  C   UNL A   1      39.264  29.073  27.742  1.00  0.00     0.031 C 
ATOM     33  C   UNL A   1      37.686  31.802  31.665  1.00  0.00     0.029 A 
ATOM     34  N   UNL A   1      39.598  30.666  31.871  1.00  0.00    -0.354 N 
ATOM     35  C   UNL A   1      40.978  27.977  28.796  1.00  0.00     0.074 A 
ATOM     36  C   UNL A   1      40.200  28.148  27.586  1.00  0.00     0.031 C 
ATOM     37  C   UNL A   1      38.242  32.160  32.832  1.00  0.00     0.029 A 
ATOM     38  C   UNL A   1      39.455  31.380  33.040  1.00  0.00     0.049 A 
ATOM     39  H   UNL A   1      40.366  30.078  31.689  1.00  0.00     0.167 HD
ATOM     40  C   UNL A   1      42.051  27.154  28.911  1.00  0.00     0.034 A 
ATOM     41  C   UNL A   1      40.176  31.373  34.179  1.00  0.00     0.034 A 
ATOM     42  C   UNL A   1      42.862  27.046  30.103  1.00  0.00     0.049 A 
ATOM     43  C   UNL A   1      41.351  30.439  34.294  1.00  0.00     0.074 A 
ATOM     44  C   UNL A   1      43.981  26.258  30.318  1.00  0.00     0.029 A 
ATOM     45  N   UNL A   1      42.655  27.763  31.275  1.00  0.00    -0.354 N 
ATOM     46  N   UNL A   1      41.823  29.595  33.408  1.00  0.00    -0.248 NA
ATOM     47  C   UNL A   1      42.075  30.443  35.571  1.00  0.00     0.031 C 
ATOM     48  C   UNL A   1      44.417  26.457  31.633  1.00  0.00     0.029 A 
ATOM     49  C   UNL A   1      43.613  27.420  32.219  1.00  0.00     0.049 A 
ATOM     50  H   UNL A   1      41.935  28.418  31.415  1.00  0.00     0.167 HD
ATOM     51  C   UNL A   1      42.903  28.969  34.022  1.00  0.00     0.074 A 
ATOM     52  C   UNL A   1      43.030  29.554  35.341  1.00  0.00     0.031 C 
ATOM     53  C   UNL A   1      43.716  27.995  33.540  1.00  0.00     0.034 A 
BRANCH  40  54
ATOM     54  C   UNL A   1      42.373  26.255  27.739  1.00  0.00     0.023 A 
ATOM     55  C   UNL A   1      41.843  24.959  27.613  1.00  0.00     0.031 A 
ATOM     56  C   UNL A   1      43.253  26.704  26.735  1.00  0.00     0.131 A 
ATOM     57  C   UNL A   1      42.251  24.136  26.551  1.00  0.00     0.055 A 
ATOM     58  C   UNL A   1      43.594  25.909  25.640  1.00  0.00     0.041 A 
ATOM     59  F   UNL A   1      43.807  27.924  26.809  1.00  0.00    -0.206 F 
ATOM     60  C   UNL A   1      43.104  24.609  25.550  1.00  0.00     0.022 A 
BRANCH  57  61
ATOM     61  S   UNL A   1      41.764  22.388  26.569  1.00  0.00     0.124 S 
ATOM     62  O   UNL A   1      40.307  22.486  26.509  1.00  0.00    -0.237 OA
ATOM     63  O   UNL A   1      42.419  21.865  25.376  1.00  0.00    -0.237 OA
ATOM     64  O   UNL A   1      42.296  21.897  27.839  1.00  0.00    -0.744 OA
ENDBRANCH  57  61
ENDBRANCH  40  54
BRANCH  41  65
ATOM     65  C   UNL A   1      39.759  32.217  35.337  1.00  0.00     0.023 A 
ATOM     66  C   UNL A   1      40.239  33.527  35.493  1.00  0.00     0.031 A 
ATOM     67  C   UNL A   1      38.890  31.711  36.321  1.00  0.00     0.131 A 
ATOM     68  C   UNL A   1      39.867  34.275  36.621  1.00  0.00     0.055 A 
ATOM     69  C   UNL A   1      38.480  32.479  37.410  1.00  0.00     0.041 A 
ATOM     70  F   UNL A   1      38.406  30.463  36.222  1.00  0.00    -0.206 F 
ATOM     71  C   UNL A   1      38.977  33.767  37.571  1.00  0.00     0.022 A 
BRANCH  68  72
ATOM     72  S   UNL A   1      40.623  35.905  36.872  1.00  0.00     0.124 S 
ATOM     73  O   UNL A   1      41.876  35.555  37.530  1.00  0.00    -0.237 OA
ATOM     74  O   UNL A   1      40.734  36.402  35.504  1.00  0.00    -0.237 OA
ATOM     75  O   UNL A   1      39.652  36.606  37.709  1.00  0.00    -0.744 OA
ENDBRANCH  68  72
ENDBRANCH  41  65
BRANCH  53  76
ATOM     76  C   UNL A   1      44.830  27.534  34.444  1.00  0.00     0.023 A 
ATOM     77  C   UNL A   1      44.657  26.461  35.337  1.00  0.00     0.031 A 
ATOM     78  C   UNL A   1      46.068  28.198  34.435  1.00  0.00     0.131 A 
ATOM     79  C   UNL A   1      45.688  26.122  36.227  1.00  0.00     0.055 A 
ATOM     80  C   UNL A   1      47.109  27.823  35.286  1.00  0.00     0.041 A 
ATOM     81  F   UNL A   1      46.283  29.231  33.604  1.00  0.00    -0.206 F 
ATOM     82  C   UNL A   1      46.916  26.787  36.198  1.00  0.00     0.022 A 
BRANCH  79  83
ATOM     83  S   UNL A   1      45.371  24.855  37.486  1.00  0.00     0.124 S 
ATOM     84  O   UNL A   1      46.459  25.089  38.431  1.00  0.00    -0.237 OA
ATOM     85  O   UNL A   1      44.034  25.205  37.953  1.00  0.00    -0.237 OA
ATOM     86  O   UNL A   1      45.458  23.601  36.741  1.00  0.00    -0.744 OA
ENDBRANCH  79  83
ENDBRANCH  53  76
ENDBRANCH  27  28
ENDBRANCH  20  22
ENDBRANCH  19  20
ENDBRANCH  18  19
ENDBRANCH   1  18
TORSDOF 17
ENDMDL
MODEL 3
REMARK VINA RESULT:     -10.9      2.138      2.969
REMARK SMILES C[C@@H](Oc1cncc(C(=O)OCCOC(=O)c2ccc(-c3c4nc(c(-c5cc(S(=O)(=O)[O-])ccc5F)c5ccc([nH]5)c(-c5cc(S(=O)(=O)[O-])ccc5F)c5nc(c(-c6cc(S(=O)(=O)[O-])ccc6F)c6ccc3[nH]6)C=C5)C=C4)cc2)n1)C(F)(F)F
REMARK SMILES IDX 12 1 11 2 9 3 10 4 8 5 4 6 5 7 80 8 6 9 7 10 3 11 2 12 1 13
REMARK SMILES IDX 81 14 82 15 83 16 84 17 13 18 14 19 15 20 16 21 17 22 18 23
REMARK SMILES IDX 79 24 19 25 78 26 20 27 21 28 22 29 72 30 23 31 77 32 71 33
REMARK SMILES IDX 73 34 24 35 76 36 70 37 69 38 25 40 57 41 37 42 56 43 38 44
REMARK SMILES IDX 41 45 55 46 74 47 39 48 40 49 54 51 75 52 42 53 26 54 27 55
REMARK SMILES IDX 35 56 28 57 34 58 36 59 33 60 29 61 30 62 31 63 32 64 58 65
REMARK SMILES IDX 59 66 67 67 60 68 66 69 68 70 65 71 61 72 62 73 63 74 64 75
REMARK SMILES IDX 43 76 44 77 52 78 45 79 51 80 53 81 50 82 46 83 47 84 48 85
REMARK SMILES IDX 49 86
REMARK H PARENT 73 39 41 50
REMARK Flexibility Score: inf
ROOT
ATOM      1  C   UNL A   1      36.743  22.869  23.511  1.00  0.00     0.275 C 
ENDROOT
BRANCH   1   2
ATOM      2  O   UNL A   1      35.790  23.625  24.291  1.00  0.00    -0.457 OA
BRANCH   2   3
ATOM      3  C   UNL A   1      34.600  23.844  23.675  1.00  0.00     0.358 C 
ATOM      4  O   UNL A   1      34.392  24.687  22.812  1.00  0.00    -0.244 OA
BRANCH   3   5
ATOM      5  C   UNL A   1      33.540  22.898  24.096  1.00  0.00     0.170 A 
ATOM      6  C   UNL A   1      32.485  20.877  24.009  1.00  0.00     0.233 A 
ATOM      7  C   UNL A   1      31.896  21.133  25.245  1.00  0.00     0.179 A 
ATOM      8  N   UNL A   1      33.322  21.749  23.395  1.00  0.00    -0.203 NA
ATOM      9  N   UNL A   1      32.066  22.292  25.907  1.00  0.00    -0.257 NA
ATOM     10  C   UNL A   1      32.922  23.154  25.317  1.00  0.00     0.147 A 
BRANCH   6  11
ATOM     11  O   UNL A   1      32.419  19.614  23.478  1.00  0.00    -0.464 OA
BRANCH  11  12
ATOM     12  C   UNL A   1      33.085  18.621  24.285  1.00  0.00     0.277 C 
ATOM     13  C   UNL A   1      34.519  19.054  24.609  1.00  0.00     0.063 C 
BRANCH  12  14
ATOM     14  C   UNL A   1      33.132  17.315  23.487  1.00  0.00     0.425 C 
ATOM     15  F   UNL A   1      32.651  16.281  24.220  1.00  0.00    -0.167 F 
ATOM     16  F   UNL A   1      32.388  17.381  22.362  1.00  0.00    -0.167 F 
ATOM     17  F   UNL A   1      34.397  16.993  23.127  1.00  0.00    -0.167 F 
ENDBRANCH  12  14
ENDBRANCH  11  12
ENDBRANCH   6  11
ENDBRANCH   3   5
ENDBRANCH   2   3
ENDBRANCH   1   2
BRANCH   1  18
ATOM     18  C   UNL A   1      37.002  21.482  24.102  1.00  0.00     0.275 C 
BRANCH  18  19
ATOM     19  O   UNL A   1      37.297  21.573  25.509  1.00  0.00    -0.458 OA
BRANCH  19  20
ATOM     20  C   UNL A   1      38.586  21.348  25.849  1.00  0.00     0.338 C 
ATOM     21  O   UNL A   1      39.240  20.338  25.621  1.00  0.00    -0.246 OA
BRANCH  20  22
ATOM     22  C   UNL A   1      39.165  22.523  26.525  1.00  0.00     0.060 A 
ATOM     23  C   UNL A   1      38.676  23.790  26.231  1.00  0.00     0.016 A 
ATOM     24  C   UNL A   1      40.311  22.388  27.306  1.00  0.00     0.016 A 
ATOM     25  C   UNL A   1      39.410  24.922  26.581  1.00  0.00     0.010 A 
ATOM     26  C   UNL A   1      40.968  23.533  27.777  1.00  0.00     0.010 A 
ATOM     27  C   UNL A   1      40.564  24.819  27.375  1.00  0.00    -0.014 A 
BRANCH  27  28
ATOM     28  C   UNL A   1      41.364  26.036  27.736  1.00  0.00     0.031 A 
ATOM     29  C   UNL A   1      40.779  27.093  28.646  1.00  0.00     0.074 A 
ATOM     30  C   UNL A   1      42.622  26.204  27.273  1.00  0.00     0.049 A 
ATOM     31  N   UNL A   1      41.209  28.304  28.901  1.00  0.00    -0.248 NA
ATOM     32  C   UNL A   1      39.531  26.749  29.342  1.00  0.00     0.031 C 
ATOM     33  C   UNL A   1      43.351  25.258  26.425  1.00  0.00     0.029 A 
ATOM     34  N   UNL A   1      43.522  27.228  27.462  1.00  0.00    -0.354 N 
ATOM     35  C   UNL A   1      40.248  28.891  29.722  1.00  0.00     0.074 A 
ATOM     36  C   UNL A   1      39.211  27.900  29.916  1.00  0.00     0.031 C 
ATOM     37  C   UNL A   1      44.595  25.712  26.220  1.00  0.00     0.029 A 
ATOM     38  C   UNL A   1      44.722  27.036  26.815  1.00  0.00     0.049 A 
ATOM     39  H   UNL A   1      43.325  28.023  28.008  1.00  0.00     0.167 HD
ATOM     40  C   UNL A   1      40.232  30.138  30.259  1.00  0.00     0.034 A 
ATOM     41  C   UNL A   1      45.788  27.847  26.661  1.00  0.00     0.034 A 
ATOM     42  C   UNL A   1      41.307  31.093  30.115  1.00  0.00     0.049 A 
ATOM     43  C   UNL A   1      45.742  29.233  27.247  1.00  0.00     0.074 A 
ATOM     44  C   UNL A   1      41.399  32.374  30.634  1.00  0.00     0.029 A 
ATOM     45  N   UNL A   1      42.487  30.866  29.419  1.00  0.00    -0.354 N 
ATOM     46  N   UNL A   1      44.785  29.805  27.938  1.00  0.00    -0.248 NA
ATOM     47  C   UNL A   1      46.913  30.087  27.014  1.00  0.00     0.031 C 
ATOM     48  C   UNL A   1      42.607  32.939  30.209  1.00  0.00     0.029 A 
ATOM     49  C   UNL A   1      43.302  31.988  29.480  1.00  0.00     0.049 A 
ATOM     50  H   UNL A   1      42.714  30.030  28.951  1.00  0.00     0.167 HD
ATOM     51  C   UNL A   1      45.241  31.088  28.224  1.00  0.00     0.074 A 
ATOM     52  C   UNL A   1      46.570  31.194  27.656  1.00  0.00     0.031 C 
ATOM     53  C   UNL A   1      44.616  32.089  28.892  1.00  0.00     0.034 A 
BRANCH  40  54
ATOM     54  C   UNL A   1      38.983  30.566  30.998  1.00  0.00     0.023 A 
ATOM     55  C   UNL A   1      37.929  31.247  30.366  1.00  0.00     0.031 A 
ATOM     56  C   UNL A   1      38.862  30.302  32.375  1.00  0.00     0.131 A 
ATOM     57  C   UNL A   1      36.837  31.702  31.123  1.00  0.00     0.055 A 
ATOM     58  C   UNL A   1      37.738  30.688  33.107  1.00  0.00     0.041 A 
ATOM     59  F   UNL A   1      39.844  29.672  33.039  1.00  0.00    -0.206 F 
ATOM     60  C   UNL A   1      36.722  31.407  32.484  1.00  0.00     0.022 A 
BRANCH  57  61
ATOM     61  S   UNL A   1      35.633  32.808  30.335  1.00  0.00     0.124 S 
ATOM     62  O   UNL A   1      34.407  32.473  31.054  1.00  0.00    -0.237 OA
ATOM     63  O   UNL A   1      36.193  34.127  30.605  1.00  0.00    -0.237 OA
ATOM     64  O   UNL A   1      35.656  32.396  28.932  1.00  0.00    -0.744 OA
ENDBRANCH  57  61
ENDBRANCH  40  54
BRANCH  41  65
ATOM     65  C   UNL A   1      46.957  27.404  25.846  1.00  0.00     0.023 A 
ATOM     66  C   UNL A   1      47.109  27.806  24.510  1.00  0.00     0.031 A 
ATOM     67  C   UNL A   1      47.931  26.547  26.392  1.00  0.00     0.131 A 
ATOM     68  C   UNL A   1      48.193  27.329  23.757  1.00  0.00     0.055 A 
ATOM     69  C   UNL A   1      49.037  26.122  25.656  1.00  0.00     0.041 A 
ATOM     70  F   UNL A   1      47.832  26.129  27.664  1.00  0.00    -0.206 F 
ATOM     71  C   UNL A   1      49.167  26.505  24.326  1.00  0.00     0.022 A 
BRANCH  68  72
ATOM     72  S   UNL A   1      48.277  27.744  21.993  1.00  0.00     0.124 S 
ATOM     73  O   UNL A   1      49.415  28.655  21.955  1.00  0.00    -0.237 OA
ATOM     74  O   UNL A   1      48.484  26.434  21.383  1.00  0.00    -0.237 OA
ATOM     75  O   UNL A   1      46.978  28.355  21.724  1.00  0.00    -0.744 OA
ENDBRANCH  68  72
ENDBRANCH  41  65
BRANCH  53  76
ATOM     76  C   UNL A   1      45.389  33.372  29.066  1.00  0.00     0.023 A 
ATOM     77  C   UNL A   1      45.300  34.418  28.130  1.00  0.00     0.031 A 
ATOM     78  C   UNL A   1      46.250  33.534  30.164  1.00  0.00     0.131 A 
ATOM     79  C   UNL A   1      46.105  35.558  28.280  1.00  0.00     0.055 A 
ATOM     80  C   UNL A   1      47.010  34.692  30.336  1.00  0.00     0.041 A 
ATOM     81  F   UNL A   1      46.375  32.564  31.084  1.00  0.00    -0.206 F 
ATOM     82  C   UNL A   1      46.949  35.707  29.384  1.00  0.00     0.022 A 
BRANCH  79  83
ATOM     83  S   UNL A   1      46.100  36.807  26.966  1.00  0.00     0.124 S 
ATOM     84  O   UNL A   1      44.716  37.269  26.990  1.00  0.00    -0.237 OA
ATOM     85  O   UNL A   1      47.099  37.761  27.437  1.00  0.00    -0.237 OA
ATOM     86  O   UNL A   1      46.480  36.053  25.774  1.00  0.00    -0.744 OA
ENDBRANCH  79  83
ENDBRANCH  53  76
ENDBRANCH  27  28
ENDBRANCH  20  22
ENDBRANCH  19  20
ENDBRANCH  18  19
ENDBRANCH   1  18
TORSDOF 17
ENDMDL
