MODEL 1
REMARK VINA RESULT:     -13.0      0.000      0.000
REMARK SMILES Cc1c(NCc2ccc(-c3ccc(Cl)cc3)o2)cccc1C(=O)OCCOC(=O)c1ccc(-c2c3nc(c(-c4cc(S(=O)(=O)[O-])ccc4F)c4ccc([nH]4)c(-c4cc(S(=O)(=O)[O-])ccc4F)c4nc(c(-c5cc(S(=O)(=O)[O-])ccc5F)c5ccc2[nH]5)C=C4)C=C3)cc1
REMARK SMILES IDX 25 1 24 2 22 3 23 4 21 5 1 6 2 7 3 8 18 9 20 10 19 11 4 12
REMARK SMILES IDX 5 14 6 15 7 16 17 17 8 18 9 19 10 20 11 21 16 22 12 23 15 24
REMARK SMILES IDX 13 25 14 26 26 27 27 28 28 29 29 30 30 31 31 32 92 33 32 34
REMARK SMILES IDX 91 35 33 36 34 37 35 38 85 39 36 40 90 41 84 42 86 43 37 44
REMARK SMILES IDX 89 45 83 46 82 47 38 49 70 50 50 51 69 52 51 53 54 54 68 55
REMARK SMILES IDX 87 56 52 57 53 58 67 60 88 61 55 62 39 63 40 64 48 65 41 66
REMARK SMILES IDX 47 67 49 68 46 69 42 70 43 71 44 72 45 73 71 74 72 75 80 76
REMARK SMILES IDX 73 77 79 78 81 79 78 80 74 81 75 82 76 83 77 84 56 85 57 86
REMARK SMILES IDX 65 87 58 88 64 89 66 90 63 91 59 92 60 93 61 94 62 95
REMARK H PARENT 4 13 86 48 54 59
REMARK Flexibility Score: inf
ROOT
ATOM      1  C   UNL A   1      32.020  30.365  26.813  1.00  0.00     0.275 C 
ENDROOT
BRANCH   1   2
ATOM      2  O   UNL A   1      31.582  30.305  25.446  1.00  0.00    -0.458 OA
BRANCH   2   3
ATOM      3  C   UNL A   1      32.156  29.266  24.789  1.00  0.00     0.338 C 
ATOM      4  O   UNL A   1      33.281  29.278  24.311  1.00  0.00    -0.246 OA
BRANCH   3   5
ATOM      5  C   UNL A   1      31.276  28.094  24.588  1.00  0.00     0.065 A 
ATOM      6  C   UNL A   1      32.575  26.897  26.420  1.00  0.00     0.047 C 
ATOM      7  C   UNL A   1      31.370  27.034  25.515  1.00  0.00    -0.013 A 
ATOM      8  C   UNL A   1      30.355  26.054  25.555  1.00  0.00     0.038 A 
ATOM      9  C   UNL A   1      29.308  26.129  24.625  1.00  0.00     0.026 A 
ATOM     10  C   UNL A   1      30.254  28.113  23.634  1.00  0.00     0.016 A 
ATOM     11  C   UNL A   1      29.260  27.138  23.665  1.00  0.00     0.003 A 
BRANCH   8  12
ATOM     12  N   UNL A   1      30.448  25.003  26.456  1.00  0.00    -0.378 N 
ATOM     13  H   UNL A   1      30.467  25.205  27.419  1.00  0.00     0.161 HD
BRANCH  12  14
ATOM     14  C   UNL A   1      30.522  23.617  26.030  1.00  0.00     0.188 C 
BRANCH  14  15
ATOM     15  C   UNL A   1      31.597  23.315  25.041  1.00  0.00     0.123 A 
ATOM     16  C   UNL A   1      31.649  23.238  23.663  1.00  0.00     0.048 A 
ATOM     17  O   UNL A   1      32.830  23.058  25.563  1.00  0.00    -0.459 OA
ATOM     18  C   UNL A   1      32.992  22.957  23.323  1.00  0.00     0.051 A 
ATOM     19  C   UNL A   1      33.673  22.851  24.514  1.00  0.00     0.134 A 
BRANCH  19  20
ATOM     20  C   UNL A   1      35.050  22.595  24.875  1.00  0.00     0.017 A 
ATOM     21  C   UNL A   1      35.645  21.363  24.577  1.00  0.00     0.013 A 
ATOM     22  C   UNL A   1      35.804  23.586  25.516  1.00  0.00     0.013 A 
ATOM     23  C   UNL A   1      36.980  21.128  24.911  1.00  0.00     0.021 A 
ATOM     24  C   UNL A   1      37.135  23.349  25.863  1.00  0.00     0.021 A 
ATOM     25  C   UNL A   1      37.717  22.121  25.555  1.00  0.00     0.041 A 
ATOM     26  Cl  UNL A   1      39.360  21.828  25.974  1.00  0.00    -0.084 Cl
ENDBRANCH  19  20
ENDBRANCH  14  15
ENDBRANCH  12  14
ENDBRANCH   8  12
ENDBRANCH   3   5
ENDBRANCH   2   3
ENDBRANCH   1   2
BRANCH   1  27
ATOM     27  C   UNL A   1      33.409  30.986  27.011  1.00  0.00     0.275 C 
BRANCH  27  28
ATOM     28  O   UNL A   1      34.439  30.311  27.779  1.00  0.00    -0.458 OA
BRANCH  28  29
ATOM     29  C   UNL A   1      35.182  30.925  28.731  1.00  0.00     0.338 C 
ATOM     30  O   UNL A   1      34.720  31.790  29.474  1.00  0.00    -0.246 OA
BRANCH  29  31
ATOM     31  C   UNL A   1      36.540  30.365  28.907  1.00  0.00     0.060 A 
ATOM     32  C   UNL A   1      36.791  29.506  29.991  1.00  0.00     0.016 A 
ATOM     33  C   UNL A   1      37.469  30.503  27.880  1.00  0.00     0.016 A 
ATOM     34  C   UNL A   1      37.909  28.683  29.987  1.00  0.00     0.010 A 
ATOM     35  C   UNL A   1      38.476  29.580  27.783  1.00  0.00     0.010 A 
ATOM     36  C   UNL A   1      38.722  28.714  28.859  1.00  0.00    -0.014 A 
BRANCH  36  37
ATOM     37  C   UNL A   1      40.072  28.182  28.841  1.00  0.00     0.031 A 
ATOM     38  C   UNL A   1      40.348  26.787  28.479  1.00  0.00     0.074 A 
ATOM     39  C   UNL A   1      40.962  29.173  29.078  1.00  0.00     0.049 A 
ATOM     40  N   UNL A   1      41.432  26.170  28.784  1.00  0.00    -0.248 NA
ATOM     41  C   UNL A   1      39.405  25.916  27.782  1.00  0.00     0.031 C 
ATOM     42  C   UNL A   1      42.398  29.272  28.929  1.00  0.00     0.029 A 
ATOM     43  N   UNL A   1      40.629  30.368  29.722  1.00  0.00    -0.354 N 
ATOM     44  C   UNL A   1      41.484  25.011  28.031  1.00  0.00     0.074 A 
ATOM     45  C   UNL A   1      40.142  24.820  27.555  1.00  0.00     0.031 C 
ATOM     46  C   UNL A   1      42.838  30.279  29.717  1.00  0.00     0.029 A 
ATOM     47  C   UNL A   1      41.699  30.769  30.496  1.00  0.00     0.049 A 
ATOM     48  H   UNL A   1      39.772  30.846  29.637  1.00  0.00     0.167 HD
ATOM     49  C   UNL A   1      42.714  24.484  27.764  1.00  0.00     0.034 A 
ATOM     50  C   UNL A   1      41.531  30.643  31.849  1.00  0.00     0.034 A 
ATOM     51  C   UNL A   1      43.720  25.264  28.484  1.00  0.00     0.049 A 
ATOM     52  C   UNL A   1      42.404  29.514  32.346  1.00  0.00     0.074 A 
ATOM     53  C   UNL A   1      44.506  26.335  28.092  1.00  0.00     0.029 A 
ATOM     54  N   UNL A   1      43.696  25.269  29.872  1.00  0.00    -0.354 N 
ATOM     55  N   UNL A   1      42.673  28.423  31.673  1.00  0.00    -0.248 NA
ATOM     56  C   UNL A   1      43.172  29.637  33.576  1.00  0.00     0.031 C 
ATOM     57  C   UNL A   1      44.842  27.063  29.268  1.00  0.00     0.029 A 
ATOM     58  C   UNL A   1      44.275  26.425  30.359  1.00  0.00     0.049 A 
ATOM     59  H   UNL A   1      43.320  24.551  30.430  1.00  0.00     0.167 HD
ATOM     60  C   UNL A   1      43.705  27.766  32.292  1.00  0.00     0.074 A 
ATOM     61  C   UNL A   1      43.966  28.560  33.486  1.00  0.00     0.031 C 
ATOM     62  C   UNL A   1      44.334  26.656  31.791  1.00  0.00     0.034 A 
BRANCH  49  63
ATOM     63  C   UNL A   1      43.093  23.511  26.666  1.00  0.00     0.023 A 
ATOM     64  C   UNL A   1      42.690  22.163  26.819  1.00  0.00     0.031 A 
ATOM     65  C   UNL A   1      43.861  23.775  25.517  1.00  0.00     0.131 A 
ATOM     66  C   UNL A   1      43.087  21.156  25.920  1.00  0.00     0.055 A 
ATOM     67  C   UNL A   1      44.261  22.769  24.618  1.00  0.00     0.041 A 
ATOM     68  F   UNL A   1      44.246  25.012  25.184  1.00  0.00    -0.206 F 
ATOM     69  C   UNL A   1      43.882  21.450  24.820  1.00  0.00     0.022 A 
BRANCH  66  70
ATOM     70  S   UNL A   1      42.560  19.448  26.234  1.00  0.00     0.124 S 
ATOM     71  O   UNL A   1      43.755  18.688  25.882  1.00  0.00    -0.237 OA
ATOM     72  O   UNL A   1      42.212  19.485  27.650  1.00  0.00    -0.237 OA
ATOM     73  O   UNL A   1      41.428  19.271  25.326  1.00  0.00    -0.744 OA
ENDBRANCH  66  70
ENDBRANCH  49  63
BRANCH  50  74
ATOM     74  C   UNL A   1      40.148  30.998  32.349  1.00  0.00     0.023 A 
ATOM     75  C   UNL A   1      39.592  32.235  31.932  1.00  0.00     0.031 A 
ATOM     76  C   UNL A   1      39.271  30.101  32.973  1.00  0.00     0.131 A 
ATOM     77  C   UNL A   1      38.212  32.485  32.003  1.00  0.00     0.055 A 
ATOM     78  C   UNL A   1      37.895  30.382  33.110  1.00  0.00     0.041 A 
ATOM     79  F   UNL A   1      39.697  28.903  33.395  1.00  0.00    -0.206 F 
ATOM     80  C   UNL A   1      37.353  31.562  32.593  1.00  0.00     0.022 A 
BRANCH  77  81
ATOM     81  S   UNL A   1      37.540  33.904  31.079  1.00  0.00     0.124 S 
ATOM     82  O   UNL A   1      37.721  33.482  29.694  1.00  0.00    -0.237 OA
ATOM     83  O   UNL A   1      36.158  33.963  31.553  1.00  0.00    -0.237 OA
ATOM     84  O   UNL A   1      38.374  35.021  31.511  1.00  0.00    -0.744 OA
ENDBRANCH  77  81
ENDBRANCH  50  74
BRANCH  62  85
ATOM     85  C   UNL A   1      45.163  25.718  32.630  1.00  0.00     0.023 A 
ATOM     86  C   UNL A   1      44.583  24.666  33.340  1.00  0.00     0.031 A 
ATOM     87  C   UNL A   1      46.577  25.780  32.667  1.00  0.00     0.131 A 
ATOM     88  C   UNL A   1      45.349  23.846  34.172  1.00  0.00     0.055 A 
ATOM     89  C   UNL A   1      47.354  24.865  33.379  1.00  0.00     0.041 A 
ATOM     90  F   UNL A   1      47.270  26.719  32.008  1.00  0.00    -0.206 F 
ATOM     91  C   UNL A   1      46.738  23.908  34.171  1.00  0.00     0.022 A 
BRANCH  88  92
ATOM     92  S   UNL A   1      44.453  22.821  35.358  1.00  0.00     0.124 S 
ATOM     93  O   UNL A   1      44.812  21.476  34.912  1.00  0.00    -0.237 OA
ATOM     94  O   UNL A   1      45.029  23.236  36.633  1.00  0.00    -0.237 OA
ATOM     95  O   UNL A   1      43.058  23.195  35.149  1.00  0.00    -0.744 OA
ENDBRANCH  88  92
ENDBRANCH  62  85
ENDBRANCH  36  37
ENDBRANCH  29  31
ENDBRANCH  28  29
ENDBRANCH  27  28
ENDBRANCH   1  27
TORSDOF 18
ENDMDL
MODEL 2
REMARK VINA RESULT:     -12.7      1.616      2.015
REMARK SMILES Cc1c(NCc2ccc(-c3ccc(Cl)cc3)o2)cccc1C(=O)OCCOC(=O)c1ccc(-c2c3nc(c(-c4cc(S(=O)(=O)[O-])ccc4F)c4ccc([nH]4)c(-c4cc(S(=O)(=O)[O-])ccc4F)c4nc(c(-c5cc(S(=O)(=O)[O-])ccc5F)c5ccc2[nH]5)C=C4)C=C3)cc1
REMARK SMILES IDX 25 1 24 2 22 3 23 4 21 5 1 6 2 7 3 8 18 9 20 10 19 11 4 12
REMARK SMILES IDX 5 14 6 15 7 16 17 17 8 18 9 19 10 20 11 21 16 22 12 23 15 24
REMARK SMILES IDX 13 25 14 26 26 27 27 28 28 29 29 30 30 31 31 32 92 33 32 34
REMARK SMILES IDX 91 35 33 36 34 37 35 38 85 39 36 40 90 41 84 42 86 43 37 44
REMARK SMILES IDX 89 45 83 46 82 47 38 49 70 50 50 51 69 52 51 53 54 54 68 55
REMARK SMILES IDX 87 56 52 57 53 58 67 60 88 61 55 62 39 63 40 64 48 65 41 66
REMARK SMILES IDX 47 67 49 68 46 69 42 70 43 71 44 72 45 73 71 74 72 75 80 76
REMARK SMILES IDX 73 77 79 78 81 79 78 80 74 81 75 82 76 83 77 84 56 85 57 86
REMARK SMILES IDX 65 87 58 88 64 89 66 90 63 91 59 92 60 93 61 94 62 95
REMARK H PARENT 4 13 86 48 54 59
REMARK Flexibility Score: inf
ROOT
ATOM      1  C   UNL A   1      32.848  30.553  27.191  1.00  0.00     0.275 C 
ENDROOT
BRANCH   1   2
ATOM      2  O   UNL A   1      33.041  29.165  26.876  1.00  0.00    -0.458 OA
BRANCH   2   3
ATOM      3  C   UNL A   1      31.876  28.474  26.958  1.00  0.00     0.338 C 
ATOM      4  O   UNL A   1      31.332  28.145  28.003  1.00  0.00    -0.246 OA
BRANCH   3   5
ATOM      5  C   UNL A   1      31.318  28.036  25.660  1.00  0.00     0.065 A 
ATOM      6  C   UNL A   1      31.573  25.629  26.446  1.00  0.00     0.047 C 
ATOM      7  C   UNL A   1      31.002  26.668  25.507  1.00  0.00    -0.013 A 
ATOM      8  C   UNL A   1      30.190  26.260  24.427  1.00  0.00     0.038 A 
ATOM      9  C   UNL A   1      29.771  27.222  23.496  1.00  0.00     0.026 A 
ATOM     10  C   UNL A   1      30.937  28.965  24.687  1.00  0.00     0.016 A 
ATOM     11  C   UNL A   1      30.148  28.559  23.614  1.00  0.00     0.003 A 
BRANCH   8  12
ATOM     12  N   UNL A   1      29.886  24.916  24.265  1.00  0.00    -0.378 N 
ATOM     13  H   UNL A   1      29.128  24.538  24.766  1.00  0.00     0.161 HD
BRANCH  12  14
ATOM     14  C   UNL A   1      30.645  24.047  23.384  1.00  0.00     0.188 C 
BRANCH  14  15
ATOM     15  C   UNL A   1      32.055  24.470  23.140  1.00  0.00     0.123 A 
ATOM     16  C   UNL A   1      32.649  25.461  22.383  1.00  0.00     0.048 A 
ATOM     17  O   UNL A   1      33.013  23.754  23.793  1.00  0.00    -0.459 OA
ATOM     18  C   UNL A   1      34.041  25.371  22.617  1.00  0.00     0.051 A 
ATOM     19  C   UNL A   1      34.215  24.312  23.479  1.00  0.00     0.134 A 
BRANCH  19  20
ATOM     20  C   UNL A   1      35.361  23.700  24.115  1.00  0.00     0.017 A 
ATOM     21  C   UNL A   1      35.881  24.230  25.301  1.00  0.00     0.013 A 
ATOM     22  C   UNL A   1      35.953  22.563  23.550  1.00  0.00     0.013 A 
ATOM     23  C   UNL A   1      36.976  23.624  25.921  1.00  0.00     0.021 A 
ATOM     24  C   UNL A   1      37.056  21.964  24.160  1.00  0.00     0.021 A 
ATOM     25  C   UNL A   1      37.560  22.497  25.344  1.00  0.00     0.041 A 
ATOM     26  Cl  UNL A   1      38.916  21.756  26.103  1.00  0.00    -0.084 Cl
ENDBRANCH  19  20
ENDBRANCH  14  15
ENDBRANCH  12  14
ENDBRANCH   8  12
ENDBRANCH   3   5
ENDBRANCH   2   3
ENDBRANCH   1   2
BRANCH   1  27
ATOM     27  C   UNL A   1      34.143  31.336  27.443  1.00  0.00     0.275 C 
BRANCH  27  28
ATOM     28  O   UNL A   1      35.356  30.672  27.883  1.00  0.00    -0.458 OA
BRANCH  28  29
ATOM     29  C   UNL A   1      35.955  30.923  29.072  1.00  0.00     0.338 C 
ATOM     30  O   UNL A   1      35.424  31.602  29.949  1.00  0.00    -0.246 OA
BRANCH  29  31
ATOM     31  C   UNL A   1      37.222  30.189  29.289  1.00  0.00     0.060 A 
ATOM     32  C   UNL A   1      37.235  29.091  30.166  1.00  0.00     0.016 A 
ATOM     33  C   UNL A   1      38.305  30.444  28.453  1.00  0.00     0.016 A 
ATOM     34  C   UNL A   1      38.271  28.169  30.118  1.00  0.00     0.010 A 
ATOM     35  C   UNL A   1      39.239  29.458  28.278  1.00  0.00     0.010 A 
ATOM     36  C   UNL A   1      39.248  28.355  29.144  1.00  0.00    -0.014 A 
BRANCH  36  37
ATOM     37  C   UNL A   1      40.538  27.693  29.181  1.00  0.00     0.031 A 
ATOM     38  C   UNL A   1      40.705  26.302  28.743  1.00  0.00     0.074 A 
ATOM     39  C   UNL A   1      41.499  28.573  29.544  1.00  0.00     0.049 A 
ATOM     40  N   UNL A   1      41.699  25.561  29.077  1.00  0.00    -0.248 NA
ATOM     41  C   UNL A   1      39.736  25.574  27.926  1.00  0.00     0.031 C 
ATOM     42  C   UNL A   1      42.945  28.535  29.499  1.00  0.00     0.029 A 
ATOM     43  N   UNL A   1      41.236  29.753  30.245  1.00  0.00    -0.354 N 
ATOM     44  C   UNL A   1      41.695  24.452  28.251  1.00  0.00     0.074 A 
ATOM     45  C   UNL A   1      40.380  24.426  27.675  1.00  0.00     0.031 C 
ATOM     46  C   UNL A   1      43.421  29.442  30.382  1.00  0.00     0.029 A 
ATOM     47  C   UNL A   1      42.280  29.995  31.115  1.00  0.00     0.049 A 
ATOM     48  H   UNL A   1      40.438  30.319  30.136  1.00  0.00     0.167 HD
ATOM     49  C   UNL A   1      42.885  23.821  28.032  1.00  0.00     0.034 A 
ATOM     50  C   UNL A   1      42.002  29.804  32.441  1.00  0.00     0.034 A 
ATOM     51  C   UNL A   1      43.906  24.450  28.869  1.00  0.00     0.049 A 
ATOM     52  C   UNL A   1      42.724  28.564  32.917  1.00  0.00     0.074 A 
ATOM     53  C   UNL A   1      44.817  25.459  28.605  1.00  0.00     0.029 A 
ATOM     54  N   UNL A   1      43.781  24.372  30.249  1.00  0.00    -0.354 N 
ATOM     55  N   UNL A   1      42.935  27.495  32.190  1.00  0.00    -0.248 NA
ATOM     56  C   UNL A   1      43.407  28.533  34.201  1.00  0.00     0.031 C 
ATOM     57  C   UNL A   1      45.135  26.076  29.848  1.00  0.00     0.029 A 
ATOM     58  C   UNL A   1      44.431  25.431  30.852  1.00  0.00     0.049 A 
ATOM     59  H   UNL A   1      43.298  23.662  30.730  1.00  0.00     0.167 HD
ATOM     60  C   UNL A   1      43.852  26.701  32.830  1.00  0.00     0.074 A 
ATOM     61  C   UNL A   1      44.099  27.389  34.091  1.00  0.00     0.031 C 
ATOM     62  C   UNL A   1      44.406  25.567  32.297  1.00  0.00     0.034 A 
BRANCH  49  63
ATOM     63  C   UNL A   1      43.248  22.885  26.897  1.00  0.00     0.023 A 
ATOM     64  C   UNL A   1      42.732  21.568  26.944  1.00  0.00     0.031 A 
ATOM     65  C   UNL A   1      44.100  23.150  25.808  1.00  0.00     0.131 A 
ATOM     66  C   UNL A   1      43.099  20.585  26.008  1.00  0.00     0.055 A 
ATOM     67  C   UNL A   1      44.470  22.167  24.872  1.00  0.00     0.041 A 
ATOM     68  F   UNL A   1      44.601  24.367  25.574  1.00  0.00    -0.206 F 
ATOM     69  C   UNL A   1      43.977  20.874  24.972  1.00  0.00     0.022 A 
BRANCH  66  70
ATOM     70  S   UNL A   1      42.421  18.911  26.187  1.00  0.00     0.124 S 
ATOM     71  O   UNL A   1      42.565  18.672  27.619  1.00  0.00    -0.237 OA
ATOM     72  O   UNL A   1      41.058  19.074  25.692  1.00  0.00    -0.237 OA
ATOM     73  O   UNL A   1      43.291  18.100  25.337  1.00  0.00    -0.744 OA
ENDBRANCH  66  70
ENDBRANCH  49  63
BRANCH  50  74
ATOM     74  C   UNL A   1      40.626  30.264  32.871  1.00  0.00     0.023 A 
ATOM     75  C   UNL A   1      40.314  31.641  32.722  1.00  0.00     0.031 A 
ATOM     76  C   UNL A   1      39.553  29.411  33.159  1.00  0.00     0.131 A 
ATOM     77  C   UNL A   1      38.986  32.098  32.712  1.00  0.00     0.055 A 
ATOM     78  C   UNL A   1      38.225  29.883  33.221  1.00  0.00     0.041 A 
ATOM     79  F   UNL A   1      39.744  28.093  33.310  1.00  0.00    -0.206 F 
ATOM     80  C   UNL A   1      37.932  31.225  32.962  1.00  0.00     0.022 A 
BRANCH  77  81
ATOM     81  S   UNL A   1      38.656  33.785  32.108  1.00  0.00     0.124 S 
ATOM     82  O   UNL A   1      37.423  34.126  32.810  1.00  0.00    -0.237 OA
ATOM     83  O   UNL A   1      39.853  34.512  32.531  1.00  0.00    -0.237 OA
ATOM     84  O   UNL A   1      38.532  33.616  30.664  1.00  0.00    -0.744 OA
ENDBRANCH  77  81
ENDBRANCH  50  74
BRANCH  62  85
ATOM     85  C   UNL A   1      45.078  24.500  33.124  1.00  0.00     0.023 A 
ATOM     86  C   UNL A   1      46.385  24.652  33.590  1.00  0.00     0.031 A 
ATOM     87  C   UNL A   1      44.399  23.339  33.563  1.00  0.00     0.131 A 
ATOM     88  C   UNL A   1      47.025  23.629  34.294  1.00  0.00     0.055 A 
ATOM     89  C   UNL A   1      44.991  22.387  34.394  1.00  0.00     0.041 A 
ATOM     90  F   UNL A   1      43.130  23.078  33.218  1.00  0.00    -0.206 F 
ATOM     91  C   UNL A   1      46.329  22.510  34.737  1.00  0.00     0.022 A 
BRANCH  88  92
ATOM     92  S   UNL A   1      48.818  23.750  34.461  1.00  0.00     0.124 S 
ATOM     93  O   UNL A   1      49.141  24.750  33.445  1.00  0.00    -0.237 OA
ATOM     94  O   UNL A   1      48.978  24.185  35.845  1.00  0.00    -0.237 OA
ATOM     95  O   UNL A   1      49.281  22.396  34.172  1.00  0.00    -0.744 OA
ENDBRANCH  88  92
ENDBRANCH  62  85
ENDBRANCH  36  37
ENDBRANCH  29  31
ENDBRANCH  28  29
ENDBRANCH  27  28
ENDBRANCH   1  27
TORSDOF 18
ENDMDL
MODEL 3
REMARK VINA RESULT:     -12.4      1.749      2.230
REMARK SMILES Cc1c(NCc2ccc(-c3ccc(Cl)cc3)o2)cccc1C(=O)OCCOC(=O)c1ccc(-c2c3nc(c(-c4cc(S(=O)(=O)[O-])ccc4F)c4ccc([nH]4)c(-c4cc(S(=O)(=O)[O-])ccc4F)c4nc(c(-c5cc(S(=O)(=O)[O-])ccc5F)c5ccc2[nH]5)C=C4)C=C3)cc1
REMARK SMILES IDX 25 1 24 2 22 3 23 4 21 5 1 6 2 7 3 8 18 9 20 10 19 11 4 12
REMARK SMILES IDX 5 14 6 15 7 16 17 17 8 18 9 19 10 20 11 21 16 22 12 23 15 24
REMARK SMILES IDX 13 25 14 26 26 27 27 28 28 29 29 30 30 31 31 32 92 33 32 34
REMARK SMILES IDX 91 35 33 36 34 37 35 38 85 39 36 40 90 41 84 42 86 43 37 44
REMARK SMILES IDX 89 45 83 46 82 47 38 49 70 50 50 51 69 52 51 53 54 54 68 55
REMARK SMILES IDX 87 56 52 57 53 58 67 60 88 61 55 62 39 63 40 64 48 65 41 66
REMARK SMILES IDX 47 67 49 68 46 69 42 70 43 71 44 72 45 73 71 74 72 75 80 76
REMARK SMILES IDX 73 77 79 78 81 79 78 80 74 81 75 82 76 83 77 84 56 85 57 86
REMARK SMILES IDX 65 87 58 88 64 89 66 90 63 91 59 92 60 93 61 94 62 95
REMARK H PARENT 4 13 86 48 54 59
REMARK Flexibility Score: inf
ROOT
ATOM      1  C   UNL A   1      32.243  30.247  26.842  1.00  0.00     0.275 C 
ENDROOT
BRANCH   1   2
ATOM      2  O   UNL A   1      32.502  29.051  26.091  1.00  0.00    -0.458 OA
BRANCH   2   3
ATOM      3  C   UNL A   1      31.670  28.045  26.462  1.00  0.00     0.338 C 
ATOM      4  O   UNL A   1      31.333  27.807  27.613  1.00  0.00    -0.246 OA
BRANCH   3   5
ATOM      5  C   UNL A   1      31.245  27.151  25.363  1.00  0.00     0.065 A 
ATOM      6  C   UNL A   1      33.010  25.487  26.133  1.00  0.00     0.047 C 
ATOM      7  C   UNL A   1      31.772  25.841  25.339  1.00  0.00    -0.013 A 
ATOM      8  C   UNL A   1      31.170  24.865  24.514  1.00  0.00     0.038 A 
ATOM      9  C   UNL A   1      30.100  25.244  23.692  1.00  0.00     0.026 A 
ATOM     10  C   UNL A   1      30.215  27.517  24.491  1.00  0.00     0.016 A 
ATOM     11  C   UNL A   1      29.632  26.558  23.667  1.00  0.00     0.003 A 
BRANCH   8  12
ATOM     12  N   UNL A   1      31.692  23.581  24.477  1.00  0.00    -0.378 N 
ATOM     13  H   UNL A   1      31.405  22.934  25.161  1.00  0.00     0.161 HD
BRANCH  12  14
ATOM     14  C   UNL A   1      32.644  23.156  23.468  1.00  0.00     0.188 C 
BRANCH  14  15
ATOM     15  C   UNL A   1      33.645  22.149  23.927  1.00  0.00     0.123 A 
ATOM     16  C   UNL A   1      34.979  22.204  24.281  1.00  0.00     0.048 A 
ATOM     17  O   UNL A   1      33.190  20.870  24.049  1.00  0.00    -0.459 OA
ATOM     18  C   UNL A   1      35.348  20.898  24.678  1.00  0.00     0.051 A 
ATOM     19  C   UNL A   1      34.225  20.119  24.514  1.00  0.00     0.134 A 
BRANCH  19  20
ATOM     20  C   UNL A   1      33.918  18.724  24.743  1.00  0.00     0.017 A 
ATOM     21  C   UNL A   1      34.899  17.742  24.561  1.00  0.00     0.013 A 
ATOM     22  C   UNL A   1      32.635  18.347  25.160  1.00  0.00     0.013 A 
ATOM     23  C   UNL A   1      34.602  16.399  24.801  1.00  0.00     0.021 A 
ATOM     24  C   UNL A   1      32.332  17.004  25.388  1.00  0.00     0.021 A 
ATOM     25  C   UNL A   1      33.318  16.037  25.210  1.00  0.00     0.041 A 
ATOM     26  Cl  UNL A   1      32.950  14.381  25.496  1.00  0.00    -0.084 Cl
ENDBRANCH  19  20
ENDBRANCH  14  15
ENDBRANCH  12  14
ENDBRANCH   8  12
ENDBRANCH   3   5
ENDBRANCH   2   3
ENDBRANCH   1   2
BRANCH   1  27
ATOM     27  C   UNL A   1      33.494  31.061  27.197  1.00  0.00     0.275 C 
BRANCH  27  28
ATOM     28  O   UNL A   1      34.689  30.424  27.718  1.00  0.00    -0.458 OA
BRANCH  28  29
ATOM     29  C   UNL A   1      35.381  30.895  28.783  1.00  0.00     0.338 C 
ATOM     30  O   UNL A   1      34.883  31.657  29.611  1.00  0.00    -0.246 OA
BRANCH  29  31
ATOM     31  C   UNL A   1      36.725  30.299  28.955  1.00  0.00     0.060 A 
ATOM     32  C   UNL A   1      36.941  29.386  30.002  1.00  0.00     0.016 A 
ATOM     33  C   UNL A   1      37.675  30.466  27.951  1.00  0.00     0.016 A 
ATOM     34  C   UNL A   1      38.042  28.542  29.978  1.00  0.00     0.010 A 
ATOM     35  C   UNL A   1      38.665  29.529  27.828  1.00  0.00     0.010 A 
ATOM     36  C   UNL A   1      38.876  28.608  28.866  1.00  0.00    -0.014 A 
BRANCH  36  37
ATOM     37  C   UNL A   1      40.214  28.051  28.846  1.00  0.00     0.031 A 
ATOM     38  C   UNL A   1      40.459  26.639  28.529  1.00  0.00     0.074 A 
ATOM     39  C   UNL A   1      41.126  29.032  29.034  1.00  0.00     0.049 A 
ATOM     40  N   UNL A   1      41.535  26.012  28.838  1.00  0.00    -0.248 NA
ATOM     41  C   UNL A   1      39.488  25.762  27.877  1.00  0.00     0.031 C 
ATOM     42  C   UNL A   1      42.562  29.098  28.859  1.00  0.00     0.029 A 
ATOM     43  N   UNL A   1      40.826  30.255  29.641  1.00  0.00    -0.354 N 
ATOM     44  C   UNL A   1      41.554  24.827  28.125  1.00  0.00     0.074 A 
ATOM     45  C   UNL A   1      40.202  24.645  27.677  1.00  0.00     0.031 C 
ATOM     46  C   UNL A   1      43.033  30.123  29.605  1.00  0.00     0.029 A 
ATOM     47  C   UNL A   1      41.915  30.661  30.384  1.00  0.00     0.049 A 
ATOM     48  H   UNL A   1      39.977  30.745  29.552  1.00  0.00     0.167 HD
ATOM     49  C   UNL A   1      42.770  24.268  27.858  1.00  0.00     0.034 A 
ATOM     50  C   UNL A   1      41.768  30.586  31.742  1.00  0.00     0.034 A 
ATOM     51  C   UNL A   1      43.802  25.053  28.534  1.00  0.00     0.049 A 
ATOM     52  C   UNL A   1      42.628  29.458  32.265  1.00  0.00     0.074 A 
ATOM     53  C   UNL A   1      44.601  26.094  28.092  1.00  0.00     0.029 A 
ATOM     54  N   UNL A   1      43.800  25.107  29.921  1.00  0.00    -0.354 N 
ATOM     55  N   UNL A   1      42.865  28.340  31.627  1.00  0.00    -0.248 NA
ATOM     56  C   UNL A   1      43.417  29.609  33.478  1.00  0.00     0.031 C 
ATOM     57  C   UNL A   1      44.970  26.856  29.236  1.00  0.00     0.029 A 
ATOM     58  C   UNL A   1      44.409  26.267  30.358  1.00  0.00     0.049 A 
ATOM     59  H   UNL A   1      43.420  24.415  30.509  1.00  0.00     0.167 HD
ATOM     60  C   UNL A   1      43.895  27.685  32.252  1.00  0.00     0.074 A 
ATOM     61  C   UNL A   1      44.190  28.515  33.414  1.00  0.00     0.031 C 
ATOM     62  C   UNL A   1      44.495  26.547  31.780  1.00  0.00     0.034 A 
BRANCH  49  63
ATOM     63  C   UNL A   1      43.112  23.250  26.789  1.00  0.00     0.023 A 
ATOM     64  C   UNL A   1      42.621  21.933  26.956  1.00  0.00     0.031 A 
ATOM     65  C   UNL A   1      43.923  23.441  25.654  1.00  0.00     0.131 A 
ATOM     66  C   UNL A   1      42.975  20.885  26.088  1.00  0.00     0.055 A 
ATOM     67  C   UNL A   1      44.280  22.394  24.786  1.00  0.00     0.041 A 
ATOM     68  F   UNL A   1      44.395  24.644  25.308  1.00  0.00    -0.206 F 
ATOM     69  C   UNL A   1      43.814  21.106  25.003  1.00  0.00     0.022 A 
BRANCH  66  70
ATOM     70  S   UNL A   1      42.333  19.221  26.421  1.00  0.00     0.124 S 
ATOM     71  O   UNL A   1      41.043  19.247  25.739  1.00  0.00    -0.237 OA
ATOM     72  O   UNL A   1      43.359  18.368  25.830  1.00  0.00    -0.237 OA
ATOM     73  O   UNL A   1      42.258  19.172  27.880  1.00  0.00    -0.744 OA
ENDBRANCH  66  70
ENDBRANCH  49  63
BRANCH  50  74
ATOM     74  C   UNL A   1      40.400  30.984  32.251  1.00  0.00     0.023 A 
ATOM     75  C   UNL A   1      39.860  32.217  31.800  1.00  0.00     0.031 A 
ATOM     76  C   UNL A   1      39.517  30.127  32.921  1.00  0.00     0.131 A 
ATOM     77  C   UNL A   1      38.486  32.494  31.884  1.00  0.00     0.055 A 
ATOM     78  C   UNL A   1      38.149  30.438  33.069  1.00  0.00     0.041 A 
ATOM     79  F   UNL A   1      39.928  28.936  33.378  1.00  0.00    -0.206 F 
ATOM     80  C   UNL A   1      37.620  31.609  32.519  1.00  0.00     0.022 A 
BRANCH  77  81
ATOM     81  S   UNL A   1      37.825  33.893  30.921  1.00  0.00     0.124 S 
ATOM     82  O   UNL A   1      38.673  34.996  31.361  1.00  0.00    -0.237 OA
ATOM     83  O   UNL A   1      38.020  33.448  29.542  1.00  0.00    -0.237 OA
ATOM     84  O   UNL A   1      36.429  33.969  31.339  1.00  0.00    -0.744 OA
ENDBRANCH  77  81
ENDBRANCH  50  74
BRANCH  62  85
ATOM     85  C   UNL A   1      45.321  25.623  32.638  1.00  0.00     0.023 A 
ATOM     86  C   UNL A   1      44.731  24.618  33.408  1.00  0.00     0.031 A 
ATOM     87  C   UNL A   1      46.735  25.647  32.638  1.00  0.00     0.131 A 
ATOM     88  C   UNL A   1      45.495  23.814  34.255  1.00  0.00     0.055 A 
ATOM     89  C   UNL A   1      47.506  24.742  33.369  1.00  0.00     0.041 A 
ATOM     90  F   UNL A   1      47.437  26.537  31.922  1.00  0.00    -0.206 F 
ATOM     91  C   UNL A   1      46.885  23.837  34.217  1.00  0.00     0.022 A 
BRANCH  88  92
ATOM     92  S   UNL A   1      44.604  22.866  35.506  1.00  0.00     0.124 S 
ATOM     93  O   UNL A   1      45.172  21.532  35.323  1.00  0.00    -0.237 OA
ATOM     94  O   UNL A   1      44.977  23.545  36.742  1.00  0.00    -0.237 OA
ATOM     95  O   UNL A   1      43.206  23.006  35.110  1.00  0.00    -0.744 OA
ENDBRANCH  88  92
ENDBRANCH  62  85
ENDBRANCH  36  37
ENDBRANCH  29  31
ENDBRANCH  28  29
ENDBRANCH  27  28
ENDBRANCH   1  27
TORSDOF 18
ENDMDL
