MODEL 1
REMARK VINA RESULT:     -16.4      0.000      0.000
REMARK SMILES Cc1ccccc1NC(=S)NN1C(=O)CS[C@H]1c1ccccc1C(=O)OCCOC(=O)c1ccc(-c2c3nc(c(-c4cc(S(=O)(=O)[O-])ccc4F)c4ccc([nH]4)c(-c4cc(S(=O)(=O)[O-])ccc4F)c4nc(c(-c5cc(S(=O)(=O)[O-])ccc5F)c5ccc2[nH]5)C=C4)C=C3)cc1
REMARK SMILES IDX 27 1 26 2 24 3 25 4 23 5 18 6 19 7 20 8 22 9 21 10 17 11
REMARK SMILES IDX 12 12 13 13 14 14 15 15 16 16 11 17 9 19 10 20 8 21 7 23
REMARK SMILES IDX 1 24 2 25 3 26 4 27 6 28 5 29 28 30 29 31 30 32 31 33 32 34
REMARK SMILES IDX 33 35 94 36 34 37 93 38 35 39 36 40 37 41 87 42 38 43 92 44
REMARK SMILES IDX 86 45 88 46 39 47 91 48 85 49 84 50 40 52 72 53 52 54 71 55
REMARK SMILES IDX 53 56 56 57 70 58 89 59 54 60 55 61 69 63 90 64 57 65 41 66
REMARK SMILES IDX 42 67 50 68 43 69 49 70 51 71 48 72 44 73 45 74 46 75 47 76
REMARK SMILES IDX 73 77 74 78 82 79 75 80 81 81 83 82 80 83 76 84 77 85 78 86
REMARK SMILES IDX 79 87 58 88 59 89 67 90 60 91 66 92 68 93 65 94 61 95 62 96
REMARK SMILES IDX 63 97 64 98
REMARK H PARENT 11 18 8 22 88 51 56 62
REMARK Flexibility Score: inf
ROOT
ATOM      1  C   UNL A   1      35.198  29.212  27.075  1.00  0.00     0.275 C 
ENDROOT
BRANCH   1   2
ATOM      2  O   UNL A   1      33.717  28.169  26.654  1.00  0.00    -0.458 OA
BRANCH   2   3
ATOM      3  C   UNL A   1      33.229  26.511  26.347  1.00  0.00     0.338 C 
ATOM      4  O   UNL A   1      32.052  26.619  26.762  1.00  0.00    -0.246 OA
BRANCH   3   5
ATOM      5  C   UNL A   1      34.336  25.062  25.143  1.00  0.00     0.066 A 
ATOM      6  C   UNL A   1      33.677  24.428  23.693  1.00  0.00     0.001 A 
ATOM      7  C   UNL A   1      34.330  23.540  22.812  1.00  0.00     0.008 A 
ATOM      8  C   UNL A   1      35.524  22.973  23.196  1.00  0.00     0.000 A 
ATOM      9  C   UNL A   1      35.555  24.249  25.337  1.00  0.00     0.016 A 
ATOM     10  C   UNL A   1      36.073  23.260  24.443  1.00  0.00     0.001 A 
BRANCH   6  11
ATOM     11  C   UNL A   1      31.963  24.735  23.184  1.00  0.00     0.197 C 
ATOM     12  N   UNL A   1      30.803  25.420  24.235  1.00  0.00    -0.236 N 
ATOM     13  C   UNL A   1      30.819  27.007  23.801  1.00  0.00     0.252 C 
ATOM     14  O   UNL A   1      31.011  28.022  24.483  1.00  0.00    -0.272 OA
ATOM     15  C   UNL A   1      31.027  27.218  22.354  1.00  0.00     0.174 C 
ATOM     16  S   UNL A   1      32.066  25.944  21.711  1.00  0.00    -0.120 SA
BRANCH  12  17
ATOM     17  N   UNL A   1      30.236  24.634  25.981  1.00  0.00    -0.270 N 
ATOM     18  H   UNL A   1      29.978  25.328  26.629  1.00  0.00     0.191 HD
BRANCH  17  19
ATOM     19  C   UNL A   1      30.086  23.063  26.636  1.00  0.00     0.189 C 
ATOM     20  S   UNL A   1      28.726  22.714  27.560  1.00  0.00    -0.039 S 
BRANCH  19  21
ATOM     21  N   UNL A   1      30.868  21.783  26.077  1.00  0.00    -0.331 N 
ATOM     22  H   UNL A   1      30.294  20.987  26.147  1.00  0.00     0.169 HD
BRANCH  21  23
ATOM     23  C   UNL A   1      32.236  21.388  25.461  1.00  0.00     0.043 A 
ATOM     24  C   UNL A   1      33.769  22.162  27.379  1.00  0.00     0.046 C 
ATOM     25  C   UNL A   1      33.416  21.270  26.228  1.00  0.00    -0.028 A 
ATOM     26  C   UNL A   1      34.456  20.373  25.817  1.00  0.00     0.005 A 
ATOM     27  C   UNL A   1      34.369  19.631  24.648  1.00  0.00     0.000 A 
ATOM     28  C   UNL A   1      32.426  20.953  24.136  1.00  0.00     0.026 A 
ATOM     29  C   UNL A   1      33.370  19.972  23.770  1.00  0.00     0.002 A 
ENDBRANCH  21  23
ENDBRANCH  19  21
ENDBRANCH  17  19
ENDBRANCH  12  17
ENDBRANCH   6  11
ENDBRANCH   3   5
ENDBRANCH   2   3
ENDBRANCH   1   2
BRANCH   1  30
ATOM     30  C   UNL A   1      35.095  30.912  28.266  1.00  0.00     0.275 C 
BRANCH  30  31
ATOM     31  O   UNL A   1      35.928  30.896  29.920  1.00  0.00    -0.458 OA
BRANCH  31  32
ATOM     32  C   UNL A   1      37.249  30.385  30.427  1.00  0.00     0.338 C 
ATOM     33  O   UNL A   1      37.348  30.006  31.591  1.00  0.00    -0.246 OA
BRANCH  32  34
ATOM     34  C   UNL A   1      38.586  30.166  29.440  1.00  0.00     0.060 A 
ATOM     35  C   UNL A   1      38.434  29.635  27.716  1.00  0.00     0.016 A 
ATOM     36  C   UNL A   1      40.410  30.171  30.024  1.00  0.00     0.016 A 
ATOM     37  C   UNL A   1      39.963  29.049  26.876  1.00  0.00     0.010 A 
ATOM     38  C   UNL A   1      41.736  29.705  29.099  1.00  0.00     0.010 A 
ATOM     39  C   UNL A   1      41.584  29.066  27.621  1.00  0.00    -0.014 A 
BRANCH  39  40
ATOM     40  C   UNL A   1      42.587  27.909  27.973  1.00  0.00     0.031 A 
ATOM     41  C   UNL A   1      41.942  26.412  27.934  1.00  0.00     0.074 A 
ATOM     42  C   UNL A   1      43.915  28.222  27.838  1.00  0.00     0.049 A 
ATOM     43  N   UNL A   1      41.922  25.571  28.925  1.00  0.00    -0.248 NA
ATOM     44  C   UNL A   1      41.036  25.781  26.846  1.00  0.00     0.031 C 
ATOM     45  C   UNL A   1      45.161  27.450  27.776  1.00  0.00     0.029 A 
ATOM     46  N   UNL A   1      44.418  29.527  27.868  1.00  0.00    -0.354 N 
ATOM     47  C   UNL A   1      41.626  24.335  28.328  1.00  0.00     0.074 A 
ATOM     48  C   UNL A   1      40.667  24.609  27.337  1.00  0.00     0.031 C 
ATOM     49  C   UNL A   1      46.189  28.232  28.197  1.00  0.00     0.029 A 
ATOM     50  C   UNL A   1      45.679  29.572  28.459  1.00  0.00     0.049 A 
ATOM     51  H   UNL A   1      43.941  30.313  27.517  1.00  0.00     0.167 HD
ATOM     52  C   UNL A   1      42.585  23.360  28.238  1.00  0.00     0.034 A 
ATOM     53  C   UNL A   1      45.717  30.276  29.625  1.00  0.00     0.034 A 
ATOM     54  C   UNL A   1      43.798  23.822  28.915  1.00  0.00     0.049 A 
ATOM     55  C   UNL A   1      45.382  29.277  30.744  1.00  0.00     0.074 A 
ATOM     56  C   UNL A   1      45.115  24.044  28.568  1.00  0.00     0.029 A 
ATOM     57  N   UNL A   1      43.628  24.451  30.133  1.00  0.00    -0.354 N 
ATOM     58  N   UNL A   1      44.949  28.055  30.530  1.00  0.00    -0.248 NA
ATOM     59  C   UNL A   1      45.656  29.501  32.157  1.00  0.00     0.031 C 
ATOM     60  C   UNL A   1      45.678  24.911  29.570  1.00  0.00     0.029 A 
ATOM     61  C   UNL A   1      44.700  25.217  30.502  1.00  0.00     0.049 A 
ATOM     62  H   UNL A   1      42.816  24.357  30.682  1.00  0.00     0.167 HD
ATOM     63  C   UNL A   1      44.926  27.328  31.682  1.00  0.00     0.074 A 
ATOM     64  C   UNL A   1      45.377  28.290  32.678  1.00  0.00     0.031 C 
ATOM     65  C   UNL A   1      44.579  25.999  31.731  1.00  0.00     0.034 A 
BRANCH  52  66
ATOM     66  C   UNL A   1      42.531  22.081  27.403  1.00  0.00     0.023 A 
ATOM     67  C   UNL A   1      43.567  21.925  26.463  1.00  0.00     0.031 A 
ATOM     68  C   UNL A   1      41.615  20.998  27.444  1.00  0.00     0.131 A 
ATOM     69  C   UNL A   1      43.686  20.777  25.659  1.00  0.00     0.055 A 
ATOM     70  C   UNL A   1      41.746  19.839  26.655  1.00  0.00     0.041 A 
ATOM     71  F   UNL A   1      40.527  20.978  28.220  1.00  0.00    -0.206 F 
ATOM     72  C   UNL A   1      42.790  19.720  25.757  1.00  0.00     0.022 A 
BRANCH  69  73
ATOM     73  S   UNL A   1      45.065  20.694  24.493  1.00  0.00     0.124 S 
ATOM     74  O   UNL A   1      45.053  19.286  24.112  1.00  0.00    -0.237 OA
ATOM     75  O   UNL A   1      44.656  21.649  23.468  1.00  0.00    -0.237 OA
ATOM     76  O   UNL A   1      46.214  21.109  25.298  1.00  0.00    -0.744 OA
ENDBRANCH  69  73
ENDBRANCH  52  66
BRANCH  53  77
ATOM     77  C   UNL A   1      45.191  31.687  29.363  1.00  0.00     0.023 A 
ATOM     78  C   UNL A   1      45.575  32.311  28.133  1.00  0.00     0.031 A 
ATOM     79  C   UNL A   1      44.087  32.252  30.013  1.00  0.00     0.131 A 
ATOM     80  C   UNL A   1      44.778  33.305  27.524  1.00  0.00     0.055 A 
ATOM     81  C   UNL A   1      43.321  33.287  29.419  1.00  0.00     0.041 A 
ATOM     82  F   UNL A   1      43.601  31.704  31.137  1.00  0.00    -0.206 F 
ATOM     83  C   UNL A   1      43.622  33.764  28.145  1.00  0.00     0.022 A 
BRANCH  80  84
ATOM     84  S   UNL A   1      45.130  33.915  25.840  1.00  0.00     0.124 S 
ATOM     85  O   UNL A   1      44.492  35.230  25.866  1.00  0.00    -0.237 OA
ATOM     86  O   UNL A   1      46.587  33.937  25.776  1.00  0.00    -0.237 OA
ATOM     87  O   UNL A   1      44.469  32.930  24.987  1.00  0.00    -0.744 OA
ENDBRANCH  80  84
ENDBRANCH  53  77
BRANCH  65  88
ATOM     88  C   UNL A   1      44.104  25.289  32.994  1.00  0.00     0.023 A 
ATOM     89  C   UNL A   1      43.073  25.806  33.776  1.00  0.00     0.031 A 
ATOM     90  C   UNL A   1      44.607  24.033  33.436  1.00  0.00     0.131 A 
ATOM     91  C   UNL A   1      42.728  25.228  35.004  1.00  0.00     0.055 A 
ATOM     92  C   UNL A   1      44.150  23.376  34.579  1.00  0.00     0.041 A 
ATOM     93  F   UNL A   1      45.568  23.358  32.792  1.00  0.00    -0.206 F 
ATOM     94  C   UNL A   1      43.239  24.001  35.405  1.00  0.00     0.022 A 
BRANCH  91  95
ATOM     95  S   UNL A   1      41.714  26.221  36.116  1.00  0.00     0.124 S 
ATOM     96  O   UNL A   1      40.514  25.397  36.236  1.00  0.00    -0.237 OA
ATOM     97  O   UNL A   1      42.547  26.300  37.312  1.00  0.00    -0.237 OA
ATOM     98  O   UNL A   1      41.538  27.476  35.390  1.00  0.00    -0.744 OA
ENDBRANCH  91  95
ENDBRANCH  65  88
ENDBRANCH  39  40
ENDBRANCH  32  34
ENDBRANCH  31  32
ENDBRANCH  30  31
ENDBRANCH   1  30
TORSDOF 19
ENDMDL
MODEL 2
REMARK VINA RESULT:     -14.3      2.449      2.871
REMARK SMILES Cc1ccccc1NC(=S)NN1C(=O)CS[C@H]1c1ccccc1C(=O)OCCOC(=O)c1ccc(-c2c3nc(c(-c4cc(S(=O)(=O)[O-])ccc4F)c4ccc([nH]4)c(-c4cc(S(=O)(=O)[O-])ccc4F)c4nc(c(-c5cc(S(=O)(=O)[O-])ccc5F)c5ccc2[nH]5)C=C4)C=C3)cc1
REMARK SMILES IDX 27 1 26 2 24 3 25 4 23 5 18 6 19 7 20 8 22 9 21 10 17 11
REMARK SMILES IDX 12 12 13 13 14 14 15 15 16 16 11 17 9 19 10 20 8 21 7 23
REMARK SMILES IDX 1 24 2 25 3 26 4 27 6 28 5 29 28 30 29 31 30 32 31 33 32 34
REMARK SMILES IDX 33 35 94 36 34 37 93 38 35 39 36 40 37 41 87 42 38 43 92 44
REMARK SMILES IDX 86 45 88 46 39 47 91 48 85 49 84 50 40 52 72 53 52 54 71 55
REMARK SMILES IDX 53 56 56 57 70 58 89 59 54 60 55 61 69 63 90 64 57 65 41 66
REMARK SMILES IDX 42 67 50 68 43 69 49 70 51 71 48 72 44 73 45 74 46 75 47 76
REMARK SMILES IDX 73 77 74 78 82 79 75 80 81 81 83 82 80 83 76 84 77 85 78 86
REMARK SMILES IDX 79 87 58 88 59 89 67 90 60 91 66 92 68 93 65 94 61 95 62 96
REMARK SMILES IDX 63 97 64 98
REMARK H PARENT 11 18 8 22 88 51 56 62
REMARK Flexibility Score: inf
ROOT
ATOM      1  C   UNL A   1      35.249  29.495  27.188  1.00  0.00     0.275 C 
ENDROOT
BRANCH   1   2
ATOM      2  O   UNL A   1      33.921  28.406  26.474  1.00  0.00    -0.458 OA
BRANCH   2   3
ATOM      3  C   UNL A   1      33.423  26.727  26.345  1.00  0.00     0.338 C 
ATOM      4  O   UNL A   1      32.272  26.873  26.817  1.00  0.00    -0.246 OA
BRANCH   3   5
ATOM      5  C   UNL A   1      34.464  25.177  25.212  1.00  0.00     0.066 A 
ATOM      6  C   UNL A   1      33.886  24.658  23.682  1.00  0.00     0.001 A 
ATOM      7  C   UNL A   1      34.513  23.714  22.844  1.00  0.00     0.008 A 
ATOM      8  C   UNL A   1      35.583  22.995  23.326  1.00  0.00     0.000 A 
ATOM      9  C   UNL A   1      35.548  24.214  25.500  1.00  0.00     0.016 A 
ATOM     10  C   UNL A   1      36.031  23.187  24.630  1.00  0.00     0.001 A 
BRANCH   6  11
ATOM     11  C   UNL A   1      32.283  25.187  23.016  1.00  0.00     0.197 C 
ATOM     12  N   UNL A   1      31.072  25.895  23.990  1.00  0.00    -0.236 N 
ATOM     13  C   UNL A   1      31.290  27.504  23.720  1.00  0.00     0.252 C 
ATOM     14  O   UNL A   1      31.491  28.430  24.517  1.00  0.00    -0.272 OA
ATOM     15  C   UNL A   1      31.694  27.817  22.334  1.00  0.00     0.174 C 
ATOM     16  S   UNL A   1      32.680  26.502  21.691  1.00  0.00    -0.120 SA
BRANCH  12  17
ATOM     17  N   UNL A   1      30.224  25.023  25.573  1.00  0.00    -0.270 N 
ATOM     18  H   UNL A   1      29.416  25.503  25.868  1.00  0.00     0.191 HD
BRANCH  17  19
ATOM     19  C   UNL A   1      30.544  23.658  26.549  1.00  0.00     0.189 C 
ATOM     20  S   UNL A   1      29.246  22.887  27.288  1.00  0.00    -0.039 S 
BRANCH  19  21
ATOM     21  N   UNL A   1      31.881  22.782  26.450  1.00  0.00    -0.331 N 
ATOM     22  H   UNL A   1      32.437  22.933  27.248  1.00  0.00     0.169 HD
BRANCH  21  23
ATOM     23  C   UNL A   1      32.586  21.772  25.507  1.00  0.00     0.043 A 
ATOM     24  C   UNL A   1      34.568  21.137  27.021  1.00  0.00     0.046 C 
ATOM     25  C   UNL A   1      33.552  20.847  25.959  1.00  0.00    -0.028 A 
ATOM     26  C   UNL A   1      33.731  19.599  25.276  1.00  0.00     0.005 A 
ATOM     27  C   UNL A   1      33.009  19.274  24.137  1.00  0.00     0.000 A 
ATOM     28  C   UNL A   1      32.240  21.552  24.160  1.00  0.00     0.026 A 
ATOM     29  C   UNL A   1      32.301  20.288  23.540  1.00  0.00     0.002 A 
ENDBRANCH  21  23
ENDBRANCH  19  21
ENDBRANCH  17  19
ENDBRANCH  12  17
ENDBRANCH   6  11
ENDBRANCH   3   5
ENDBRANCH   2   3
ENDBRANCH   1   2
BRANCH   1  30
ATOM     30  C   UNL A   1      35.468  29.841  29.226  1.00  0.00     0.275 C 
BRANCH  30  31
ATOM     31  O   UNL A   1      37.171  29.841  29.955  1.00  0.00    -0.458 OA
BRANCH  31  32
ATOM     32  C   UNL A   1      38.353  28.915  29.862  1.00  0.00     0.338 C 
ATOM     33  O   UNL A   1      38.339  27.847  30.470  1.00  0.00    -0.246 OA
BRANCH  32  34
ATOM     34  C   UNL A   1      39.660  29.194  28.849  1.00  0.00     0.060 A 
ATOM     35  C   UNL A   1      39.530  29.048  27.050  1.00  0.00     0.016 A 
ATOM     36  C   UNL A   1      41.474  29.429  29.416  1.00  0.00     0.016 A 
ATOM     37  C   UNL A   1      41.102  28.982  26.094  1.00  0.00     0.010 A 
ATOM     38  C   UNL A   1      42.819  29.457  28.406  1.00  0.00     0.010 A 
ATOM     39  C   UNL A   1      42.723  29.151  26.821  1.00  0.00    -0.014 A 
BRANCH  39  40
ATOM     40  C   UNL A   1      43.946  28.168  26.895  1.00  0.00     0.031 A 
ATOM     41  C   UNL A   1      43.546  26.592  27.028  1.00  0.00     0.074 A 
ATOM     42  C   UNL A   1      45.130  28.664  26.412  1.00  0.00     0.049 A 
ATOM     43  N   UNL A   1      43.914  25.798  27.989  1.00  0.00    -0.248 NA
ATOM     44  C   UNL A   1      42.492  25.793  26.219  1.00  0.00     0.031 C 
ATOM     45  C   UNL A   1      46.417  28.080  26.022  1.00  0.00     0.029 A 
ATOM     46  N   UNL A   1      45.420  30.028  26.307  1.00  0.00    -0.354 N 
ATOM     47  C   UNL A   1      43.661  24.509  27.493  1.00  0.00     0.074 A 
ATOM     48  C   UNL A   1      42.447  24.600  26.791  1.00  0.00     0.031 C 
ATOM     49  C   UNL A   1      47.390  29.019  26.155  1.00  0.00     0.029 A 
ATOM     50  C   UNL A   1      46.770  30.280  26.543  1.00  0.00     0.049 A 
ATOM     51  H   UNL A   1      44.755  30.722  26.095  1.00  0.00     0.167 HD
ATOM     52  C   UNL A   1      44.699  23.681  27.151  1.00  0.00     0.034 A 
ATOM     53  C   UNL A   1      47.006  31.028  27.657  1.00  0.00     0.034 A 
ATOM     54  C   UNL A   1      45.963  24.340  27.482  1.00  0.00     0.049 A 
ATOM     55  C   UNL A   1      47.130  30.037  28.825  1.00  0.00     0.074 A 
ATOM     56  C   UNL A   1      47.094  24.737  26.799  1.00  0.00     0.029 A 
ATOM     57  N   UNL A   1      46.026  24.987  28.702  1.00  0.00    -0.354 N 
ATOM     58  N   UNL A   1      46.845  28.758  28.734  1.00  0.00    -0.248 NA
ATOM     59  C   UNL A   1      47.728  30.355  30.115  1.00  0.00     0.031 C 
ATOM     60  C   UNL A   1      47.763  25.716  27.615  1.00  0.00     0.029 A 
ATOM     61  C   UNL A   1      47.028  25.914  28.773  1.00  0.00     0.049 A 
ATOM     62  H   UNL A   1      45.409  24.798  29.446  1.00  0.00     0.167 HD
ATOM     63  C   UNL A   1      47.235  28.082  29.850  1.00  0.00     0.074 A 
ATOM     64  C   UNL A   1      47.781  29.138  30.691  1.00  0.00     0.031 C 
ATOM     65  C   UNL A   1      47.117  26.719  29.990  1.00  0.00     0.034 A 
BRANCH  52  66
ATOM     66  C   UNL A   1      44.622  22.375  26.360  1.00  0.00     0.023 A 
ATOM     67  C   UNL A   1      43.606  21.485  26.756  1.00  0.00     0.031 A 
ATOM     68  C   UNL A   1      45.395  21.924  25.259  1.00  0.00     0.131 A 
ATOM     69  C   UNL A   1      43.373  20.267  26.090  1.00  0.00     0.055 A 
ATOM     70  C   UNL A   1      45.148  20.716  24.580  1.00  0.00     0.041 A 
ATOM     71  F   UNL A   1      46.446  22.589  24.772  1.00  0.00    -0.206 F 
ATOM     72  C   UNL A   1      44.128  19.879  24.991  1.00  0.00     0.022 A 
BRANCH  69  73
ATOM     73  S   UNL A   1      42.034  19.212  26.691  1.00  0.00     0.124 S 
ATOM     74  O   UNL A   1      40.940  20.168  26.834  1.00  0.00    -0.237 OA
ATOM     75  O   UNL A   1      41.908  18.235  25.616  1.00  0.00    -0.237 OA
ATOM     76  O   UNL A   1      42.560  18.681  27.949  1.00  0.00    -0.744 OA
ENDBRANCH  69  73
ENDBRANCH  52  66
BRANCH  53  77
ATOM     77  C   UNL A   1      46.223  32.337  27.544  1.00  0.00     0.023 A 
ATOM     78  C   UNL A   1      45.073  32.485  28.383  1.00  0.00     0.031 A 
ATOM     79  C   UNL A   1      46.736  33.520  26.999  1.00  0.00     0.131 A 
ATOM     80  C   UNL A   1      44.608  33.756  28.787  1.00  0.00     0.055 A 
ATOM     81  C   UNL A   1      46.230  34.792  27.369  1.00  0.00     0.041 A 
ATOM     82  F   UNL A   1      47.851  33.502  26.254  1.00  0.00    -0.206 F 
ATOM     83  C   UNL A   1      45.215  34.914  28.315  1.00  0.00     0.022 A 
BRANCH  80  84
ATOM     84  S   UNL A   1      43.308  33.942  30.054  1.00  0.00     0.124 S 
ATOM     85  O   UNL A   1      44.052  34.566  31.147  1.00  0.00    -0.237 OA
ATOM     86  O   UNL A   1      42.317  34.798  29.414  1.00  0.00    -0.237 OA
ATOM     87  O   UNL A   1      42.893  32.563  30.306  1.00  0.00    -0.744 OA
ENDBRANCH  80  84
ENDBRANCH  53  77
BRANCH  65  88
ATOM     88  C   UNL A   1      47.102  25.999  31.334  1.00  0.00     0.023 A 
ATOM     89  C   UNL A   1      45.935  25.437  31.845  1.00  0.00     0.031 A 
ATOM     90  C   UNL A   1      48.262  25.780  32.131  1.00  0.00     0.131 A 
ATOM     91  C   UNL A   1      45.890  24.895  33.136  1.00  0.00     0.055 A 
ATOM     92  C   UNL A   1      48.246  25.098  33.347  1.00  0.00     0.041 A 
ATOM     93  F   UNL A   1      49.483  26.206  31.784  1.00  0.00    -0.206 F 
ATOM     94  C   UNL A   1      47.042  24.696  33.887  1.00  0.00     0.022 A 
BRANCH  91  95
ATOM     95  S   UNL A   1      44.258  24.614  33.847  1.00  0.00     0.124 S 
ATOM     96  O   UNL A   1      44.592  24.259  35.224  1.00  0.00    -0.237 OA
ATOM     97  O   UNL A   1      43.611  25.910  33.668  1.00  0.00    -0.237 OA
ATOM     98  O   UNL A   1      43.715  23.526  33.038  1.00  0.00    -0.744 OA
ENDBRANCH  91  95
ENDBRANCH  65  88
ENDBRANCH  39  40
ENDBRANCH  32  34
ENDBRANCH  31  32
ENDBRANCH  30  31
ENDBRANCH   1  30
TORSDOF 19
ENDMDL
MODEL 3
REMARK VINA RESULT:     -14.3      7.530     15.234
REMARK SMILES Cc1ccccc1NC(=S)NN1C(=O)CS[C@H]1c1ccccc1C(=O)OCCOC(=O)c1ccc(-c2c3nc(c(-c4cc(S(=O)(=O)[O-])ccc4F)c4ccc([nH]4)c(-c4cc(S(=O)(=O)[O-])ccc4F)c4nc(c(-c5cc(S(=O)(=O)[O-])ccc5F)c5ccc2[nH]5)C=C4)C=C3)cc1
REMARK SMILES IDX 27 1 26 2 24 3 25 4 23 5 18 6 19 7 20 8 22 9 21 10 17 11
REMARK SMILES IDX 12 12 13 13 14 14 15 15 16 16 11 17 9 19 10 20 8 21 7 23
REMARK SMILES IDX 1 24 2 25 3 26 4 27 6 28 5 29 28 30 29 31 30 32 31 33 32 34
REMARK SMILES IDX 33 35 94 36 34 37 93 38 35 39 36 40 37 41 87 42 38 43 92 44
REMARK SMILES IDX 86 45 88 46 39 47 91 48 85 49 84 50 40 52 72 53 52 54 71 55
REMARK SMILES IDX 53 56 56 57 70 58 89 59 54 60 55 61 69 63 90 64 57 65 41 66
REMARK SMILES IDX 42 67 50 68 43 69 49 70 51 71 48 72 44 73 45 74 46 75 47 76
REMARK SMILES IDX 73 77 74 78 82 79 75 80 81 81 83 82 80 83 76 84 77 85 78 86
REMARK SMILES IDX 79 87 58 88 59 89 67 90 60 91 66 92 68 93 65 94 61 95 62 96
REMARK SMILES IDX 63 97 64 98
REMARK H PARENT 11 18 8 22 88 51 56 62
REMARK Flexibility Score: inf
ROOT
ATOM      1  C   UNL A   1      42.317  37.130  26.728  1.00  0.00     0.275 C 
ENDROOT
BRANCH   1   2
ATOM      2  O   UNL A   1      42.928  38.874  26.936  1.00  0.00    -0.458 OA
BRANCH   2   3
ATOM      3  C   UNL A   1      44.149  39.995  26.359  1.00  0.00     0.338 C 
ATOM      4  O   UNL A   1      45.147  39.296  26.648  1.00  0.00    -0.246 OA
BRANCH   3   5
ATOM      5  C   UNL A   1      43.777  41.748  25.108  1.00  0.00     0.066 A 
ATOM      6  C   UNL A   1      44.713  43.174  25.281  1.00  0.00     0.001 A 
ATOM      7  C   UNL A   1      44.598  44.334  24.487  1.00  0.00     0.008 A 
ATOM      8  C   UNL A   1      43.546  44.441  23.606  1.00  0.00     0.000 A 
ATOM      9  C   UNL A   1      42.711  42.161  24.170  1.00  0.00     0.016 A 
ATOM     10  C   UNL A   1      42.599  43.425  23.511  1.00  0.00     0.001 A 
BRANCH   6  11
ATOM     11  C   UNL A   1      45.901  43.403  26.633  1.00  0.00     0.197 C 
ATOM     12  N   UNL A   1      46.772  44.856  26.853  1.00  0.00    -0.236 N 
ATOM     13  C   UNL A   1      45.887  45.634  28.002  1.00  0.00     0.252 C 
ATOM     14  O   UNL A   1      45.375  46.761  27.992  1.00  0.00    -0.272 OA
ATOM     15  C   UNL A   1      45.296  44.724  29.004  1.00  0.00     0.174 C 
ATOM     16  S   UNL A   1      44.904  43.179  28.245  1.00  0.00    -0.120 SA
BRANCH  12  17
ATOM     17  N   UNL A   1      48.012  45.660  25.511  1.00  0.00    -0.270 N 
ATOM     18  H   UNL A   1      48.625  46.312  25.921  1.00  0.00     0.191 HD
BRANCH  17  19
ATOM     19  C   UNL A   1      48.279  45.506  23.830  1.00  0.00     0.189 C 
ATOM     20  S   UNL A   1      49.479  46.450  23.126  1.00  0.00    -0.039 S 
BRANCH  19  21
ATOM     21  N   UNL A   1      47.826  44.237  22.965  1.00  0.00    -0.331 N 
ATOM     22  H   UNL A   1      48.251  43.423  23.321  1.00  0.00     0.169 HD
BRANCH  21  23
ATOM     23  C   UNL A   1      46.935  43.871  21.750  1.00  0.00     0.043 A 
ATOM     24  C   UNL A   1      46.917  41.312  22.032  1.00  0.00     0.046 C 
ATOM     25  C   UNL A   1      46.306  42.613  21.612  1.00  0.00    -0.028 A 
ATOM     26  C   UNL A   1      45.082  42.497  20.874  1.00  0.00     0.005 A 
ATOM     27  C   UNL A   1      44.500  43.584  20.239  1.00  0.00     0.000 A 
ATOM     28  C   UNL A   1      46.526  44.774  20.751  1.00  0.00     0.026 A 
ATOM     29  C   UNL A   1      45.264  44.720  20.126  1.00  0.00     0.002 A 
ENDBRANCH  21  23
ENDBRANCH  19  21
ENDBRANCH  17  19
ENDBRANCH  12  17
ENDBRANCH   6  11
ENDBRANCH   3   5
ENDBRANCH   2   3
ENDBRANCH   1   2
BRANCH   1  30
ATOM     30  C   UNL A   1      43.538  35.460  26.932  1.00  0.00     0.275 C 
BRANCH  30  31
ATOM     31  O   UNL A   1      44.813  35.444  28.274  1.00  0.00    -0.458 OA
BRANCH  31  32
ATOM     32  C   UNL A   1      44.875  35.997  29.672  1.00  0.00     0.338 C 
ATOM     33  O   UNL A   1      45.543  37.003  29.899  1.00  0.00    -0.246 OA
BRANCH  32  34
ATOM     34  C   UNL A   1      43.958  35.393  30.938  1.00  0.00     0.060 A 
ATOM     35  C   UNL A   1      44.715  34.699  32.429  1.00  0.00     0.016 A 
ATOM     36  C   UNL A   1      42.066  35.097  30.897  1.00  0.00     0.016 A 
ATOM     37  C   UNL A   1      43.631  33.716  33.545  1.00  0.00     0.010 A 
ATOM     38  C   UNL A   1      41.180  34.262  32.058  1.00  0.00     0.010 A 
ATOM     39  C   UNL A   1      41.878  33.493  33.298  1.00  0.00    -0.014 A 
BRANCH  39  40
ATOM     40  C   UNL A   1      41.012  32.208  33.041  1.00  0.00     0.031 A 
ATOM     41  C   UNL A   1      41.405  31.378  31.693  1.00  0.00     0.074 A 
ATOM     42  C   UNL A   1      40.367  31.705  34.142  1.00  0.00     0.049 A 
ATOM     43  N   UNL A   1      40.598  31.105  30.712  1.00  0.00    -0.248 NA
ATOM     44  C   UNL A   1      42.813  30.967  31.191  1.00  0.00     0.031 C 
ATOM     45  C   UNL A   1      39.704  30.437  34.467  1.00  0.00     0.029 A 
ATOM     46  N   UNL A   1      40.062  32.457  35.281  1.00  0.00    -0.354 N 
ATOM     47  C   UNL A   1      41.252  30.090  29.995  1.00  0.00     0.074 A 
ATOM     48  C   UNL A   1      42.613  30.438  29.994  1.00  0.00     0.031 C 
ATOM     49  C   UNL A   1      38.776  30.655  35.434  1.00  0.00     0.029 A 
ATOM     50  C   UNL A   1      38.858  32.050  35.851  1.00  0.00     0.049 A 
ATOM     51  H   UNL A   1      40.625  33.182  35.634  1.00  0.00     0.167 HD
ATOM     52  C   UNL A   1      40.775  28.805  30.020  1.00  0.00     0.034 A 
ATOM     53  C   UNL A   1      37.881  32.999  35.816  1.00  0.00     0.034 A 
ATOM     54  C   UNL A   1      39.529  28.774  30.788  1.00  0.00     0.049 A 
ATOM     55  C   UNL A   1      37.148  32.816  34.478  1.00  0.00     0.074 A 
ATOM     56  C   UNL A   1      39.064  28.130  31.916  1.00  0.00     0.029 A 
ATOM     57  N   UNL A   1      38.628  29.794  30.551  1.00  0.00    -0.354 N 
ATOM     58  N   UNL A   1      37.565  32.024  33.516  1.00  0.00    -0.248 NA
ATOM     59  C   UNL A   1      35.832  33.364  34.178  1.00  0.00     0.031 C 
ATOM     60  C   UNL A   1      37.924  28.870  32.390  1.00  0.00     0.029 A 
ATOM     61  C   UNL A   1      37.717  29.959  31.558  1.00  0.00     0.049 A 
ATOM     62  H   UNL A   1      38.640  30.348  29.736  1.00  0.00     0.167 HD
ATOM     63  C   UNL A   1      36.628  31.898  32.535  1.00  0.00     0.074 A 
ATOM     64  C   UNL A   1      35.558  32.769  33.000  1.00  0.00     0.031 C 
ATOM     65  C   UNL A   1      36.780  31.075  31.445  1.00  0.00     0.034 A 
BRANCH  52  66
ATOM     66  C   UNL A   1      41.486  27.542  29.533  1.00  0.00     0.023 A 
ATOM     67  C   UNL A   1      40.876  26.881  28.451  1.00  0.00     0.031 A 
ATOM     68  C   UNL A   1      42.691  26.940  29.980  1.00  0.00     0.131 A 
ATOM     69  C   UNL A   1      41.439  25.737  27.856  1.00  0.00     0.055 A 
ATOM     70  C   UNL A   1      43.265  25.808  29.371  1.00  0.00     0.041 A 
ATOM     71  F   UNL A   1      43.389  27.374  31.033  1.00  0.00    -0.206 F 
ATOM     72  C   UNL A   1      42.642  25.200  28.298  1.00  0.00     0.022 A 
BRANCH  69  73
ATOM     73  S   UNL A   1      40.561  24.981  26.468  1.00  0.00     0.124 S 
ATOM     74  O   UNL A   1      41.258  23.706  26.330  1.00  0.00    -0.237 OA
ATOM     75  O   UNL A   1      39.192  24.924  26.967  1.00  0.00    -0.237 OA
ATOM     76  O   UNL A   1      40.780  25.928  25.374  1.00  0.00    -0.744 OA
ENDBRANCH  69  73
ENDBRANCH  52  66
BRANCH  53  77
ATOM     77  C   UNL A   1      38.402  34.264  36.498  1.00  0.00     0.023 A 
ATOM     78  C   UNL A   1      38.495  34.246  37.927  1.00  0.00     0.031 A 
ATOM     79  C   UNL A   1      39.142  35.262  35.853  1.00  0.00     0.131 A 
ATOM     80  C   UNL A   1      39.419  35.057  38.621  1.00  0.00     0.055 A 
ATOM     81  C   UNL A   1      40.030  36.109  36.564  1.00  0.00     0.041 A 
ATOM     82  F   UNL A   1      39.181  35.326  34.514  1.00  0.00    -0.206 F 
ATOM     83  C   UNL A   1      40.223  35.961  37.935  1.00  0.00     0.022 A 
BRANCH  80  84
ATOM     84  S   UNL A   1      39.717  34.853  40.410  1.00  0.00     0.124 S 
ATOM     85  O   UNL A   1      39.785  33.398  40.531  1.00  0.00    -0.237 OA
ATOM     86  O   UNL A   1      40.977  35.551  40.635  1.00  0.00    -0.237 OA
ATOM     87  O   UNL A   1      38.534  35.463  41.014  1.00  0.00    -0.744 OA
ENDBRANCH  80  84
ENDBRANCH  53  77
BRANCH  65  88
ATOM     88  C   UNL A   1      36.010  31.241  30.139  1.00  0.00     0.023 A 
ATOM     89  C   UNL A   1      35.468  32.468  29.764  1.00  0.00     0.031 A 
ATOM     90  C   UNL A   1      35.842  30.203  29.179  1.00  0.00     0.131 A 
ATOM     91  C   UNL A   1      34.649  32.590  28.635  1.00  0.00     0.055 A 
ATOM     92  C   UNL A   1      35.159  30.367  27.975  1.00  0.00     0.041 A 
ATOM     93  F   UNL A   1      36.330  28.966  29.341  1.00  0.00    -0.206 F 
ATOM     94  C   UNL A   1      34.506  31.556  27.719  1.00  0.00     0.022 A 
BRANCH  91  95
ATOM     95  S   UNL A   1      33.659  34.090  28.503  1.00  0.00     0.124 S 
ATOM     96  O   UNL A   1      34.594  35.006  27.854  1.00  0.00    -0.237 OA
ATOM     97  O   UNL A   1      32.533  33.652  27.684  1.00  0.00    -0.237 OA
ATOM     98  O   UNL A   1      33.336  34.410  29.891  1.00  0.00    -0.744 OA
ENDBRANCH  91  95
ENDBRANCH  65  88
ENDBRANCH  39  40
ENDBRANCH  32  34
ENDBRANCH  31  32
ENDBRANCH  30  31
ENDBRANCH   1  30
TORSDOF 19
ENDMDL
