MODEL 1
REMARK VINA RESULT:     -12.5      0.000      0.000
REMARK SMILES COc1cccc(Cn2c(=O)c(=O)n(CC(=O)OCCOC(=O)c3ccc(-c4c5nc(c(-c6cc(S(=O)(=O)[O-])ccc6F)c6ccc([nH]6)c(-c6cc(S(=O)(=O)[O-])ccc6F)c6nc(c(-c7cc(S(=O)(=O)[O-])ccc7F)c7ccc4[nH]7)C=C6)C=C5)cc3)c3ccccc32)c1
REMARK SMILES IDX 19 1 18 2 16 3 17 4 15 5 14 6 9 7 10 8 92 9 11 10 12 11
REMARK SMILES IDX 87 12 91 13 13 14 88 15 90 16 89 17 8 18 7 19 3 20 4 21
REMARK SMILES IDX 93 22 5 23 6 24 2 25 1 26 20 27 21 28 22 29 23 30 24 31
REMARK SMILES IDX 25 32 86 33 26 34 85 35 27 36 28 37 29 38 79 39 30 40 84 41
REMARK SMILES IDX 78 42 80 43 31 44 83 45 77 46 76 47 32 49 64 50 44 51 63 52
REMARK SMILES IDX 45 53 48 54 62 55 81 56 46 57 47 58 61 60 82 61 49 62 33 63
REMARK SMILES IDX 34 64 42 65 35 66 41 67 43 68 40 69 36 70 37 71 38 72 39 73
REMARK SMILES IDX 65 74 66 75 74 76 67 77 73 78 75 79 72 80 68 81 69 82 70 83
REMARK SMILES IDX 71 84 50 85 51 86 59 87 52 88 58 89 60 90 57 91 53 92 54 93
REMARK SMILES IDX 55 94 56 95
REMARK H PARENT 80 48 48 59
REMARK Flexibility Score: inf
ROOT
ATOM      1  C   UNL A   1      35.369  20.600  25.302  1.00  0.00     0.274 C 
ENDROOT
BRANCH   1   2
ATOM      2  O   UNL A   1      35.311  21.765  26.131  1.00  0.00    -0.461 OA
BRANCH   2   3
ATOM      3  C   UNL A   1      34.143  21.883  26.815  1.00  0.00     0.326 C 
ATOM      4  O   UNL A   1      33.797  21.166  27.749  1.00  0.00    -0.250 OA
BRANCH   3   5
ATOM      5  C   UNL A   1      33.473  23.211  26.524  1.00  0.00     0.248 C 
BRANCH   5   6
ATOM      6  N   UNL A   1      32.266  23.187  25.736  1.00  0.00    -0.291 N 
ATOM      7  N   UNL A   1      30.711  25.323  24.799  1.00  0.00    -0.298 N 
ATOM      8  C   UNL A   1      31.040  25.184  26.133  1.00  0.00     0.317 A 
ATOM      9  C   UNL A   1      31.556  24.646  23.874  1.00  0.00     0.068 A 
ATOM     10  O   UNL A   1      31.198  26.072  26.959  1.00  0.00    -0.263 OA
ATOM     11  C   UNL A   1      31.241  23.725  26.493  1.00  0.00     0.317 A 
ATOM     12  C   UNL A   1      32.388  23.602  24.369  1.00  0.00     0.069 A 
ATOM     13  C   UNL A   1      31.739  25.094  22.564  1.00  0.00     0.028 A 
ATOM     14  O   UNL A   1      30.704  23.208  27.460  1.00  0.00    -0.263 OA
ATOM     15  C   UNL A   1      33.326  22.989  23.530  1.00  0.00     0.028 A 
ATOM     16  C   UNL A   1      32.733  24.516  21.759  1.00  0.00     0.002 A 
ATOM     17  C   UNL A   1      33.510  23.458  22.233  1.00  0.00     0.002 A 
BRANCH   7  18
ATOM     18  C   UNL A   1      29.511  26.084  24.489  1.00  0.00     0.162 C 
BRANCH  18  19
ATOM     19  C   UNL A   1      29.956  27.457  23.942  1.00  0.00    -0.024 A 
ATOM     20  C   UNL A   1      31.159  29.499  24.542  1.00  0.00     0.119 A 
ATOM     21  C   UNL A   1      30.227  30.237  23.811  1.00  0.00     0.046 A 
ATOM     22  C   UNL A   1      31.070  28.106  24.535  1.00  0.00     0.052 A 
ATOM     23  C   UNL A   1      29.212  29.601  23.095  1.00  0.00     0.004 A 
ATOM     24  C   UNL A   1      29.060  28.217  23.175  1.00  0.00     0.006 A 
BRANCH  20  25
ATOM     25  O   UNL A   1      32.009  30.266  25.289  1.00  0.00    -0.497 OA
ATOM     26  C   UNL A   1      31.750  30.433  26.676  1.00  0.00     0.278 C 
ENDBRANCH  20  25
ENDBRANCH  18  19
ENDBRANCH   7  18
ENDBRANCH   5   6
ENDBRANCH   3   5
ENDBRANCH   2   3
ENDBRANCH   1   2
BRANCH   1  27
ATOM     27  C   UNL A   1      36.818  20.397  24.841  1.00  0.00     0.275 C 
BRANCH  27  28
ATOM     28  O   UNL A   1      37.660  21.520  25.203  1.00  0.00    -0.458 OA
BRANCH  28  29
ATOM     29  C   UNL A   1      38.808  21.221  25.855  1.00  0.00     0.338 C 
ATOM     30  O   UNL A   1      39.362  20.133  25.897  1.00  0.00    -0.246 OA
BRANCH  29  31
ATOM     31  C   UNL A   1      39.393  22.412  26.500  1.00  0.00     0.060 A 
ATOM     32  C   UNL A   1      39.003  23.699  26.115  1.00  0.00     0.016 A 
ATOM     33  C   UNL A   1      40.475  22.246  27.360  1.00  0.00     0.016 A 
ATOM     34  C   UNL A   1      39.728  24.815  26.524  1.00  0.00     0.010 A 
ATOM     35  C   UNL A   1      41.148  23.374  27.843  1.00  0.00     0.010 A 
ATOM     36  C   UNL A   1      40.793  24.666  27.416  1.00  0.00    -0.014 A 
BRANCH  36  37
ATOM     37  C   UNL A   1      41.531  25.848  27.925  1.00  0.00     0.031 A 
ATOM     38  C   UNL A   1      40.802  26.905  28.703  1.00  0.00     0.074 A 
ATOM     39  C   UNL A   1      42.838  25.995  27.636  1.00  0.00     0.049 A 
ATOM     40  N   UNL A   1      41.170  28.127  28.990  1.00  0.00    -0.248 NA
ATOM     41  C   UNL A   1      39.474  26.537  29.212  1.00  0.00     0.031 C 
ATOM     42  C   UNL A   1      43.672  25.005  26.950  1.00  0.00     0.029 A 
ATOM     43  N   UNL A   1      43.690  27.047  27.860  1.00  0.00    -0.354 N 
ATOM     44  C   UNL A   1      40.098  28.695  29.672  1.00  0.00     0.074 A 
ATOM     45  C   UNL A   1      39.066  27.680  29.745  1.00  0.00     0.031 C 
ATOM     46  C   UNL A   1      44.909  25.499  26.801  1.00  0.00     0.029 A 
ATOM     47  C   UNL A   1      44.932  26.869  27.296  1.00  0.00     0.049 A 
ATOM     48  H   UNL A   1      43.438  27.847  28.375  1.00  0.00     0.167 HD
ATOM     49  C   UNL A   1      39.993  29.950  30.177  1.00  0.00     0.034 A 
ATOM     50  C   UNL A   1      45.951  27.734  27.130  1.00  0.00     0.034 A 
ATOM     51  C   UNL A   1      41.048  30.933  30.092  1.00  0.00     0.049 A 
ATOM     52  C   UNL A   1      45.785  29.146  27.621  1.00  0.00     0.074 A 
ATOM     53  C   UNL A   1      41.060  32.235  30.562  1.00  0.00     0.029 A 
ATOM     54  N   UNL A   1      42.284  30.722  29.490  1.00  0.00    -0.354 N 
ATOM     55  N   UNL A   1      44.747  29.700  28.204  1.00  0.00    -0.248 NA
ATOM     56  C   UNL A   1      46.923  30.049  27.421  1.00  0.00     0.031 C 
ATOM     57  C   UNL A   1      42.275  32.827  30.192  1.00  0.00     0.029 A 
ATOM     58  C   UNL A   1      43.054  31.874  29.555  1.00  0.00     0.049 A 
ATOM     59  H   UNL A   1      42.573  29.876  29.078  1.00  0.00     0.167 HD
ATOM     60  C   UNL A   1      45.117  31.015  28.465  1.00  0.00     0.074 A 
ATOM     61  C   UNL A   1      46.476  31.164  27.983  1.00  0.00     0.031 C 
ATOM     62  C   UNL A   1      44.402  32.007  29.054  1.00  0.00     0.034 A 
BRANCH  49  63
ATOM     63  C   UNL A   1      38.670  30.340  30.795  1.00  0.00     0.023 A 
ATOM     64  C   UNL A   1      37.639  30.929  30.044  1.00  0.00     0.031 A 
ATOM     65  C   UNL A   1      38.457  30.163  32.175  1.00  0.00     0.131 A 
ATOM     66  C   UNL A   1      36.478  31.390  30.686  1.00  0.00     0.055 A 
ATOM     67  C   UNL A   1      37.266  30.548  32.794  1.00  0.00     0.041 A 
ATOM     68  F   UNL A   1      39.412  29.629  32.952  1.00  0.00    -0.206 F 
ATOM     69  C   UNL A   1      36.273  31.182  32.052  1.00  0.00     0.022 A 
BRANCH  66  70
ATOM     70  S   UNL A   1      35.308  32.406  29.741  1.00  0.00     0.124 S 
ATOM     71  O   UNL A   1      34.275  32.677  30.740  1.00  0.00    -0.237 OA
ATOM     72  O   UNL A   1      36.128  33.545  29.345  1.00  0.00    -0.237 OA
ATOM     73  O   UNL A   1      34.892  31.527  28.650  1.00  0.00    -0.744 OA
ENDBRANCH  66  70
ENDBRANCH  49  63
BRANCH  50  74
ATOM     74  C   UNL A   1      47.182  27.305  26.410  1.00  0.00     0.023 A 
ATOM     75  C   UNL A   1      48.188  26.585  27.071  1.00  0.00     0.031 A 
ATOM     76  C   UNL A   1      47.370  27.611  25.050  1.00  0.00     0.131 A 
ATOM     77  C   UNL A   1      49.350  26.214  26.376  1.00  0.00     0.055 A 
ATOM     78  C   UNL A   1      48.505  27.197  24.351  1.00  0.00     0.041 A 
ATOM     79  F   UNL A   1      46.435  28.296  24.371  1.00  0.00    -0.206 F 
ATOM     80  C   UNL A   1      49.509  26.502  25.018  1.00  0.00     0.022 A 
BRANCH  77  81
ATOM     81  S   UNL A   1      50.683  25.398  27.294  1.00  0.00     0.124 S 
ATOM     82  O   UNL A   1      51.136  26.468  28.175  1.00  0.00    -0.237 OA
ATOM     83  O   UNL A   1      49.977  24.294  27.936  1.00  0.00    -0.237 OA
ATOM     84  O   UNL A   1      51.627  25.008  26.249  1.00  0.00    -0.744 OA
ENDBRANCH  77  81
ENDBRANCH  50  74
BRANCH  62  85
ATOM     85  C   UNL A   1      45.112  33.322  29.249  1.00  0.00     0.023 A 
ATOM     86  C   UNL A   1      45.051  34.346  28.287  1.00  0.00     0.031 A 
ATOM     87  C   UNL A   1      45.884  33.539  30.404  1.00  0.00     0.131 A 
ATOM     88  C   UNL A   1      45.797  35.520  28.473  1.00  0.00     0.055 A 
ATOM     89  C   UNL A   1      46.579  34.731  30.608  1.00  0.00     0.041 A 
ATOM     90  F   UNL A   1      45.977  32.592  31.351  1.00  0.00    -0.206 F 
ATOM     91  C   UNL A   1      46.549  35.725  29.633  1.00  0.00     0.022 A 
BRANCH  88  92
ATOM     92  S   UNL A   1      45.845  36.742  27.134  1.00  0.00     0.124 S 
ATOM     93  O   UNL A   1      46.425  35.970  26.039  1.00  0.00    -0.237 OA
ATOM     94  O   UNL A   1      44.438  37.100  26.987  1.00  0.00    -0.237 OA
ATOM     95  O   UNL A   1      46.701  37.801  27.666  1.00  0.00    -0.744 OA
ENDBRANCH  88  92
ENDBRANCH  62  85
ENDBRANCH  36  37
ENDBRANCH  29  31
ENDBRANCH  28  29
ENDBRANCH  27  28
ENDBRANCH   1  27
TORSDOF 18
ENDMDL
MODEL 2
REMARK VINA RESULT:     -12.4      4.575     10.021
REMARK SMILES COc1cccc(Cn2c(=O)c(=O)n(CC(=O)OCCOC(=O)c3ccc(-c4c5nc(c(-c6cc(S(=O)(=O)[O-])ccc6F)c6ccc([nH]6)c(-c6cc(S(=O)(=O)[O-])ccc6F)c6nc(c(-c7cc(S(=O)(=O)[O-])ccc7F)c7ccc4[nH]7)C=C6)C=C5)cc3)c3ccccc32)c1
REMARK SMILES IDX 19 1 18 2 16 3 17 4 15 5 14 6 9 7 10 8 92 9 11 10 12 11
REMARK SMILES IDX 87 12 91 13 13 14 88 15 90 16 89 17 8 18 7 19 3 20 4 21
REMARK SMILES IDX 93 22 5 23 6 24 2 25 1 26 20 27 21 28 22 29 23 30 24 31
REMARK SMILES IDX 25 32 86 33 26 34 85 35 27 36 28 37 29 38 79 39 30 40 84 41
REMARK SMILES IDX 78 42 80 43 31 44 83 45 77 46 76 47 32 49 64 50 44 51 63 52
REMARK SMILES IDX 45 53 48 54 62 55 81 56 46 57 47 58 61 60 82 61 49 62 33 63
REMARK SMILES IDX 34 64 42 65 35 66 41 67 43 68 40 69 36 70 37 71 38 72 39 73
REMARK SMILES IDX 65 74 66 75 74 76 67 77 73 78 75 79 72 80 68 81 69 82 70 83
REMARK SMILES IDX 71 84 50 85 51 86 59 87 52 88 58 89 60 90 57 91 53 92 54 93
REMARK SMILES IDX 55 94 56 95
REMARK H PARENT 80 48 48 59
REMARK Flexibility Score: inf
ROOT
ATOM      1  C   UNL A   1      31.766  29.271  24.624  1.00  0.00     0.274 C 
ENDROOT
BRANCH   1   2
ATOM      2  O   UNL A   1      33.161  29.026  24.424  1.00  0.00    -0.461 OA
BRANCH   2   3
ATOM      3  C   UNL A   1      33.428  28.299  23.308  1.00  0.00     0.326 C 
ATOM      4  O   UNL A   1      33.800  28.763  22.235  1.00  0.00    -0.250 OA
BRANCH   3   5
ATOM      5  C   UNL A   1      33.546  26.823  23.636  1.00  0.00     0.248 C 
BRANCH   5   6
ATOM      6  N   UNL A   1      32.493  25.954  23.176  1.00  0.00    -0.291 N 
ATOM      7  N   UNL A   1      32.391  23.153  23.125  1.00  0.00    -0.298 N 
ATOM      8  C   UNL A   1      33.429  23.861  22.550  1.00  0.00     0.317 A 
ATOM      9  C   UNL A   1      31.650  23.837  24.130  1.00  0.00     0.068 A 
ATOM     10  O   UNL A   1      34.593  23.508  22.424  1.00  0.00    -0.263 OA
ATOM     11  C   UNL A   1      32.964  25.230  22.095  1.00  0.00     0.317 A 
ATOM     12  C   UNL A   1      31.753  25.255  24.188  1.00  0.00     0.069 A 
ATOM     13  C   UNL A   1      30.995  23.163  25.163  1.00  0.00     0.028 A 
ATOM     14  O   UNL A   1      33.193  25.662  20.976  1.00  0.00    -0.263 OA
ATOM     15  C   UNL A   1      31.146  25.966  25.230  1.00  0.00     0.028 A 
ATOM     16  C   UNL A   1      30.454  23.887  26.237  1.00  0.00     0.002 A 
ATOM     17  C   UNL A   1      30.513  25.280  26.262  1.00  0.00     0.002 A 
BRANCH   7  18
ATOM     18  C   UNL A   1      32.130  21.821  22.602  1.00  0.00     0.162 C 
BRANCH  18  19
ATOM     19  C   UNL A   1      32.691  20.801  23.615  1.00  0.00    -0.024 A 
ATOM     20  C   UNL A   1      34.740  20.108  24.753  1.00  0.00     0.119 A 
ATOM     21  C   UNL A   1      34.337  18.779  24.623  1.00  0.00     0.046 A 
ATOM     22  C   UNL A   1      33.877  21.118  24.325  1.00  0.00     0.052 A 
ATOM     23  C   UNL A   1      33.100  18.456  24.063  1.00  0.00     0.004 A 
ATOM     24  C   UNL A   1      32.286  19.460  23.539  1.00  0.00     0.006 A 
BRANCH  20  25
ATOM     25  O   UNL A   1      36.023  20.256  25.200  1.00  0.00    -0.497 OA
ATOM     26  C   UNL A   1      36.413  21.490  25.786  1.00  0.00     0.278 C 
ENDBRANCH  20  25
ENDBRANCH  18  19
ENDBRANCH   7  18
ENDBRANCH   5   6
ENDBRANCH   3   5
ENDBRANCH   2   3
ENDBRANCH   1   2
BRANCH   1  27
ATOM     27  C   UNL A   1      31.607  30.393  25.657  1.00  0.00     0.275 C 
BRANCH  27  28
ATOM     28  O   UNL A   1      32.535  30.245  26.760  1.00  0.00    -0.458 OA
BRANCH  28  29
ATOM     29  C   UNL A   1      33.141  31.377  27.187  1.00  0.00     0.338 C 
ATOM     30  O   UNL A   1      32.657  32.499  27.215  1.00  0.00    -0.246 OA
BRANCH  29  31
ATOM     31  C   UNL A   1      34.498  31.107  27.700  1.00  0.00     0.060 A 
ATOM     32  C   UNL A   1      34.856  29.829  28.142  1.00  0.00     0.016 A 
ATOM     33  C   UNL A   1      35.358  32.180  27.920  1.00  0.00     0.016 A 
ATOM     34  C   UNL A   1      36.030  29.628  28.862  1.00  0.00     0.010 A 
ATOM     35  C   UNL A   1      36.580  31.960  28.563  1.00  0.00     0.010 A 
ATOM     36  C   UNL A   1      36.919  30.687  29.057  1.00  0.00    -0.014 A 
BRANCH  36  37
ATOM     37  C   UNL A   1      38.212  30.478  29.754  1.00  0.00     0.031 A 
ATOM     38  C   UNL A   1      39.237  29.553  29.166  1.00  0.00     0.074 A 
ATOM     39  C   UNL A   1      38.435  31.075  30.941  1.00  0.00     0.049 A 
ATOM     40  N   UNL A   1      40.286  29.011  29.727  1.00  0.00    -0.248 NA
ATOM     41  C   UNL A   1      39.041  29.176  27.759  1.00  0.00     0.031 C 
ATOM     42  C   UNL A   1      37.547  32.049  31.581  1.00  0.00     0.029 A 
ATOM     43  N   UNL A   1      39.465  30.929  31.835  1.00  0.00    -0.354 N 
ATOM     44  C   UNL A   1      40.852  28.189  28.758  1.00  0.00     0.074 A 
ATOM     45  C   UNL A   1      40.019  28.301  27.578  1.00  0.00     0.031 C 
ATOM     46  C   UNL A   1      38.066  32.405  32.765  1.00  0.00     0.029 A 
ATOM     47  C   UNL A   1      39.268  31.619  33.008  1.00  0.00     0.049 A 
ATOM     48  H   UNL A   1      40.266  30.385  31.654  1.00  0.00     0.167 HD
ATOM     49  C   UNL A   1      41.959  27.410  28.858  1.00  0.00     0.034 A 
ATOM     50  C   UNL A   1      39.937  31.572  34.176  1.00  0.00     0.034 A 
ATOM     51  C   UNL A   1      42.770  27.328  30.051  1.00  0.00     0.049 A 
ATOM     52  C   UNL A   1      41.112  30.640  34.296  1.00  0.00     0.074 A 
ATOM     53  C   UNL A   1      43.911  26.576  30.275  1.00  0.00     0.029 A 
ATOM     54  N   UNL A   1      42.524  28.027  31.229  1.00  0.00    -0.354 N 
ATOM     55  N   UNL A   1      41.604  29.814  33.402  1.00  0.00    -0.248 NA
ATOM     56  C   UNL A   1      41.812  30.627  35.585  1.00  0.00     0.031 C 
ATOM     57  C   UNL A   1      44.315  26.772  31.601  1.00  0.00     0.029 A 
ATOM     58  C   UNL A   1      43.473  27.704  32.186  1.00  0.00     0.049 A 
ATOM     59  H   UNL A   1      41.782  28.661  31.363  1.00  0.00     0.167 HD
ATOM     60  C   UNL A   1      42.691  29.199  34.014  1.00  0.00     0.074 A 
ATOM     61  C   UNL A   1      42.784  29.758  35.348  1.00  0.00     0.031 C 
ATOM     62  C   UNL A   1      43.539  28.262  33.518  1.00  0.00     0.034 A 
BRANCH  49  63
ATOM     63  C   UNL A   1      42.303  26.537  27.673  1.00  0.00     0.023 A 
ATOM     64  C   UNL A   1      42.076  25.150  27.675  1.00  0.00     0.031 A 
ATOM     65  C   UNL A   1      42.914  27.100  26.537  1.00  0.00     0.131 A 
ATOM     66  C   UNL A   1      42.528  24.363  26.602  1.00  0.00     0.055 A 
ATOM     67  C   UNL A   1      43.286  26.323  25.437  1.00  0.00     0.041 A 
ATOM     68  F   UNL A   1      43.179  28.414  26.483  1.00  0.00    -0.206 F 
ATOM     69  C   UNL A   1      43.110  24.943  25.472  1.00  0.00     0.022 A 
BRANCH  66  70
ATOM     70  S   UNL A   1      42.489  22.557  26.773  1.00  0.00     0.124 S 
ATOM     71  O   UNL A   1      41.316  22.208  25.974  1.00  0.00    -0.237 OA
ATOM     72  O   UNL A   1      43.779  22.160  26.221  1.00  0.00    -0.237 OA
ATOM     73  O   UNL A   1      42.335  22.350  28.212  1.00  0.00    -0.744 OA
ENDBRANCH  66  70
ENDBRANCH  49  63
BRANCH  50  74
ATOM     74  C   UNL A   1      39.470  32.381  35.335  1.00  0.00     0.023 A 
ATOM     75  C   UNL A   1      39.909  33.700  35.518  1.00  0.00     0.031 A 
ATOM     76  C   UNL A   1      38.576  31.843  36.280  1.00  0.00     0.131 A 
ATOM     77  C   UNL A   1      39.473  34.432  36.633  1.00  0.00     0.055 A 
ATOM     78  C   UNL A   1      38.106  32.592  37.360  1.00  0.00     0.041 A 
ATOM     79  F   UNL A   1      38.122  30.586  36.149  1.00  0.00    -0.206 F 
ATOM     80  C   UNL A   1      38.563  33.893  37.546  1.00  0.00     0.022 A 
BRANCH  77  81
ATOM     81  S   UNL A   1      40.162  36.086  36.904  1.00  0.00     0.124 S 
ATOM     82  O   UNL A   1      39.375  36.554  38.040  1.00  0.00    -0.237 OA
ATOM     83  O   UNL A   1      41.565  35.791  37.174  1.00  0.00    -0.237 OA
ATOM     84  O   UNL A   1      39.903  36.774  35.640  1.00  0.00    -0.744 OA
ENDBRANCH  77  81
ENDBRANCH  50  74
BRANCH  62  85
ATOM     85  C   UNL A   1      44.667  27.831  34.419  1.00  0.00     0.023 A 
ATOM     86  C   UNL A   1      44.555  26.714  35.264  1.00  0.00     0.031 A 
ATOM     87  C   UNL A   1      45.862  28.572  34.450  1.00  0.00     0.131 A 
ATOM     88  C   UNL A   1      45.600  26.402  36.147  1.00  0.00     0.055 A 
ATOM     89  C   UNL A   1      46.919  28.223  35.292  1.00  0.00     0.041 A 
ATOM     90  F   UNL A   1      46.019  29.649  33.665  1.00  0.00    -0.206 F 
ATOM     91  C   UNL A   1      46.786  27.141  36.156  1.00  0.00     0.022 A 
BRANCH  88  92
ATOM     92  S   UNL A   1      45.353  25.069  37.353  1.00  0.00     0.124 S 
ATOM     93  O   UNL A   1      44.434  24.184  36.643  1.00  0.00    -0.237 OA
ATOM     94  O   UNL A   1      46.708  24.563  37.541  1.00  0.00    -0.237 OA
ATOM     95  O   UNL A   1      44.782  25.755  38.511  1.00  0.00    -0.744 OA
ENDBRANCH  88  92
ENDBRANCH  62  85
ENDBRANCH  36  37
ENDBRANCH  29  31
ENDBRANCH  28  29
ENDBRANCH  27  28
ENDBRANCH   1  27
TORSDOF 18
ENDMDL
MODEL 3
REMARK VINA RESULT:     -12.1      1.655      2.046
REMARK SMILES COc1cccc(Cn2c(=O)c(=O)n(CC(=O)OCCOC(=O)c3ccc(-c4c5nc(c(-c6cc(S(=O)(=O)[O-])ccc6F)c6ccc([nH]6)c(-c6cc(S(=O)(=O)[O-])ccc6F)c6nc(c(-c7cc(S(=O)(=O)[O-])ccc7F)c7ccc4[nH]7)C=C6)C=C5)cc3)c3ccccc32)c1
REMARK SMILES IDX 19 1 18 2 16 3 17 4 15 5 14 6 9 7 10 8 92 9 11 10 12 11
REMARK SMILES IDX 87 12 91 13 13 14 88 15 90 16 89 17 8 18 7 19 3 20 4 21
REMARK SMILES IDX 93 22 5 23 6 24 2 25 1 26 20 27 21 28 22 29 23 30 24 31
REMARK SMILES IDX 25 32 86 33 26 34 85 35 27 36 28 37 29 38 79 39 30 40 84 41
REMARK SMILES IDX 78 42 80 43 31 44 83 45 77 46 76 47 32 49 64 50 44 51 63 52
REMARK SMILES IDX 45 53 48 54 62 55 81 56 46 57 47 58 61 60 82 61 49 62 33 63
REMARK SMILES IDX 34 64 42 65 35 66 41 67 43 68 40 69 36 70 37 71 38 72 39 73
REMARK SMILES IDX 65 74 66 75 74 76 67 77 73 78 75 79 72 80 68 81 69 82 70 83
REMARK SMILES IDX 71 84 50 85 51 86 59 87 52 88 58 89 60 90 57 91 53 92 54 93
REMARK SMILES IDX 55 94 56 95
REMARK H PARENT 80 48 48 59
REMARK Flexibility Score: inf
ROOT
ATOM      1  C   UNL A   1      35.382  20.528  25.025  1.00  0.00     0.274 C 
ENDROOT
BRANCH   1   2
ATOM      2  O   UNL A   1      34.314  21.219  24.371  1.00  0.00    -0.461 OA
BRANCH   2   3
ATOM      3  C   UNL A   1      33.393  21.728  25.230  1.00  0.00     0.326 C 
ATOM      4  O   UNL A   1      32.778  21.079  26.070  1.00  0.00    -0.250 OA
BRANCH   3   5
ATOM      5  C   UNL A   1      33.463  23.242  25.269  1.00  0.00     0.248 C 
BRANCH   5   6
ATOM      6  N   UNL A   1      32.320  23.973  24.781  1.00  0.00    -0.291 N 
ATOM      7  N   UNL A   1      32.015  26.728  24.366  1.00  0.00    -0.298 N 
ATOM      8  C   UNL A   1      32.430  26.210  25.577  1.00  0.00     0.317 A 
ATOM      9  C   UNL A   1      32.206  25.891  23.229  1.00  0.00     0.068 A 
ATOM     10  O   UNL A   1      33.169  26.734  26.398  1.00  0.00    -0.263 OA
ATOM     11  C   UNL A   1      31.878  24.813  25.787  1.00  0.00     0.317 A 
ATOM     12  C   UNL A   1      32.420  24.502  23.452  1.00  0.00     0.069 A 
ATOM     13  C   UNL A   1      32.383  26.407  21.944  1.00  0.00     0.028 A 
ATOM     14  O   UNL A   1      31.314  24.479  26.817  1.00  0.00    -0.263 OA
ATOM     15  C   UNL A   1      32.737  23.655  22.382  1.00  0.00     0.028 A 
ATOM     16  C   UNL A   1      32.770  25.556  20.897  1.00  0.00     0.002 A 
ATOM     17  C   UNL A   1      32.928  24.186  21.110  1.00  0.00     0.002 A 
BRANCH   7  18
ATOM     18  C   UNL A   1      31.374  28.033  24.390  1.00  0.00     0.162 C 
BRANCH  18  19
ATOM     19  C   UNL A   1      29.987  27.887  23.731  1.00  0.00    -0.024 A 
ATOM     20  C   UNL A   1      27.971  29.132  23.129  1.00  0.00     0.119 A 
ATOM     21  C   UNL A   1      27.206  28.018  23.475  1.00  0.00     0.046 A 
ATOM     22  C   UNL A   1      29.363  29.035  23.178  1.00  0.00     0.052 A 
ATOM     23  C   UNL A   1      27.813  26.828  23.877  1.00  0.00     0.004 A 
ATOM     24  C   UNL A   1      29.198  26.765  24.027  1.00  0.00     0.006 A 
BRANCH  20  25
ATOM     25  O   UNL A   1      27.233  30.256  22.882  1.00  0.00    -0.497 OA
ATOM     26  C   UNL A   1      27.779  31.527  23.208  1.00  0.00     0.278 C 
ENDBRANCH  20  25
ENDBRANCH  18  19
ENDBRANCH   7  18
ENDBRANCH   5   6
ENDBRANCH   3   5
ENDBRANCH   2   3
ENDBRANCH   1   2
BRANCH   1  27
ATOM     27  C   UNL A   1      36.704  21.227  24.681  1.00  0.00     0.275 C 
BRANCH  27  28
ATOM     28  O   UNL A   1      37.292  21.867  25.840  1.00  0.00    -0.458 OA
BRANCH  28  29
ATOM     29  C   UNL A   1      38.634  21.750  25.970  1.00  0.00     0.338 C 
ATOM     30  O   UNL A   1      39.331  20.834  25.561  1.00  0.00    -0.246 OA
BRANCH  29  31
ATOM     31  C   UNL A   1      39.219  22.927  26.641  1.00  0.00     0.060 A 
ATOM     32  C   UNL A   1      38.876  24.223  26.242  1.00  0.00     0.016 A 
ATOM     33  C   UNL A   1      40.262  22.736  27.544  1.00  0.00     0.016 A 
ATOM     34  C   UNL A   1      39.610  25.321  26.682  1.00  0.00     0.010 A 
ATOM     35  C   UNL A   1      40.939  23.847  28.056  1.00  0.00     0.010 A 
ATOM     36  C   UNL A   1      40.633  25.147  27.616  1.00  0.00    -0.014 A 
BRANCH  36  37
ATOM     37  C   UNL A   1      41.377  26.312  28.157  1.00  0.00     0.031 A 
ATOM     38  C   UNL A   1      40.649  27.364  28.943  1.00  0.00     0.074 A 
ATOM     39  C   UNL A   1      42.690  26.447  27.892  1.00  0.00     0.049 A 
ATOM     40  N   UNL A   1      41.026  28.576  29.256  1.00  0.00    -0.248 NA
ATOM     41  C   UNL A   1      39.308  27.004  29.424  1.00  0.00     0.031 C 
ATOM     42  C   UNL A   1      43.522  25.460  27.201  1.00  0.00     0.029 A 
ATOM     43  N   UNL A   1      43.551  27.485  28.147  1.00  0.00    -0.354 N 
ATOM     44  C   UNL A   1      39.951  29.145  29.931  1.00  0.00     0.074 A 
ATOM     45  C   UNL A   1      38.906  28.142  29.970  1.00  0.00     0.031 C 
ATOM     46  C   UNL A   1      44.768  25.941  27.080  1.00  0.00     0.029 A 
ATOM     47  C   UNL A   1      44.799  27.302  27.599  1.00  0.00     0.049 A 
ATOM     48  H   UNL A   1      43.300  28.280  28.671  1.00  0.00     0.167 HD
ATOM     49  C   UNL A   1      39.852  30.393  30.456  1.00  0.00     0.034 A 
ATOM     50  C   UNL A   1      45.830  28.157  27.463  1.00  0.00     0.034 A 
ATOM     51  C   UNL A   1      40.920  31.365  30.404  1.00  0.00     0.049 A 
ATOM     52  C   UNL A   1      45.673  29.563  27.976  1.00  0.00     0.074 A 
ATOM     53  C   UNL A   1      40.940  32.658  30.897  1.00  0.00     0.029 A 
ATOM     54  N   UNL A   1      42.163  31.149  29.818  1.00  0.00    -0.354 N 
ATOM     55  N   UNL A   1      44.633  30.119  28.553  1.00  0.00    -0.248 NA
ATOM     56  C   UNL A   1      46.825  30.456  27.809  1.00  0.00     0.031 C 
ATOM     57  C   UNL A   1      42.167  33.241  30.556  1.00  0.00     0.029 A 
ATOM     58  C   UNL A   1      42.945  32.290  29.915  1.00  0.00     0.049 A 
ATOM     59  H   UNL A   1      42.448  30.306  29.395  1.00  0.00     0.167 HD
ATOM     60  C   UNL A   1      45.015  31.425  28.841  1.00  0.00     0.074 A 
ATOM     61  C   UNL A   1      46.383  31.566  28.383  1.00  0.00     0.031 C 
ATOM     62  C   UNL A   1      44.303  32.415  29.437  1.00  0.00     0.034 A 
BRANCH  49  63
ATOM     63  C   UNL A   1      38.524  30.788  31.060  1.00  0.00     0.023 A 
ATOM     64  C   UNL A   1      37.494  31.358  30.293  1.00  0.00     0.031 A 
ATOM     65  C   UNL A   1      38.305  30.636  32.442  1.00  0.00     0.131 A 
ATOM     66  C   UNL A   1      36.328  31.826  30.921  1.00  0.00     0.055 A 
ATOM     67  C   UNL A   1      37.109  31.027  33.048  1.00  0.00     0.041 A 
ATOM     68  F   UNL A   1      39.259  30.121  33.233  1.00  0.00    -0.206 F 
ATOM     69  C   UNL A   1      36.117  31.643  32.289  1.00  0.00     0.022 A 
BRANCH  66  70
ATOM     70  S   UNL A   1      35.158  32.819  29.951  1.00  0.00     0.124 S 
ATOM     71  O   UNL A   1      34.655  31.835  28.995  1.00  0.00    -0.237 OA
ATOM     72  O   UNL A   1      34.210  33.267  30.964  1.00  0.00    -0.237 OA
ATOM     73  O   UNL A   1      35.995  33.867  29.371  1.00  0.00    -0.744 OA
ENDBRANCH  66  70
ENDBRANCH  49  63
BRANCH  50  74
ATOM     74  C   UNL A   1      47.067  27.726  26.755  1.00  0.00     0.023 A 
ATOM     75  C   UNL A   1      47.189  27.869  25.365  1.00  0.00     0.031 A 
ATOM     76  C   UNL A   1      48.147  27.164  27.461  1.00  0.00     0.131 A 
ATOM     77  C   UNL A   1      48.356  27.432  24.719  1.00  0.00     0.055 A 
ATOM     78  C   UNL A   1      49.325  26.777  26.819  1.00  0.00     0.041 A 
ATOM     79  F   UNL A   1      48.082  27.009  28.793  1.00  0.00    -0.206 F 
ATOM     80  C   UNL A   1      49.430  26.901  25.438  1.00  0.00     0.022 A 
BRANCH  77  81
ATOM     81  S   UNL A   1      48.424  27.514  22.910  1.00  0.00     0.124 S 
ATOM     82  O   UNL A   1      47.184  28.214  22.596  1.00  0.00    -0.237 OA
ATOM     83  O   UNL A   1      49.658  28.261  22.686  1.00  0.00    -0.237 OA
ATOM     84  O   UNL A   1      48.467  26.109  22.507  1.00  0.00    -0.744 OA
ENDBRANCH  77  81
ENDBRANCH  50  74
BRANCH  62  85
ATOM     85  C   UNL A   1      45.024  33.719  29.665  1.00  0.00     0.023 A 
ATOM     86  C   UNL A   1      44.900  34.800  28.775  1.00  0.00     0.031 A 
ATOM     87  C   UNL A   1      45.872  33.866  30.777  1.00  0.00     0.131 A 
ATOM     88  C   UNL A   1      45.657  35.962  28.984  1.00  0.00     0.055 A 
ATOM     89  C   UNL A   1      46.580  35.046  31.007  1.00  0.00     0.041 A 
ATOM     90  F   UNL A   1      46.028  32.862  31.654  1.00  0.00    -0.206 F 
ATOM     91  C   UNL A   1      46.485  36.098  30.101  1.00  0.00     0.022 A 
BRANCH  88  92
ATOM     92  S   UNL A   1      45.616  37.266  27.723  1.00  0.00     0.124 S 
ATOM     93  O   UNL A   1      45.191  36.528  26.536  1.00  0.00    -0.237 OA
ATOM     94  O   UNL A   1      44.642  38.203  28.273  1.00  0.00    -0.237 OA
ATOM     95  O   UNL A   1      46.993  37.754  27.689  1.00  0.00    -0.744 OA
ENDBRANCH  88  92
ENDBRANCH  62  85
ENDBRANCH  36  37
ENDBRANCH  29  31
ENDBRANCH  28  29
ENDBRANCH  27  28
ENDBRANCH   1  27
TORSDOF 18
ENDMDL
