MODEL 1
REMARK VINA RESULT:     -14.1      0.000      0.000
REMARK SMILES Cc1ccc(-c2cnnc(-n3nc(C)c4c3NC(=O)C[C@@H]4c3ccc(C(=O)OCCOC(=O)c4ccc(-c5c6nc(c(-c7cc(S(=O)(=O)[O-])ccc7F)c7ccc([nH]7)c(-c7cc(S(=O)(=O)[O-])ccc7F)c7nc(c(-c8cc(S(=O)(=O)[O-])ccc8F)c8ccc5[nH]8)C=C7)C=C6)cc4)cc3)n2)cc1
REMARK SMILES IDX 29 1 28 2 26 3 27 4 25 5 22 6 23 7 98 8 24 9 97 10 21 11
REMARK SMILES IDX 11 12 12 13 16 14 13 15 15 16 17 17 14 18 18 19 20 21 19 22
REMARK SMILES IDX 10 23 6 24 7 25 99 26 8 27 9 28 5 29 1 30 2 31 3 32 101 33
REMARK SMILES IDX 4 34 100 35 30 36 31 37 32 38 33 39 34 40 35 41 96 42 36 43
REMARK SMILES IDX 95 44 37 45 38 46 39 47 89 48 40 49 94 50 88 51 90 52 41 53
REMARK SMILES IDX 93 54 87 55 86 56 42 58 74 59 54 60 73 61 55 62 58 63 72 64
REMARK SMILES IDX 91 65 56 66 57 67 71 69 92 70 59 71 43 72 44 73 52 74 45 75
REMARK SMILES IDX 51 76 53 77 50 78 46 79 47 80 48 81 49 82 75 83 76 84 84 85
REMARK SMILES IDX 77 86 83 87 85 88 82 89 78 90 79 91 80 92 81 93 60 94 61 95
REMARK SMILES IDX 69 96 62 97 68 98 70 99 67 100 63 101 64 102 65 103 66 104
REMARK H PARENT 17 20 90 57 58 68
REMARK Flexibility Score: inf
ROOT
ATOM      1  C   UNL A   1      35.266  20.489  25.039  1.00  0.00     0.275 C 
ENDROOT
BRANCH   1   2
ATOM      2  O   UNL A   1      34.284  19.623  24.448  1.00  0.00    -0.458 OA
BRANCH   2   3
ATOM      3  C   UNL A   1      33.051  19.811  24.963  1.00  0.00     0.338 C 
ATOM      4  O   UNL A   1      32.447  19.048  25.699  1.00  0.00    -0.246 OA
BRANCH   3   5
ATOM      5  C   UNL A   1      32.348  20.936  24.343  1.00  0.00     0.060 A 
ATOM      6  C   UNL A   1      32.091  23.572  23.515  1.00  0.00    -0.040 A 
ATOM      7  C   UNL A   1      32.385  22.583  22.576  1.00  0.00     0.005 A 
ATOM      8  C   UNL A   1      31.701  23.179  24.813  1.00  0.00     0.005 A 
ATOM      9  C   UNL A   1      32.510  21.268  22.995  1.00  0.00     0.016 A 
ATOM     10  C   UNL A   1      31.877  21.876  25.241  1.00  0.00     0.016 A 
BRANCH   6  11
ATOM     11  C   UNL A   1      32.351  25.008  23.110  1.00  0.00     0.064 C 
ATOM     12  N   UNL A   1      33.049  27.091  25.968  1.00  0.00    -0.180 N 
ATOM     13  N   UNL A   1      34.107  26.257  26.148  1.00  0.00    -0.168 NA
ATOM     14  C   UNL A   1      32.139  26.516  25.105  1.00  0.00     0.143 A 
ATOM     15  C   UNL A   1      34.104  25.493  25.052  1.00  0.00     0.066 A 
ATOM     16  C   UNL A   1      32.904  25.690  24.308  1.00  0.00     0.026 A 
ATOM     17  N   UNL A   1      30.767  26.593  24.930  1.00  0.00    -0.310 N 
ATOM     18  C   UNL A   1      35.186  24.490  24.884  1.00  0.00     0.069 C 
ATOM     19  C   UNL A   1      30.172  25.972  23.773  1.00  0.00     0.226 C 
ATOM     20  H   UNL A   1      30.206  27.065  25.588  1.00  0.00     0.171 HD
ATOM     21  C   UNL A   1      31.098  25.714  22.608  1.00  0.00     0.113 C 
ATOM     22  O   UNL A   1      28.976  25.813  23.774  1.00  0.00    -0.275 OA
BRANCH  12  23
ATOM     23  C   UNL A   1      33.176  28.475  26.249  1.00  0.00     0.272 A 
ATOM     24  C   UNL A   1      34.150  30.214  27.337  1.00  0.00     0.095 A 
ATOM     25  C   UNL A   1      32.990  30.951  27.171  1.00  0.00     0.164 A 
ATOM     26  N   UNL A   1      34.252  28.926  26.925  1.00  0.00    -0.208 NA
ATOM     27  N   UNL A   1      31.946  30.453  26.499  1.00  0.00    -0.153 NA
ATOM     28  N   UNL A   1      32.063  29.213  25.993  1.00  0.00    -0.109 NA
BRANCH  24  29
ATOM     29  C   UNL A   1      35.371  30.831  27.852  1.00  0.00     0.002 A 
ATOM     30  C   UNL A   1      38.841  32.734  29.582  1.00  0.00     0.044 C 
ATOM     31  C   UNL A   1      37.630  32.079  28.992  1.00  0.00    -0.051 A 
ATOM     32  C   UNL A   1      37.583  30.687  28.854  1.00  0.00     0.004 A 
ATOM     33  C   UNL A   1      36.546  32.845  28.558  1.00  0.00     0.004 A 
ATOM     34  C   UNL A   1      36.464  30.069  28.291  1.00  0.00     0.011 A 
ATOM     35  C   UNL A   1      35.433  32.227  27.992  1.00  0.00     0.011 A 
ENDBRANCH  24  29
ENDBRANCH  12  23
ENDBRANCH   6  11
ENDBRANCH   3   5
ENDBRANCH   2   3
ENDBRANCH   1   2
BRANCH   1  36
ATOM     36  C   UNL A   1      36.677  19.881  24.984  1.00  0.00     0.275 C 
BRANCH  36  37
ATOM     37  O   UNL A   1      37.822  20.757  25.080  1.00  0.00    -0.458 OA
BRANCH  37  38
ATOM     38  C   UNL A   1      38.934  20.262  25.685  1.00  0.00     0.338 C 
ATOM     39  O   UNL A   1      39.478  19.219  25.367  1.00  0.00    -0.246 OA
BRANCH  38  40
ATOM     40  C   UNL A   1      39.528  21.337  26.518  1.00  0.00     0.060 A 
ATOM     41  C   UNL A   1      40.499  20.983  27.458  1.00  0.00     0.016 A 
ATOM     42  C   UNL A   1      39.375  22.665  26.106  1.00  0.00     0.016 A 
ATOM     43  C   UNL A   1      41.418  21.935  27.884  1.00  0.00     0.010 A 
ATOM     44  C   UNL A   1      40.351  23.572  26.423  1.00  0.00     0.010 A 
ATOM     45  C   UNL A   1      41.356  23.205  27.329  1.00  0.00    -0.014 A 
BRANCH  45  46
ATOM     46  C   UNL A   1      41.971  24.348  27.967  1.00  0.00     0.031 A 
ATOM     47  C   UNL A   1      41.229  25.585  28.236  1.00  0.00     0.074 A 
ATOM     48  C   UNL A   1      43.119  23.915  28.529  1.00  0.00     0.049 A 
ATOM     49  N   UNL A   1      41.764  26.639  28.732  1.00  0.00    -0.248 NA
ATOM     50  C   UNL A   1      39.818  25.803  27.911  1.00  0.00     0.031 C 
ATOM     51  C   UNL A   1      43.868  24.328  29.696  1.00  0.00     0.029 A 
ATOM     52  N   UNL A   1      43.937  22.939  27.947  1.00  0.00    -0.354 N 
ATOM     53  C   UNL A   1      40.733  27.433  29.197  1.00  0.00     0.074 A 
ATOM     54  C   UNL A   1      39.566  26.981  28.495  1.00  0.00     0.031 C 
ATOM     55  C   UNL A   1      45.125  23.845  29.582  1.00  0.00     0.029 A 
ATOM     56  C   UNL A   1      45.251  23.273  28.243  1.00  0.00     0.049 A 
ATOM     57  H   UNL A   1      43.637  22.161  27.424  1.00  0.00     0.167 HD
ATOM     58  C   UNL A   1      40.978  28.215  30.286  1.00  0.00     0.034 A 
ATOM     59  C   UNL A   1      45.973  23.817  27.214  1.00  0.00     0.034 A 
ATOM     60  C   UNL A   1      42.377  28.060  30.676  1.00  0.00     0.049 A 
ATOM     61  C   UNL A   1      46.258  25.286  27.473  1.00  0.00     0.074 A 
ATOM     62  C   UNL A   1      43.020  27.289  31.629  1.00  0.00     0.029 A 
ATOM     63  N   UNL A   1      43.345  28.455  29.777  1.00  0.00    -0.354 N 
ATOM     64  N   UNL A   1      45.516  26.078  28.204  1.00  0.00    -0.248 NA
ATOM     65  C   UNL A   1      47.435  25.958  26.945  1.00  0.00     0.031 C 
ATOM     66  C   UNL A   1      44.397  27.209  31.259  1.00  0.00     0.029 A 
ATOM     67  C   UNL A   1      44.573  27.922  30.086  1.00  0.00     0.049 A 
ATOM     68  H   UNL A   1      43.176  29.046  29.007  1.00  0.00     0.167 HD
ATOM     69  C   UNL A   1      46.143  27.288  28.361  1.00  0.00     0.074 A 
ATOM     70  C   UNL A   1      47.290  27.189  27.467  1.00  0.00     0.031 C 
ATOM     71  C   UNL A   1      45.693  28.256  29.227  1.00  0.00     0.034 A 
BRANCH  58  72
ATOM     72  C   UNL A   1      39.972  28.892  31.185  1.00  0.00     0.023 A 
ATOM     73  C   UNL A   1      40.314  30.163  31.697  1.00  0.00     0.031 A 
ATOM     74  C   UNL A   1      38.719  28.398  31.591  1.00  0.00     0.131 A 
ATOM     75  C   UNL A   1      39.492  30.854  32.599  1.00  0.00     0.055 A 
ATOM     76  C   UNL A   1      37.895  29.085  32.501  1.00  0.00     0.041 A 
ATOM     77  F   UNL A   1      38.218  27.256  31.107  1.00  0.00    -0.206 F 
ATOM     78  C   UNL A   1      38.282  30.316  33.016  1.00  0.00     0.022 A 
BRANCH  75  79
ATOM     79  S   UNL A   1      40.054  32.463  33.214  1.00  0.00     0.124 S 
ATOM     80  O   UNL A   1      38.862  33.286  33.046  1.00  0.00    -0.237 OA
ATOM     81  O   UNL A   1      40.438  32.153  34.587  1.00  0.00    -0.237 OA
ATOM     82  O   UNL A   1      41.165  32.795  32.323  1.00  0.00    -0.744 OA
ENDBRANCH  75  79
ENDBRANCH  58  72
BRANCH  59  83
ATOM     83  C   UNL A   1      45.658  23.206  25.863  1.00  0.00     0.023 A 
ATOM     84  C   UNL A   1      46.098  21.880  25.612  1.00  0.00     0.031 A 
ATOM     85  C   UNL A   1      44.695  23.725  24.985  1.00  0.00     0.131 A 
ATOM     86  C   UNL A   1      45.481  21.084  24.630  1.00  0.00     0.055 A 
ATOM     87  C   UNL A   1      44.138  22.950  23.950  1.00  0.00     0.041 A 
ATOM     88  F   UNL A   1      44.192  24.955  25.164  1.00  0.00    -0.206 F 
ATOM     89  C   UNL A   1      44.505  21.614  23.788  1.00  0.00     0.022 A 
BRANCH  86  90
ATOM     90  S   UNL A   1      45.752  19.281  24.677  1.00  0.00     0.124 S 
ATOM     91  O   UNL A   1      47.056  19.185  25.320  1.00  0.00    -0.237 OA
ATOM     92  O   UNL A   1      44.611  18.815  25.461  1.00  0.00    -0.237 OA
ATOM     93  O   UNL A   1      45.719  18.905  23.265  1.00  0.00    -0.744 OA
ENDBRANCH  86  90
ENDBRANCH  59  83
BRANCH  71  94
ATOM     94  C   UNL A   1      46.254  29.655  29.339  1.00  0.00     0.023 A 
ATOM     95  C   UNL A   1      46.303  30.520  28.250  1.00  0.00     0.031 A 
ATOM     96  C   UNL A   1      46.772  30.177  30.556  1.00  0.00     0.131 A 
ATOM     97  C   UNL A   1      46.662  31.865  28.415  1.00  0.00     0.055 A 
ATOM     98  C   UNL A   1      47.225  31.488  30.697  1.00  0.00     0.041 A 
ATOM     99  F   UNL A   1      46.837  29.463  31.687  1.00  0.00    -0.206 F 
ATOM    100  C   UNL A   1      47.136  32.357  29.628  1.00  0.00     0.022 A 
BRANCH  97 101
ATOM    101  S   UNL A   1      46.393  32.973  27.018  1.00  0.00     0.124 S 
ATOM    102  O   UNL A   1      46.431  34.288  27.648  1.00  0.00    -0.237 OA
ATOM    103  O   UNL A   1      47.534  32.649  26.165  1.00  0.00    -0.237 OA
ATOM    104  O   UNL A   1      45.091  32.562  26.500  1.00  0.00    -0.744 OA
ENDBRANCH  97 101
ENDBRANCH  71  94
ENDBRANCH  45  46
ENDBRANCH  38  40
ENDBRANCH  37  38
ENDBRANCH  36  37
ENDBRANCH   1  36
TORSDOF 17
ENDMDL
MODEL 2
REMARK VINA RESULT:     -14.0      3.435      5.250
REMARK SMILES Cc1ccc(-c2cnnc(-n3nc(C)c4c3NC(=O)C[C@@H]4c3ccc(C(=O)OCCOC(=O)c4ccc(-c5c6nc(c(-c7cc(S(=O)(=O)[O-])ccc7F)c7ccc([nH]7)c(-c7cc(S(=O)(=O)[O-])ccc7F)c7nc(c(-c8cc(S(=O)(=O)[O-])ccc8F)c8ccc5[nH]8)C=C7)C=C6)cc4)cc3)n2)cc1
REMARK SMILES IDX 29 1 28 2 26 3 27 4 25 5 22 6 23 7 98 8 24 9 97 10 21 11
REMARK SMILES IDX 11 12 12 13 16 14 13 15 15 16 17 17 14 18 18 19 20 21 19 22
REMARK SMILES IDX 10 23 6 24 7 25 99 26 8 27 9 28 5 29 1 30 2 31 3 32 101 33
REMARK SMILES IDX 4 34 100 35 30 36 31 37 32 38 33 39 34 40 35 41 96 42 36 43
REMARK SMILES IDX 95 44 37 45 38 46 39 47 89 48 40 49 94 50 88 51 90 52 41 53
REMARK SMILES IDX 93 54 87 55 86 56 42 58 74 59 54 60 73 61 55 62 58 63 72 64
REMARK SMILES IDX 91 65 56 66 57 67 71 69 92 70 59 71 43 72 44 73 52 74 45 75
REMARK SMILES IDX 51 76 53 77 50 78 46 79 47 80 48 81 49 82 75 83 76 84 84 85
REMARK SMILES IDX 77 86 83 87 85 88 82 89 78 90 79 91 80 92 81 93 60 94 61 95
REMARK SMILES IDX 69 96 62 97 68 98 70 99 67 100 63 101 64 102 65 103 66 104
REMARK H PARENT 17 20 90 57 58 68
REMARK Flexibility Score: inf
ROOT
ATOM      1  C   UNL A   1      38.289  21.016  25.396  1.00  0.00     0.275 C 
ENDROOT
BRANCH   1   2
ATOM      2  O   UNL A   1      37.041  21.096  24.690  1.00  0.00    -0.458 OA
BRANCH   2   3
ATOM      3  C   UNL A   1      36.226  20.055  24.959  1.00  0.00     0.338 C 
ATOM      4  O   UNL A   1      36.480  18.872  24.796  1.00  0.00    -0.246 OA
BRANCH   3   5
ATOM      5  C   UNL A   1      34.851  20.474  25.237  1.00  0.00     0.060 A 
ATOM      6  C   UNL A   1      32.667  22.173  25.028  1.00  0.00    -0.040 A 
ATOM      7  C   UNL A   1      32.692  20.993  24.285  1.00  0.00     0.005 A 
ATOM      8  C   UNL A   1      33.635  22.358  26.038  1.00  0.00     0.005 A 
ATOM      9  C   UNL A   1      33.785  20.147  24.395  1.00  0.00     0.016 A 
ATOM     10  C   UNL A   1      34.748  21.542  26.109  1.00  0.00     0.016 A 
BRANCH   6  11
ATOM     11  C   UNL A   1      31.681  23.238  24.597  1.00  0.00     0.064 C 
ATOM     12  N   UNL A   1      32.659  26.506  25.766  1.00  0.00    -0.180 N 
ATOM     13  N   UNL A   1      33.769  26.295  25.013  1.00  0.00    -0.168 NA
ATOM     14  C   UNL A   1      31.999  25.311  25.976  1.00  0.00     0.143 A 
ATOM     15  C   UNL A   1      33.500  25.165  24.352  1.00  0.00     0.066 A 
ATOM     16  C   UNL A   1      32.327  24.547  24.875  1.00  0.00     0.026 A 
ATOM     17  N   UNL A   1      31.187  24.800  26.975  1.00  0.00    -0.310 N 
ATOM     18  C   UNL A   1      34.494  24.664  23.369  1.00  0.00     0.069 C 
ATOM     19  C   UNL A   1      30.512  23.545  26.755  1.00  0.00     0.226 C 
ATOM     20  H   UNL A   1      31.074  25.287  27.823  1.00  0.00     0.171 HD
ATOM     21  C   UNL A   1      30.342  23.126  25.314  1.00  0.00     0.113 C 
ATOM     22  O   UNL A   1      30.038  22.988  27.714  1.00  0.00    -0.275 OA
BRANCH  12  23
ATOM     23  C   UNL A   1      32.089  27.801  25.851  1.00  0.00     0.272 A 
ATOM     24  C   UNL A   1      31.165  29.645  24.902  1.00  0.00     0.095 A 
ATOM     25  C   UNL A   1      31.587  30.398  25.983  1.00  0.00     0.164 A 
ATOM     26  N   UNL A   1      31.457  28.326  24.782  1.00  0.00    -0.208 NA
ATOM     27  N   UNL A   1      32.220  29.830  27.015  1.00  0.00    -0.153 NA
ATOM     28  N   UNL A   1      32.431  28.503  26.964  1.00  0.00    -0.109 NA
BRANCH  24  29
ATOM     29  C   UNL A   1      30.268  30.207  23.892  1.00  0.00     0.002 A 
ATOM     30  C   UNL A   1      27.782  32.071  20.892  1.00  0.00     0.044 C 
ATOM     31  C   UNL A   1      28.652  31.435  21.933  1.00  0.00    -0.051 A 
ATOM     32  C   UNL A   1      29.312  30.232  21.656  1.00  0.00     0.004 A 
ATOM     33  C   UNL A   1      28.802  32.023  23.191  1.00  0.00     0.004 A 
ATOM     34  C   UNL A   1      30.113  29.625  22.625  1.00  0.00     0.011 A 
ATOM     35  C   UNL A   1      29.597  31.412  24.159  1.00  0.00     0.011 A 
ENDBRANCH  24  29
ENDBRANCH  12  23
ENDBRANCH   6  11
ENDBRANCH   3   5
ENDBRANCH   2   3
ENDBRANCH   1   2
BRANCH   1  36
ATOM     36  C   UNL A   1      38.687  22.365  26.017  1.00  0.00     0.275 C 
BRANCH  36  37
ATOM     37  O   UNL A   1      39.742  22.400  27.004  1.00  0.00    -0.458 OA
BRANCH  37  38
ATOM     38  C   UNL A   1      40.981  22.759  26.576  1.00  0.00     0.338 C 
ATOM     39  O   UNL A   1      41.613  22.155  25.728  1.00  0.00    -0.246 OA
BRANCH  38  40
ATOM     40  C   UNL A   1      41.253  24.140  27.047  1.00  0.00     0.060 A 
ATOM     41  C   UNL A   1      41.164  25.183  26.120  1.00  0.00     0.016 A 
ATOM     42  C   UNL A   1      41.232  24.395  28.422  1.00  0.00     0.016 A 
ATOM     43  C   UNL A   1      40.910  26.474  26.566  1.00  0.00     0.010 A 
ATOM     44  C   UNL A   1      40.857  25.638  28.858  1.00  0.00     0.010 A 
ATOM     45  C   UNL A   1      40.719  26.676  27.925  1.00  0.00    -0.014 A 
BRANCH  45  46
ATOM     46  C   UNL A   1      40.850  27.984  28.530  1.00  0.00     0.031 A 
ATOM     47  C   UNL A   1      39.774  28.980  28.473  1.00  0.00     0.074 A 
ATOM     48  C   UNL A   1      41.899  27.924  29.377  1.00  0.00     0.049 A 
ATOM     49  N   UNL A   1      39.886  30.171  28.935  1.00  0.00    -0.248 NA
ATOM     50  C   UNL A   1      38.476  28.777  27.828  1.00  0.00     0.031 C 
ATOM     51  C   UNL A   1      42.212  28.601  30.615  1.00  0.00     0.029 A 
ATOM     52  N   UNL A   1      43.054  27.178  29.113  1.00  0.00    -0.354 N 
ATOM     53  C   UNL A   1      38.606  30.676  29.063  1.00  0.00     0.074 A 
ATOM     54  C   UNL A   1      37.798  29.874  28.190  1.00  0.00     0.031 C 
ATOM     55  C   UNL A   1      43.540  28.480  30.837  1.00  0.00     0.029 A 
ATOM     56  C   UNL A   1      44.127  27.881  29.640  1.00  0.00     0.049 A 
ATOM     57  H   UNL A   1      43.098  26.315  28.640  1.00  0.00     0.167 HD
ATOM     58  C   UNL A   1      38.373  31.563  30.071  1.00  0.00     0.034 A 
ATOM     59  C   UNL A   1      44.913  28.538  28.730  1.00  0.00     0.034 A 
ATOM     60  C   UNL A   1      39.628  31.828  30.769  1.00  0.00     0.049 A 
ATOM     61  C   UNL A   1      44.743  30.041  28.856  1.00  0.00     0.074 A 
ATOM     62  C   UNL A   1      40.197  31.328  31.928  1.00  0.00     0.029 A 
ATOM     63  N   UNL A   1      40.650  32.418  30.057  1.00  0.00    -0.354 N 
ATOM     64  N   UNL A   1      43.670  30.641  29.303  1.00  0.00    -0.248 NA
ATOM     65  C   UNL A   1      45.801  30.978  28.513  1.00  0.00     0.031 C 
ATOM     66  C   UNL A   1      41.596  31.610  31.877  1.00  0.00     0.029 A 
ATOM     67  C   UNL A   1      41.862  32.267  30.689  1.00  0.00     0.049 A 
ATOM     68  H   UNL A   1      40.528  32.888  29.200  1.00  0.00     0.167 HD
ATOM     69  C   UNL A   1      43.910  31.985  29.437  1.00  0.00     0.074 A 
ATOM     70  C   UNL A   1      45.225  32.152  28.831  1.00  0.00     0.031 C 
ATOM     71  C   UNL A   1      43.033  32.843  30.056  1.00  0.00     0.034 A 
BRANCH  58  72
ATOM     72  C   UNL A   1      37.041  31.990  30.638  1.00  0.00     0.023 A 
ATOM     73  C   UNL A   1      36.171  32.701  29.782  1.00  0.00     0.031 A 
ATOM     74  C   UNL A   1      36.557  31.773  31.941  1.00  0.00     0.131 A 
ATOM     75  C   UNL A   1      34.940  33.211  30.220  1.00  0.00     0.055 A 
ATOM     76  C   UNL A   1      35.326  32.290  32.386  1.00  0.00     0.041 A 
ATOM     77  F   UNL A   1      37.225  31.029  32.830  1.00  0.00    -0.206 F 
ATOM     78  C   UNL A   1      34.513  33.019  31.527  1.00  0.00     0.022 A 
BRANCH  75  79
ATOM     79  S   UNL A   1      33.926  34.137  29.038  1.00  0.00     0.124 S 
ATOM     80  O   UNL A   1      34.893  35.071  28.472  1.00  0.00    -0.237 OA
ATOM     81  O   UNL A   1      33.448  33.084  28.148  1.00  0.00    -0.237 OA
ATOM     82  O   UNL A   1      32.897  34.746  29.880  1.00  0.00    -0.744 OA
ENDBRANCH  75  79
ENDBRANCH  58  72
BRANCH  59  83
ATOM     83  C   UNL A   1      45.101  27.778  27.432  1.00  0.00     0.023 A 
ATOM     84  C   UNL A   1      45.909  26.611  27.452  1.00  0.00     0.031 A 
ATOM     85  C   UNL A   1      44.281  27.955  26.307  1.00  0.00     0.131 A 
ATOM     86  C   UNL A   1      45.770  25.615  26.470  1.00  0.00     0.055 A 
ATOM     87  C   UNL A   1      44.207  26.991  25.283  1.00  0.00     0.041 A 
ATOM     88  F   UNL A   1      43.455  29.006  26.216  1.00  0.00    -0.206 F 
ATOM     89  C   UNL A   1      44.927  25.800  25.376  1.00  0.00     0.022 A 
BRANCH  86  90
ATOM     90  S   UNL A   1      46.470  23.963  26.802  1.00  0.00     0.124 S 
ATOM     91  O   UNL A   1      47.687  24.289  27.535  1.00  0.00    -0.237 OA
ATOM     92  O   UNL A   1      45.406  23.325  27.574  1.00  0.00    -0.237 OA
ATOM     93  O   UNL A   1      46.669  23.413  25.464  1.00  0.00    -0.744 OA
ENDBRANCH  86  90
ENDBRANCH  59  83
BRANCH  71  94
ATOM     94  C   UNL A   1      43.174  34.347  30.108  1.00  0.00     0.023 A 
ATOM     95  C   UNL A   1      43.372  35.029  31.305  1.00  0.00     0.031 A 
ATOM     96  C   UNL A   1      43.108  35.163  28.946  1.00  0.00     0.131 A 
ATOM     97  C   UNL A   1      43.674  36.398  31.312  1.00  0.00     0.055 A 
ATOM     98  C   UNL A   1      43.309  36.543  28.964  1.00  0.00     0.041 A 
ATOM     99  F   UNL A   1      42.882  34.671  27.721  1.00  0.00    -0.206 F 
ATOM    100  C   UNL A   1      43.634  37.167  30.152  1.00  0.00     0.022 A 
BRANCH  97 101
ATOM    101  S   UNL A   1      44.221  37.118  32.872  1.00  0.00     0.124 S 
ATOM    102  O   UNL A   1      45.674  37.059  32.753  1.00  0.00    -0.237 OA
ATOM    103  O   UNL A   1      43.636  38.455  32.797  1.00  0.00    -0.237 OA
ATOM    104  O   UNL A   1      43.637  36.238  33.880  1.00  0.00    -0.744 OA
ENDBRANCH  97 101
ENDBRANCH  71  94
ENDBRANCH  45  46
ENDBRANCH  38  40
ENDBRANCH  37  38
ENDBRANCH  36  37
ENDBRANCH   1  36
TORSDOF 17
ENDMDL
MODEL 3
REMARK VINA RESULT:     -13.8      3.553      9.955
REMARK SMILES Cc1ccc(-c2cnnc(-n3nc(C)c4c3NC(=O)C[C@@H]4c3ccc(C(=O)OCCOC(=O)c4ccc(-c5c6nc(c(-c7cc(S(=O)(=O)[O-])ccc7F)c7ccc([nH]7)c(-c7cc(S(=O)(=O)[O-])ccc7F)c7nc(c(-c8cc(S(=O)(=O)[O-])ccc8F)c8ccc5[nH]8)C=C7)C=C6)cc4)cc3)n2)cc1
REMARK SMILES IDX 29 1 28 2 26 3 27 4 25 5 22 6 23 7 98 8 24 9 97 10 21 11
REMARK SMILES IDX 11 12 12 13 16 14 13 15 15 16 17 17 14 18 18 19 20 21 19 22
REMARK SMILES IDX 10 23 6 24 7 25 99 26 8 27 9 28 5 29 1 30 2 31 3 32 101 33
REMARK SMILES IDX 4 34 100 35 30 36 31 37 32 38 33 39 34 40 35 41 96 42 36 43
REMARK SMILES IDX 95 44 37 45 38 46 39 47 89 48 40 49 94 50 88 51 90 52 41 53
REMARK SMILES IDX 93 54 87 55 86 56 42 58 74 59 54 60 73 61 55 62 58 63 72 64
REMARK SMILES IDX 91 65 56 66 57 67 71 69 92 70 59 71 43 72 44 73 52 74 45 75
REMARK SMILES IDX 51 76 53 77 50 78 46 79 47 80 48 81 49 82 75 83 76 84 84 85
REMARK SMILES IDX 77 86 83 87 85 88 82 89 78 90 79 91 80 92 81 93 60 94 61 95
REMARK SMILES IDX 69 96 62 97 68 98 70 99 67 100 63 101 64 102 65 103 66 104
REMARK H PARENT 17 20 90 57 58 68
REMARK Flexibility Score: inf
ROOT
ATOM      1  C   UNL A   1      32.756  29.640  27.159  1.00  0.00     0.275 C 
ENDROOT
BRANCH   1   2
ATOM      2  O   UNL A   1      32.775  30.401  25.941  1.00  0.00    -0.458 OA
BRANCH   2   3
ATOM      3  C   UNL A   1      31.558  30.484  25.364  1.00  0.00     0.338 C 
ATOM      4  O   UNL A   1      30.615  31.157  25.749  1.00  0.00    -0.246 OA
BRANCH   3   5
ATOM      5  C   UNL A   1      31.353  29.462  24.335  1.00  0.00     0.060 A 
ATOM      6  C   UNL A   1      31.361  26.866  23.356  1.00  0.00    -0.040 A 
ATOM      7  C   UNL A   1      30.153  27.456  23.726  1.00  0.00     0.005 A 
ATOM      8  C   UNL A   1      32.512  27.678  23.266  1.00  0.00     0.005 A 
ATOM      9  C   UNL A   1      30.155  28.754  24.213  1.00  0.00     0.016 A 
ATOM     10  C   UNL A   1      32.521  28.953  23.799  1.00  0.00     0.016 A 
BRANCH   6  11
ATOM     11  C   UNL A   1      31.377  25.358  23.214  1.00  0.00     0.064 C 
ATOM     12  N   UNL A   1      34.446  23.938  24.465  1.00  0.00    -0.180 N 
ATOM     13  N   UNL A   1      34.058  24.482  25.648  1.00  0.00    -0.168 NA
ATOM     14  C   UNL A   1      33.726  24.501  23.430  1.00  0.00     0.143 A 
ATOM     15  C   UNL A   1      32.820  24.925  25.407  1.00  0.00     0.066 A 
ATOM     16  C   UNL A   1      32.533  24.873  24.012  1.00  0.00     0.026 A 
ATOM     17  N   UNL A   1      33.964  24.746  22.088  1.00  0.00    -0.310 N 
ATOM     18  C   UNL A   1      32.055  25.535  26.525  1.00  0.00     0.069 C 
ATOM     19  C   UNL A   1      32.877  25.195  21.254  1.00  0.00     0.226 C 
ATOM     20  H   UNL A   1      34.864  24.615  21.709  1.00  0.00     0.171 HD
ATOM     21  C   UNL A   1      31.485  24.905  21.764  1.00  0.00     0.113 C 
ATOM     22  O   UNL A   1      33.153  25.658  20.174  1.00  0.00    -0.275 OA
BRANCH  12  23
ATOM     23  C   UNL A   1      35.106  22.684  24.439  1.00  0.00     0.272 A 
ATOM     24  C   UNL A   1      35.190  20.458  24.884  1.00  0.00     0.095 A 
ATOM     25  C   UNL A   1      36.572  20.527  24.899  1.00  0.00     0.164 A 
ATOM     26  N   UNL A   1      34.415  21.558  24.706  1.00  0.00    -0.208 NA
ATOM     27  N   UNL A   1      37.210  21.673  24.637  1.00  0.00    -0.153 NA
ATOM     28  N   UNL A   1      36.461  22.754  24.358  1.00  0.00    -0.109 NA
BRANCH  24  29
ATOM     29  C   UNL A   1      34.495  19.173  24.929  1.00  0.00     0.002 A 
ATOM     30  C   UNL A   1      32.615  15.297  25.244  1.00  0.00     0.044 C 
ATOM     31  C   UNL A   1      33.277  16.637  25.143  1.00  0.00    -0.051 A 
ATOM     32  C   UNL A   1      32.594  17.789  25.549  1.00  0.00     0.004 A 
ATOM     33  C   UNL A   1      34.570  16.756  24.629  1.00  0.00     0.004 A 
ATOM     34  C   UNL A   1      33.197  19.044  25.445  1.00  0.00     0.011 A 
ATOM     35  C   UNL A   1      35.168  18.009  24.520  1.00  0.00     0.011 A 
ENDBRANCH  24  29
ENDBRANCH  12  23
ENDBRANCH   6  11
ENDBRANCH   3   5
ENDBRANCH   2   3
ENDBRANCH   1   2
BRANCH   1  36
ATOM     36  C   UNL A   1      34.174  29.344  27.673  1.00  0.00     0.275 C 
BRANCH  36  37
ATOM     37  O   UNL A   1      35.307  29.882  26.955  1.00  0.00    -0.458 OA
BRANCH  37  38
ATOM     38  C   UNL A   1      36.265  30.510  27.687  1.00  0.00     0.338 C 
ATOM     39  O   UNL A   1      36.102  31.575  28.256  1.00  0.00    -0.246 OA
BRANCH  38  40
ATOM     40  C   UNL A   1      37.364  29.545  27.941  1.00  0.00     0.060 A 
ATOM     41  C   UNL A   1      38.468  29.561  27.084  1.00  0.00     0.016 A 
ATOM     42  C   UNL A   1      37.431  28.920  29.190  1.00  0.00     0.016 A 
ATOM     43  C   UNL A   1      39.690  29.078  27.536  1.00  0.00     0.010 A 
ATOM     44  C   UNL A   1      38.656  28.559  29.684  1.00  0.00     0.010 A 
ATOM     45  C   UNL A   1      39.776  28.622  28.843  1.00  0.00    -0.014 A 
BRANCH  45  46
ATOM     46  C   UNL A   1      40.845  27.751  29.280  1.00  0.00     0.031 A 
ATOM     47  C   UNL A   1      40.937  26.351  28.849  1.00  0.00     0.074 A 
ATOM     48  C   UNL A   1      41.815  28.541  29.788  1.00  0.00     0.049 A 
ATOM     49  N   UNL A   1      41.829  25.535  29.276  1.00  0.00    -0.248 NA
ATOM     50  C   UNL A   1      39.994  25.688  27.947  1.00  0.00     0.031 C 
ATOM     51  C   UNL A   1      43.254  28.420  29.862  1.00  0.00     0.029 A 
ATOM     52  N   UNL A   1      41.548  29.708  30.514  1.00  0.00    -0.354 N 
ATOM     53  C   UNL A   1      41.854  24.469  28.396  1.00  0.00     0.074 A 
ATOM     54  C   UNL A   1      40.586  24.508  27.725  1.00  0.00     0.031 C 
ATOM     55  C   UNL A   1      43.699  29.273  30.811  1.00  0.00     0.029 A 
ATOM     56  C   UNL A   1      42.526  29.816  31.492  1.00  0.00     0.049 A 
ATOM     57  H   UNL A   1      40.806  30.335  30.360  1.00  0.00     0.167 HD
ATOM     58  C   UNL A   1      43.045  23.837  28.201  1.00  0.00     0.034 A 
ATOM     59  C   UNL A   1      42.132  29.499  32.765  1.00  0.00     0.034 A 
ATOM     60  C   UNL A   1      44.050  24.438  29.074  1.00  0.00     0.049 A 
ATOM     61  C   UNL A   1      42.779  28.205  33.224  1.00  0.00     0.074 A 
ATOM     62  C   UNL A   1      45.026  25.400  28.882  1.00  0.00     0.029 A 
ATOM     63  N   UNL A   1      43.860  24.344  30.436  1.00  0.00    -0.354 N 
ATOM     64  N   UNL A   1      43.172  27.240  32.432  1.00  0.00    -0.248 NA
ATOM     65  C   UNL A   1      43.061  27.924  34.623  1.00  0.00     0.031 C 
ATOM     66  C   UNL A   1      45.396  25.901  30.166  1.00  0.00     0.029 A 
ATOM     67  C   UNL A   1      44.637  25.247  31.121  1.00  0.00     0.049 A 
ATOM     68  H   UNL A   1      43.242  23.708  30.866  1.00  0.00     0.167 HD
ATOM     69  C   UNL A   1      43.857  26.295  33.154  1.00  0.00     0.074 A 
ATOM     70  C   UNL A   1      43.666  26.726  34.534  1.00  0.00     0.031 C 
ATOM     71  C   UNL A   1      44.546  25.260  32.569  1.00  0.00     0.034 A 
BRANCH  58  72
ATOM     72  C   UNL A   1      43.424  22.902  27.077  1.00  0.00     0.023 A 
ATOM     73  C   UNL A   1      42.861  21.607  27.097  1.00  0.00     0.031 A 
ATOM     74  C   UNL A   1      44.292  23.165  26.002  1.00  0.00     0.131 A 
ATOM     75  C   UNL A   1      43.196  20.631  26.147  1.00  0.00     0.055 A 
ATOM     76  C   UNL A   1      44.637  22.185  25.053  1.00  0.00     0.041 A 
ATOM     77  F   UNL A   1      44.819  24.377  25.798  1.00  0.00    -0.206 F 
ATOM     78  C   UNL A   1      44.094  20.908  25.125  1.00  0.00     0.022 A 
BRANCH  75  79
ATOM     79  S   UNL A   1      42.435  18.993  26.295  1.00  0.00     0.124 S 
ATOM     80  O   UNL A   1      41.082  19.242  25.808  1.00  0.00    -0.237 OA
ATOM     81  O   UNL A   1      43.288  18.176  25.440  1.00  0.00    -0.237 OA
ATOM     82  O   UNL A   1      42.533  18.702  27.725  1.00  0.00    -0.744 OA
ENDBRANCH  75  79
ENDBRANCH  58  72
BRANCH  59  83
ATOM     83  C   UNL A   1      40.718  29.940  33.089  1.00  0.00     0.023 A 
ATOM     84  C   UNL A   1      40.455  31.332  33.169  1.00  0.00     0.031 A 
ATOM     85  C   UNL A   1      39.603  29.094  32.990  1.00  0.00     0.131 A 
ATOM     86  C   UNL A   1      39.154  31.836  32.998  1.00  0.00     0.055 A 
ATOM     87  C   UNL A   1      38.292  29.601  32.902  1.00  0.00     0.041 A 
ATOM     88  F   UNL A   1      39.753  27.768  32.872  1.00  0.00    -0.206 F 
ATOM     89  C   UNL A   1      38.064  30.977  32.872  1.00  0.00     0.022 A 
BRANCH  86  90
ATOM     90  S   UNL A   1      38.950  33.612  32.637  1.00  0.00     0.124 S 
ATOM     91  O   UNL A   1      37.981  33.594  31.549  1.00  0.00    -0.237 OA
ATOM     92  O   UNL A   1      38.473  34.137  33.915  1.00  0.00    -0.237 OA
ATOM     93  O   UNL A   1      40.301  34.032  32.270  1.00  0.00    -0.744 OA
ENDBRANCH  86  90
ENDBRANCH  59  83
BRANCH  71  94
ATOM     94  C   UNL A   1      45.196  24.115  33.310  1.00  0.00     0.023 A 
ATOM     95  C   UNL A   1      46.546  24.127  33.649  1.00  0.00     0.031 A 
ATOM     96  C   UNL A   1      44.479  22.952  33.703  1.00  0.00     0.131 A 
ATOM     97  C   UNL A   1      47.086  23.140  34.486  1.00  0.00     0.055 A 
ATOM     98  C   UNL A   1      45.043  21.918  34.450  1.00  0.00     0.041 A 
ATOM     99  F   UNL A   1      43.184  22.763  33.419  1.00  0.00    -0.206 F 
ATOM    100  C   UNL A   1      46.349  22.026  34.882  1.00  0.00     0.022 A 
BRANCH  97 101
ATOM    101  S   UNL A   1      48.752  23.411  35.120  1.00  0.00     0.124 S 
ATOM    102  O   UNL A   1      49.458  23.910  33.945  1.00  0.00    -0.237 OA
ATOM    103  O   UNL A   1      48.507  24.393  36.173  1.00  0.00    -0.237 OA
ATOM    104  O   UNL A   1      49.162  22.088  35.584  1.00  0.00    -0.744 OA
ENDBRANCH  97 101
ENDBRANCH  71  94
ENDBRANCH  45  46
ENDBRANCH  38  40
ENDBRANCH  37  38
ENDBRANCH  36  37
ENDBRANCH   1  36
TORSDOF 17
ENDMDL
