MODEL 1
REMARK VINA RESULT:     -12.8      0.000      0.000
REMARK SMILES O=C(OCCOC(=O)[C@@H]1CSCN1C(=O)COc1ccc(Cl)cc1Cl)c1ccc(-c2c3nc(c(-c4cc(S(=O)(=O)[O-])ccc4F)c4ccc([nH]4)c(-c4cc(S(=O)(=O)[O-])ccc4F)c4nc(c(-c5cc(S(=O)(=O)[O-])ccc5F)c5ccc2[nH]5)C=C4)C=C3)cc1
REMARK SMILES IDX 5 1 4 2 3 3 2 4 1 5 26 6 27 7 88 8 28 9 87 10 29 11 30 12
REMARK SMILES IDX 31 13 81 14 32 15 86 16 80 17 82 18 33 19 85 20 79 21 78 22
REMARK SMILES IDX 34 24 66 25 46 26 65 27 47 28 50 29 64 30 83 31 48 32 49 33
REMARK SMILES IDX 63 35 84 36 51 37 35 38 36 39 44 40 37 41 43 42 45 43 42 44
REMARK SMILES IDX 38 45 39 46 40 47 41 48 67 49 68 50 76 51 69 52 75 53 77 54
REMARK SMILES IDX 74 55 70 56 71 57 72 58 73 59 52 60 53 61 61 62 54 63 60 64
REMARK SMILES IDX 62 65 59 66 55 67 56 68 57 69 58 70 6 71 7 72 8 73 9 74
REMARK SMILES IDX 10 75 13 76 11 77 12 78 14 79 15 80 16 81 17 82 18 83 19 84
REMARK SMILES IDX 24 85 20 86 23 87 25 88 21 89 22 90
REMARK H PARENT 82 23 50 34
REMARK Flexibility Score: inf
ROOT
ATOM      1  C   UNL A   1      31.644  30.659  26.161  1.00  0.00     0.274 C 
ENDROOT
BRANCH   1   2
ATOM      2  C   UNL A   1      31.053  32.050  26.435  1.00  0.00     0.275 C 
BRANCH   2   3
ATOM      3  O   UNL A   1      32.054  33.064  26.543  1.00  0.00    -0.458 OA
BRANCH   3   4
ATOM      4  C   UNL A   1      32.780  33.351  27.643  1.00  0.00     0.338 C 
ATOM      5  O   UNL A   1      32.543  34.389  28.254  1.00  0.00    -0.246 OA
BRANCH   4   6
ATOM      6  C   UNL A   1      34.003  32.587  28.041  1.00  0.00     0.060 A 
ATOM      7  C   UNL A   1      34.234  30.786  28.327  1.00  0.00     0.016 A 
ATOM      8  C   UNL A   1      35.489  33.686  28.126  1.00  0.00     0.016 A 
ATOM      9  C   UNL A   1      35.895  30.131  28.772  1.00  0.00     0.010 A 
ATOM     10  C   UNL A   1      37.096  33.018  28.583  1.00  0.00     0.010 A 
ATOM     11  C   UNL A   1      37.313  31.282  28.961  1.00  0.00    -0.014 A 
BRANCH  11  12
ATOM     12  C   UNL A   1      38.538  30.850  29.742  1.00  0.00     0.031 A 
ATOM     13  C   UNL A   1      38.816  31.379  31.139  1.00  0.00     0.074 A 
ATOM     14  C   UNL A   1      39.290  29.841  29.274  1.00  0.00     0.049 A 
ATOM     15  N   UNL A   1      39.550  30.836  32.078  1.00  0.00    -0.248 NA
ATOM     16  C   UNL A   1      38.136  32.612  31.577  1.00  0.00     0.031 C 
ATOM     17  C   UNL A   1      39.201  29.334  27.927  1.00  0.00     0.029 A 
ATOM     18  N   UNL A   1      40.267  29.058  29.822  1.00  0.00    -0.354 N 
ATOM     19  C   UNL A   1      39.318  31.578  33.233  1.00  0.00     0.074 A 
ATOM     20  C   UNL A   1      38.389  32.626  32.880  1.00  0.00     0.031 C 
ATOM     21  C   UNL A   1      39.918  28.227  27.769  1.00  0.00     0.029 A 
ATOM     22  C   UNL A   1      40.758  28.119  28.938  1.00  0.00     0.049 A 
ATOM     23  H   UNL A   1      40.586  29.153  30.749  1.00  0.00     0.167 HD
ATOM     24  C   UNL A   1      39.859  31.410  34.465  1.00  0.00     0.034 A 
ATOM     25  C   UNL A   1      41.863  27.358  28.971  1.00  0.00     0.034 A 
ATOM     26  C   UNL A   1      40.971  30.516  34.697  1.00  0.00     0.049 A 
ATOM     27  C   UNL A   1      42.652  27.410  30.228  1.00  0.00     0.074 A 
ATOM     28  C   UNL A   1      41.720  30.341  35.845  1.00  0.00     0.029 A 
ATOM     29  N   UNL A   1      41.555  29.714  33.718  1.00  0.00    -0.354 N 
ATOM     30  N   UNL A   1      42.387  28.095  31.317  1.00  0.00    -0.248 NA
ATOM     31  C   UNL A   1      43.860  26.598  30.278  1.00  0.00     0.031 C 
ATOM     32  C   UNL A   1      42.823  29.540  35.524  1.00  0.00     0.029 A 
ATOM     33  C   UNL A   1      42.699  29.109  34.211  1.00  0.00     0.049 A 
ATOM     34  H   UNL A   1      41.204  29.595  32.806  1.00  0.00     0.167 HD
ATOM     35  C   UNL A   1      43.388  27.771  32.211  1.00  0.00     0.074 A 
ATOM     36  C   UNL A   1      44.253  26.821  31.524  1.00  0.00     0.031 C 
ATOM     37  C   UNL A   1      43.563  28.207  33.484  1.00  0.00     0.034 A 
BRANCH  24  38
ATOM     38  C   UNL A   1      39.372  32.309  35.582  1.00  0.00     0.023 A 
ATOM     39  C   UNL A   1      39.809  33.642  35.719  1.00  0.00     0.031 A 
ATOM     40  C   UNL A   1      38.471  31.817  36.542  1.00  0.00     0.131 A 
ATOM     41  C   UNL A   1      39.370  34.420  36.809  1.00  0.00     0.055 A 
ATOM     42  C   UNL A   1      37.994  32.611  37.589  1.00  0.00     0.041 A 
ATOM     43  F   UNL A   1      38.047  30.544  36.491  1.00  0.00    -0.206 F 
ATOM     44  C   UNL A   1      38.449  33.917  37.731  1.00  0.00     0.022 A 
BRANCH  41  45
ATOM     45  S   UNL A   1      40.106  36.059  37.087  1.00  0.00     0.124 S 
ATOM     46  O   UNL A   1      39.317  36.556  38.211  1.00  0.00    -0.237 OA
ATOM     47  O   UNL A   1      41.499  35.737  37.375  1.00  0.00    -0.237 OA
ATOM     48  O   UNL A   1      39.879  36.758  35.823  1.00  0.00    -0.744 OA
ENDBRANCH  41  45
ENDBRANCH  24  38
BRANCH  25  49
ATOM     49  C   UNL A   1      42.287  26.628  27.742  1.00  0.00     0.023 A 
ATOM     50  C   UNL A   1      42.051  25.260  27.583  1.00  0.00     0.031 A 
ATOM     51  C   UNL A   1      42.849  27.333  26.652  1.00  0.00     0.131 A 
ATOM     52  C   UNL A   1      42.360  24.640  26.361  1.00  0.00     0.055 A 
ATOM     53  C   UNL A   1      43.092  26.726  25.421  1.00  0.00     0.041 A 
ATOM     54  F   UNL A   1      43.089  28.652  26.745  1.00  0.00    -0.206 F 
ATOM     55  C   UNL A   1      42.852  25.367  25.272  1.00  0.00     0.022 A 
BRANCH  52  56
ATOM     56  S   UNL A   1      42.165  22.844  26.230  1.00  0.00     0.124 S 
ATOM     57  O   UNL A   1      40.724  22.687  26.384  1.00  0.00    -0.237 OA
ATOM     58  O   UNL A   1      42.703  22.580  24.900  1.00  0.00    -0.237 OA
ATOM     59  O   UNL A   1      42.970  22.334  27.339  1.00  0.00    -0.744 OA
ENDBRANCH  52  56
ENDBRANCH  25  49
BRANCH  37  60
ATOM     60  C   UNL A   1      44.729  27.606  34.207  1.00  0.00     0.023 A 
ATOM     61  C   UNL A   1      44.609  26.389  34.894  1.00  0.00     0.031 A 
ATOM     62  C   UNL A   1      45.945  28.305  34.280  1.00  0.00     0.131 A 
ATOM     63  C   UNL A   1      45.654  25.960  35.717  1.00  0.00     0.055 A 
ATOM     64  C   UNL A   1      47.018  27.819  35.019  1.00  0.00     0.041 A 
ATOM     65  F   UNL A   1      46.097  29.482  33.652  1.00  0.00    -0.206 F 
ATOM     66  C   UNL A   1      46.868  26.651  35.763  1.00  0.00     0.022 A 
BRANCH  63  67
ATOM     67  S   UNL A   1      45.331  24.593  36.859  1.00  0.00     0.124 S 
ATOM     68  O   UNL A   1      44.104  24.028  36.305  1.00  0.00    -0.237 OA
ATOM     69  O   UNL A   1      46.530  23.774  36.716  1.00  0.00    -0.237 OA
ATOM     70  O   UNL A   1      45.181  25.257  38.151  1.00  0.00    -0.744 OA
ENDBRANCH  63  67
ENDBRANCH  37  60
ENDBRANCH  11  12
ENDBRANCH   4   6
ENDBRANCH   3   4
ENDBRANCH   2   3
ENDBRANCH   1   2
BRANCH   1  71
ATOM     71  O   UNL A   1      31.016  30.035  25.025  1.00  0.00    -0.461 OA
BRANCH  71  72
ATOM     72  C   UNL A   1      31.803  29.301  24.197  1.00  0.00     0.329 C 
ATOM     73  O   UNL A   1      32.947  28.967  24.479  1.00  0.00    -0.250 OA
BRANCH  72  74
ATOM     74  C   UNL A   1      31.079  28.887  22.856  1.00  0.00     0.206 C 
ATOM     75  C   UNL A   1      29.714  29.593  22.968  1.00  0.00     0.108 C 
ATOM     76  N   UNL A   1      30.909  27.143  22.517  1.00  0.00    -0.316 N 
ATOM     77  S   UNL A   1      28.456  28.361  22.976  1.00  0.00    -0.138 SA
ATOM     78  C   UNL A   1      29.602  27.045  23.485  1.00  0.00     0.190 C 
BRANCH  76  79
ATOM     79  C   UNL A   1      32.055  25.822  21.578  1.00  0.00     0.261 C 
ATOM     80  O   UNL A   1      32.446  25.731  20.348  1.00  0.00    -0.271 OA
BRANCH  79  81
ATOM     81  C   UNL A   1      33.113  24.438  22.248  1.00  0.00     0.329 C 
BRANCH  81  82
ATOM     82  O   UNL A   1      33.285  23.705  23.443  1.00  0.00    -0.482 OA
BRANCH  82  83
ATOM     83  C   UNL A   1      34.381  22.929  23.665  1.00  0.00     0.138 A 
ATOM     84  C   UNL A   1      35.641  23.186  23.130  1.00  0.00     0.049 A 
ATOM     85  C   UNL A   1      34.226  21.860  24.565  1.00  0.00     0.084 A 
ATOM     86  C   UNL A   1      36.757  22.496  23.611  1.00  0.00     0.024 A 
ATOM     87  C   UNL A   1      35.333  21.142  25.017  1.00  0.00     0.045 A 
ATOM     88  Cl  UNL A   1      32.674  21.418  25.185  1.00  0.00    -0.080 Cl
ATOM     89  C   UNL A   1      36.600  21.495  24.567  1.00  0.00     0.042 A 
ATOM     90  Cl  UNL A   1      37.990  20.718  25.218  1.00  0.00    -0.084 Cl
ENDBRANCH  82  83
ENDBRANCH  81  82
ENDBRANCH  79  81
ENDBRANCH  76  79
ENDBRANCH  72  74
ENDBRANCH  71  72
ENDBRANCH   1  71
TORSDOF 18
ENDMDL
MODEL 2
REMARK VINA RESULT:     -12.5      1.927      2.347
REMARK SMILES O=C(OCCOC(=O)[C@@H]1CSCN1C(=O)COc1ccc(Cl)cc1Cl)c1ccc(-c2c3nc(c(-c4cc(S(=O)(=O)[O-])ccc4F)c4ccc([nH]4)c(-c4cc(S(=O)(=O)[O-])ccc4F)c4nc(c(-c5cc(S(=O)(=O)[O-])ccc5F)c5ccc2[nH]5)C=C4)C=C3)cc1
REMARK SMILES IDX 5 1 4 2 3 3 2 4 1 5 26 6 27 7 88 8 28 9 87 10 29 11 30 12
REMARK SMILES IDX 31 13 81 14 32 15 86 16 80 17 82 18 33 19 85 20 79 21 78 22
REMARK SMILES IDX 34 24 66 25 46 26 65 27 47 28 50 29 64 30 83 31 48 32 49 33
REMARK SMILES IDX 63 35 84 36 51 37 35 38 36 39 44 40 37 41 43 42 45 43 42 44
REMARK SMILES IDX 38 45 39 46 40 47 41 48 67 49 68 50 76 51 69 52 75 53 77 54
REMARK SMILES IDX 74 55 70 56 71 57 72 58 73 59 52 60 53 61 61 62 54 63 60 64
REMARK SMILES IDX 62 65 59 66 55 67 56 68 57 69 58 70 6 71 7 72 8 73 9 74
REMARK SMILES IDX 10 75 13 76 11 77 12 78 14 79 15 80 16 81 17 82 18 83 19 84
REMARK SMILES IDX 24 85 20 86 23 87 25 88 21 89 22 90
REMARK H PARENT 82 23 50 34
REMARK Flexibility Score: inf
ROOT
ATOM      1  C   UNL A   1      31.546  30.830  26.089  1.00  0.00     0.274 C 
ENDROOT
BRANCH   1   2
ATOM      2  C   UNL A   1      31.017  32.232  26.427  1.00  0.00     0.275 C 
BRANCH   2   3
ATOM      3  O   UNL A   1      32.061  33.199  26.563  1.00  0.00    -0.458 OA
BRANCH   3   4
ATOM      4  C   UNL A   1      32.776  33.445  27.680  1.00  0.00     0.338 C 
ATOM      5  O   UNL A   1      32.538  34.465  28.322  1.00  0.00    -0.246 OA
BRANCH   4   6
ATOM      6  C   UNL A   1      33.988  32.661  28.069  1.00  0.00     0.060 A 
ATOM      7  C   UNL A   1      34.200  30.852  28.315  1.00  0.00     0.016 A 
ATOM      8  C   UNL A   1      35.484  33.742  28.188  1.00  0.00     0.016 A 
ATOM      9  C   UNL A   1      35.852  30.170  28.756  1.00  0.00     0.010 A 
ATOM     10  C   UNL A   1      37.082  33.049  28.639  1.00  0.00     0.010 A 
ATOM     11  C   UNL A   1      37.279  31.303  28.980  1.00  0.00    -0.014 A 
BRANCH  11  12
ATOM     12  C   UNL A   1      38.495  30.841  29.758  1.00  0.00     0.031 A 
ATOM     13  C   UNL A   1      38.773  31.341  31.165  1.00  0.00     0.074 A 
ATOM     14  C   UNL A   1      39.237  29.831  29.275  1.00  0.00     0.049 A 
ATOM     15  N   UNL A   1      39.495  30.771  32.098  1.00  0.00    -0.248 NA
ATOM     16  C   UNL A   1      38.106  32.574  31.623  1.00  0.00     0.031 C 
ATOM     17  C   UNL A   1      39.148  29.350  27.918  1.00  0.00     0.029 A 
ATOM     18  N   UNL A   1      40.201  29.026  29.813  1.00  0.00    -0.354 N 
ATOM     19  C   UNL A   1      39.268  31.496  33.265  1.00  0.00     0.074 A 
ATOM     20  C   UNL A   1      38.354  32.561  32.928  1.00  0.00     0.031 C 
ATOM     21  C   UNL A   1      39.852  28.237  27.744  1.00  0.00     0.029 A 
ATOM     22  C   UNL A   1      40.684  28.097  28.914  1.00  0.00     0.049 A 
ATOM     23  H   UNL A   1      40.517  29.100  30.743  1.00  0.00     0.167 HD
ATOM     24  C   UNL A   1      39.800  31.298  34.497  1.00  0.00     0.034 A 
ATOM     25  C   UNL A   1      41.780  27.321  28.939  1.00  0.00     0.034 A 
ATOM     26  C   UNL A   1      40.900  30.386  34.717  1.00  0.00     0.049 A 
ATOM     27  C   UNL A   1      42.563  27.341  30.200  1.00  0.00     0.074 A 
ATOM     28  C   UNL A   1      41.642  30.181  35.866  1.00  0.00     0.029 A 
ATOM     29  N   UNL A   1      41.478  29.595  33.726  1.00  0.00    -0.354 N 
ATOM     30  N   UNL A   1      42.301  28.009  31.300  1.00  0.00    -0.248 NA
ATOM     31  C   UNL A   1      43.761  26.512  30.241  1.00  0.00     0.031 C 
ATOM     32  C   UNL A   1      42.736  29.372  35.535  1.00  0.00     0.029 A 
ATOM     33  C   UNL A   1      42.612  28.967  34.214  1.00  0.00     0.049 A 
ATOM     34  H   UNL A   1      41.130  29.497  32.811  1.00  0.00     0.167 HD
ATOM     35  C   UNL A   1      43.294  27.656  32.193  1.00  0.00     0.074 A 
ATOM     36  C   UNL A   1      44.150  26.708  31.493  1.00  0.00     0.031 C 
ATOM     37  C   UNL A   1      43.468  28.067  33.475  1.00  0.00     0.034 A 
BRANCH  24  38
ATOM     38  C   UNL A   1      39.320  32.183  35.627  1.00  0.00     0.023 A 
ATOM     39  C   UNL A   1      39.785  33.502  35.800  1.00  0.00     0.031 A 
ATOM     40  C   UNL A   1      38.395  31.690  36.565  1.00  0.00     0.131 A 
ATOM     41  C   UNL A   1      39.349  34.265  36.902  1.00  0.00     0.055 A 
ATOM     42  C   UNL A   1      37.923  32.471  37.624  1.00  0.00     0.041 A 
ATOM     43  F   UNL A   1      37.944  30.429  36.480  1.00  0.00    -0.206 F 
ATOM     44  C   UNL A   1      38.405  33.763  37.801  1.00  0.00     0.022 A 
BRANCH  41  45
ATOM     45  S   UNL A   1      40.118  35.880  37.226  1.00  0.00     0.124 S 
ATOM     46  O   UNL A   1      39.717  36.646  36.049  1.00  0.00    -0.237 OA
ATOM     47  O   UNL A   1      39.505  36.277  38.487  1.00  0.00    -0.237 OA
ATOM     48  O   UNL A   1      41.546  35.573  37.300  1.00  0.00    -0.744 OA
ENDBRANCH  41  45
ENDBRANCH  24  38
BRANCH  25  49
ATOM     49  C   UNL A   1      42.200  26.609  27.699  1.00  0.00     0.023 A 
ATOM     50  C   UNL A   1      41.971  25.241  27.525  1.00  0.00     0.031 A 
ATOM     51  C   UNL A   1      42.751  27.330  26.614  1.00  0.00     0.131 A 
ATOM     52  C   UNL A   1      42.277  24.638  26.294  1.00  0.00     0.055 A 
ATOM     53  C   UNL A   1      42.990  26.739  25.374  1.00  0.00     0.041 A 
ATOM     54  F   UNL A   1      42.984  28.649  26.721  1.00  0.00    -0.206 F 
ATOM     55  C   UNL A   1      42.757  25.380  25.210  1.00  0.00     0.022 A 
BRANCH  52  56
ATOM     56  S   UNL A   1      42.092  22.842  26.143  1.00  0.00     0.124 S 
ATOM     57  O   UNL A   1      40.642  22.690  26.137  1.00  0.00    -0.237 OA
ATOM     58  O   UNL A   1      42.772  22.576  24.880  1.00  0.00    -0.237 OA
ATOM     59  O   UNL A   1      42.769  22.331  27.333  1.00  0.00    -0.744 OA
ENDBRANCH  52  56
ENDBRANCH  25  49
BRANCH  37  60
ATOM     60  C   UNL A   1      44.624  27.438  34.192  1.00  0.00     0.023 A 
ATOM     61  C   UNL A   1      45.897  28.025  34.171  1.00  0.00     0.031 A 
ATOM     62  C   UNL A   1      44.463  26.195  34.825  1.00  0.00     0.131 A 
ATOM     63  C   UNL A   1      46.988  27.313  34.680  1.00  0.00     0.055 A 
ATOM     64  C   UNL A   1      45.536  25.540  35.420  1.00  0.00     0.041 A 
ATOM     65  F   UNL A   1      43.265  25.590  34.853  1.00  0.00    -0.206 F 
ATOM     66  C   UNL A   1      46.813  26.088  35.329  1.00  0.00     0.022 A 
BRANCH  63  67
ATOM     67  S   UNL A   1      48.650  27.931  34.315  1.00  0.00     0.124 S 
ATOM     68  O   UNL A   1      48.943  28.716  35.510  1.00  0.00    -0.237 OA
ATOM     69  O   UNL A   1      49.416  26.699  34.159  1.00  0.00    -0.237 OA
ATOM     70  O   UNL A   1      48.464  28.707  33.091  1.00  0.00    -0.744 OA
ENDBRANCH  63  67
ENDBRANCH  37  60
ENDBRANCH  11  12
ENDBRANCH   4   6
ENDBRANCH   3   4
ENDBRANCH   2   3
ENDBRANCH   1   2
BRANCH   1  71
ATOM     71  O   UNL A   1      30.911  30.299  24.911  1.00  0.00    -0.461 OA
BRANCH  71  72
ATOM     72  C   UNL A   1      31.688  29.619  24.030  1.00  0.00     0.329 C 
ATOM     73  O   UNL A   1      32.846  29.294  24.267  1.00  0.00    -0.250 OA
BRANCH  72  74
ATOM     74  C   UNL A   1      30.938  29.253  22.689  1.00  0.00     0.206 C 
ATOM     75  C   UNL A   1      29.649  30.093  22.775  1.00  0.00     0.108 C 
ATOM     76  N   UNL A   1      30.599  27.529  22.379  1.00  0.00    -0.316 N 
ATOM     77  S   UNL A   1      28.275  28.993  22.793  1.00  0.00    -0.138 SA
ATOM     78  C   UNL A   1      29.280  27.579  23.336  1.00  0.00     0.190 C 
BRANCH  76  79
ATOM     79  C   UNL A   1      31.616  26.084  21.476  1.00  0.00     0.261 C 
ATOM     80  O   UNL A   1      31.760  25.773  20.228  1.00  0.00    -0.271 OA
BRANCH  79  81
ATOM     81  C   UNL A   1      32.870  24.876  22.149  1.00  0.00     0.329 C 
BRANCH  81  82
ATOM     82  O   UNL A   1      33.394  24.460  23.392  1.00  0.00    -0.482 OA
BRANCH  82  83
ATOM     83  C   UNL A   1      33.164  25.150  24.543  1.00  0.00     0.138 A 
ATOM     84  C   UNL A   1      34.074  26.032  25.120  1.00  0.00     0.049 A 
ATOM     85  C   UNL A   1      31.886  25.014  25.115  1.00  0.00     0.084 A 
ATOM     86  C   UNL A   1      33.662  26.885  26.148  1.00  0.00     0.024 A 
ATOM     87  C   UNL A   1      31.486  25.837  26.168  1.00  0.00     0.045 A 
ATOM     88  Cl  UNL A   1      30.745  23.863  24.515  1.00  0.00    -0.080 Cl
ATOM     89  C   UNL A   1      32.365  26.799  26.649  1.00  0.00     0.042 A 
ATOM     90  Cl  UNL A   1      31.844  27.916  27.849  1.00  0.00    -0.084 Cl
ENDBRANCH  82  83
ENDBRANCH  81  82
ENDBRANCH  79  81
ENDBRANCH  76  79
ENDBRANCH  72  74
ENDBRANCH  71  72
ENDBRANCH   1  71
TORSDOF 18
ENDMDL
MODEL 3
REMARK VINA RESULT:     -12.5      5.290     10.806
REMARK SMILES O=C(OCCOC(=O)[C@@H]1CSCN1C(=O)COc1ccc(Cl)cc1Cl)c1ccc(-c2c3nc(c(-c4cc(S(=O)(=O)[O-])ccc4F)c4ccc([nH]4)c(-c4cc(S(=O)(=O)[O-])ccc4F)c4nc(c(-c5cc(S(=O)(=O)[O-])ccc5F)c5ccc2[nH]5)C=C4)C=C3)cc1
REMARK SMILES IDX 5 1 4 2 3 3 2 4 1 5 26 6 27 7 88 8 28 9 87 10 29 11 30 12
REMARK SMILES IDX 31 13 81 14 32 15 86 16 80 17 82 18 33 19 85 20 79 21 78 22
REMARK SMILES IDX 34 24 66 25 46 26 65 27 47 28 50 29 64 30 83 31 48 32 49 33
REMARK SMILES IDX 63 35 84 36 51 37 35 38 36 39 44 40 37 41 43 42 45 43 42 44
REMARK SMILES IDX 38 45 39 46 40 47 41 48 67 49 68 50 76 51 69 52 75 53 77 54
REMARK SMILES IDX 74 55 70 56 71 57 72 58 73 59 52 60 53 61 61 62 54 63 60 64
REMARK SMILES IDX 62 65 59 66 55 67 56 68 57 69 58 70 6 71 7 72 8 73 9 74
REMARK SMILES IDX 10 75 13 76 11 77 12 78 14 79 15 80 16 81 17 82 18 83 19 84
REMARK SMILES IDX 24 85 20 86 23 87 25 88 21 89 22 90
REMARK H PARENT 82 23 50 34
REMARK Flexibility Score: inf
ROOT
ATOM      1  C   UNL A   1      36.716  21.246  24.965  1.00  0.00     0.274 C 
ENDROOT
BRANCH   1   2
ATOM      2  C   UNL A   1      37.832  20.247  24.626  1.00  0.00     0.275 C 
BRANCH   2   3
ATOM      3  O   UNL A   1      38.622  19.892  25.763  1.00  0.00    -0.458 OA
BRANCH   3   4
ATOM      4  C   UNL A   1      39.829  20.402  26.082  1.00  0.00     0.338 C 
ATOM      5  O   UNL A   1      40.788  19.640  26.171  1.00  0.00    -0.246 OA
BRANCH   4   6
ATOM      6  C   UNL A   1      40.029  21.809  26.547  1.00  0.00     0.060 A 
ATOM      7  C   UNL A   1      39.137  23.347  26.082  1.00  0.00     0.016 A 
ATOM      8  C   UNL A   1      41.314  21.907  27.874  1.00  0.00     0.016 A 
ATOM      9  C   UNL A   1      39.592  24.948  26.870  1.00  0.00     0.010 A 
ATOM     10  C   UNL A   1      41.749  23.490  28.612  1.00  0.00     0.010 A 
ATOM     11  C   UNL A   1      40.957  25.010  28.096  1.00  0.00    -0.014 A 
BRANCH  11  12
ATOM     12  C   UNL A   1      41.632  26.330  28.409  1.00  0.00     0.031 A 
ATOM     13  C   UNL A   1      43.055  26.619  27.963  1.00  0.00     0.074 A 
ATOM     14  C   UNL A   1      40.901  27.334  28.920  1.00  0.00     0.049 A 
ATOM     15  N   UNL A   1      43.625  27.784  27.782  1.00  0.00    -0.248 NA
ATOM     16  C   UNL A   1      43.925  25.486  27.594  1.00  0.00     0.031 C 
ATOM     17  C   UNL A   1      39.585  27.160  29.484  1.00  0.00     0.029 A 
ATOM     18  N   UNL A   1      41.115  28.675  29.073  1.00  0.00    -0.354 N 
ATOM     19  C   UNL A   1      44.849  27.529  27.168  1.00  0.00     0.074 A 
ATOM     20  C   UNL A   1      44.955  26.097  27.020  1.00  0.00     0.031 C 
ATOM     21  C   UNL A   1      39.008  28.325  29.756  1.00  0.00     0.029 A 
ATOM     22  C   UNL A   1      40.045  29.323  29.657  1.00  0.00     0.049 A 
ATOM     23  H   UNL A   1      41.943  29.131  28.796  1.00  0.00     0.167 HD
ATOM     24  C   UNL A   1      45.803  28.416  26.791  1.00  0.00     0.034 A 
ATOM     25  C   UNL A   1      39.939  30.539  30.215  1.00  0.00     0.034 A 
ATOM     26  C   UNL A   1      45.761  29.803  27.196  1.00  0.00     0.049 A 
ATOM     27  C   UNL A   1      41.125  31.424  30.079  1.00  0.00     0.074 A 
ATOM     28  C   UNL A   1      46.715  30.788  27.021  1.00  0.00     0.029 A 
ATOM     29  N   UNL A   1      44.737  30.373  27.949  1.00  0.00    -0.354 N 
ATOM     30  N   UNL A   1      42.254  31.167  29.461  1.00  0.00    -0.248 NA
ATOM     31  C   UNL A   1      41.030  32.744  30.688  1.00  0.00     0.031 C 
ATOM     32  C   UNL A   1      46.327  31.904  27.774  1.00  0.00     0.029 A 
ATOM     33  C   UNL A   1      45.072  31.666  28.315  1.00  0.00     0.049 A 
ATOM     34  H   UNL A   1      43.895  29.922  28.186  1.00  0.00     0.167 HD
ATOM     35  C   UNL A   1      43.009  32.317  29.576  1.00  0.00     0.074 A 
ATOM     36  C   UNL A   1      42.191  33.266  30.319  1.00  0.00     0.031 C 
ATOM     37  C   UNL A   1      44.254  32.566  29.096  1.00  0.00     0.034 A 
BRANCH  24  38
ATOM     38  C   UNL A   1      47.018  27.883  26.061  1.00  0.00     0.023 A 
ATOM     39  C   UNL A   1      47.197  28.054  24.674  1.00  0.00     0.031 A 
ATOM     40  C   UNL A   1      48.005  27.168  26.763  1.00  0.00     0.131 A 
ATOM     41  C   UNL A   1      48.317  27.488  24.032  1.00  0.00     0.055 A 
ATOM     42  C   UNL A   1      49.143  26.658  26.131  1.00  0.00     0.041 A 
ATOM     43  F   UNL A   1      47.874  26.936  28.078  1.00  0.00    -0.206 F 
ATOM     44  C   UNL A   1      49.301  26.811  24.758  1.00  0.00     0.022 A 
BRANCH  41  45
ATOM     45  S   UNL A   1      48.422  27.536  22.218  1.00  0.00     0.124 S 
ATOM     46  O   UNL A   1      49.596  28.380  22.007  1.00  0.00    -0.237 OA
ATOM     47  O   UNL A   1      48.575  26.129  21.871  1.00  0.00    -0.237 OA
ATOM     48  O   UNL A   1      47.153  28.141  21.815  1.00  0.00    -0.744 OA
ENDBRANCH  41  45
ENDBRANCH  24  38
BRANCH  25  49
ATOM     49  C   UNL A   1      38.729  30.873  31.020  1.00  0.00     0.023 A 
ATOM     50  C   UNL A   1      37.639  31.544  30.461  1.00  0.00     0.031 A 
ATOM     51  C   UNL A   1      38.612  30.419  32.355  1.00  0.00     0.131 A 
ATOM     52  C   UNL A   1      36.474  31.731  31.223  1.00  0.00     0.055 A 
ATOM     53  C   UNL A   1      37.430  30.549  33.083  1.00  0.00     0.041 A 
ATOM     54  F   UNL A   1      39.626  29.759  32.941  1.00  0.00    -0.206 F 
ATOM     55  C   UNL A   1      36.352  31.215  32.517  1.00  0.00     0.022 A 
BRANCH  52  56
ATOM     56  S   UNL A   1      35.129  32.717  30.517  1.00  0.00     0.124 S 
ATOM     57  O   UNL A   1      35.783  34.000  30.292  1.00  0.00    -0.237 OA
ATOM     58  O   UNL A   1      34.789  31.950  29.323  1.00  0.00    -0.237 OA
ATOM     59  O   UNL A   1      34.114  32.709  31.569  1.00  0.00    -0.744 OA
ENDBRANCH  52  56
ENDBRANCH  25  49
BRANCH  37  60
ATOM     60  C   UNL A   1      44.765  33.953  29.345  1.00  0.00     0.023 A 
ATOM     61  C   UNL A   1      44.573  34.977  28.406  1.00  0.00     0.031 A 
ATOM     62  C   UNL A   1      45.525  34.224  30.494  1.00  0.00     0.131 A 
ATOM     63  C   UNL A   1      45.231  36.198  28.581  1.00  0.00     0.055 A 
ATOM     64  C   UNL A   1      46.092  35.476  30.711  1.00  0.00     0.041 A 
ATOM     65  F   UNL A   1      45.747  33.268  31.411  1.00  0.00    -0.206 F 
ATOM     66  C   UNL A   1      45.966  36.465  29.739  1.00  0.00     0.022 A 
BRANCH  63  67
ATOM     67  S   UNL A   1      45.259  37.355  27.188  1.00  0.00     0.124 S 
ATOM     68  O   UNL A   1      45.929  38.510  27.777  1.00  0.00    -0.237 OA
ATOM     69  O   UNL A   1      46.020  36.620  26.184  1.00  0.00    -0.237 OA
ATOM     70  O   UNL A   1      43.844  37.548  26.879  1.00  0.00    -0.744 OA
ENDBRANCH  63  67
ENDBRANCH  37  60
ENDBRANCH  11  12
ENDBRANCH   4   6
ENDBRANCH   3   4
ENDBRANCH   2   3
ENDBRANCH   1   2
BRANCH   1  71
ATOM     71  O   UNL A   1      35.517  20.571  25.388  1.00  0.00    -0.461 OA
BRANCH  71  72
ATOM     72  C   UNL A   1      34.608  21.289  26.096  1.00  0.00     0.329 C 
ATOM     73  O   UNL A   1      34.898  22.290  26.741  1.00  0.00    -0.250 OA
BRANCH  72  74
ATOM     74  C   UNL A   1      33.136  20.731  25.968  1.00  0.00     0.206 C 
ATOM     75  C   UNL A   1      33.297  19.557  24.984  1.00  0.00     0.108 C 
ATOM     76  N   UNL A   1      31.865  21.872  25.452  1.00  0.00    -0.316 N 
ATOM     77  S   UNL A   1      32.333  19.902  23.551  1.00  0.00    -0.138 SA
ATOM     78  C   UNL A   1      32.283  21.687  23.888  1.00  0.00     0.190 C 
BRANCH  76  79
ATOM     79  C   UNL A   1      30.652  23.093  26.440  1.00  0.00     0.261 C 
ATOM     80  O   UNL A   1      29.995  22.958  27.547  1.00  0.00    -0.271 OA
BRANCH  79  81
ATOM     81  C   UNL A   1      30.280  24.905  26.186  1.00  0.00     0.329 C 
BRANCH  81  82
ATOM     82  O   UNL A   1      30.964  26.138  26.118  1.00  0.00    -0.482 OA
BRANCH  82  83
ATOM     83  C   UNL A   1      30.869  26.961  25.037  1.00  0.00     0.138 A 
ATOM     84  C   UNL A   1      30.329  26.580  23.811  1.00  0.00     0.049 A 
ATOM     85  C   UNL A   1      31.262  28.298  25.225  1.00  0.00     0.084 A 
ATOM     86  C   UNL A   1      30.034  27.548  22.848  1.00  0.00     0.024 A 
ATOM     87  C   UNL A   1      31.005  29.260  24.248  1.00  0.00     0.045 A 
ATOM     88  Cl  UNL A   1      32.034  28.817  26.682  1.00  0.00    -0.080 Cl
ATOM     89  C   UNL A   1      30.352  28.884  23.081  1.00  0.00     0.042 A 
ATOM     90  Cl  UNL A   1      29.900  30.077  21.927  1.00  0.00    -0.084 Cl
ENDBRANCH  82  83
ENDBRANCH  81  82
ENDBRANCH  79  81
ENDBRANCH  76  79
ENDBRANCH  72  74
ENDBRANCH  71  72
ENDBRANCH   1  71
TORSDOF 18
ENDMDL
