MODEL 1
REMARK VINA RESULT:     -12.9      0.000      0.000
REMARK SMILES C[C@@H](NC(=O)CN1C(=O)S/C(=C\c2c[nH]c3ccccc23)C1=O)C(=O)OCCOC(=O)c1ccc(-c2c3nc(c(-c4cc(S(=O)(=O)[O-])ccc4F)c4ccc([nH]4)c(-c4cc(S(=O)(=O)[O-])ccc4F)c4nc(c(-c5cc(S(=O)(=O)[O-])ccc5F)c5ccc2[nH]5)C=C4)C=C3)cc1
REMARK SMILES IDX 27 1 26 2 24 3 25 4 2 5 1 6 3 7 4 8 5 10 6 11 7 12 8 13
REMARK SMILES IDX 22 14 9 15 10 16 11 17 23 18 12 19 13 20 14 21 21 22 15 23
REMARK SMILES IDX 16 24 20 25 17 27 19 28 18 29 28 30 29 31 30 32 31 33 32 34
REMARK SMILES IDX 33 35 94 36 34 37 93 38 35 39 36 40 37 41 87 42 38 43 92 44
REMARK SMILES IDX 86 45 88 46 39 47 91 48 85 49 84 50 40 52 72 53 52 54 71 55
REMARK SMILES IDX 53 56 56 57 70 58 89 59 54 60 55 61 69 63 90 64 57 65 41 66
REMARK SMILES IDX 42 67 50 68 43 69 49 70 51 71 48 72 44 73 45 74 46 75 47 76
REMARK SMILES IDX 73 77 74 78 82 79 75 80 81 81 83 82 80 83 76 84 77 85 78 86
REMARK SMILES IDX 79 87 58 88 59 89 67 90 60 91 66 92 68 93 65 94 61 95 62 96
REMARK SMILES IDX 63 97 64 98
REMARK H PARENT 3 9 15 26 88 51 56 62
REMARK Flexibility Score: inf
ROOT
ATOM      1  C   UNL A   1      35.315  20.702  25.004  1.00  0.00     0.274 C 
ENDROOT
BRANCH   1   2
ATOM      2  O   UNL A   1      34.502  19.508  24.882  1.00  0.00    -0.461 OA
BRANCH   2   3
ATOM      3  C   UNL A   1      33.158  19.676  25.055  1.00  0.00     0.328 C 
ATOM      4  O   UNL A   1      32.385  18.753  25.292  1.00  0.00    -0.250 OA
BRANCH   3   5
ATOM      5  C   UNL A   1      32.662  21.086  24.673  1.00  0.00     0.189 C 
ATOM      6  C   UNL A   1      32.153  21.319  23.251  1.00  0.00     0.043 C 
BRANCH   5   7
ATOM      7  N   UNL A   1      31.815  21.754  25.687  1.00  0.00    -0.341 N 
ATOM      8  C   UNL A   1      32.053  22.854  26.464  1.00  0.00     0.240 C 
ATOM      9  H   UNL A   1      30.934  21.337  25.824  1.00  0.00     0.164 HD
ATOM     10  O   UNL A   1      31.526  22.917  27.579  1.00  0.00    -0.273 OA
BRANCH   8  11
ATOM     11  C   UNL A   1      32.902  24.011  25.946  1.00  0.00     0.229 C 
BRANCH  11  12
ATOM     12  N   UNL A   1      32.214  25.267  25.712  1.00  0.00    -0.259 N 
ATOM     13  C   UNL A   1      32.796  26.464  26.005  1.00  0.00     0.294 C 
ATOM     14  C   UNL A   1      31.172  25.319  24.810  1.00  0.00     0.268 C 
ATOM     15  O   UNL A   1      33.890  26.663  26.505  1.00  0.00    -0.261 OA
ATOM     16  S   UNL A   1      31.788  27.782  25.476  1.00  0.00    -0.022 SA
ATOM     17  C   UNL A   1      30.900  26.735  24.443  1.00  0.00     0.083 C 
ATOM     18  O   UNL A   1      30.632  24.364  24.270  1.00  0.00    -0.268 OA
ATOM     19  C   UNL A   1      30.263  27.083  23.315  1.00  0.00     0.031 C 
BRANCH  19  20
ATOM     20  C   UNL A   1      30.289  28.400  22.769  1.00  0.00     0.001 A 
ATOM     21  C   UNL A   1      31.259  28.904  21.934  1.00  0.00     0.091 A 
ATOM     22  C   UNL A   1      29.242  29.364  22.868  1.00  0.00     0.007 A 
ATOM     23  N   UNL A   1      30.830  30.134  21.501  1.00  0.00    -0.361 N 
ATOM     24  C   UNL A   1      29.604  30.437  22.051  1.00  0.00     0.046 A 
ATOM     25  C   UNL A   1      27.993  29.406  23.524  1.00  0.00     0.011 A 
ATOM     26  H   UNL A   1      31.329  30.716  20.885  1.00  0.00     0.166 HD
ATOM     27  C   UNL A   1      28.780  31.553  21.862  1.00  0.00     0.027 A 
ATOM     28  C   UNL A   1      27.158  30.514  23.343  1.00  0.00     0.001 A 
ATOM     29  C   UNL A   1      27.549  31.571  22.524  1.00  0.00     0.002 A 
ENDBRANCH  19  20
ENDBRANCH  11  12
ENDBRANCH   8  11
ENDBRANCH   5   7
ENDBRANCH   3   5
ENDBRANCH   2   3
ENDBRANCH   1   2
BRANCH   1  30
ATOM     30  C   UNL A   1      36.808  20.371  24.994  1.00  0.00     0.275 C 
BRANCH  30  31
ATOM     31  O   UNL A   1      37.519  21.413  25.676  1.00  0.00    -0.458 OA
BRANCH  31  32
ATOM     32  C   UNL A   1      38.785  21.068  26.016  1.00  0.00     0.338 C 
ATOM     33  O   UNL A   1      39.355  20.022  25.754  1.00  0.00    -0.246 OA
BRANCH  32  34
ATOM     34  C   UNL A   1      39.470  22.276  26.497  1.00  0.00     0.060 A 
ATOM     35  C   UNL A   1      38.951  23.502  26.073  1.00  0.00     0.016 A 
ATOM     36  C   UNL A   1      40.573  22.224  27.350  1.00  0.00     0.016 A 
ATOM     37  C   UNL A   1      39.528  24.690  26.494  1.00  0.00     0.010 A 
ATOM     38  C   UNL A   1      41.171  23.417  27.756  1.00  0.00     0.010 A 
ATOM     39  C   UNL A   1      40.658  24.650  27.316  1.00  0.00    -0.014 A 
BRANCH  39  40
ATOM     40  C   UNL A   1      41.382  25.910  27.578  1.00  0.00     0.031 A 
ATOM     41  C   UNL A   1      40.702  26.963  28.402  1.00  0.00     0.074 A 
ATOM     42  C   UNL A   1      42.644  26.064  27.145  1.00  0.00     0.049 A 
ATOM     43  N   UNL A   1      41.115  28.157  28.728  1.00  0.00    -0.248 NA
ATOM     44  C   UNL A   1      39.372  26.616  28.931  1.00  0.00     0.031 C 
ATOM     45  C   UNL A   1      43.406  25.061  26.398  1.00  0.00     0.029 A 
ATOM     46  N   UNL A   1      43.509  27.118  27.272  1.00  0.00    -0.354 N 
ATOM     47  C   UNL A   1      40.100  28.707  29.504  1.00  0.00     0.074 A 
ATOM     48  C   UNL A   1      39.036  27.728  29.564  1.00  0.00     0.031 C 
ATOM     49  C   UNL A   1      44.625  25.558  26.122  1.00  0.00     0.029 A 
ATOM     50  C   UNL A   1      44.711  26.923  26.634  1.00  0.00     0.049 A 
ATOM     51  H   UNL A   1      43.291  27.937  27.772  1.00  0.00     0.167 HD
ATOM     52  C   UNL A   1      40.070  29.916  30.114  1.00  0.00     0.034 A 
ATOM     53  C   UNL A   1      45.744  27.768  26.459  1.00  0.00     0.034 A 
ATOM     54  C   UNL A   1      41.137  30.880  30.008  1.00  0.00     0.049 A 
ATOM     55  C   UNL A   1      45.651  29.144  27.074  1.00  0.00     0.074 A 
ATOM     56  C   UNL A   1      41.204  32.160  30.527  1.00  0.00     0.029 A 
ATOM     57  N   UNL A   1      42.330  30.668  29.324  1.00  0.00    -0.354 N 
ATOM     58  N   UNL A   1      44.670  29.672  27.775  1.00  0.00    -0.248 NA
ATOM     59  C   UNL A   1      46.803  30.031  26.888  1.00  0.00     0.031 C 
ATOM     60  C   UNL A   1      42.411  32.739  30.113  1.00  0.00     0.029 A 
ATOM     61  C   UNL A   1      43.130  31.795  29.395  1.00  0.00     0.049 A 
ATOM     62  H   UNL A   1      42.569  29.834  28.857  1.00  0.00     0.167 HD
ATOM     63  C   UNL A   1      45.101  30.947  28.130  1.00  0.00     0.074 A 
ATOM     64  C   UNL A   1      46.440  31.093  27.592  1.00  0.00     0.031 C 
ATOM     65  C   UNL A   1      44.457  31.914  28.833  1.00  0.00     0.034 A 
BRANCH  52  66
ATOM     66  C   UNL A   1      38.820  30.264  30.885  1.00  0.00     0.023 A 
ATOM     67  C   UNL A   1      37.791  31.036  30.313  1.00  0.00     0.031 A 
ATOM     68  C   UNL A   1      38.678  29.870  32.226  1.00  0.00     0.131 A 
ATOM     69  C   UNL A   1      36.705  31.449  31.101  1.00  0.00     0.055 A 
ATOM     70  C   UNL A   1      37.558  30.220  32.983  1.00  0.00     0.041 A 
ATOM     71  F   UNL A   1      39.639  29.158  32.835  1.00  0.00    -0.206 F 
ATOM     72  C   UNL A   1      36.570  31.026  32.425  1.00  0.00     0.022 A 
BRANCH  69  73
ATOM     73  S   UNL A   1      35.547  32.665  30.414  1.00  0.00     0.124 S 
ATOM     74  O   UNL A   1      34.363  32.443  31.241  1.00  0.00    -0.237 OA
ATOM     75  O   UNL A   1      36.248  33.926  30.627  1.00  0.00    -0.237 OA
ATOM     76  O   UNL A   1      35.408  32.255  29.018  1.00  0.00    -0.744 OA
ENDBRANCH  69  73
ENDBRANCH  52  66
BRANCH  53  77
ATOM     77  C   UNL A   1      46.922  27.372  25.632  1.00  0.00     0.023 A 
ATOM     78  C   UNL A   1      47.074  27.819  24.311  1.00  0.00     0.031 A 
ATOM     79  C   UNL A   1      47.888  26.485  26.141  1.00  0.00     0.131 A 
ATOM     80  C   UNL A   1      48.137  27.340  23.528  1.00  0.00     0.055 A 
ATOM     81  C   UNL A   1      48.975  26.055  25.377  1.00  0.00     0.041 A 
ATOM     82  F   UNL A   1      47.792  26.022  27.399  1.00  0.00    -0.206 F 
ATOM     83  C   UNL A   1      49.095  26.472  24.056  1.00  0.00     0.022 A 
BRANCH  80  84
ATOM     84  S   UNL A   1      48.195  27.791  21.771  1.00  0.00     0.124 S 
ATOM     85  O   UNL A   1      46.905  28.446  21.589  1.00  0.00    -0.237 OA
ATOM     86  O   UNL A   1      49.368  28.657  21.722  1.00  0.00    -0.237 OA
ATOM     87  O   UNL A   1      48.344  26.504  21.094  1.00  0.00    -0.744 OA
ENDBRANCH  80  84
ENDBRANCH  53  77
BRANCH  65  88
ATOM     88  C   UNL A   1      45.220  33.191  29.079  1.00  0.00     0.023 A 
ATOM     89  C   UNL A   1      45.033  34.327  28.273  1.00  0.00     0.031 A 
ATOM     90  C   UNL A   1      46.173  33.260  30.110  1.00  0.00     0.131 A 
ATOM     91  C   UNL A   1      45.839  35.459  28.464  1.00  0.00     0.055 A 
ATOM     92  C   UNL A   1      46.926  34.411  30.339  1.00  0.00     0.041 A 
ATOM     93  F   UNL A   1      46.392  32.203  30.910  1.00  0.00    -0.206 F 
ATOM     94  C   UNL A   1      46.774  35.514  29.502  1.00  0.00     0.022 A 
BRANCH  91  95
ATOM     95  S   UNL A   1      45.733  36.814  27.264  1.00  0.00     0.124 S 
ATOM     96  O   UNL A   1      44.352  36.702  26.802  1.00  0.00    -0.237 OA
ATOM     97  O   UNL A   1      46.037  37.982  28.084  1.00  0.00    -0.237 OA
ATOM     98  O   UNL A   1      46.748  36.473  26.270  1.00  0.00    -0.744 OA
ENDBRANCH  91  95
ENDBRANCH  65  88
ENDBRANCH  39  40
ENDBRANCH  32  34
ENDBRANCH  31  32
ENDBRANCH  30  31
ENDBRANCH   1  30
TORSDOF 18
ENDMDL
MODEL 2
REMARK VINA RESULT:     -12.7      4.821     10.286
REMARK SMILES C[C@@H](NC(=O)CN1C(=O)S/C(=C\c2c[nH]c3ccccc23)C1=O)C(=O)OCCOC(=O)c1ccc(-c2c3nc(c(-c4cc(S(=O)(=O)[O-])ccc4F)c4ccc([nH]4)c(-c4cc(S(=O)(=O)[O-])ccc4F)c4nc(c(-c5cc(S(=O)(=O)[O-])ccc5F)c5ccc2[nH]5)C=C4)C=C3)cc1
REMARK SMILES IDX 27 1 26 2 24 3 25 4 2 5 1 6 3 7 4 8 5 10 6 11 7 12 8 13
REMARK SMILES IDX 22 14 9 15 10 16 11 17 23 18 12 19 13 20 14 21 21 22 15 23
REMARK SMILES IDX 16 24 20 25 17 27 19 28 18 29 28 30 29 31 30 32 31 33 32 34
REMARK SMILES IDX 33 35 94 36 34 37 93 38 35 39 36 40 37 41 87 42 38 43 92 44
REMARK SMILES IDX 86 45 88 46 39 47 91 48 85 49 84 50 40 52 72 53 52 54 71 55
REMARK SMILES IDX 53 56 56 57 70 58 89 59 54 60 55 61 69 63 90 64 57 65 41 66
REMARK SMILES IDX 42 67 50 68 43 69 49 70 51 71 48 72 44 73 45 74 46 75 47 76
REMARK SMILES IDX 73 77 74 78 82 79 75 80 81 81 83 82 80 83 76 84 77 85 78 86
REMARK SMILES IDX 79 87 58 88 59 89 67 90 60 91 66 92 68 93 65 94 61 95 62 96
REMARK SMILES IDX 63 97 64 98
REMARK H PARENT 3 9 15 26 88 51 56 62
REMARK Flexibility Score: inf
ROOT
ATOM      1  C   UNL A   1      31.331  29.685  24.627  1.00  0.00     0.274 C 
ENDROOT
BRANCH   1   2
ATOM      2  O   UNL A   1      31.414  29.220  23.256  1.00  0.00    -0.461 OA
BRANCH   2   3
ATOM      3  C   UNL A   1      30.236  29.172  22.567  1.00  0.00     0.328 C 
ATOM      4  O   UNL A   1      30.067  29.705  21.475  1.00  0.00    -0.250 OA
BRANCH   3   5
ATOM      5  C   UNL A   1      29.062  28.612  23.397  1.00  0.00     0.189 C 
ATOM      6  C   UNL A   1      27.694  29.280  23.270  1.00  0.00     0.043 C 
BRANCH   5   7
ATOM      7  N   UNL A   1      28.961  27.135  23.432  1.00  0.00    -0.341 N 
ATOM      8  C   UNL A   1      29.764  26.199  24.024  1.00  0.00     0.240 C 
ATOM      9  H   UNL A   1      28.188  26.765  22.948  1.00  0.00     0.164 HD
ATOM     10  O   UNL A   1      29.858  25.085  23.503  1.00  0.00    -0.273 OA
BRANCH   8  11
ATOM     11  C   UNL A   1      30.482  26.500  25.336  1.00  0.00     0.229 C 
BRANCH  11  12
ATOM     12  N   UNL A   1      31.465  25.528  25.776  1.00  0.00    -0.259 N 
ATOM     13  C   UNL A   1      31.107  24.427  26.497  1.00  0.00     0.294 C 
ATOM     14  C   UNL A   1      32.682  25.446  25.133  1.00  0.00     0.268 C 
ATOM     15  O   UNL A   1      29.995  24.118  26.890  1.00  0.00    -0.261 OA
ATOM     16  S   UNL A   1      32.479  23.383  26.743  1.00  0.00    -0.022 SA
ATOM     17  C   UNL A   1      33.340  24.156  25.474  1.00  0.00     0.083 C 
ATOM     18  O   UNL A   1      33.114  26.226  24.296  1.00  0.00    -0.268 OA
ATOM     19  C   UNL A   1      34.296  23.604  24.710  1.00  0.00     0.031 C 
BRANCH  19  20
ATOM     20  C   UNL A   1      34.696  22.239  24.811  1.00  0.00     0.001 A 
ATOM     21  C   UNL A   1      35.789  21.772  25.504  1.00  0.00     0.091 A 
ATOM     22  C   UNL A   1      33.951  21.115  24.344  1.00  0.00     0.007 A 
ATOM     23  N   UNL A   1      35.725  20.402  25.496  1.00  0.00    -0.361 N 
ATOM     24  C   UNL A   1      34.615  19.975  24.801  1.00  0.00     0.046 A 
ATOM     25  C   UNL A   1      32.745  20.954  23.630  1.00  0.00     0.011 A 
ATOM     26  H   UNL A   1      36.380  19.807  25.927  1.00  0.00     0.166 HD
ATOM     27  C   UNL A   1      34.135  18.680  24.573  1.00  0.00     0.027 A 
ATOM     28  C   UNL A   1      32.251  19.666  23.396  1.00  0.00     0.001 A 
ATOM     29  C   UNL A   1      32.938  18.547  23.861  1.00  0.00     0.002 A 
ENDBRANCH  19  20
ENDBRANCH  11  12
ENDBRANCH   8  11
ENDBRANCH   5   7
ENDBRANCH   3   5
ENDBRANCH   2   3
ENDBRANCH   1   2
BRANCH   1  30
ATOM     30  C   UNL A   1      32.712  29.761  25.280  1.00  0.00     0.275 C 
BRANCH  30  31
ATOM     31  O   UNL A   1      32.549  30.014  26.682  1.00  0.00    -0.458 OA
BRANCH  31  32
ATOM     32  C   UNL A   1      33.029  31.220  27.071  1.00  0.00     0.338 C 
ATOM     33  O   UNL A   1      32.409  32.269  27.136  1.00  0.00    -0.246 OA
BRANCH  32  34
ATOM     34  C   UNL A   1      34.345  31.006  27.689  1.00  0.00     0.060 A 
ATOM     35  C   UNL A   1      34.662  29.695  28.053  1.00  0.00     0.016 A 
ATOM     36  C   UNL A   1      35.256  32.044  27.892  1.00  0.00     0.016 A 
ATOM     37  C   UNL A   1      35.889  29.405  28.627  1.00  0.00     0.010 A 
ATOM     38  C   UNL A   1      36.483  31.758  28.491  1.00  0.00     0.010 A 
ATOM     39  C   UNL A   1      36.794  30.442  28.873  1.00  0.00    -0.014 A 
BRANCH  39  40
ATOM     40  C   UNL A   1      37.999  30.148  29.674  1.00  0.00     0.031 A 
ATOM     41  C   UNL A   1      39.022  29.211  29.102  1.00  0.00     0.074 A 
ATOM     42  C   UNL A   1      38.195  30.769  30.849  1.00  0.00     0.049 A 
ATOM     43  N   UNL A   1      40.132  28.772  29.630  1.00  0.00    -0.248 NA
ATOM     44  C   UNL A   1      38.753  28.704  27.746  1.00  0.00     0.031 C 
ATOM     45  C   UNL A   1      37.285  31.748  31.445  1.00  0.00     0.029 A 
ATOM     46  N   UNL A   1      39.221  30.671  31.750  1.00  0.00    -0.354 N 
ATOM     47  C   UNL A   1      40.699  27.938  28.672  1.00  0.00     0.074 A 
ATOM     48  C   UNL A   1      39.788  27.904  27.548  1.00  0.00     0.031 C 
ATOM     49  C   UNL A   1      37.791  32.152  32.624  1.00  0.00     0.029 A 
ATOM     50  C   UNL A   1      39.033  31.429  32.882  1.00  0.00     0.049 A 
ATOM     51  H   UNL A   1      40.017  30.111  31.602  1.00  0.00     0.167 HD
ATOM     52  C   UNL A   1      41.877  27.271  28.729  1.00  0.00     0.034 A 
ATOM     53  C   UNL A   1      39.770  31.500  34.007  1.00  0.00     0.034 A 
ATOM     54  C   UNL A   1      42.747  27.304  29.879  1.00  0.00     0.049 A 
ATOM     55  C   UNL A   1      41.034  30.679  34.084  1.00  0.00     0.074 A 
ATOM     56  C   UNL A   1      43.936  26.629  30.086  1.00  0.00     0.029 A 
ATOM     57  N   UNL A   1      42.513  28.054  31.026  1.00  0.00    -0.354 N 
ATOM     58  N   UNL A   1      41.545  29.861  33.187  1.00  0.00    -0.248 NA
ATOM     59  C   UNL A   1      41.827  30.798  35.311  1.00  0.00     0.031 C 
ATOM     60  C   UNL A   1      44.391  26.928  31.377  1.00  0.00     0.029 A 
ATOM     61  C   UNL A   1      43.524  27.847  31.949  1.00  0.00     0.049 A 
ATOM     62  H   UNL A   1      41.738  28.648  31.162  1.00  0.00     0.167 HD
ATOM     63  C   UNL A   1      42.732  29.387  33.740  1.00  0.00     0.074 A 
ATOM     64  C   UNL A   1      42.872  30.034  35.030  1.00  0.00     0.031 C 
ATOM     65  C   UNL A   1      43.627  28.497  33.236  1.00  0.00     0.034 A 
BRANCH  52  66
ATOM     66  C   UNL A   1      42.238  26.416  27.540  1.00  0.00     0.023 A 
ATOM     67  C   UNL A   1      41.826  25.073  27.444  1.00  0.00     0.031 A 
ATOM     68  C   UNL A   1      43.055  26.927  26.517  1.00  0.00     0.131 A 
ATOM     69  C   UNL A   1      42.290  24.271  26.390  1.00  0.00     0.055 A 
ATOM     70  C   UNL A   1      43.450  26.145  25.429  1.00  0.00     0.041 A 
ATOM     71  F   UNL A   1      43.504  28.190  26.568  1.00  0.00    -0.206 F 
ATOM     72  C   UNL A   1      43.080  24.805  25.368  1.00  0.00     0.022 A 
BRANCH  69  73
ATOM     73  S   UNL A   1      41.966  22.487  26.448  1.00  0.00     0.124 S 
ATOM     74  O   UNL A   1      40.508  22.450  26.366  1.00  0.00    -0.237 OA
ATOM     75  O   UNL A   1      42.684  21.997  25.277  1.00  0.00    -0.237 OA
ATOM     76  O   UNL A   1      42.521  22.079  27.737  1.00  0.00    -0.744 OA
ENDBRANCH  69  73
ENDBRANCH  52  66
BRANCH  53  77
ATOM     77  C   UNL A   1      39.314  32.324  35.165  1.00  0.00     0.023 A 
ATOM     78  C   UNL A   1      39.743  33.649  35.336  1.00  0.00     0.031 A 
ATOM     79  C   UNL A   1      38.482  31.770  36.154  1.00  0.00     0.131 A 
ATOM     80  C   UNL A   1      39.380  34.358  36.493  1.00  0.00     0.055 A 
ATOM     81  C   UNL A   1      38.077  32.497  37.274  1.00  0.00     0.041 A 
ATOM     82  F   UNL A   1      38.042  30.505  36.044  1.00  0.00    -0.206 F 
ATOM     83  C   UNL A   1      38.541  33.796  37.456  1.00  0.00     0.022 A 
BRANCH  80  84
ATOM     84  S   UNL A   1      40.106  35.998  36.771  1.00  0.00     0.124 S 
ATOM     85  O   UNL A   1      41.517  35.673  36.949  1.00  0.00    -0.237 OA
ATOM     86  O   UNL A   1      39.759  36.694  35.536  1.00  0.00    -0.237 OA
ATOM     87  O   UNL A   1      39.419  36.476  37.968  1.00  0.00    -0.744 OA
ENDBRANCH  80  84
ENDBRANCH  53  77
BRANCH  65  88
ATOM     88  C   UNL A   1      44.844  28.214  34.080  1.00  0.00     0.023 A 
ATOM     89  C   UNL A   1      44.853  27.184  35.035  1.00  0.00     0.031 A 
ATOM     90  C   UNL A   1      45.996  29.009  33.951  1.00  0.00     0.131 A 
ATOM     91  C   UNL A   1      45.965  27.022  35.876  1.00  0.00     0.055 A 
ATOM     92  C   UNL A   1      47.125  28.801  34.743  1.00  0.00     0.041 A 
ATOM     93  F   UNL A   1      46.041  30.008  33.053  1.00  0.00    -0.206 F 
ATOM     94  C   UNL A   1      47.106  27.814  35.726  1.00  0.00     0.022 A 
BRANCH  91  95
ATOM     95  S   UNL A   1      45.852  25.840  37.246  1.00  0.00     0.124 S 
ATOM     96  O   UNL A   1      47.119  25.124  37.134  1.00  0.00    -0.237 OA
ATOM     97  O   UNL A   1      45.716  26.718  38.404  1.00  0.00    -0.237 OA
ATOM     98  O   UNL A   1      44.664  25.053  36.924  1.00  0.00    -0.744 OA
ENDBRANCH  91  95
ENDBRANCH  65  88
ENDBRANCH  39  40
ENDBRANCH  32  34
ENDBRANCH  31  32
ENDBRANCH  30  31
ENDBRANCH   1  30
TORSDOF 18
ENDMDL
MODEL 3
REMARK VINA RESULT:     -12.6      1.910      7.589
REMARK SMILES C[C@@H](NC(=O)CN1C(=O)S/C(=C\c2c[nH]c3ccccc23)C1=O)C(=O)OCCOC(=O)c1ccc(-c2c3nc(c(-c4cc(S(=O)(=O)[O-])ccc4F)c4ccc([nH]4)c(-c4cc(S(=O)(=O)[O-])ccc4F)c4nc(c(-c5cc(S(=O)(=O)[O-])ccc5F)c5ccc2[nH]5)C=C4)C=C3)cc1
REMARK SMILES IDX 27 1 26 2 24 3 25 4 2 5 1 6 3 7 4 8 5 10 6 11 7 12 8 13
REMARK SMILES IDX 22 14 9 15 10 16 11 17 23 18 12 19 13 20 14 21 21 22 15 23
REMARK SMILES IDX 16 24 20 25 17 27 19 28 18 29 28 30 29 31 30 32 31 33 32 34
REMARK SMILES IDX 33 35 94 36 34 37 93 38 35 39 36 40 37 41 87 42 38 43 92 44
REMARK SMILES IDX 86 45 88 46 39 47 91 48 85 49 84 50 40 52 72 53 52 54 71 55
REMARK SMILES IDX 53 56 56 57 70 58 89 59 54 60 55 61 69 63 90 64 57 65 41 66
REMARK SMILES IDX 42 67 50 68 43 69 49 70 51 71 48 72 44 73 45 74 46 75 47 76
REMARK SMILES IDX 73 77 74 78 82 79 75 80 81 81 83 82 80 83 76 84 77 85 78 86
REMARK SMILES IDX 79 87 58 88 59 89 67 90 60 91 66 92 68 93 65 94 61 95 62 96
REMARK SMILES IDX 63 97 64 98
REMARK H PARENT 3 9 15 26 88 51 56 62
REMARK Flexibility Score: inf
ROOT
ATOM      1  C   UNL A   1      36.130  19.823  25.004  1.00  0.00     0.274 C 
ENDROOT
BRANCH   1   2
ATOM      2  O   UNL A   1      34.897  20.368  24.471  1.00  0.00    -0.461 OA
BRANCH   2   3
ATOM      3  C   UNL A   1      33.923  20.654  25.384  1.00  0.00     0.328 C 
ATOM      4  O   UNL A   1      33.061  19.851  25.729  1.00  0.00    -0.250 OA
BRANCH   3   5
ATOM      5  C   UNL A   1      33.845  22.150  25.749  1.00  0.00     0.189 C 
ATOM      6  C   UNL A   1      34.092  22.562  27.199  1.00  0.00     0.043 C 
BRANCH   5   7
ATOM      7  N   UNL A   1      34.497  23.070  24.788  1.00  0.00    -0.341 N 
ATOM      8  C   UNL A   1      34.314  23.230  23.442  1.00  0.00     0.240 C 
ATOM      9  H   UNL A   1      35.174  23.663  25.185  1.00  0.00     0.164 HD
ATOM     10  O   UNL A   1      35.272  23.592  22.754  1.00  0.00    -0.273 OA
BRANCH   8  11
ATOM     11  C   UNL A   1      32.941  23.029  22.809  1.00  0.00     0.229 C 
BRANCH  11  12
ATOM     12  N   UNL A   1      32.004  24.130  22.926  1.00  0.00    -0.259 N 
ATOM     13  C   UNL A   1      31.203  24.272  24.020  1.00  0.00     0.294 C 
ATOM     14  C   UNL A   1      32.192  25.272  22.177  1.00  0.00     0.268 C 
ATOM     15  O   UNL A   1      31.123  23.538  24.990  1.00  0.00    -0.261 OA
ATOM     16  S   UNL A   1      30.305  25.762  23.934  1.00  0.00    -0.022 SA
ATOM     17  C   UNL A   1      31.377  26.380  22.743  1.00  0.00     0.083 C 
ATOM     18  O   UNL A   1      33.004  25.422  21.274  1.00  0.00    -0.268 OA
ATOM     19  C   UNL A   1      31.652  27.674  22.517  1.00  0.00     0.031 C 
BRANCH  19  20
ATOM     20  C   UNL A   1      31.123  28.742  23.299  1.00  0.00     0.001 A 
ATOM     21  C   UNL A   1      31.728  29.309  24.397  1.00  0.00     0.091 A 
ATOM     22  C   UNL A   1      29.957  29.504  22.990  1.00  0.00     0.007 A 
ATOM     23  N   UNL A   1      30.984  30.406  24.754  1.00  0.00    -0.361 N 
ATOM     24  C   UNL A   1      29.903  30.550  23.913  1.00  0.00     0.046 A 
ATOM     25  C   UNL A   1      28.974  29.444  21.979  1.00  0.00     0.011 A 
ATOM     26  H   UNL A   1      31.194  31.005  25.506  1.00  0.00     0.166 HD
ATOM     27  C   UNL A   1      28.910  31.537  23.878  1.00  0.00     0.027 A 
ATOM     28  C   UNL A   1      27.977  30.424  21.929  1.00  0.00     0.001 A 
ATOM     29  C   UNL A   1      27.948  31.454  22.867  1.00  0.00     0.002 A 
ENDBRANCH  19  20
ENDBRANCH  11  12
ENDBRANCH   8  11
ENDBRANCH   5   7
ENDBRANCH   3   5
ENDBRANCH   2   3
ENDBRANCH   1   2
BRANCH   1  30
ATOM     30  C   UNL A   1      37.339  20.674  24.612  1.00  0.00     0.275 C 
BRANCH  30  31
ATOM     31  O   UNL A   1      37.762  21.435  25.751  1.00  0.00    -0.458 OA
BRANCH  31  32
ATOM     32  C   UNL A   1      39.039  21.180  26.125  1.00  0.00     0.338 C 
ATOM     33  O   UNL A   1      39.693  20.184  25.867  1.00  0.00    -0.246 OA
BRANCH  32  34
ATOM     34  C   UNL A   1      39.617  22.428  26.644  1.00  0.00     0.060 A 
ATOM     35  C   UNL A   1      39.053  23.619  26.181  1.00  0.00     0.016 A 
ATOM     36  C   UNL A   1      40.662  22.443  27.568  1.00  0.00     0.016 A 
ATOM     37  C   UNL A   1      39.529  24.840  26.632  1.00  0.00     0.010 A 
ATOM     38  C   UNL A   1      41.159  23.671  28.006  1.00  0.00     0.010 A 
ATOM     39  C   UNL A   1      40.603  24.870  27.527  1.00  0.00    -0.014 A 
BRANCH  39  40
ATOM     40  C   UNL A   1      41.230  26.172  27.829  1.00  0.00     0.031 A 
ATOM     41  C   UNL A   1      42.647  26.398  27.391  1.00  0.00     0.074 A 
ATOM     42  C   UNL A   1      40.513  27.145  28.416  1.00  0.00     0.049 A 
ATOM     43  N   UNL A   1      43.418  27.435  27.577  1.00  0.00    -0.248 NA
ATOM     44  C   UNL A   1      43.277  25.302  26.637  1.00  0.00     0.031 C 
ATOM     45  C   UNL A   1      39.108  27.033  28.811  1.00  0.00     0.029 A 
ATOM     46  N   UNL A   1      40.865  28.417  28.780  1.00  0.00    -0.354 N 
ATOM     47  C   UNL A   1      44.625  27.120  26.961  1.00  0.00     0.074 A 
ATOM     48  C   UNL A   1      44.493  25.780  26.432  1.00  0.00     0.031 C 
ATOM     49  C   UNL A   1      38.721  28.190  29.376  1.00  0.00     0.029 A 
ATOM     50  C   UNL A   1      39.860  29.103  29.421  1.00  0.00     0.049 A 
ATOM     51  H   UNL A   1      41.753  28.803  28.602  1.00  0.00     0.167 HD
ATOM     52  C   UNL A   1      45.735  27.889  26.845  1.00  0.00     0.034 A 
ATOM     53  C   UNL A   1      39.878  30.317  30.002  1.00  0.00     0.034 A 
ATOM     54  C   UNL A   1      45.842  29.211  27.412  1.00  0.00     0.049 A 
ATOM     55  C   UNL A   1      41.154  31.121  29.938  1.00  0.00     0.074 A 
ATOM     56  C   UNL A   1      46.927  30.067  27.416  1.00  0.00     0.029 A 
ATOM     57  N   UNL A   1      44.817  29.867  28.086  1.00  0.00    -0.354 N 
ATOM     58  N   UNL A   1      42.305  30.801  29.386  1.00  0.00    -0.248 NA
ATOM     59  C   UNL A   1      41.132  32.449  30.558  1.00  0.00     0.031 C 
ATOM     60  C   UNL A   1      46.577  31.215  28.138  1.00  0.00     0.029 A 
ATOM     61  C   UNL A   1      45.249  31.108  28.523  1.00  0.00     0.049 A 
ATOM     62  H   UNL A   1      43.915  29.501  28.232  1.00  0.00     0.167 HD
ATOM     63  C   UNL A   1      43.137  31.901  29.577  1.00  0.00     0.074 A 
ATOM     64  C   UNL A   1      42.343  32.900  30.266  1.00  0.00     0.031 C 
ATOM     65  C   UNL A   1      44.436  32.077  29.223  1.00  0.00     0.034 A 
BRANCH  52  66
ATOM     66  C   UNL A   1      46.918  27.280  26.135  1.00  0.00     0.023 A 
ATOM     67  C   UNL A   1      47.905  26.557  26.831  1.00  0.00     0.031 A 
ATOM     68  C   UNL A   1      47.097  27.473  24.754  1.00  0.00     0.131 A 
ATOM     69  C   UNL A   1      49.057  26.119  26.160  1.00  0.00     0.055 A 
ATOM     70  C   UNL A   1      48.208  26.967  24.076  1.00  0.00     0.041 A 
ATOM     71  F   UNL A   1      46.205  28.179  24.042  1.00  0.00    -0.206 F 
ATOM     72  C   UNL A   1      49.204  26.298  24.782  1.00  0.00     0.022 A 
BRANCH  69  73
ATOM     73  S   UNL A   1      50.426  25.438  27.136  1.00  0.00     0.124 S 
ATOM     74  O   UNL A   1      50.919  26.631  27.822  1.00  0.00    -0.237 OA
ATOM     75  O   UNL A   1      49.757  24.450  27.974  1.00  0.00    -0.237 OA
ATOM     76  O   UNL A   1      51.330  24.892  26.125  1.00  0.00    -0.744 OA
ENDBRANCH  69  73
ENDBRANCH  52  66
BRANCH  53  77
ATOM     77  C   UNL A   1      38.683  30.826  30.739  1.00  0.00     0.023 A 
ATOM     78  C   UNL A   1      37.600  31.410  30.066  1.00  0.00     0.031 A 
ATOM     79  C   UNL A   1      38.638  30.784  32.145  1.00  0.00     0.131 A 
ATOM     80  C   UNL A   1      36.543  31.975  30.798  1.00  0.00     0.055 A 
ATOM     81  C   UNL A   1      37.558  31.295  32.866  1.00  0.00     0.041 A 
ATOM     82  F   UNL A   1      39.648  30.238  32.842  1.00  0.00    -0.206 F 
ATOM     83  C   UNL A   1      36.508  31.910  32.192  1.00  0.00     0.022 A 
BRANCH  80  84
ATOM     84  S   UNL A   1      35.255  32.888  29.903  1.00  0.00     0.124 S 
ATOM     85  O   UNL A   1      34.863  31.925  28.881  1.00  0.00    -0.237 OA
ATOM     86  O   UNL A   1      34.277  33.140  30.956  1.00  0.00    -0.237 OA
ATOM     87  O   UNL A   1      35.957  34.072  29.411  1.00  0.00    -0.744 OA
ENDBRANCH  80  84
ENDBRANCH  53  77
BRANCH  65  88
ATOM     88  C   UNL A   1      45.049  33.415  29.550  1.00  0.00     0.023 A 
ATOM     89  C   UNL A   1      44.994  34.490  28.646  1.00  0.00     0.031 A 
ATOM     90  C   UNL A   1      45.729  33.605  30.766  1.00  0.00     0.131 A 
ATOM     91  C   UNL A   1      45.670  35.683  28.940  1.00  0.00     0.055 A 
ATOM     92  C   UNL A   1      46.342  34.817  31.083  1.00  0.00     0.041 A 
ATOM     93  F   UNL A   1      45.812  32.611  31.665  1.00  0.00    -0.206 F 
ATOM     94  C   UNL A   1      46.331  35.859  30.159  1.00  0.00     0.022 A 
BRANCH  91  95
ATOM     95  S   UNL A   1      45.774  36.961  27.658  1.00  0.00     0.124 S 
ATOM     96  O   UNL A   1      45.922  38.177  28.452  1.00  0.00    -0.237 OA
ATOM     97  O   UNL A   1      46.952  36.547  26.901  1.00  0.00    -0.237 OA
ATOM     98  O   UNL A   1      44.504  36.836  26.945  1.00  0.00    -0.744 OA
ENDBRANCH  91  95
ENDBRANCH  65  88
ENDBRANCH  39  40
ENDBRANCH  32  34
ENDBRANCH  31  32
ENDBRANCH  30  31
ENDBRANCH   1  30
TORSDOF 18
ENDMDL
