MODEL 1
REMARK VINA RESULT:     -12.7      0.000      0.000
REMARK SMILES CCCn1nc(C(=O)OCCOC(=O)c2ccc(-c3c4nc(c(-c5cc(S(=O)(=O)[O-])ccc5F)c5ccc([nH]5)c(-c5cc(S(=O)(=O)[O-])ccc5F)c5nc(c(-c6cc(S(=O)(=O)[O-])ccc6F)c6ccc3[nH]6)C=C5)C=C4)cc2)c2c1CC[C@@H]([NH+]1CC[NH+](Cc3ccccn3)CC1)C2
REMARK SMILES IDX 10 1 9 2 7 3 8 4 6 5 4 6 5 7 79 8 78 9 80 10 96 11 81 12
REMARK SMILES IDX 82 13 3 14 2 15 1 16 83 17 84 18 95 19 85 21 94 22 86 23
REMARK SMILES IDX 87 25 88 26 89 27 93 28 90 29 92 30 91 31 11 32 12 33 13 34
REMARK SMILES IDX 14 35 15 36 16 37 77 38 17 39 76 40 18 41 19 42 20 43 70 44
REMARK SMILES IDX 21 45 75 46 69 47 71 48 22 49 74 50 68 51 67 52 23 54 55 55
REMARK SMILES IDX 35 56 54 57 36 58 39 59 53 60 72 61 37 62 38 63 52 65 73 66
REMARK SMILES IDX 40 67 24 68 25 69 33 70 26 71 32 72 34 73 31 74 27 75 28 76
REMARK SMILES IDX 29 77 30 78 56 79 57 80 65 81 58 82 64 83 66 84 63 85 59 86
REMARK SMILES IDX 60 87 61 88 62 89 41 90 42 91 50 92 43 93 49 94 51 95 48 96
REMARK SMILES IDX 44 97 45 98 46 99 47 100
REMARK H PARENT 83 20 86 24 71 53 39 64
REMARK Flexibility Score: inf
ROOT
ATOM      1  C   UNL A   1      33.328  30.216  26.572  1.00  0.00     0.275 C 
ENDROOT
BRANCH   1   2
ATOM      2  O   UNL A   1      32.146  29.819  27.283  1.00  0.00    -0.457 OA
BRANCH   2   3
ATOM      3  C   UNL A   1      31.616  28.562  27.124  1.00  0.00     0.359 C 
ATOM      4  O   UNL A   1      31.369  27.807  28.058  1.00  0.00    -0.244 OA
BRANCH   3   5
ATOM      5  C   UNL A   1      31.409  28.265  25.688  1.00  0.00     0.174 A 
ATOM      6  N   UNL A   1      30.836  28.434  23.587  1.00  0.00    -0.268 N 
ATOM      7  N   UNL A   1      30.796  29.079  24.793  1.00  0.00    -0.165 NA
ATOM      8  C   UNL A   1      31.106  27.099  23.728  1.00  0.00     0.043 A 
ATOM      9  C   UNL A   1      31.816  27.064  25.054  1.00  0.00     0.014 A 
ATOM     10  C   UNL A   1      31.136  25.671  22.409  1.00  0.00     0.062 C 
ATOM     11  C   UNL A   1      32.859  25.761  25.731  1.00  0.00     0.105 C 
ATOM     12  C   UNL A   1      32.409  23.969  23.047  1.00  0.00     0.072 C 
ATOM     13  C   UNL A   1      33.456  24.349  24.669  1.00  0.00     0.189 C 
BRANCH   6  14
ATOM     14  C   UNL A   1      30.723  29.151  22.330  1.00  0.00     0.144 C 
BRANCH  14  15
ATOM     15  C   UNL A   1      29.603  30.195  22.213  1.00  0.00     0.020 C 
ATOM     16  C   UNL A   1      28.202  29.599  22.149  1.00  0.00     0.006 C 
ENDBRANCH  14  15
ENDBRANCH   6  14
BRANCH  13  17
ATOM     17  N   UNL A   1      34.946  24.425  24.472  1.00  0.00    -0.323 N 
ATOM     18  C   UNL A   1      35.617  23.612  23.426  1.00  0.00     0.324 C 
ATOM     19  C   UNL A   1      35.727  24.429  25.711  1.00  0.00     0.324 C 
ATOM     20  H   UNL A   1      34.951  25.352  24.048  1.00  0.00     0.348 HD
ATOM     21  C   UNL A   1      36.234  22.229  23.816  1.00  0.00     0.324 C 
ATOM     22  C   UNL A   1      36.605  23.176  25.996  1.00  0.00     0.324 C 
ATOM     23  N   UNL A   1      36.322  21.952  25.247  1.00  0.00    -0.321 N 
ATOM     24  H   UNL A   1      37.144  21.367  25.401  1.00  0.00     0.348 HD
BRANCH  23  25
ATOM     25  C   UNL A   1      35.337  21.006  25.786  1.00  0.00     0.319 C 
BRANCH  25  26
ATOM     26  C   UNL A   1      34.715  19.987  24.865  1.00  0.00     0.095 A 
ATOM     27  C   UNL A   1      33.064  20.079  24.358  1.00  0.00     0.030 A 
ATOM     28  N   UNL A   1      35.537  18.535  24.612  1.00  0.00    -0.255 NA
ATOM     29  C   UNL A   1      32.226  18.442  23.662  1.00  0.00     0.004 A 
ATOM     30  C   UNL A   1      34.797  17.159  23.970  1.00  0.00     0.111 A 
ATOM     31  C   UNL A   1      33.196  17.010  23.471  1.00  0.00     0.020 A 
ENDBRANCH  25  26
ENDBRANCH  23  25
ENDBRANCH  13  17
ENDBRANCH   3   5
ENDBRANCH   2   3
ENDBRANCH   1   2
BRANCH   1  32
ATOM     32  C   UNL A   1      33.993  31.411  27.235  1.00  0.00     0.275 C 
BRANCH  32  33
ATOM     33  O   UNL A   1      34.946  30.952  28.181  1.00  0.00    -0.458 OA
BRANCH  33  34
ATOM     34  C   UNL A   1      35.934  31.820  28.489  1.00  0.00     0.338 C 
ATOM     35  O   UNL A   1      36.033  32.982  28.135  1.00  0.00    -0.246 OA
BRANCH  34  36
ATOM     36  C   UNL A   1      36.985  31.074  29.178  1.00  0.00     0.060 A 
ATOM     37  C   UNL A   1      38.090  31.789  29.646  1.00  0.00     0.016 A 
ATOM     38  C   UNL A   1      36.976  29.674  29.099  1.00  0.00     0.016 A 
ATOM     39  C   UNL A   1      39.262  31.102  29.864  1.00  0.00     0.010 A 
ATOM     40  C   UNL A   1      38.148  28.997  29.288  1.00  0.00     0.010 A 
ATOM     41  C   UNL A   1      39.290  29.730  29.594  1.00  0.00    -0.014 A 
BRANCH  41  42
ATOM     42  C   UNL A   1      40.522  29.003  29.778  1.00  0.00     0.031 A 
ATOM     43  C   UNL A   1      40.845  28.815  31.210  1.00  0.00     0.074 A 
ATOM     44  C   UNL A   1      41.158  28.420  28.745  1.00  0.00     0.049 A 
ATOM     45  N   UNL A   1      41.823  29.337  31.867  1.00  0.00    -0.248 NA
ATOM     46  C   UNL A   1      39.840  28.154  32.065  1.00  0.00     0.031 C 
ATOM     47  C   UNL A   1      40.735  28.338  27.344  1.00  0.00     0.029 A 
ATOM     48  N   UNL A   1      42.278  27.658  28.760  1.00  0.00    -0.354 N 
ATOM     49  C   UNL A   1      41.698  28.845  33.159  1.00  0.00     0.074 A 
ATOM     50  C   UNL A   1      40.353  28.359  33.277  1.00  0.00     0.031 C 
ATOM     51  C   UNL A   1      41.448  27.369  26.722  1.00  0.00     0.029 A 
ATOM     52  C   UNL A   1      42.441  26.842  27.644  1.00  0.00     0.049 A 
ATOM     53  H   UNL A   1      42.925  27.681  29.501  1.00  0.00     0.167 HD
ATOM     54  C   UNL A   1      42.798  28.604  33.921  1.00  0.00     0.034 A 
ATOM     55  C   UNL A   1      43.257  25.753  27.560  1.00  0.00     0.034 A 
ATOM     56  C   UNL A   1      43.951  29.308  33.406  1.00  0.00     0.049 A 
ATOM     57  C   UNL A   1      44.279  25.918  28.635  1.00  0.00     0.074 A 
ATOM     58  C   UNL A   1      44.199  30.639  33.119  1.00  0.00     0.029 A 
ATOM     59  N   UNL A   1      44.885  28.594  32.684  1.00  0.00    -0.354 N 
ATOM     60  N   UNL A   1      45.152  26.894  28.640  1.00  0.00    -0.248 NA
ATOM     61  C   UNL A   1      43.979  25.361  29.950  1.00  0.00     0.031 C 
ATOM     62  C   UNL A   1      44.877  30.618  31.865  1.00  0.00     0.029 A 
ATOM     63  C   UNL A   1      45.109  29.286  31.514  1.00  0.00     0.049 A 
ATOM     64  H   UNL A   1      45.311  27.749  32.954  1.00  0.00     0.167 HD
ATOM     65  C   UNL A   1      45.180  27.355  29.949  1.00  0.00     0.074 A 
ATOM     66  C   UNL A   1      44.488  26.324  30.726  1.00  0.00     0.031 C 
ATOM     67  C   UNL A   1      45.468  28.658  30.252  1.00  0.00     0.034 A 
BRANCH  54  68
ATOM     68  C   UNL A   1      42.903  27.451  34.888  1.00  0.00     0.023 A 
ATOM     69  C   UNL A   1      43.650  26.331  34.484  1.00  0.00     0.031 A 
ATOM     70  C   UNL A   1      42.106  27.274  36.046  1.00  0.00     0.131 A 
ATOM     71  C   UNL A   1      43.533  25.107  35.162  1.00  0.00     0.055 A 
ATOM     72  C   UNL A   1      42.051  26.077  36.760  1.00  0.00     0.041 A 
ATOM     73  F   UNL A   1      41.257  28.206  36.496  1.00  0.00    -0.206 F 
ATOM     74  C   UNL A   1      42.746  24.973  36.303  1.00  0.00     0.022 A 
BRANCH  71  75
ATOM     75  S   UNL A   1      44.290  23.640  34.421  1.00  0.00     0.124 S 
ATOM     76  O   UNL A   1      44.446  22.771  35.581  1.00  0.00    -0.237 OA
ATOM     77  O   UNL A   1      43.279  23.241  33.448  1.00  0.00    -0.237 OA
ATOM     78  O   UNL A   1      45.534  24.153  33.853  1.00  0.00    -0.744 OA
ENDBRANCH  71  75
ENDBRANCH  54  68
BRANCH  55  79
ATOM     79  C   UNL A   1      42.932  24.452  26.888  1.00  0.00     0.023 A 
ATOM     80  C   UNL A   1      43.840  23.750  26.060  1.00  0.00     0.031 A 
ATOM     81  C   UNL A   1      41.749  23.756  27.236  1.00  0.00     0.131 A 
ATOM     82  C   UNL A   1      43.537  22.436  25.611  1.00  0.00     0.055 A 
ATOM     83  C   UNL A   1      41.452  22.467  26.785  1.00  0.00     0.041 A 
ATOM     84  F   UNL A   1      40.862  24.271  28.102  1.00  0.00    -0.206 F 
ATOM     85  C   UNL A   1      42.349  21.798  25.975  1.00  0.00     0.022 A 
BRANCH  82  86
ATOM     86  S   UNL A   1      44.725  21.487  24.599  1.00  0.00     0.124 S 
ATOM     87  O   UNL A   1      44.620  22.142  23.301  1.00  0.00    -0.237 OA
ATOM     88  O   UNL A   1      45.977  21.675  25.323  1.00  0.00    -0.237 OA
ATOM     89  O   UNL A   1      44.197  20.122  24.641  1.00  0.00    -0.744 OA
ENDBRANCH  82  86
ENDBRANCH  55  79
BRANCH  67  90
ATOM     90  C   UNL A   1      45.996  29.580  29.162  1.00  0.00     0.023 A 
ATOM     91  C   UNL A   1      45.216  30.492  28.410  1.00  0.00     0.031 A 
ATOM     92  C   UNL A   1      47.393  29.637  28.996  1.00  0.00     0.131 A 
ATOM     93  C   UNL A   1      45.844  31.407  27.536  1.00  0.00     0.055 A 
ATOM     94  C   UNL A   1      48.009  30.561  28.152  1.00  0.00     0.041 A 
ATOM     95  F   UNL A   1      48.194  28.817  29.695  1.00  0.00    -0.206 F 
ATOM     96  C   UNL A   1      47.236  31.446  27.414  1.00  0.00     0.022 A 
BRANCH  93  97
ATOM     97  S   UNL A   1      44.860  32.560  26.518  1.00  0.00     0.124 S 
ATOM     98  O   UNL A   1      45.861  33.224  25.693  1.00  0.00    -0.237 OA
ATOM     99  O   UNL A   1      43.944  31.663  25.819  1.00  0.00    -0.237 OA
ATOM    100  O   UNL A   1      44.220  33.426  27.511  1.00  0.00    -0.744 OA
ENDBRANCH  93  97
ENDBRANCH  67  90
ENDBRANCH  41  42
ENDBRANCH  34  36
ENDBRANCH  33  34
ENDBRANCH  32  33
ENDBRANCH   1  32
TORSDOF 19
ENDMDL
MODEL 2
REMARK VINA RESULT:     -12.6      3.096      9.861
REMARK SMILES CCCn1nc(C(=O)OCCOC(=O)c2ccc(-c3c4nc(c(-c5cc(S(=O)(=O)[O-])ccc5F)c5ccc([nH]5)c(-c5cc(S(=O)(=O)[O-])ccc5F)c5nc(c(-c6cc(S(=O)(=O)[O-])ccc6F)c6ccc3[nH]6)C=C5)C=C4)cc2)c2c1CC[C@@H]([NH+]1CC[NH+](Cc3ccccn3)CC1)C2
REMARK SMILES IDX 10 1 9 2 7 3 8 4 6 5 4 6 5 7 79 8 78 9 80 10 96 11 81 12
REMARK SMILES IDX 82 13 3 14 2 15 1 16 83 17 84 18 95 19 85 21 94 22 86 23
REMARK SMILES IDX 87 25 88 26 89 27 93 28 90 29 92 30 91 31 11 32 12 33 13 34
REMARK SMILES IDX 14 35 15 36 16 37 77 38 17 39 76 40 18 41 19 42 20 43 70 44
REMARK SMILES IDX 21 45 75 46 69 47 71 48 22 49 74 50 68 51 67 52 23 54 55 55
REMARK SMILES IDX 35 56 54 57 36 58 39 59 53 60 72 61 37 62 38 63 52 65 73 66
REMARK SMILES IDX 40 67 24 68 25 69 33 70 26 71 32 72 34 73 31 74 27 75 28 76
REMARK SMILES IDX 29 77 30 78 56 79 57 80 65 81 58 82 64 83 66 84 63 85 59 86
REMARK SMILES IDX 60 87 61 88 62 89 41 90 42 91 50 92 43 93 49 94 51 95 48 96
REMARK SMILES IDX 44 97 45 98 46 99 47 100
REMARK H PARENT 83 20 86 24 71 53 39 64
REMARK Flexibility Score: inf
ROOT
ATOM      1  C   UNL A   1      39.700  20.550  26.349  1.00  0.00     0.275 C 
ENDROOT
BRANCH   1   2
ATOM      2  O   UNL A   1      38.656  20.673  25.371  1.00  0.00    -0.457 OA
BRANCH   2   3
ATOM      3  C   UNL A   1      37.736  21.690  25.446  1.00  0.00     0.359 C 
ATOM      4  O   UNL A   1      38.021  22.839  25.767  1.00  0.00    -0.244 OA
BRANCH   3   5
ATOM      5  C   UNL A   1      36.385  21.193  25.101  1.00  0.00     0.174 A 
ATOM      6  N   UNL A   1      34.676  19.879  24.745  1.00  0.00    -0.268 N 
ATOM      7  N   UNL A   1      35.996  19.892  25.103  1.00  0.00    -0.165 NA
ATOM      8  C   UNL A   1      34.292  21.054  24.155  1.00  0.00     0.043 A 
ATOM      9  C   UNL A   1      35.307  22.022  24.701  1.00  0.00     0.014 A 
ATOM     10  C   UNL A   1      32.611  21.555  23.317  1.00  0.00     0.062 C 
ATOM     11  C   UNL A   1      35.226  23.820  24.747  1.00  0.00     0.105 C 
ATOM     12  C   UNL A   1      32.305  23.752  23.305  1.00  0.00     0.072 C 
ATOM     13  C   UNL A   1      33.641  24.728  24.370  1.00  0.00     0.189 C 
BRANCH   6  14
ATOM     14  C   UNL A   1      33.801  18.773  25.087  1.00  0.00     0.144 C 
BRANCH  14  15
ATOM     15  C   UNL A   1      34.203  17.377  24.590  1.00  0.00     0.020 C 
ATOM     16  C   UNL A   1      34.040  17.181  23.088  1.00  0.00     0.006 C 
ENDBRANCH  14  15
ENDBRANCH   6  14
BRANCH  13  17
ATOM     17  N   UNL A   1      33.112  25.408  25.604  1.00  0.00    -0.323 N 
ATOM     18  C   UNL A   1      31.834  24.972  26.223  1.00  0.00     0.324 C 
ATOM     19  C   UNL A   1      33.213  26.868  25.589  1.00  0.00     0.324 C 
ATOM     20  H   UNL A   1      33.797  25.013  26.246  1.00  0.00     0.348 HD
ATOM     21  C   UNL A   1      30.512  25.717  25.844  1.00  0.00     0.324 C 
ATOM     22  C   UNL A   1      31.880  27.667  25.514  1.00  0.00     0.324 C 
ATOM     23  N   UNL A   1      30.673  26.957  25.091  1.00  0.00    -0.321 N 
ATOM     24  H   UNL A   1      29.909  27.581  25.351  1.00  0.00     0.348 HD
BRANCH  23  25
ATOM     25  C   UNL A   1      30.358  26.891  23.658  1.00  0.00     0.319 C 
BRANCH  25  26
ATOM     26  C   UNL A   1      29.582  28.017  23.022  1.00  0.00     0.095 A 
ATOM     27  C   UNL A   1      30.355  29.346  22.231  1.00  0.00     0.030 A 
ATOM     28  N   UNL A   1      27.946  28.170  23.402  1.00  0.00    -0.255 NA
ATOM     29  C   UNL A   1      29.310  30.989  21.966  1.00  0.00     0.004 A 
ATOM     30  C   UNL A   1      27.065  29.583  23.121  1.00  0.00     0.111 A 
ATOM     31  C   UNL A   1      27.631  31.007  22.423  1.00  0.00     0.020 A 
ENDBRANCH  25  26
ENDBRANCH  23  25
ENDBRANCH  13  17
ENDBRANCH   3   5
ENDBRANCH   2   3
ENDBRANCH   1   2
BRANCH   1  32
ATOM     32  C   UNL A   1      40.933  21.338  25.939  1.00  0.00     0.275 C 
BRANCH  32  33
ATOM     33  O   UNL A   1      41.194  22.340  26.910  1.00  0.00    -0.458 OA
BRANCH  33  34
ATOM     34  C   UNL A   1      41.724  23.490  26.440  1.00  0.00     0.338 C 
ATOM     35  O   UNL A   1      42.506  23.619  25.514  1.00  0.00    -0.246 OA
BRANCH  34  36
ATOM     36  C   UNL A   1      41.346  24.563  27.357  1.00  0.00     0.060 A 
ATOM     37  C   UNL A   1      40.380  25.476  26.927  1.00  0.00     0.016 A 
ATOM     38  C   UNL A   1      42.144  24.792  28.488  1.00  0.00     0.016 A 
ATOM     39  C   UNL A   1      40.342  26.712  27.531  1.00  0.00     0.010 A 
ATOM     40  C   UNL A   1      42.125  26.029  29.068  1.00  0.00     0.010 A 
ATOM     41  C   UNL A   1      41.278  26.994  28.532  1.00  0.00    -0.014 A 
BRANCH  41  42
ATOM     42  C   UNL A   1      41.278  28.299  29.146  1.00  0.00     0.031 A 
ATOM     43  C   UNL A   1      42.339  29.171  28.594  1.00  0.00     0.074 A 
ATOM     44  C   UNL A   1      40.289  28.689  29.972  1.00  0.00     0.049 A 
ATOM     45  N   UNL A   1      43.387  29.609  29.204  1.00  0.00    -0.248 NA
ATOM     46  C   UNL A   1      42.361  29.397  27.136  1.00  0.00     0.031 C 
ATOM     47  C   UNL A   1      39.067  27.967  30.335  1.00  0.00     0.029 A 
ATOM     48  N   UNL A   1      40.112  29.890  30.574  1.00  0.00    -0.354 N 
ATOM     49  C   UNL A   1      44.053  30.388  28.268  1.00  0.00     0.074 A 
ATOM     50  C   UNL A   1      43.533  30.010  26.984  1.00  0.00     0.031 C 
ATOM     51  C   UNL A   1      38.181  28.838  30.874  1.00  0.00     0.029 A 
ATOM     52  C   UNL A   1      38.809  30.144  30.991  1.00  0.00     0.049 A 
ATOM     53  H   UNL A   1      40.847  30.530  30.706  1.00  0.00     0.167 HD
ATOM     54  C   UNL A   1      44.754  31.488  28.651  1.00  0.00     0.034 A 
ATOM     55  C   UNL A   1      38.288  31.367  31.292  1.00  0.00     0.034 A 
ATOM     56  C   UNL A   1      45.054  31.446  30.064  1.00  0.00     0.049 A 
ATOM     57  C   UNL A   1      39.453  32.250  31.595  1.00  0.00     0.074 A 
ATOM     58  C   UNL A   1      45.688  30.519  30.872  1.00  0.00     0.029 A 
ATOM     59  N   UNL A   1      44.297  32.222  30.917  1.00  0.00    -0.354 N 
ATOM     60  N   UNL A   1      40.247  32.050  32.617  1.00  0.00    -0.248 NA
ATOM     61  C   UNL A   1      40.057  32.984  30.487  1.00  0.00     0.031 C 
ATOM     62  C   UNL A   1      44.876  30.442  32.041  1.00  0.00     0.029 A 
ATOM     63  C   UNL A   1      43.868  31.403  31.938  1.00  0.00     0.049 A 
ATOM     64  H   UNL A   1      44.101  33.181  30.816  1.00  0.00     0.167 HD
ATOM     65  C   UNL A   1      41.532  32.236  32.124  1.00  0.00     0.074 A 
ATOM     66  C   UNL A   1      41.347  32.880  30.822  1.00  0.00     0.031 C 
ATOM     67  C   UNL A   1      42.611  31.578  32.650  1.00  0.00     0.034 A 
BRANCH  54  68
ATOM     68  C   UNL A   1      44.831  32.753  27.831  1.00  0.00     0.023 A 
ATOM     69  C   UNL A   1      44.066  33.851  28.260  1.00  0.00     0.031 A 
ATOM     70  C   UNL A   1      45.384  32.856  26.530  1.00  0.00     0.131 A 
ATOM     71  C   UNL A   1      43.821  34.934  27.399  1.00  0.00     0.055 A 
ATOM     72  C   UNL A   1      45.200  33.969  25.709  1.00  0.00     0.041 A 
ATOM     73  F   UNL A   1      46.043  31.855  25.937  1.00  0.00    -0.206 F 
ATOM     74  C   UNL A   1      44.390  35.006  26.130  1.00  0.00     0.022 A 
BRANCH  71  75
ATOM     75  S   UNL A   1      42.599  36.169  27.903  1.00  0.00     0.124 S 
ATOM     76  O   UNL A   1      43.304  36.862  28.975  1.00  0.00    -0.237 OA
ATOM     77  O   UNL A   1      42.406  36.921  26.668  1.00  0.00    -0.237 OA
ATOM     78  O   UNL A   1      41.458  35.361  28.326  1.00  0.00    -0.744 OA
ENDBRANCH  71  75
ENDBRANCH  54  68
BRANCH  55  79
ATOM     79  C   UNL A   1      36.919  31.862  30.930  1.00  0.00     0.023 A 
ATOM     80  C   UNL A   1      36.106  32.626  31.800  1.00  0.00     0.031 A 
ATOM     81  C   UNL A   1      36.464  31.757  29.592  1.00  0.00     0.131 A 
ATOM     82  C   UNL A   1      34.905  33.220  31.327  1.00  0.00     0.055 A 
ATOM     83  C   UNL A   1      35.278  32.336  29.135  1.00  0.00     0.041 A 
ATOM     84  F   UNL A   1      37.200  31.151  28.648  1.00  0.00    -0.206 F 
ATOM     85  C   UNL A   1      34.495  33.078  30.000  1.00  0.00     0.022 A 
BRANCH  82  86
ATOM     86  S   UNL A   1      33.878  34.267  32.415  1.00  0.00     0.124 S 
ATOM     87  O   UNL A   1      32.964  34.895  31.469  1.00  0.00    -0.237 OA
ATOM     88  O   UNL A   1      33.297  33.294  33.333  1.00  0.00    -0.237 OA
ATOM     89  O   UNL A   1      34.847  35.179  33.028  1.00  0.00    -0.744 OA
ENDBRANCH  82  86
ENDBRANCH  55  79
BRANCH  67  90
ATOM     90  C   UNL A   1      42.453  30.798  33.947  1.00  0.00     0.023 A 
ATOM     91  C   UNL A   1      42.145  29.419  34.043  1.00  0.00     0.031 A 
ATOM     92  C   UNL A   1      42.787  31.468  35.139  1.00  0.00     0.131 A 
ATOM     93  C   UNL A   1      42.179  28.771  35.298  1.00  0.00     0.055 A 
ATOM     94  C   UNL A   1      42.846  30.818  36.372  1.00  0.00     0.041 A 
ATOM     95  F   UNL A   1      43.112  32.771  35.119  1.00  0.00    -0.206 F 
ATOM     96  C   UNL A   1      42.536  29.467  36.457  1.00  0.00     0.022 A 
BRANCH  93  97
ATOM     97  S   UNL A   1      41.740  27.007  35.457  1.00  0.00     0.124 S 
ATOM     98  O   UNL A   1      41.197  26.912  36.807  1.00  0.00    -0.237 OA
ATOM     99  O   UNL A   1      40.788  26.818  34.367  1.00  0.00    -0.237 OA
ATOM    100  O   UNL A   1      43.021  26.321  35.269  1.00  0.00    -0.744 OA
ENDBRANCH  93  97
ENDBRANCH  67  90
ENDBRANCH  41  42
ENDBRANCH  34  36
ENDBRANCH  33  34
ENDBRANCH  32  33
ENDBRANCH   1  32
TORSDOF 19
ENDMDL
MODEL 3
REMARK VINA RESULT:     -11.7      1.967      2.296
REMARK SMILES CCCn1nc(C(=O)OCCOC(=O)c2ccc(-c3c4nc(c(-c5cc(S(=O)(=O)[O-])ccc5F)c5ccc([nH]5)c(-c5cc(S(=O)(=O)[O-])ccc5F)c5nc(c(-c6cc(S(=O)(=O)[O-])ccc6F)c6ccc3[nH]6)C=C5)C=C4)cc2)c2c1CC[C@@H]([NH+]1CC[NH+](Cc3ccccn3)CC1)C2
REMARK SMILES IDX 10 1 9 2 7 3 8 4 6 5 4 6 5 7 79 8 78 9 80 10 96 11 81 12
REMARK SMILES IDX 82 13 3 14 2 15 1 16 83 17 84 18 95 19 85 21 94 22 86 23
REMARK SMILES IDX 87 25 88 26 89 27 93 28 90 29 92 30 91 31 11 32 12 33 13 34
REMARK SMILES IDX 14 35 15 36 16 37 77 38 17 39 76 40 18 41 19 42 20 43 70 44
REMARK SMILES IDX 21 45 75 46 69 47 71 48 22 49 74 50 68 51 67 52 23 54 55 55
REMARK SMILES IDX 35 56 54 57 36 58 39 59 53 60 72 61 37 62 38 63 52 65 73 66
REMARK SMILES IDX 40 67 24 68 25 69 33 70 26 71 32 72 34 73 31 74 27 75 28 76
REMARK SMILES IDX 29 77 30 78 56 79 57 80 65 81 58 82 64 83 66 84 63 85 59 86
REMARK SMILES IDX 60 87 61 88 62 89 41 90 42 91 50 92 43 93 49 94 51 95 48 96
REMARK SMILES IDX 44 97 45 98 46 99 47 100
REMARK H PARENT 83 20 86 24 71 53 39 64
REMARK Flexibility Score: inf
ROOT
ATOM      1  C   UNL A   1      34.490  29.762  26.828  1.00  0.00     0.275 C 
ENDROOT
BRANCH   1   2
ATOM      2  O   UNL A   1      33.168  29.310  27.156  1.00  0.00    -0.457 OA
BRANCH   2   3
ATOM      3  C   UNL A   1      32.061  29.935  26.638  1.00  0.00     0.359 C 
ATOM      4  O   UNL A   1      31.611  30.990  27.074  1.00  0.00    -0.244 OA
BRANCH   3   5
ATOM      5  C   UNL A   1      31.504  29.153  25.511  1.00  0.00     0.174 A 
ATOM      6  N   UNL A   1      30.531  28.607  23.633  1.00  0.00    -0.268 N 
ATOM      7  N   UNL A   1      30.859  29.667  24.434  1.00  0.00    -0.165 NA
ATOM      8  C   UNL A   1      30.596  27.416  24.305  1.00  0.00     0.043 A 
ATOM      9  C   UNL A   1      31.558  27.740  25.417  1.00  0.00     0.014 A 
ATOM     10  C   UNL A   1      30.102  25.622  23.744  1.00  0.00     0.062 C 
ATOM     11  C   UNL A   1      32.487  26.602  26.459  1.00  0.00     0.105 C 
ATOM     12  C   UNL A   1      31.176  24.060  24.897  1.00  0.00     0.072 C 
ATOM     13  C   UNL A   1      32.595  24.785  26.051  1.00  0.00     0.189 C 
BRANCH   6  14
ATOM     14  C   UNL A   1      30.273  28.770  22.214  1.00  0.00     0.144 C 
BRANCH  14  15
ATOM     15  C   UNL A   1      29.502  30.024  21.777  1.00  0.00     0.020 C 
ATOM     16  C   UNL A   1      27.987  29.878  21.848  1.00  0.00     0.006 C 
ENDBRANCH  14  15
ENDBRANCH   6  14
BRANCH  13  17
ATOM     17  N   UNL A   1      33.999  24.411  25.660  1.00  0.00    -0.323 N 
ATOM     18  C   UNL A   1      34.380  24.275  24.231  1.00  0.00     0.324 C 
ATOM     19  C   UNL A   1      34.593  23.340  26.462  1.00  0.00     0.324 C 
ATOM     20  H   UNL A   1      34.420  25.308  25.901  1.00  0.00     0.348 HD
ATOM     21  C   UNL A   1      34.343  22.861  23.565  1.00  0.00     0.324 C 
ATOM     22  C   UNL A   1      34.856  21.984  25.746  1.00  0.00     0.324 C 
ATOM     23  N   UNL A   1      34.175  21.732  24.476  1.00  0.00    -0.321 N 
ATOM     24  H   UNL A   1      34.670  20.934  24.078  1.00  0.00     0.348 HD
BRANCH  23  25
ATOM     25  C   UNL A   1      32.844  21.112  24.500  1.00  0.00     0.319 C 
BRANCH  25  26
ATOM     26  C   UNL A   1      32.732  19.608  24.458  1.00  0.00     0.095 A 
ATOM     27  C   UNL A   1      32.735  18.637  25.888  1.00  0.00     0.030 A 
ATOM     28  N   UNL A   1      32.971  18.834  22.979  1.00  0.00    -0.255 NA
ATOM     29  C   UNL A   1      33.163  16.728  25.699  1.00  0.00     0.004 A 
ATOM     30  C   UNL A   1      33.294  17.181  22.848  1.00  0.00     0.111 A 
ATOM     31  C   UNL A   1      33.403  16.068  24.107  1.00  0.00     0.020 A 
ENDBRANCH  25  26
ENDBRANCH  23  25
ENDBRANCH  13  17
ENDBRANCH   3   5
ENDBRANCH   2   3
ENDBRANCH   1   2
BRANCH   1  32
ATOM     32  C   UNL A   1      34.827  31.053  27.556  1.00  0.00     0.275 C 
BRANCH  32  33
ATOM     33  O   UNL A   1      35.386  30.744  28.823  1.00  0.00    -0.458 OA
BRANCH  33  34
ATOM     34  C   UNL A   1      36.172  31.699  29.367  1.00  0.00     0.338 C 
ATOM     35  O   UNL A   1      36.043  32.907  29.268  1.00  0.00    -0.246 OA
BRANCH  34  36
ATOM     36  C   UNL A   1      37.335  31.038  29.954  1.00  0.00     0.060 A 
ATOM     37  C   UNL A   1      38.475  31.812  30.186  1.00  0.00     0.016 A 
ATOM     38  C   UNL A   1      37.358  29.637  30.002  1.00  0.00     0.016 A 
ATOM     39  C   UNL A   1      39.687  31.168  30.286  1.00  0.00     0.010 A 
ATOM     40  C   UNL A   1      38.565  29.000  30.073  1.00  0.00     0.010 A 
ATOM     41  C   UNL A   1      39.717  29.778  30.137  1.00  0.00    -0.014 A 
BRANCH  41  42
ATOM     42  C   UNL A   1      40.985  29.092  30.198  1.00  0.00     0.031 A 
ATOM     43  C   UNL A   1      41.407  28.833  31.593  1.00  0.00     0.074 A 
ATOM     44  C   UNL A   1      41.572  28.597  29.093  1.00  0.00     0.049 A 
ATOM     45  N   UNL A   1      42.407  29.356  32.218  1.00  0.00    -0.248 NA
ATOM     46  C   UNL A   1      40.485  28.083  32.468  1.00  0.00     0.031 C 
ATOM     47  C   UNL A   1      41.062  28.580  27.720  1.00  0.00     0.029 A 
ATOM     48  N   UNL A   1      42.718  27.882  28.991  1.00  0.00    -0.354 N 
ATOM     49  C   UNL A   1      42.385  28.785  33.483  1.00  0.00     0.074 A 
ATOM     50  C   UNL A   1      41.069  28.237  33.656  1.00  0.00     0.031 C 
ATOM     51  C   UNL A   1      41.768  27.679  26.996  1.00  0.00     0.029 A 
ATOM     52  C   UNL A   1      42.838  27.140  27.820  1.00  0.00     0.049 A 
ATOM     53  H   UNL A   1      43.411  27.887  29.690  1.00  0.00     0.167 HD
ATOM     54  C   UNL A   1      43.540  28.543  34.157  1.00  0.00     0.034 A 
ATOM     55  C   UNL A   1      43.686  26.092  27.617  1.00  0.00     0.034 A 
ATOM     56  C   UNL A   1      44.630  29.324  33.614  1.00  0.00     0.049 A 
ATOM     57  C   UNL A   1      44.770  26.235  28.634  1.00  0.00     0.074 A 
ATOM     58  C   UNL A   1      44.810  30.677  33.395  1.00  0.00     0.029 A 
ATOM     59  N   UNL A   1      45.540  28.692  32.793  1.00  0.00    -0.354 N 
ATOM     60  N   UNL A   1      45.605  27.244  28.644  1.00  0.00    -0.248 NA
ATOM     61  C   UNL A   1      44.577  25.590  29.929  1.00  0.00     0.031 C 
ATOM     62  C   UNL A   1      45.404  30.758  32.101  1.00  0.00     0.029 A 
ATOM     63  C   UNL A   1      45.662  29.460  31.656  1.00  0.00     0.049 A 
ATOM     64  H   UNL A   1      46.015  27.851  32.983  1.00  0.00     0.167 HD
ATOM     65  C   UNL A   1      45.701  27.628  29.974  1.00  0.00     0.074 A 
ATOM     66  C   UNL A   1      45.100  26.526  30.729  1.00  0.00     0.031 C 
ATOM     67  C   UNL A   1      45.961  28.922  30.337  1.00  0.00     0.034 A 
BRANCH  54  68
ATOM     68  C   UNL A   1      43.751  27.341  35.044  1.00  0.00     0.023 A 
ATOM     69  C   UNL A   1      44.163  27.576  36.367  1.00  0.00     0.031 A 
ATOM     70  C   UNL A   1      43.836  25.998  34.601  1.00  0.00     0.131 A 
ATOM     71  C   UNL A   1      44.692  26.536  37.149  1.00  0.00     0.055 A 
ATOM     72  C   UNL A   1      44.291  24.955  35.408  1.00  0.00     0.041 A 
ATOM     73  F   UNL A   1      43.584  25.629  33.340  1.00  0.00    -0.206 F 
ATOM     74  C   UNL A   1      44.751  25.225  36.683  1.00  0.00     0.022 A 
BRANCH  71  75
ATOM     75  S   UNL A   1      45.469  26.961  38.727  1.00  0.00     0.124 S 
ATOM     76  O   UNL A   1      44.847  28.245  39.025  1.00  0.00    -0.237 OA
ATOM     77  O   UNL A   1      45.068  25.839  39.569  1.00  0.00    -0.237 OA
ATOM     78  O   UNL A   1      46.891  27.016  38.399  1.00  0.00    -0.744 OA
ENDBRANCH  71  75
ENDBRANCH  54  68
BRANCH  55  79
ATOM     79  C   UNL A   1      43.367  24.820  26.889  1.00  0.00     0.023 A 
ATOM     80  C   UNL A   1      42.330  23.937  27.273  1.00  0.00     0.031 A 
ATOM     81  C   UNL A   1      43.971  24.556  25.636  1.00  0.00     0.131 A 
ATOM     82  C   UNL A   1      41.961  22.852  26.432  1.00  0.00     0.055 A 
ATOM     83  C   UNL A   1      43.610  23.484  24.817  1.00  0.00     0.041 A 
ATOM     84  F   UNL A   1      44.889  25.384  25.112  1.00  0.00    -0.206 F 
ATOM     85  C   UNL A   1      42.597  22.629  25.209  1.00  0.00     0.022 A 
BRANCH  82  86
ATOM     86  S   UNL A   1      40.580  21.742  26.877  1.00  0.00     0.124 S 
ATOM     87  O   UNL A   1      39.414  22.567  26.590  1.00  0.00    -0.237 OA
ATOM     88  O   UNL A   1      40.800  20.598  25.999  1.00  0.00    -0.237 OA
ATOM     89  O   UNL A   1      40.804  21.469  28.298  1.00  0.00    -0.744 OA
ENDBRANCH  82  86
ENDBRANCH  55  79
BRANCH  67  90
ATOM     90  C   UNL A   1      46.382  29.927  29.275  1.00  0.00     0.023 A 
ATOM     91  C   UNL A   1      45.499  30.671  28.454  1.00  0.00     0.031 A 
ATOM     92  C   UNL A   1      47.750  30.251  29.210  1.00  0.00     0.131 A 
ATOM     93  C   UNL A   1      46.003  31.688  27.613  1.00  0.00     0.055 A 
ATOM     94  C   UNL A   1      48.238  31.275  28.399  1.00  0.00     0.041 A 
ATOM     95  F   UNL A   1      48.639  29.602  29.978  1.00  0.00    -0.206 F 
ATOM     96  C   UNL A   1      47.367  31.995  27.593  1.00  0.00     0.022 A 
BRANCH  93  97
ATOM     97  S   UNL A   1      44.895  32.629  26.509  1.00  0.00     0.124 S 
ATOM     98  O   UNL A   1      44.000  31.610  25.976  1.00  0.00    -0.237 OA
ATOM     99  O   UNL A   1      44.293  33.602  27.417  1.00  0.00    -0.237 OA
ATOM    100  O   UNL A   1      45.811  33.207  25.523  1.00  0.00    -0.744 OA
ENDBRANCH  93  97
ENDBRANCH  67  90
ENDBRANCH  41  42
ENDBRANCH  34  36
ENDBRANCH  33  34
ENDBRANCH  32  33
ENDBRANCH   1  32
TORSDOF 19
ENDMDL
