MODEL 1
REMARK VINA RESULT:     -12.3      0.000      0.000
REMARK SMILES CS(=O)(=O)[C@@H]1CCC[C@@H](Sc2ccc(C(=O)OCCOC(=O)c3ccc(-c4c5nc(c(-c6cc(S(=O)(=O)[O-])ccc6F)c6ccc([nH]6)c(-c6cc(S(=O)(=O)[O-])ccc6F)c6nc(c(-c7cc(S(=O)(=O)[O-])ccc7F)c7ccc4[nH]7)C=C6)C=C5)cc3)cn2)C1
REMARK SMILES IDX 18 1 17 2 15 3 16 4 14 5 11 6 12 7 87 8 13 9 86 10 10 11
REMARK SMILES IDX 9 12 5 13 6 14 88 15 7 16 8 17 2 18 1 19 3 20 4 21 19 22
REMARK SMILES IDX 20 23 21 24 22 25 23 26 24 27 85 28 25 29 84 30 26 31 27 32
REMARK SMILES IDX 28 33 78 34 29 35 83 36 77 37 79 38 30 39 82 40 76 41 75 42
REMARK SMILES IDX 31 44 63 45 43 46 62 47 44 48 47 49 61 50 80 51 45 52 46 53
REMARK SMILES IDX 60 55 81 56 48 57 32 58 33 59 41 60 34 61 40 62 42 63 39 64
REMARK SMILES IDX 35 65 36 66 37 67 38 68 64 69 65 70 73 71 66 72 72 73 74 74
REMARK SMILES IDX 71 75 67 76 68 77 69 78 70 79 49 80 50 81 58 82 51 83 57 84
REMARK SMILES IDX 59 85 56 86 52 87 53 88 54 89 55 90
REMARK H PARENT 79 43 47 54
REMARK Flexibility Score: inf
ROOT
ATOM      1  C   UNL A   1      36.710  23.142  23.561  1.00  0.00     0.275 C 
ENDROOT
BRANCH   1   2
ATOM      2  O   UNL A   1      35.587  22.963  22.677  1.00  0.00    -0.458 OA
BRANCH   2   3
ATOM      3  C   UNL A   1      34.360  23.091  23.240  1.00  0.00     0.339 C 
ATOM      4  O   UNL A   1      33.672  22.212  23.722  1.00  0.00    -0.246 OA
BRANCH   3   5
ATOM      5  C   UNL A   1      33.929  24.488  23.134  1.00  0.00     0.078 A 
ATOM      6  C   UNL A   1      32.955  27.076  22.969  1.00  0.00     0.096 A 
ATOM      7  C   UNL A   1      32.755  26.173  21.944  1.00  0.00     0.036 A 
ATOM      8  N   UNL A   1      33.569  26.684  24.099  1.00  0.00    -0.249 NA
ATOM      9  C   UNL A   1      33.287  24.891  21.984  1.00  0.00     0.020 A 
ATOM     10  C   UNL A   1      34.010  25.400  24.173  1.00  0.00     0.128 A 
BRANCH   6  11
ATOM     11  S   UNL A   1      32.382  28.751  22.960  1.00  0.00    -0.103 SA
BRANCH  11  12
ATOM     12  C   UNL A   1      30.847  28.887  23.991  1.00  0.00     0.054 C 
ATOM     13  C   UNL A   1      29.006  30.153  22.775  1.00  0.00     0.109 C 
ATOM     14  C   UNL A   1      28.042  28.970  22.922  1.00  0.00     0.020 C 
ATOM     15  C   UNL A   1      30.047  30.186  23.880  1.00  0.00     0.034 C 
ATOM     16  C   UNL A   1      28.633  27.622  23.346  1.00  0.00     0.002 C 
ATOM     17  C   UNL A   1      29.981  27.623  24.070  1.00  0.00     0.015 C 
BRANCH  13  18
ATOM     18  S   UNL A   1      28.111  31.713  22.602  1.00  0.00     0.150 S 
ATOM     19  C   UNL A   1      29.222  32.984  23.152  1.00  0.00     0.158 C 
ATOM     20  O   UNL A   1      27.003  31.684  23.540  1.00  0.00    -0.229 OA
ATOM     21  O   UNL A   1      27.868  31.943  21.192  1.00  0.00    -0.229 OA
ENDBRANCH  13  18
ENDBRANCH  11  12
ENDBRANCH   6  11
ENDBRANCH   3   5
ENDBRANCH   2   3
ENDBRANCH   1   2
BRANCH   1  22
ATOM     22  C   UNL A   1      37.137  21.815  24.186  1.00  0.00     0.275 C 
BRANCH  22  23
ATOM     23  O   UNL A   1      37.410  21.990  25.588  1.00  0.00    -0.458 OA
BRANCH  23  24
ATOM     24  C   UNL A   1      38.686  21.728  25.956  1.00  0.00     0.338 C 
ATOM     25  O   UNL A   1      39.367  20.774  25.618  1.00  0.00    -0.246 OA
BRANCH  24  26
ATOM     26  C   UNL A   1      39.234  22.837  26.751  1.00  0.00     0.060 A 
ATOM     27  C   UNL A   1      38.737  24.108  26.511  1.00  0.00     0.016 A 
ATOM     28  C   UNL A   1      40.376  22.682  27.529  1.00  0.00     0.016 A 
ATOM     29  C   UNL A   1      39.473  25.229  26.868  1.00  0.00     0.010 A 
ATOM     30  C   UNL A   1      41.011  23.819  28.052  1.00  0.00     0.010 A 
ATOM     31  C   UNL A   1      40.602  25.116  27.684  1.00  0.00    -0.014 A 
BRANCH  31  32
ATOM     32  C   UNL A   1      41.348  26.344  28.104  1.00  0.00     0.031 A 
ATOM     33  C   UNL A   1      40.663  27.397  28.942  1.00  0.00     0.074 A 
ATOM     34  C   UNL A   1      42.647  26.514  27.767  1.00  0.00     0.049 A 
ATOM     35  N   UNL A   1      41.032  28.629  29.188  1.00  0.00    -0.248 NA
ATOM     36  C   UNL A   1      39.382  27.025  29.564  1.00  0.00     0.031 C 
ATOM     37  C   UNL A   1      43.475  25.550  27.032  1.00  0.00     0.029 A 
ATOM     38  N   UNL A   1      43.516  27.554  28.008  1.00  0.00    -0.354 N 
ATOM     39  C   UNL A   1      39.991  29.203  29.914  1.00  0.00     0.074 A 
ATOM     40  C   UNL A   1      38.980  28.181  30.076  1.00  0.00     0.031 C 
ATOM     41  C   UNL A   1      44.732  26.007  26.951  1.00  0.00     0.029 A 
ATOM     42  C   UNL A   1      44.771  27.362  27.473  1.00  0.00     0.049 A 
ATOM     43  H   UNL A   1      43.263  28.360  28.515  1.00  0.00     0.167 HD
ATOM     44  C   UNL A   1      39.892  30.472  30.383  1.00  0.00     0.034 A 
ATOM     45  C   UNL A   1      45.818  28.202  27.336  1.00  0.00     0.034 A 
ATOM     46  C   UNL A   1      40.952  31.447  30.280  1.00  0.00     0.049 A 
ATOM     47  C   UNL A   1      45.659  29.620  27.813  1.00  0.00     0.074 A 
ATOM     48  C   UNL A   1      40.974  32.749  30.752  1.00  0.00     0.029 A 
ATOM     49  N   UNL A   1      42.184  31.225  29.677  1.00  0.00    -0.354 N 
ATOM     50  N   UNL A   1      44.636  30.179  28.417  1.00  0.00    -0.248 NA
ATOM     51  C   UNL A   1      46.786  30.528  27.572  1.00  0.00     0.031 C 
ATOM     52  C   UNL A   1      42.185  33.334  30.369  1.00  0.00     0.029 A 
ATOM     53  C   UNL A   1      42.957  32.375  29.734  1.00  0.00     0.049 A 
ATOM     54  H   UNL A   1      42.468  30.375  29.268  1.00  0.00     0.167 HD
ATOM     55  C   UNL A   1      45.009  31.498  28.648  1.00  0.00     0.074 A 
ATOM     56  C   UNL A   1      46.358  31.643  28.143  1.00  0.00     0.031 C 
ATOM     57  C   UNL A   1      44.300  32.502  29.224  1.00  0.00     0.034 A 
BRANCH  44  58
ATOM     58  C   UNL A   1      38.572  30.912  30.977  1.00  0.00     0.023 A 
ATOM     59  C   UNL A   1      37.537  31.475  30.213  1.00  0.00     0.031 A 
ATOM     60  C   UNL A   1      38.352  30.743  32.358  1.00  0.00     0.131 A 
ATOM     61  C   UNL A   1      36.351  31.891  30.841  1.00  0.00     0.055 A 
ATOM     62  C   UNL A   1      37.144  31.092  32.963  1.00  0.00     0.041 A 
ATOM     63  F   UNL A   1      39.311  30.232  33.146  1.00  0.00    -0.206 F 
ATOM     64  C   UNL A   1      36.137  31.679  32.206  1.00  0.00     0.022 A 
BRANCH  61  65
ATOM     65  S   UNL A   1      35.125  32.816  29.874  1.00  0.00     0.124 S 
ATOM     66  O   UNL A   1      34.142  33.163  30.896  1.00  0.00    -0.237 OA
ATOM     67  O   UNL A   1      35.913  33.922  29.342  1.00  0.00    -0.237 OA
ATOM     68  O   UNL A   1      34.666  31.844  28.882  1.00  0.00    -0.744 OA
ENDBRANCH  61  65
ENDBRANCH  44  58
BRANCH  45  69
ATOM     69  C   UNL A   1      47.063  27.768  26.632  1.00  0.00     0.023 A 
ATOM     70  C   UNL A   1      47.224  27.976  25.253  1.00  0.00     0.031 A 
ATOM     71  C   UNL A   1      48.084  27.073  27.311  1.00  0.00     0.131 A 
ATOM     72  C   UNL A   1      48.345  27.449  24.591  1.00  0.00     0.055 A 
ATOM     73  C   UNL A   1      49.233  26.622  26.662  1.00  0.00     0.041 A 
ATOM     74  F   UNL A   1      47.982  26.828  28.627  1.00  0.00    -0.206 F 
ATOM     75  C   UNL A   1      49.360  26.793  25.289  1.00  0.00     0.022 A 
BRANCH  72  76
ATOM     76  S   UNL A   1      48.391  27.516  22.779  1.00  0.00     0.124 S 
ATOM     77  O   UNL A   1      48.371  26.100  22.428  1.00  0.00    -0.237 OA
ATOM     78  O   UNL A   1      47.180  28.272  22.472  1.00  0.00    -0.237 OA
ATOM     79  O   UNL A   1      49.646  28.212  22.496  1.00  0.00    -0.744 OA
ENDBRANCH  72  76
ENDBRANCH  45  69
BRANCH  57  80
ATOM     80  C   UNL A   1      45.010  33.822  29.389  1.00  0.00     0.023 A 
ATOM     81  C   UNL A   1      45.013  34.793  28.373  1.00  0.00     0.031 A 
ATOM     82  C   UNL A   1      45.722  34.095  30.570  1.00  0.00     0.131 A 
ATOM     83  C   UNL A   1      45.767  35.964  28.531  1.00  0.00     0.055 A 
ATOM     84  C   UNL A   1      46.415  35.291  30.750  1.00  0.00     0.041 A 
ATOM     85  F   UNL A   1      45.757  33.199  31.569  1.00  0.00    -0.206 F 
ATOM     86  C   UNL A   1      46.454  36.228  29.720  1.00  0.00     0.022 A 
BRANCH  83  87
ATOM     87  S   UNL A   1      45.928  37.093  27.120  1.00  0.00     0.124 S 
ATOM     88  O   UNL A   1      44.562  37.584  26.967  1.00  0.00    -0.237 OA
ATOM     89  O   UNL A   1      46.904  38.064  27.605  1.00  0.00    -0.237 OA
ATOM     90  O   UNL A   1      46.401  36.226  26.041  1.00  0.00    -0.744 OA
ENDBRANCH  83  87
ENDBRANCH  57  80
ENDBRANCH  31  32
ENDBRANCH  24  26
ENDBRANCH  23  24
ENDBRANCH  22  23
ENDBRANCH   1  22
TORSDOF 17
ENDMDL
MODEL 2
REMARK VINA RESULT:     -12.2      5.499     10.775
REMARK SMILES CS(=O)(=O)[C@@H]1CCC[C@@H](Sc2ccc(C(=O)OCCOC(=O)c3ccc(-c4c5nc(c(-c6cc(S(=O)(=O)[O-])ccc6F)c6ccc([nH]6)c(-c6cc(S(=O)(=O)[O-])ccc6F)c6nc(c(-c7cc(S(=O)(=O)[O-])ccc7F)c7ccc4[nH]7)C=C6)C=C5)cc3)cn2)C1
REMARK SMILES IDX 18 1 17 2 15 3 16 4 14 5 11 6 12 7 87 8 13 9 86 10 10 11
REMARK SMILES IDX 9 12 5 13 6 14 88 15 7 16 8 17 2 18 1 19 3 20 4 21 19 22
REMARK SMILES IDX 20 23 21 24 22 25 23 26 24 27 85 28 25 29 84 30 26 31 27 32
REMARK SMILES IDX 28 33 78 34 29 35 83 36 77 37 79 38 30 39 82 40 76 41 75 42
REMARK SMILES IDX 31 44 63 45 43 46 62 47 44 48 47 49 61 50 80 51 45 52 46 53
REMARK SMILES IDX 60 55 81 56 48 57 32 58 33 59 41 60 34 61 40 62 42 63 39 64
REMARK SMILES IDX 35 65 36 66 37 67 38 68 64 69 65 70 73 71 66 72 72 73 74 74
REMARK SMILES IDX 71 75 67 76 68 77 69 78 70 79 49 80 50 81 58 82 51 83 57 84
REMARK SMILES IDX 59 85 56 86 52 87 53 88 54 89 55 90
REMARK H PARENT 79 43 47 54
REMARK Flexibility Score: inf
ROOT
ATOM      1  C   UNL A   1      31.818  29.031  25.087  1.00  0.00     0.275 C 
ENDROOT
BRANCH   1   2
ATOM      2  O   UNL A   1      32.508  28.089  25.930  1.00  0.00    -0.458 OA
BRANCH   2   3
ATOM      3  C   UNL A   1      31.731  27.177  26.566  1.00  0.00     0.339 C 
ATOM      4  O   UNL A   1      31.015  27.360  27.530  1.00  0.00    -0.246 OA
BRANCH   3   5
ATOM      5  C   UNL A   1      31.922  25.866  25.937  1.00  0.00     0.078 A 
ATOM      6  C   UNL A   1      32.353  23.334  24.898  1.00  0.00     0.096 A 
ATOM      7  C   UNL A   1      33.390  24.238  25.029  1.00  0.00     0.036 A 
ATOM      8  N   UNL A   1      31.126  23.653  25.344  1.00  0.00    -0.249 NA
ATOM      9  C   UNL A   1      33.181  25.529  25.491  1.00  0.00     0.020 A 
ATOM     10  C   UNL A   1      30.943  24.889  25.882  1.00  0.00     0.128 A 
BRANCH   6  11
ATOM     11  S   UNL A   1      32.520  21.700  24.241  1.00  0.00    -0.103 SA
BRANCH  11  12
ATOM     12  C   UNL A   1      33.483  20.650  25.428  1.00  0.00     0.054 C 
ATOM     13  C   UNL A   1      34.186  18.443  24.375  1.00  0.00     0.109 C 
ATOM     14  C   UNL A   1      35.664  18.729  24.667  1.00  0.00     0.020 C 
ATOM     15  C   UNL A   1      33.261  19.138  25.358  1.00  0.00     0.034 C 
ATOM     16  C   UNL A   1      36.042  20.156  25.072  1.00  0.00     0.002 C 
ATOM     17  C   UNL A   1      34.946  21.058  25.645  1.00  0.00     0.015 C 
BRANCH  13  18
ATOM     18  S   UNL A   1      33.872  16.669  24.244  1.00  0.00     0.150 S 
ATOM     19  C   UNL A   1      35.114  15.873  25.234  1.00  0.00     0.158 C 
ATOM     20  O   UNL A   1      34.120  16.285  22.866  1.00  0.00    -0.229 OA
ATOM     21  O   UNL A   1      32.593  16.386  24.862  1.00  0.00    -0.229 OA
ENDBRANCH  13  18
ENDBRANCH  11  12
ENDBRANCH   6  11
ENDBRANCH   3   5
ENDBRANCH   2   3
ENDBRANCH   1   2
BRANCH   1  22
ATOM     22  C   UNL A   1      31.685  30.390  25.774  1.00  0.00     0.275 C 
BRANCH  22  23
ATOM     23  O   UNL A   1      32.435  30.403  27.002  1.00  0.00    -0.458 OA
BRANCH  23  24
ATOM     24  C   UNL A   1      33.083  31.562  27.260  1.00  0.00     0.338 C 
ATOM     25  O   UNL A   1      32.599  32.682  27.297  1.00  0.00    -0.246 OA
BRANCH  24  26
ATOM     26  C   UNL A   1      34.481  31.303  27.631  1.00  0.00     0.060 A 
ATOM     27  C   UNL A   1      34.818  30.013  28.011  1.00  0.00     0.016 A 
ATOM     28  C   UNL A   1      35.383  32.339  27.846  1.00  0.00     0.016 A 
ATOM     29  C   UNL A   1      35.951  29.779  28.777  1.00  0.00     0.010 A 
ATOM     30  C   UNL A   1      36.618  32.061  28.452  1.00  0.00     0.010 A 
ATOM     31  C   UNL A   1      36.900  30.785  28.979  1.00  0.00    -0.014 A 
BRANCH  31  32
ATOM     32  C   UNL A   1      38.144  30.494  29.761  1.00  0.00     0.031 A 
ATOM     33  C   UNL A   1      39.222  29.617  29.171  1.00  0.00     0.074 A 
ATOM     34  C   UNL A   1      38.331  31.033  30.988  1.00  0.00     0.049 A 
ATOM     35  N   UNL A   1      40.234  29.037  29.764  1.00  0.00    -0.248 NA
ATOM     36  C   UNL A   1      39.137  29.333  27.729  1.00  0.00     0.031 C 
ATOM     37  C   UNL A   1      37.422  31.967  31.661  1.00  0.00     0.029 A 
ATOM     38  N   UNL A   1      39.360  30.889  31.891  1.00  0.00    -0.354 N 
ATOM     39  C   UNL A   1      40.851  28.252  28.792  1.00  0.00     0.074 A 
ATOM     40  C   UNL A   1      40.102  28.438  27.568  1.00  0.00     0.031 C 
ATOM     41  C   UNL A   1      37.963  32.364  32.821  1.00  0.00     0.029 A 
ATOM     42  C   UNL A   1      39.172  31.593  33.060  1.00  0.00     0.049 A 
ATOM     43  H   UNL A   1      40.155  30.334  31.717  1.00  0.00     0.167 HD
ATOM     44  C   UNL A   1      41.930  27.442  28.924  1.00  0.00     0.034 A 
ATOM     45  C   UNL A   1      39.841  31.569  34.231  1.00  0.00     0.034 A 
ATOM     46  C   UNL A   1      42.708  27.340  30.137  1.00  0.00     0.049 A 
ATOM     47  C   UNL A   1      41.000  30.619  34.368  1.00  0.00     0.074 A 
ATOM     48  C   UNL A   1      43.842  26.579  30.371  1.00  0.00     0.029 A 
ATOM     49  N   UNL A   1      42.445  28.028  31.315  1.00  0.00    -0.354 N 
ATOM     50  N   UNL A   1      41.517  29.813  33.470  1.00  0.00    -0.248 NA
ATOM     51  C   UNL A   1      41.650  30.556  35.682  1.00  0.00     0.031 C 
ATOM     52  C   UNL A   1      44.218  26.751  31.707  1.00  0.00     0.029 A 
ATOM     53  C   UNL A   1      43.373  27.683  32.286  1.00  0.00     0.049 A 
ATOM     54  H   UNL A   1      41.707  28.668  31.441  1.00  0.00     0.167 HD
ATOM     55  C   UNL A   1      42.572  29.167  34.107  1.00  0.00     0.074 A 
ATOM     56  C   UNL A   1      42.630  29.696  35.454  1.00  0.00     0.031 C 
ATOM     57  C   UNL A   1      43.415  28.219  33.625  1.00  0.00     0.034 A 
BRANCH  44  58
ATOM     58  C   UNL A   1      42.292  26.541  27.766  1.00  0.00     0.023 A 
ATOM     59  C   UNL A   1      41.814  25.227  27.638  1.00  0.00     0.031 A 
ATOM     60  C   UNL A   1      43.137  27.034  26.751  1.00  0.00     0.131 A 
ATOM     61  C   UNL A   1      42.222  24.437  26.548  1.00  0.00     0.055 A 
ATOM     62  C   UNL A   1      43.480  26.269  25.636  1.00  0.00     0.041 A 
ATOM     63  F   UNL A   1      43.645  28.274  26.829  1.00  0.00    -0.206 F 
ATOM     64  C   UNL A   1      43.030  24.958  25.534  1.00  0.00     0.022 A 
BRANCH  61  65
ATOM     65  S   UNL A   1      41.773  22.679  26.524  1.00  0.00     0.124 S 
ATOM     66  O   UNL A   1      40.316  22.745  26.573  1.00  0.00    -0.237 OA
ATOM     67  O   UNL A   1      42.351  22.223  25.265  1.00  0.00    -0.237 OA
ATOM     68  O   UNL A   1      42.407  22.146  27.730  1.00  0.00    -0.744 OA
ENDBRANCH  61  65
ENDBRANCH  44  58
BRANCH  45  69
ATOM     69  C   UNL A   1      39.379  32.383  35.397  1.00  0.00     0.023 A 
ATOM     70  C   UNL A   1      39.776  33.721  35.548  1.00  0.00     0.031 A 
ATOM     71  C   UNL A   1      38.594  31.815  36.420  1.00  0.00     0.131 A 
ATOM     72  C   UNL A   1      39.434  34.426  36.713  1.00  0.00     0.055 A 
ATOM     73  C   UNL A   1      38.190  32.545  37.538  1.00  0.00     0.041 A 
ATOM     74  F   UNL A   1      38.197  30.535  36.344  1.00  0.00    -0.206 F 
ATOM     75  C   UNL A   1      38.627  33.855  37.698  1.00  0.00     0.022 A 
BRANCH  72  76
ATOM     76  S   UNL A   1      40.173  36.060  36.985  1.00  0.00     0.124 S 
ATOM     77  O   UNL A   1      39.908  36.721  35.712  1.00  0.00    -0.237 OA
ATOM     78  O   UNL A   1      39.416  36.548  38.133  1.00  0.00    -0.237 OA
ATOM     79  O   UNL A   1      41.579  35.756  37.251  1.00  0.00    -0.744 OA
ENDBRANCH  72  76
ENDBRANCH  45  69
BRANCH  57  80
ATOM     80  C   UNL A   1      44.508  27.752  34.552  1.00  0.00     0.023 A 
ATOM     81  C   UNL A   1      44.346  26.629  35.380  1.00  0.00     0.031 A 
ATOM     82  C   UNL A   1      45.718  28.465  34.629  1.00  0.00     0.131 A 
ATOM     83  C   UNL A   1      45.351  26.289  36.297  1.00  0.00     0.055 A 
ATOM     84  C   UNL A   1      46.742  28.082  35.494  1.00  0.00     0.041 A 
ATOM     85  F   UNL A   1      45.922  29.549  33.864  1.00  0.00    -0.206 F 
ATOM     86  C   UNL A   1      46.555  26.997  36.347  1.00  0.00     0.022 A 
BRANCH  83  87
ATOM     87  S   UNL A   1      45.021  24.973  37.501  1.00  0.00     0.124 S 
ATOM     88  O   UNL A   1      43.563  24.905  37.485  1.00  0.00    -0.237 OA
ATOM     89  O   UNL A   1      45.719  23.832  36.917  1.00  0.00    -0.237 OA
ATOM     90  O   UNL A   1      45.604  25.487  38.740  1.00  0.00    -0.744 OA
ENDBRANCH  83  87
ENDBRANCH  57  80
ENDBRANCH  31  32
ENDBRANCH  24  26
ENDBRANCH  23  24
ENDBRANCH  22  23
ENDBRANCH   1  22
TORSDOF 17
ENDMDL
MODEL 3
REMARK VINA RESULT:     -12.1      1.633      2.148
REMARK SMILES CS(=O)(=O)[C@@H]1CCC[C@@H](Sc2ccc(C(=O)OCCOC(=O)c3ccc(-c4c5nc(c(-c6cc(S(=O)(=O)[O-])ccc6F)c6ccc([nH]6)c(-c6cc(S(=O)(=O)[O-])ccc6F)c6nc(c(-c7cc(S(=O)(=O)[O-])ccc7F)c7ccc4[nH]7)C=C6)C=C5)cc3)cn2)C1
REMARK SMILES IDX 18 1 17 2 15 3 16 4 14 5 11 6 12 7 87 8 13 9 86 10 10 11
REMARK SMILES IDX 9 12 5 13 6 14 88 15 7 16 8 17 2 18 1 19 3 20 4 21 19 22
REMARK SMILES IDX 20 23 21 24 22 25 23 26 24 27 85 28 25 29 84 30 26 31 27 32
REMARK SMILES IDX 28 33 78 34 29 35 83 36 77 37 79 38 30 39 82 40 76 41 75 42
REMARK SMILES IDX 31 44 63 45 43 46 62 47 44 48 47 49 61 50 80 51 45 52 46 53
REMARK SMILES IDX 60 55 81 56 48 57 32 58 33 59 41 60 34 61 40 62 42 63 39 64
REMARK SMILES IDX 35 65 36 66 37 67 38 68 64 69 65 70 73 71 66 72 72 73 74 74
REMARK SMILES IDX 71 75 67 76 68 77 69 78 70 79 49 80 50 81 58 82 51 83 57 84
REMARK SMILES IDX 59 85 56 86 52 87 53 88 54 89 55 90
REMARK H PARENT 79 43 47 54
REMARK Flexibility Score: inf
ROOT
ATOM      1  C   UNL A   1      35.021  20.912  25.358  1.00  0.00     0.275 C 
ENDROOT
BRANCH   1   2
ATOM      2  O   UNL A   1      34.128  20.306  24.404  1.00  0.00    -0.458 OA
BRANCH   2   3
ATOM      3  C   UNL A   1      32.805  20.529  24.601  1.00  0.00     0.339 C 
ATOM      4  O   UNL A   1      31.989  19.767  25.081  1.00  0.00    -0.246 OA
BRANCH   3   5
ATOM      5  C   UNL A   1      32.462  21.857  24.081  1.00  0.00     0.078 A 
ATOM      6  C   UNL A   1      31.935  24.431  23.203  1.00  0.00     0.096 A 
ATOM      7  C   UNL A   1      31.466  23.983  24.423  1.00  0.00     0.036 A 
ATOM      8  N   UNL A   1      32.719  23.637  22.454  1.00  0.00    -0.249 NA
ATOM      9  C   UNL A   1      31.670  22.679  24.851  1.00  0.00     0.020 A 
ATOM     10  C   UNL A   1      32.995  22.389  22.918  1.00  0.00     0.128 A 
BRANCH   6  11
ATOM     11  S   UNL A   1      31.648  26.049  22.548  1.00  0.00    -0.103 SA
BRANCH  11  12
ATOM     12  C   UNL A   1      30.439  26.950  23.629  1.00  0.00     0.054 C 
ATOM     13  C   UNL A   1      31.574  28.773  24.993  1.00  0.00     0.109 C 
ATOM     14  C   UNL A   1      30.639  29.842  24.416  1.00  0.00     0.020 C 
ATOM     15  C   UNL A   1      30.935  27.396  25.006  1.00  0.00     0.034 C 
ATOM     16  C   UNL A   1      29.802  29.464  23.191  1.00  0.00     0.002 C 
ATOM     17  C   UNL A   1      29.549  27.979  22.921  1.00  0.00     0.015 C 
BRANCH  13  18
ATOM     18  S   UNL A   1      32.220  29.266  26.607  1.00  0.00     0.150 S 
ATOM     19  C   UNL A   1      33.931  28.788  26.622  1.00  0.00     0.158 C 
ATOM     20  O   UNL A   1      31.546  28.459  27.609  1.00  0.00    -0.229 OA
ATOM     21  O   UNL A   1      32.184  30.712  26.689  1.00  0.00    -0.229 OA
ENDBRANCH  13  18
ENDBRANCH  11  12
ENDBRANCH   6  11
ENDBRANCH   3   5
ENDBRANCH   2   3
ENDBRANCH   1   2
BRANCH   1  22
ATOM     22  C   UNL A   1      36.477  20.570  25.044  1.00  0.00     0.275 C 
BRANCH  22  23
ATOM     23  O   UNL A   1      37.319  21.711  25.286  1.00  0.00    -0.458 OA
BRANCH  23  24
ATOM     24  C   UNL A   1      38.559  21.416  25.743  1.00  0.00     0.338 C 
ATOM     25  O   UNL A   1      39.224  20.428  25.479  1.00  0.00    -0.246 OA
BRANCH  24  26
ATOM     26  C   UNL A   1      39.096  22.530  26.538  1.00  0.00     0.060 A 
ATOM     27  C   UNL A   1      38.640  23.807  26.248  1.00  0.00     0.016 A 
ATOM     28  C   UNL A   1      40.198  22.367  27.370  1.00  0.00     0.016 A 
ATOM     29  C   UNL A   1      39.385  24.918  26.615  1.00  0.00     0.010 A 
ATOM     30  C   UNL A   1      40.836  23.501  27.897  1.00  0.00     0.010 A 
ATOM     31  C   UNL A   1      40.473  24.798  27.483  1.00  0.00    -0.014 A 
BRANCH  31  32
ATOM     32  C   UNL A   1      41.228  26.019  27.910  1.00  0.00     0.031 A 
ATOM     33  C   UNL A   1      40.551  27.072  28.755  1.00  0.00     0.074 A 
ATOM     34  C   UNL A   1      42.528  26.182  27.572  1.00  0.00     0.049 A 
ATOM     35  N   UNL A   1      40.928  28.299  29.008  1.00  0.00    -0.248 NA
ATOM     36  C   UNL A   1      39.267  26.705  29.376  1.00  0.00     0.031 C 
ATOM     37  C   UNL A   1      43.348  25.218  26.831  1.00  0.00     0.029 A 
ATOM     38  N   UNL A   1      43.404  27.215  27.819  1.00  0.00    -0.354 N 
ATOM     39  C   UNL A   1      39.892  28.877  29.738  1.00  0.00     0.074 A 
ATOM     40  C   UNL A   1      38.874  27.860  29.895  1.00  0.00     0.031 C 
ATOM     41  C   UNL A   1      44.608  25.666  26.752  1.00  0.00     0.029 A 
ATOM     42  C   UNL A   1      44.657  27.018  27.282  1.00  0.00     0.049 A 
ATOM     43  H   UNL A   1      43.157  28.020  28.332  1.00  0.00     0.167 HD
ATOM     44  C   UNL A   1      39.801  30.143  30.215  1.00  0.00     0.034 A 
ATOM     45  C   UNL A   1      45.709  27.851  27.150  1.00  0.00     0.034 A 
ATOM     46  C   UNL A   1      40.868  31.111  30.116  1.00  0.00     0.049 A 
ATOM     47  C   UNL A   1      45.561  29.268  27.636  1.00  0.00     0.074 A 
ATOM     48  C   UNL A   1      40.899  32.410  30.596  1.00  0.00     0.029 A 
ATOM     49  N   UNL A   1      42.098  30.885  29.511  1.00  0.00    -0.354 N 
ATOM     50  N   UNL A   1      44.541  29.829  28.243  1.00  0.00    -0.248 NA
ATOM     51  C   UNL A   1      46.694  30.169  27.398  1.00  0.00     0.031 C 
ATOM     52  C   UNL A   1      42.114  32.990  30.216  1.00  0.00     0.029 A 
ATOM     53  C   UNL A   1      42.879  32.030  29.575  1.00  0.00     0.049 A 
ATOM     54  H   UNL A   1      42.376  30.035  29.098  1.00  0.00     0.167 HD
ATOM     55  C   UNL A   1      44.924  31.145  28.482  1.00  0.00     0.074 A 
ATOM     56  C   UNL A   1      46.273  31.284  27.976  1.00  0.00     0.031 C 
ATOM     57  C   UNL A   1      44.222  32.150  29.064  1.00  0.00     0.034 A 
BRANCH  44  58
ATOM     58  C   UNL A   1      38.485  30.588  30.812  1.00  0.00     0.023 A 
ATOM     59  C   UNL A   1      37.483  31.231  30.067  1.00  0.00     0.031 A 
ATOM     60  C   UNL A   1      38.233  30.342  32.176  1.00  0.00     0.131 A 
ATOM     61  C   UNL A   1      36.299  31.646  30.700  1.00  0.00     0.055 A 
ATOM     62  C   UNL A   1      37.025  30.692  32.781  1.00  0.00     0.041 A 
ATOM     63  F   UNL A   1      39.161  29.752  32.947  1.00  0.00    -0.206 F 
ATOM     64  C   UNL A   1      36.053  31.357  32.045  1.00  0.00     0.022 A 
BRANCH  61  65
ATOM     65  S   UNL A   1      35.121  32.668  29.771  1.00  0.00     0.124 S 
ATOM     66  O   UNL A   1      36.011  33.619  29.111  1.00  0.00    -0.237 OA
ATOM     67  O   UNL A   1      34.471  31.691  28.904  1.00  0.00    -0.237 OA
ATOM     68  O   UNL A   1      34.270  33.241  30.812  1.00  0.00    -0.744 OA
ENDBRANCH  61  65
ENDBRANCH  44  58
BRANCH  45  69
ATOM     69  C   UNL A   1      46.952  27.414  26.442  1.00  0.00     0.023 A 
ATOM     70  C   UNL A   1      47.173  27.748  25.096  1.00  0.00     0.031 A 
ATOM     71  C   UNL A   1      47.904  26.591  27.076  1.00  0.00     0.131 A 
ATOM     72  C   UNL A   1      48.284  27.221  24.417  1.00  0.00     0.055 A 
ATOM     73  C   UNL A   1      49.047  26.137  26.419  1.00  0.00     0.041 A 
ATOM     74  F   UNL A   1      47.741  26.222  28.357  1.00  0.00    -0.206 F 
ATOM     75  C   UNL A   1      49.233  26.436  25.074  1.00  0.00     0.022 A 
BRANCH  72  76
ATOM     76  S   UNL A   1      48.399  27.467  22.624  1.00  0.00     0.124 S 
ATOM     77  O   UNL A   1      47.165  28.193  22.344  1.00  0.00    -0.237 OA
ATOM     78  O   UNL A   1      49.636  28.231  22.501  1.00  0.00    -0.237 OA
ATOM     79  O   UNL A   1      48.455  26.104  22.097  1.00  0.00    -0.744 OA
ENDBRANCH  72  76
ENDBRANCH  45  69
BRANCH  57  80
ATOM     80  C   UNL A   1      44.941  33.464  29.237  1.00  0.00     0.023 A 
ATOM     81  C   UNL A   1      44.901  34.465  28.251  1.00  0.00     0.031 A 
ATOM     82  C   UNL A   1      45.705  33.702  30.393  1.00  0.00     0.131 A 
ATOM     83  C   UNL A   1      45.664  35.631  28.410  1.00  0.00     0.055 A 
ATOM     84  C   UNL A   1      46.408  34.892  30.577  1.00  0.00     0.041 A 
ATOM     85  F   UNL A   1      45.782  32.777  31.363  1.00  0.00    -0.206 F 
ATOM     86  C   UNL A   1      46.403  35.859  29.575  1.00  0.00     0.022 A 
BRANCH  83  87
ATOM     87  S   UNL A   1      45.765  36.800  27.027  1.00  0.00     0.124 S 
ATOM     88  O   UNL A   1      44.405  37.328  26.976  1.00  0.00    -0.237 OA
ATOM     89  O   UNL A   1      46.793  37.732  27.479  1.00  0.00    -0.237 OA
ATOM     90  O   UNL A   1      46.146  35.958  25.894  1.00  0.00    -0.744 OA
ENDBRANCH  83  87
ENDBRANCH  57  80
ENDBRANCH  31  32
ENDBRANCH  24  26
ENDBRANCH  23  24
ENDBRANCH  22  23
ENDBRANCH   1  22
TORSDOF 17
ENDMDL
