MODEL 1
REMARK VINA RESULT:      -9.9      0.000      0.000
REMARK SMILES C[C@H](CNS(=O)(=O)CCC(=O)OCCOC(=O)c1ccc(-c2c3nc(c(-c4cc(S(=O)(=O)[O-])ccc4F)c4ccc([nH]4)c(-c4cc(S(=O)(=O)[O-])ccc4F)c4nc(c(-c5cc(S(=O)(=O)[O-])ccc5F)c5ccc2[nH]5)C=C4)C=C3)cc1)c1ccccc1
REMARK SMILES IDX 12 1 10 2 11 3 9 4 8 5 5 6 6 7 7 8 4 9 3 11 2 12 1 13 81 14
REMARK SMILES IDX 82 15 86 16 83 17 85 18 84 19 13 20 14 21 15 22 16 23 17 24
REMARK SMILES IDX 18 25 19 26 80 27 20 28 79 29 21 30 22 31 23 32 73 33 24 34
REMARK SMILES IDX 78 35 72 36 74 37 25 38 77 39 71 40 70 41 26 43 58 44 38 45
REMARK SMILES IDX 57 46 39 47 42 48 56 49 75 50 40 51 41 52 55 54 76 55 43 56
REMARK SMILES IDX 27 57 28 58 36 59 29 60 35 61 37 62 34 63 30 64 31 65 32 66
REMARK SMILES IDX 33 67 59 68 60 69 68 70 61 71 67 72 69 73 66 74 62 75 63 76
REMARK SMILES IDX 64 77 65 78 44 79 45 80 53 81 46 82 52 83 54 84 51 85 47 86
REMARK SMILES IDX 48 87 49 88 50 89
REMARK H PARENT 4 10 74 42 42 53
REMARK Flexibility Score: inf
ROOT
ATOM      1  O   UNL A   1      34.234  35.040  28.115  1.00  0.00    -0.462 OA
ENDROOT
BRANCH   1   2
ATOM      2  C   UNL A   1      33.870  36.163  28.772  1.00  0.00     0.306 C 
ATOM      3  O   UNL A   1      33.916  37.290  28.291  1.00  0.00    -0.252 OA
BRANCH   2   4
ATOM      4  C   UNL A   1      33.450  35.925  30.197  1.00  0.00     0.140 C 
BRANCH   4   5
ATOM      5  C   UNL A   1      33.296  37.152  31.077  1.00  0.00     0.165 C 
BRANCH   5   6
ATOM      6  S   UNL A   1      33.087  36.805  32.820  1.00  0.00     0.212 S 
ATOM      7  O   UNL A   1      31.677  36.815  33.140  1.00  0.00    -0.212 OA
ATOM      8  O   UNL A   1      34.012  37.630  33.568  1.00  0.00    -0.212 OA
BRANCH   6   9
ATOM      9  N   UNL A   1      33.640  35.242  33.031  1.00  0.00    -0.215 NA
ATOM     10  H   UNL A   1      33.089  34.831  33.784  1.00  0.00     0.141 HD
BRANCH   9  11
ATOM     11  C   UNL A   1      35.066  35.018  33.365  1.00  0.00     0.106 C 
BRANCH  11  12
ATOM     12  C   UNL A   1      35.621  33.658  32.824  1.00  0.00     0.031 C 
ATOM     13  C   UNL A   1      34.510  32.705  32.323  1.00  0.00     0.014 C 
BRANCH  12  14
ATOM     14  C   UNL A   1      36.706  33.766  31.738  1.00  0.00    -0.044 A 
ATOM     15  C   UNL A   1      36.507  33.338  30.419  1.00  0.00     0.004 A 
ATOM     16  C   UNL A   1      37.971  34.299  32.062  1.00  0.00     0.004 A 
ATOM     17  C   UNL A   1      37.566  33.311  29.506  1.00  0.00     0.000 A 
ATOM     18  C   UNL A   1      39.031  34.267  31.154  1.00  0.00     0.000 A 
ATOM     19  C   UNL A   1      38.834  33.748  29.882  1.00  0.00     0.000 A 
ENDBRANCH  12  14
ENDBRANCH  11  12
ENDBRANCH   9  11
ENDBRANCH   6   9
ENDBRANCH   5   6
ENDBRANCH   4   5
ENDBRANCH   2   4
ENDBRANCH   1   2
BRANCH   1  20
ATOM     20  C   UNL A   1      33.210  34.036  27.965  1.00  0.00     0.274 C 
BRANCH  20  21
ATOM     21  C   UNL A   1      33.711  32.672  28.430  1.00  0.00     0.275 C 
BRANCH  21  22
ATOM     22  O   UNL A   1      34.545  32.062  27.442  1.00  0.00    -0.458 OA
BRANCH  22  23
ATOM     23  C   UNL A   1      34.499  30.711  27.398  1.00  0.00     0.338 C 
ATOM     24  O   UNL A   1      33.639  29.997  26.924  1.00  0.00    -0.246 OA
BRANCH  23  25
ATOM     25  C   UNL A   1      35.718  30.217  28.029  1.00  0.00     0.060 A 
ATOM     26  C   UNL A   1      35.672  29.716  29.331  1.00  0.00     0.016 A 
ATOM     27  C   UNL A   1      36.900  30.247  27.292  1.00  0.00     0.016 A 
ATOM     28  C   UNL A   1      36.830  29.212  29.906  1.00  0.00     0.010 A 
ATOM     29  C   UNL A   1      38.049  29.713  27.857  1.00  0.00     0.010 A 
ATOM     30  C   UNL A   1      38.015  29.190  29.162  1.00  0.00    -0.014 A 
BRANCH  30  31
ATOM     31  C   UNL A   1      39.249  28.621  29.733  1.00  0.00     0.031 A 
ATOM     32  C   UNL A   1      39.853  29.272  30.935  1.00  0.00     0.074 A 
ATOM     33  C   UNL A   1      39.832  27.581  29.111  1.00  0.00     0.049 A 
ATOM     34  N   UNL A   1      41.017  29.070  31.486  1.00  0.00    -0.248 NA
ATOM     35  C   UNL A   1      39.039  30.309  31.592  1.00  0.00     0.031 C 
ATOM     36  C   UNL A   1      39.281  26.879  27.948  1.00  0.00     0.029 A 
ATOM     37  N   UNL A   1      41.022  26.948  29.349  1.00  0.00    -0.354 N 
ATOM     38  C   UNL A   1      41.091  29.970  32.543  1.00  0.00     0.074 A 
ATOM     39  C   UNL A   1      39.867  30.741  32.531  1.00  0.00     0.031 C 
ATOM     40  C   UNL A   1      40.135  25.915  27.573  1.00  0.00     0.029 A 
ATOM     41  C   UNL A   1      41.320  25.978  28.422  1.00  0.00     0.049 A 
ATOM     42  H   UNL A   1      41.606  27.166  30.111  1.00  0.00     0.167 HD
ATOM     43  C   UNL A   1      42.098  30.124  33.435  1.00  0.00     0.034 A 
ATOM     44  C   UNL A   1      42.444  25.255  28.257  1.00  0.00     0.034 A 
ATOM     45  C   UNL A   1      43.307  29.339  33.390  1.00  0.00     0.049 A 
ATOM     46  C   UNL A   1      43.581  25.494  29.219  1.00  0.00     0.074 A 
ATOM     47  C   UNL A   1      44.404  29.390  34.229  1.00  0.00     0.029 A 
ATOM     48  N   UNL A   1      43.579  28.361  32.436  1.00  0.00    -0.354 N 
ATOM     49  N   UNL A   1      43.651  26.353  30.212  1.00  0.00    -0.248 NA
ATOM     50  C   UNL A   1      44.782  24.671  29.047  1.00  0.00     0.031 C 
ATOM     51  C   UNL A   1      45.368  28.501  33.740  1.00  0.00     0.029 A 
ATOM     52  C   UNL A   1      44.835  27.822  32.654  1.00  0.00     0.049 A 
ATOM     53  H   UNL A   1      42.968  28.092  31.714  1.00  0.00     0.167 HD
ATOM     54  C   UNL A   1      44.887  26.137  30.815  1.00  0.00     0.074 A 
ATOM     55  C   UNL A   1      45.527  25.073  30.068  1.00  0.00     0.031 C 
ATOM     56  C   UNL A   1      45.436  26.751  31.893  1.00  0.00     0.034 A 
BRANCH  43  57
ATOM     57  C   UNL A   1      41.950  31.209  34.473  1.00  0.00     0.023 A 
ATOM     58  C   UNL A   1      42.357  32.532  34.228  1.00  0.00     0.031 A 
ATOM     59  C   UNL A   1      41.437  30.909  35.748  1.00  0.00     0.131 A 
ATOM     60  C   UNL A   1      42.321  33.482  35.260  1.00  0.00     0.055 A 
ATOM     61  C   UNL A   1      41.321  31.880  36.745  1.00  0.00     0.041 A 
ATOM     62  F   UNL A   1      41.059  29.658  36.056  1.00  0.00    -0.206 F 
ATOM     63  C   UNL A   1      41.780  33.172  36.509  1.00  0.00     0.022 A 
BRANCH  60  64
ATOM     64  S   UNL A   1      43.141  35.078  34.996  1.00  0.00     0.124 S 
ATOM     65  O   UNL A   1      43.846  35.262  36.262  1.00  0.00    -0.237 OA
ATOM     66  O   UNL A   1      43.979  34.814  33.831  1.00  0.00    -0.237 OA
ATOM     67  O   UNL A   1      42.030  36.001  34.769  1.00  0.00    -0.744 OA
ENDBRANCH  60  64
ENDBRANCH  43  57
BRANCH  44  68
ATOM     68  C   UNL A   1      42.559  24.276  27.140  1.00  0.00     0.023 A 
ATOM     69  C   UNL A   1      41.951  23.014  27.222  1.00  0.00     0.031 A 
ATOM     70  C   UNL A   1      43.299  24.573  25.980  1.00  0.00     0.131 A 
ATOM     71  C   UNL A   1      42.133  22.079  26.190  1.00  0.00     0.055 A 
ATOM     72  C   UNL A   1      43.426  23.662  24.929  1.00  0.00     0.041 A 
ATOM     73  F   UNL A   1      43.901  25.766  25.844  1.00  0.00    -0.206 F 
ATOM     74  C   UNL A   1      42.852  22.401  25.037  1.00  0.00     0.022 A 
BRANCH  71  75
ATOM     75  S   UNL A   1      41.499  20.397  26.426  1.00  0.00     0.124 S 
ATOM     76  O   UNL A   1      41.908  20.117  27.798  1.00  0.00    -0.237 OA
ATOM     77  O   UNL A   1      40.068  20.580  26.207  1.00  0.00    -0.237 OA
ATOM     78  O   UNL A   1      42.193  19.625  25.397  1.00  0.00    -0.744 OA
ENDBRANCH  71  75
ENDBRANCH  44  68
BRANCH  56  79
ATOM     79  C   UNL A   1      46.761  26.223  32.381  1.00  0.00     0.023 A 
ATOM     80  C   UNL A   1      46.853  25.189  33.327  1.00  0.00     0.031 A 
ATOM     81  C   UNL A   1      47.954  26.749  31.849  1.00  0.00     0.131 A 
ATOM     82  C   UNL A   1      48.114  24.739  33.741  1.00  0.00     0.055 A 
ATOM     83  C   UNL A   1      49.202  26.252  32.217  1.00  0.00     0.041 A 
ATOM     84  F   UNL A   1      47.918  27.740  30.945  1.00  0.00    -0.206 F 
ATOM     85  C   UNL A   1      49.288  25.246  33.175  1.00  0.00     0.022 A 
BRANCH  82  86
ATOM     86  S   UNL A   1      48.209  23.521  35.081  1.00  0.00     0.124 S 
ATOM     87  O   UNL A   1      47.133  22.601  34.730  1.00  0.00    -0.237 OA
ATOM     88  O   UNL A   1      49.565  23.002  34.937  1.00  0.00    -0.237 OA
ATOM     89  O   UNL A   1      47.975  24.317  36.284  1.00  0.00    -0.744 OA
ENDBRANCH  82  86
ENDBRANCH  56  79
ENDBRANCH  30  31
ENDBRANCH  23  25
ENDBRANCH  22  23
ENDBRANCH  21  22
ENDBRANCH  20  21
ENDBRANCH   1  20
TORSDOF 20
ENDMDL
MODEL 2
REMARK VINA RESULT:      -9.5      4.038     10.061
REMARK SMILES C[C@H](CNS(=O)(=O)CCC(=O)OCCOC(=O)c1ccc(-c2c3nc(c(-c4cc(S(=O)(=O)[O-])ccc4F)c4ccc([nH]4)c(-c4cc(S(=O)(=O)[O-])ccc4F)c4nc(c(-c5cc(S(=O)(=O)[O-])ccc5F)c5ccc2[nH]5)C=C4)C=C3)cc1)c1ccccc1
REMARK SMILES IDX 12 1 10 2 11 3 9 4 8 5 5 6 6 7 7 8 4 9 3 11 2 12 1 13 81 14
REMARK SMILES IDX 82 15 86 16 83 17 85 18 84 19 13 20 14 21 15 22 16 23 17 24
REMARK SMILES IDX 18 25 19 26 80 27 20 28 79 29 21 30 22 31 23 32 73 33 24 34
REMARK SMILES IDX 78 35 72 36 74 37 25 38 77 39 71 40 70 41 26 43 58 44 38 45
REMARK SMILES IDX 57 46 39 47 42 48 56 49 75 50 40 51 41 52 55 54 76 55 43 56
REMARK SMILES IDX 27 57 28 58 36 59 29 60 35 61 37 62 34 63 30 64 31 65 32 66
REMARK SMILES IDX 33 67 59 68 60 69 68 70 61 71 67 72 69 73 66 74 62 75 63 76
REMARK SMILES IDX 64 77 65 78 44 79 45 80 53 81 46 82 52 83 54 84 51 85 47 86
REMARK SMILES IDX 48 87 49 88 50 89
REMARK H PARENT 4 10 74 42 42 53
REMARK Flexibility Score: inf
ROOT
ATOM      1  O   UNL A   1      31.004  28.770  24.183  1.00  0.00    -0.462 OA
ENDROOT
BRANCH   1   2
ATOM      2  C   UNL A   1      30.455  27.594  23.808  1.00  0.00     0.306 C 
ATOM      3  O   UNL A   1      29.825  26.856  24.558  1.00  0.00    -0.252 OA
BRANCH   2   4
ATOM      4  C   UNL A   1      30.734  27.222  22.377  1.00  0.00     0.140 C 
BRANCH   4   5
ATOM      5  C   UNL A   1      31.370  25.864  22.138  1.00  0.00     0.165 C 
BRANCH   5   6
ATOM      6  S   UNL A   1      33.006  25.917  21.417  1.00  0.00     0.212 S 
ATOM      7  O   UNL A   1      33.670  27.130  21.837  1.00  0.00    -0.212 OA
ATOM      8  O   UNL A   1      32.899  25.592  20.009  1.00  0.00    -0.212 OA
BRANCH   6   9
ATOM      9  N   UNL A   1      33.831  24.630  22.092  1.00  0.00    -0.215 NA
ATOM     10  H   UNL A   1      34.113  24.022  21.324  1.00  0.00     0.141 HD
BRANCH   9  11
ATOM     11  C   UNL A   1      33.148  23.778  23.092  1.00  0.00     0.106 C 
BRANCH  11  12
ATOM     12  C   UNL A   1      33.727  23.936  24.538  1.00  0.00     0.031 C 
ATOM     13  C   UNL A   1      32.747  23.465  25.639  1.00  0.00     0.014 C 
BRANCH  12  14
ATOM     14  C   UNL A   1      35.096  23.277  24.782  1.00  0.00    -0.044 A 
ATOM     15  C   UNL A   1      35.364  21.939  24.466  1.00  0.00     0.004 A 
ATOM     16  C   UNL A   1      36.140  24.025  25.367  1.00  0.00     0.004 A 
ATOM     17  C   UNL A   1      36.568  21.338  24.847  1.00  0.00     0.000 A 
ATOM     18  C   UNL A   1      37.340  23.426  25.752  1.00  0.00     0.000 A 
ATOM     19  C   UNL A   1      37.544  22.074  25.516  1.00  0.00     0.000 A 
ENDBRANCH  12  14
ENDBRANCH  11  12
ENDBRANCH   9  11
ENDBRANCH   6   9
ENDBRANCH   5   6
ENDBRANCH   4   5
ENDBRANCH   2   4
ENDBRANCH   1   2
BRANCH   1  20
ATOM     20  C   UNL A   1      31.438  28.857  25.555  1.00  0.00     0.274 C 
BRANCH  20  21
ATOM     21  C   UNL A   1      31.901  30.271  25.893  1.00  0.00     0.275 C 
BRANCH  21  22
ATOM     22  O   UNL A   1      33.207  30.262  26.477  1.00  0.00    -0.458 OA
BRANCH  22  23
ATOM     23  C   UNL A   1      33.507  31.338  27.241  1.00  0.00     0.338 C 
ATOM     24  O   UNL A   1      32.857  32.349  27.414  1.00  0.00    -0.246 OA
BRANCH  23  25
ATOM     25  C   UNL A   1      34.794  31.073  27.874  1.00  0.00     0.060 A 
ATOM     26  C   UNL A   1      35.722  32.106  28.019  1.00  0.00     0.016 A 
ATOM     27  C   UNL A   1      35.049  29.783  28.334  1.00  0.00     0.016 A 
ATOM     28  C   UNL A   1      36.927  31.851  28.658  1.00  0.00     0.010 A 
ATOM     29  C   UNL A   1      36.241  29.540  29.001  1.00  0.00     0.010 A 
ATOM     30  C   UNL A   1      37.178  30.573  29.169  1.00  0.00    -0.014 A 
BRANCH  30  31
ATOM     31  C   UNL A   1      38.431  30.287  29.890  1.00  0.00     0.031 A 
ATOM     32  C   UNL A   1      39.393  29.305  29.302  1.00  0.00     0.074 A 
ATOM     33  C   UNL A   1      38.636  30.862  31.089  1.00  0.00     0.049 A 
ATOM     34  N   UNL A   1      40.448  28.760  29.839  1.00  0.00    -0.248 NA
ATOM     35  C   UNL A   1      39.110  28.861  27.927  1.00  0.00     0.031 C 
ATOM     36  C   UNL A   1      37.751  31.853  31.709  1.00  0.00     0.029 A 
ATOM     37  N   UNL A   1      39.633  30.683  32.009  1.00  0.00    -0.354 N 
ATOM     38  C   UNL A   1      40.947  27.888  28.879  1.00  0.00     0.074 A 
ATOM     39  C   UNL A   1      40.056  27.954  27.741  1.00  0.00     0.031 C 
ATOM     40  C   UNL A   1      38.245  32.189  32.910  1.00  0.00     0.029 A 
ATOM     41  C   UNL A   1      39.437  31.390  33.172  1.00  0.00     0.049 A 
ATOM     42  H   UNL A   1      40.414  30.105  31.853  1.00  0.00     0.167 HD
ATOM     43  C   UNL A   1      42.054  27.111  28.957  1.00  0.00     0.034 A 
ATOM     44  C   UNL A   1      40.123  31.357  34.331  1.00  0.00     0.034 A 
ATOM     45  C   UNL A   1      42.898  27.070  30.125  1.00  0.00     0.049 A 
ATOM     46  C   UNL A   1      41.309  30.430  34.418  1.00  0.00     0.074 A 
ATOM     47  C   UNL A   1      44.047  26.331  30.337  1.00  0.00     0.029 A 
ATOM     48  N   UNL A   1      42.673  27.800  31.289  1.00  0.00    -0.354 N 
ATOM     49  N   UNL A   1      41.774  29.600  33.511  1.00  0.00    -0.248 NA
ATOM     50  C   UNL A   1      42.067  30.436  35.674  1.00  0.00     0.031 C 
ATOM     51  C   UNL A   1      44.471  26.554  31.651  1.00  0.00     0.029 A 
ATOM     52  C   UNL A   1      43.646  27.508  32.228  1.00  0.00     0.049 A 
ATOM     53  H   UNL A   1      41.930  28.432  31.423  1.00  0.00     0.167 HD
ATOM     54  C   UNL A   1      42.909  29.021  34.071  1.00  0.00     0.074 A 
ATOM     55  C   UNL A   1      43.051  29.594  35.395  1.00  0.00     0.031 C 
ATOM     56  C   UNL A   1      43.762  28.111  33.537  1.00  0.00     0.034 A 
BRANCH  43  57
ATOM     57  C   UNL A   1      42.360  26.216  27.781  1.00  0.00     0.023 A 
ATOM     58  C   UNL A   1      41.861  24.904  27.697  1.00  0.00     0.031 A 
ATOM     59  C   UNL A   1      43.204  26.661  26.748  1.00  0.00     0.131 A 
ATOM     60  C   UNL A   1      42.272  24.060  26.653  1.00  0.00     0.055 A 
ATOM     61  C   UNL A   1      43.538  25.846  25.664  1.00  0.00     0.041 A 
ATOM     62  F   UNL A   1      43.737  27.892  26.783  1.00  0.00    -0.206 F 
ATOM     63  C   UNL A   1      43.085  24.531  25.622  1.00  0.00     0.022 A 
BRANCH  60  64
ATOM     64  S   UNL A   1      41.859  22.297  26.753  1.00  0.00     0.124 S 
ATOM     65  O   UNL A   1      42.875  21.808  27.682  1.00  0.00    -0.237 OA
ATOM     66  O   UNL A   1      40.491  22.320  27.258  1.00  0.00    -0.237 OA
ATOM     67  O   UNL A   1      42.009  21.831  25.376  1.00  0.00    -0.744 OA
ENDBRANCH  60  64
ENDBRANCH  43  57
BRANCH  44  68
ATOM     68  C   UNL A   1      39.696  32.192  35.488  1.00  0.00     0.023 A 
ATOM     69  C   UNL A   1      38.870  31.665  36.493  1.00  0.00     0.031 A 
ATOM     70  C   UNL A   1      40.086  33.540  35.601  1.00  0.00     0.131 A 
ATOM     71  C   UNL A   1      38.420  32.490  37.536  1.00  0.00     0.055 A 
ATOM     72  C   UNL A   1      39.687  34.340  36.673  1.00  0.00     0.041 A 
ATOM     73  F   UNL A   1      40.878  34.098  34.671  1.00  0.00    -0.206 F 
ATOM     74  C   UNL A   1      38.836  33.819  37.642  1.00  0.00     0.022 A 
BRANCH  71  75
ATOM     75  S   UNL A   1      37.198  31.825  38.698  1.00  0.00     0.124 S 
ATOM     76  O   UNL A   1      37.027  30.464  38.201  1.00  0.00    -0.237 OA
ATOM     77  O   UNL A   1      37.891  31.960  39.975  1.00  0.00    -0.237 OA
ATOM     78  O   UNL A   1      36.044  32.705  38.519  1.00  0.00    -0.744 OA
ENDBRANCH  71  75
ENDBRANCH  44  68
BRANCH  56  79
ATOM     79  C   UNL A   1      44.975  27.747  34.354  1.00  0.00     0.023 A 
ATOM     80  C   UNL A   1      45.020  26.596  35.156  1.00  0.00     0.031 A 
ATOM     81  C   UNL A   1      46.122  28.561  34.289  1.00  0.00     0.131 A 
ATOM     82  C   UNL A   1      46.179  26.309  35.892  1.00  0.00     0.055 A 
ATOM     83  C   UNL A   1      47.292  28.235  34.972  1.00  0.00     0.041 A 
ATOM     84  F   UNL A   1      46.127  29.674  33.539  1.00  0.00    -0.206 F 
ATOM     85  C   UNL A   1      47.322  27.107  35.787  1.00  0.00     0.022 A 
BRANCH  82  86
ATOM     86  S   UNL A   1      46.155  24.910  37.046  1.00  0.00     0.124 S 
ATOM     87  O   UNL A   1      45.033  24.124  36.544  1.00  0.00    -0.237 OA
ATOM     88  O   UNL A   1      47.478  24.325  36.857  1.00  0.00    -0.237 OA
ATOM     89  O   UNL A   1      45.937  25.541  38.345  1.00  0.00    -0.744 OA
ENDBRANCH  82  86
ENDBRANCH  56  79
ENDBRANCH  30  31
ENDBRANCH  23  25
ENDBRANCH  22  23
ENDBRANCH  21  22
ENDBRANCH  20  21
ENDBRANCH   1  20
TORSDOF 20
ENDMDL
MODEL 3
REMARK VINA RESULT:      -9.5      5.316      9.510
REMARK SMILES C[C@H](CNS(=O)(=O)CCC(=O)OCCOC(=O)c1ccc(-c2c3nc(c(-c4cc(S(=O)(=O)[O-])ccc4F)c4ccc([nH]4)c(-c4cc(S(=O)(=O)[O-])ccc4F)c4nc(c(-c5cc(S(=O)(=O)[O-])ccc5F)c5ccc2[nH]5)C=C4)C=C3)cc1)c1ccccc1
REMARK SMILES IDX 12 1 10 2 11 3 9 4 8 5 5 6 6 7 7 8 4 9 3 11 2 12 1 13 81 14
REMARK SMILES IDX 82 15 86 16 83 17 85 18 84 19 13 20 14 21 15 22 16 23 17 24
REMARK SMILES IDX 18 25 19 26 80 27 20 28 79 29 21 30 22 31 23 32 73 33 24 34
REMARK SMILES IDX 78 35 72 36 74 37 25 38 77 39 71 40 70 41 26 43 58 44 38 45
REMARK SMILES IDX 57 46 39 47 42 48 56 49 75 50 40 51 41 52 55 54 76 55 43 56
REMARK SMILES IDX 27 57 28 58 36 59 29 60 35 61 37 62 34 63 30 64 31 65 32 66
REMARK SMILES IDX 33 67 59 68 60 69 68 70 61 71 67 72 69 73 66 74 62 75 63 76
REMARK SMILES IDX 64 77 65 78 44 79 45 80 53 81 46 82 52 83 54 84 51 85 47 86
REMARK SMILES IDX 48 87 49 88 50 89
REMARK H PARENT 4 10 74 42 42 53
REMARK Flexibility Score: inf
ROOT
ATOM      1  O   UNL A   1      35.287  21.367  26.167  1.00  0.00    -0.462 OA
ENDROOT
BRANCH   1   2
ATOM      2  C   UNL A   1      33.952  21.426  26.366  1.00  0.00     0.306 C 
ATOM      3  O   UNL A   1      33.205  20.454  26.334  1.00  0.00    -0.252 OA
BRANCH   2   4
ATOM      4  C   UNL A   1      33.431  22.822  26.577  1.00  0.00     0.140 C 
BRANCH   4   5
ATOM      5  C   UNL A   1      32.236  22.971  27.502  1.00  0.00     0.165 C 
BRANCH   5   6
ATOM      6  S   UNL A   1      30.712  23.438  26.690  1.00  0.00     0.212 S 
ATOM      7  O   UNL A   1      29.595  23.085  27.537  1.00  0.00    -0.212 OA
ATOM      8  O   UNL A   1      30.762  22.977  25.317  1.00  0.00    -0.212 OA
BRANCH   6   9
ATOM      9  N   UNL A   1      30.757  25.105  26.583  1.00  0.00    -0.215 NA
ATOM     10  H   UNL A   1      30.456  25.469  27.486  1.00  0.00     0.141 HD
BRANCH   9  11
ATOM     11  C   UNL A   1      29.945  25.786  25.548  1.00  0.00     0.106 C 
BRANCH  11  12
ATOM     12  C   UNL A   1      30.798  26.653  24.563  1.00  0.00     0.031 C 
ATOM     13  C   UNL A   1      29.936  27.504  23.601  1.00  0.00     0.014 C 
BRANCH  12  14
ATOM     14  C   UNL A   1      31.851  27.563  25.219  1.00  0.00    -0.044 A 
ATOM     15  C   UNL A   1      33.119  27.106  25.603  1.00  0.00     0.004 A 
ATOM     16  C   UNL A   1      31.548  28.917  25.472  1.00  0.00     0.004 A 
ATOM     17  C   UNL A   1      33.986  27.924  26.335  1.00  0.00     0.000 A 
ATOM     18  C   UNL A   1      32.409  29.733  26.207  1.00  0.00     0.000 A 
ATOM     19  C   UNL A   1      33.619  29.228  26.662  1.00  0.00     0.000 A 
ENDBRANCH  12  14
ENDBRANCH  11  12
ENDBRANCH   9  11
ENDBRANCH   6   9
ENDBRANCH   5   6
ENDBRANCH   4   5
ENDBRANCH   2   4
ENDBRANCH   1   2
BRANCH   1  20
ATOM     20  C   UNL A   1      35.718  20.699  24.964  1.00  0.00     0.274 C 
BRANCH  20  21
ATOM     21  C   UNL A   1      37.239  20.715  24.845  1.00  0.00     0.275 C 
BRANCH  21  22
ATOM     22  O   UNL A   1      37.828  21.545  25.851  1.00  0.00    -0.458 OA
BRANCH  22  23
ATOM     23  C   UNL A   1      39.087  21.210  26.214  1.00  0.00     0.338 C 
ATOM     24  O   UNL A   1      39.600  20.109  26.243  1.00  0.00    -0.246 OA
BRANCH  23  25
ATOM     25  C   UNL A   1      39.778  22.445  26.567  1.00  0.00     0.060 A 
ATOM     26  C   UNL A   1      39.333  23.662  26.047  1.00  0.00     0.016 A 
ATOM     27  C   UNL A   1      40.864  22.369  27.436  1.00  0.00     0.016 A 
ATOM     28  C   UNL A   1      39.972  24.836  26.421  1.00  0.00     0.010 A 
ATOM     29  C   UNL A   1      41.480  23.546  27.834  1.00  0.00     0.010 A 
ATOM     30  C   UNL A   1      41.033  24.780  27.332  1.00  0.00    -0.014 A 
BRANCH  30  31
ATOM     31  C   UNL A   1      41.702  26.015  27.779  1.00  0.00     0.031 A 
ATOM     32  C   UNL A   1      40.916  27.019  28.559  1.00  0.00     0.074 A 
ATOM     33  C   UNL A   1      42.977  26.233  27.409  1.00  0.00     0.049 A 
ATOM     34  N   UNL A   1      41.231  28.241  28.886  1.00  0.00    -0.248 NA
ATOM     35  C   UNL A   1      39.581  26.591  29.011  1.00  0.00     0.031 C 
ATOM     36  C   UNL A   1      43.813  25.282  26.671  1.00  0.00     0.029 A 
ATOM     37  N   UNL A   1      43.784  27.325  27.578  1.00  0.00    -0.354 N 
ATOM     38  C   UNL A   1      40.126  28.742  29.564  1.00  0.00     0.074 A 
ATOM     39  C   UNL A   1      39.121  27.700  29.568  1.00  0.00     0.031 C 
ATOM     40  C   UNL A   1      45.014  25.836  26.447  1.00  0.00     0.029 A 
ATOM     41  C   UNL A   1      45.007  27.200  26.963  1.00  0.00     0.049 A 
ATOM     42  H   UNL A   1      43.514  28.122  28.090  1.00  0.00     0.167 HD
ATOM     43  C   UNL A   1      39.981  29.965  30.129  1.00  0.00     0.034 A 
ATOM     44  C   UNL A   1      45.990  28.107  26.801  1.00  0.00     0.034 A 
ATOM     45  C   UNL A   1      41.010  30.974  30.079  1.00  0.00     0.049 A 
ATOM     46  C   UNL A   1      45.777  29.485  27.376  1.00  0.00     0.074 A 
ATOM     47  C   UNL A   1      40.996  32.251  30.609  1.00  0.00     0.029 A 
ATOM     48  N   UNL A   1      42.241  30.816  29.448  1.00  0.00    -0.354 N 
ATOM     49  N   UNL A   1      44.727  29.959  28.009  1.00  0.00    -0.248 NA
ATOM     50  C   UNL A   1      46.874  30.447  27.223  1.00  0.00     0.031 C 
ATOM     51  C   UNL A   1      42.182  32.890  30.233  1.00  0.00     0.029 A 
ATOM     52  C   UNL A   1      42.981  31.981  29.555  1.00  0.00     0.049 A 
ATOM     53  H   UNL A   1      42.541  29.997  28.994  1.00  0.00     0.167 HD
ATOM     54  C   UNL A   1      45.058  31.260  28.374  1.00  0.00     0.074 A 
ATOM     55  C   UNL A   1      46.401  31.495  27.883  1.00  0.00     0.031 C 
ATOM     56  C   UNL A   1      44.327  32.173  29.062  1.00  0.00     0.034 A 
BRANCH  43  57
ATOM     57  C   UNL A   1      38.656  30.279  30.779  1.00  0.00     0.023 A 
ATOM     58  C   UNL A   1      37.621  30.926  30.079  1.00  0.00     0.031 A 
ATOM     59  C   UNL A   1      38.436  29.972  32.134  1.00  0.00     0.131 A 
ATOM     60  C   UNL A   1      36.453  31.316  30.753  1.00  0.00     0.055 A 
ATOM     61  C   UNL A   1      37.236  30.283  32.776  1.00  0.00     0.041 A 
ATOM     62  F   UNL A   1      39.395  29.382  32.865  1.00  0.00    -0.206 F 
ATOM     63  C   UNL A   1      36.243  30.974  32.090  1.00  0.00     0.022 A 
BRANCH  60  64
ATOM     64  S   UNL A   1      35.289  32.415  29.901  1.00  0.00     0.124 S 
ATOM     65  O   UNL A   1      34.815  31.559  28.816  1.00  0.00    -0.237 OA
ATOM     66  O   UNL A   1      34.317  32.718  30.946  1.00  0.00    -0.237 OA
ATOM     67  O   UNL A   1      36.124  33.538  29.480  1.00  0.00    -0.744 OA
ENDBRANCH  60  64
ENDBRANCH  43  57
BRANCH  44  68
ATOM     68  C   UNL A   1      47.230  27.756  26.053  1.00  0.00     0.023 A 
ATOM     69  C   UNL A   1      47.318  27.959  24.667  1.00  0.00     0.031 A 
ATOM     70  C   UNL A   1      48.341  27.188  26.704  1.00  0.00     0.131 A 
ATOM     71  C   UNL A   1      48.467  27.553  23.970  1.00  0.00     0.055 A 
ATOM     72  C   UNL A   1      49.506  26.843  26.016  1.00  0.00     0.041 A 
ATOM     73  F   UNL A   1      48.315  26.972  28.029  1.00  0.00    -0.206 F 
ATOM     74  C   UNL A   1      49.569  27.012  24.638  1.00  0.00     0.022 A 
BRANCH  71  75
ATOM     75  S   UNL A   1      48.460  27.651  22.159  1.00  0.00     0.124 S 
ATOM     76  O   UNL A   1      47.132  28.195  21.899  1.00  0.00    -0.237 OA
ATOM     77  O   UNL A   1      49.583  28.545  21.901  1.00  0.00    -0.237 OA
ATOM     78  O   UNL A   1      48.660  26.264  21.744  1.00  0.00    -0.744 OA
ENDBRANCH  71  75
ENDBRANCH  44  68
BRANCH  56  79
ATOM     79  C   UNL A   1      45.001  33.478  29.400  1.00  0.00     0.023 A 
ATOM     80  C   UNL A   1      44.861  34.623  28.600  1.00  0.00     0.031 A 
ATOM     81  C   UNL A   1      45.768  33.575  30.577  1.00  0.00     0.131 A 
ATOM     82  C   UNL A   1      45.511  35.809  28.968  1.00  0.00     0.055 A 
ATOM     83  C   UNL A   1      46.358  34.774  30.969  1.00  0.00     0.041 A 
ATOM     84  F   UNL A   1      45.935  32.507  31.373  1.00  0.00    -0.206 F 
ATOM     85  C   UNL A   1      46.238  35.899  30.159  1.00  0.00     0.022 A 
BRANCH  82  86
ATOM     86  S   UNL A   1      45.451  37.224  27.835  1.00  0.00     0.124 S 
ATOM     87  O   UNL A   1      44.352  36.856  26.950  1.00  0.00    -0.237 OA
ATOM     88  O   UNL A   1      45.194  38.339  28.741  1.00  0.00    -0.237 OA
ATOM     89  O   UNL A   1      46.774  37.223  27.215  1.00  0.00    -0.744 OA
ENDBRANCH  82  86
ENDBRANCH  56  79
ENDBRANCH  30  31
ENDBRANCH  23  25
ENDBRANCH  22  23
ENDBRANCH  21  22
ENDBRANCH  20  21
ENDBRANCH   1  20
TORSDOF 20
ENDMDL
