MODEL 1
REMARK VINA RESULT:     -13.3      0.000      0.000
REMARK SMILES COc1ccc(N2C(=O)/C(=C/c3c(C(=O)OCCOC(=O)c4ccc(-c5c6nc(c(-c7cc(S(=O)(=O)[O-])ccc7F)c7ccc([nH]7)c(-c7cc(S(=O)(=O)[O-])ccc7F)c7nc(c(-c8cc(S(=O)(=O)[O-])ccc8F)c8ccc5[nH]8)C=C7)C=C6)cc4)[nH]c4cc(OC)ccc34)SC2=S)cc1
REMARK SMILES IDX 17 1 16 2 14 3 15 4 13 5 12 6 93 7 85 8 86 9 92 10 87 12
REMARK SMILES IDX 91 13 88 14 11 15 7 16 8 17 95 18 9 19 10 20 94 21 96 22
REMARK SMILES IDX 6 23 3 24 4 25 98 26 5 27 97 28 2 29 1 30 89 31 90 32 18 33
REMARK SMILES IDX 19 34 20 35 21 36 22 37 23 38 84 39 24 40 83 41 25 42 26 43
REMARK SMILES IDX 27 44 77 45 28 46 82 47 76 48 78 49 29 50 81 51 75 52 74 53
REMARK SMILES IDX 30 55 62 56 42 57 61 58 43 59 46 60 60 61 79 62 44 63 45 64
REMARK SMILES IDX 59 66 80 67 47 68 31 69 32 70 40 71 33 72 39 73 41 74 38 75
REMARK SMILES IDX 34 76 35 77 36 78 37 79 63 80 64 81 72 82 65 83 71 84 73 85
REMARK SMILES IDX 70 86 66 87 67 88 68 89 69 90 48 91 49 92 57 93 50 94 56 95
REMARK SMILES IDX 58 96 55 97 51 98 52 99 53 100 54 101
REMARK H PARENT 85 11 78 54 46 65
REMARK Flexibility Score: inf
ROOT
ATOM      1  C   UNL A   1      35.273  22.547  26.099  1.00  0.00     0.275 C 
ENDROOT
BRANCH   1   2
ATOM      2  O   UNL A   1      34.769  22.255  27.419  1.00  0.00    -0.457 OA
BRANCH   2   3
ATOM      3  C   UNL A   1      33.422  22.080  27.478  1.00  0.00     0.355 C 
ATOM      4  O   UNL A   1      32.695  22.598  28.319  1.00  0.00    -0.244 OA
BRANCH   3   5
ATOM      5  C   UNL A   1      32.935  21.247  26.410  1.00  0.00     0.133 A 
ATOM      6  C   UNL A   1      32.115  21.490  25.312  1.00  0.00     0.016 A 
ATOM      7  C   UNL A   1      32.281  20.383  24.400  1.00  0.00     0.008 A 
ATOM      8  N   UNL A   1      33.290  19.928  26.322  1.00  0.00    -0.348 N 
ATOM      9  C   UNL A   1      33.036  19.431  25.079  1.00  0.00     0.050 A 
ATOM     10  C   UNL A   1      31.886  20.047  23.083  1.00  0.00     0.015 A 
ATOM     11  H   UNL A   1      33.678  19.405  27.061  1.00  0.00     0.167 HD
ATOM     12  C   UNL A   1      33.407  18.191  24.557  1.00  0.00     0.073 A 
ATOM     13  C   UNL A   1      32.291  18.809  22.517  1.00  0.00     0.047 A 
ATOM     14  C   UNL A   1      33.037  17.888  23.251  1.00  0.00     0.120 A 
BRANCH   6  15
ATOM     15  C   UNL A   1      31.214  22.608  25.264  1.00  0.00     0.032 C 
ATOM     16  N   UNL A   1      31.584  26.011  24.234  1.00  0.00    -0.261 N 
ATOM     17  C   UNL A   1      30.849  25.021  24.903  1.00  0.00     0.270 C 
ATOM     18  C   UNL A   1      32.429  25.540  23.228  1.00  0.00     0.152 C 
ATOM     19  O   UNL A   1      29.993  25.168  25.767  1.00  0.00    -0.268 OA
ATOM     20  C   UNL A   1      31.288  23.669  24.441  1.00  0.00     0.081 C 
ATOM     21  S   UNL A   1      32.151  23.819  22.972  1.00  0.00    -0.054 SA
ATOM     22  S   UNL A   1      33.667  26.299  22.387  1.00  0.00    -0.051 S 
BRANCH  16  23
ATOM     23  C   UNL A   1      31.474  27.397  24.622  1.00  0.00     0.051 A 
ATOM     24  C   UNL A   1      31.246  30.125  25.412  1.00  0.00     0.119 A 
ATOM     25  C   UNL A   1      30.653  29.670  24.236  1.00  0.00     0.048 A 
ATOM     26  C   UNL A   1      31.942  29.218  26.200  1.00  0.00     0.048 A 
ATOM     27  C   UNL A   1      30.771  28.327  23.839  1.00  0.00     0.030 A 
ATOM     28  C   UNL A   1      32.067  27.880  25.799  1.00  0.00     0.030 A 
BRANCH  24  29
ATOM     29  O   UNL A   1      31.079  31.454  25.687  1.00  0.00    -0.497 OA
ATOM     30  C   UNL A   1      31.709  31.935  26.871  1.00  0.00     0.278 C 
ENDBRANCH  24  29
ENDBRANCH  16  23
ENDBRANCH   6  15
BRANCH  14  31
ATOM     31  O   UNL A   1      33.451  16.649  22.859  1.00  0.00    -0.497 OA
ATOM     32  C   UNL A   1      34.732  16.205  23.268  1.00  0.00     0.278 C 
ENDBRANCH  14  31
ENDBRANCH   3   5
ENDBRANCH   2   3
ENDBRANCH   1   2
BRANCH   1  33
ATOM     33  C   UNL A   1      36.185  21.434  25.572  1.00  0.00     0.275 C 
BRANCH  33  34
ATOM     34  O   UNL A   1      37.425  21.959  25.057  1.00  0.00    -0.458 OA
BRANCH  34  35
ATOM     35  C   UNL A   1      38.522  21.568  25.738  1.00  0.00     0.338 C 
ATOM     36  O   UNL A   1      39.126  20.514  25.615  1.00  0.00    -0.246 OA
BRANCH  35  37
ATOM     37  C   UNL A   1      39.056  22.655  26.569  1.00  0.00     0.060 A 
ATOM     38  C   UNL A   1      38.592  23.936  26.298  1.00  0.00     0.016 A 
ATOM     39  C   UNL A   1      40.182  22.477  27.368  1.00  0.00     0.016 A 
ATOM     40  C   UNL A   1      39.350  25.040  26.639  1.00  0.00     0.010 A 
ATOM     41  C   UNL A   1      40.851  23.606  27.863  1.00  0.00     0.010 A 
ATOM     42  C   UNL A   1      40.476  24.900  27.453  1.00  0.00    -0.014 A 
BRANCH  42  43
ATOM     43  C   UNL A   1      41.265  26.112  27.807  1.00  0.00     0.031 A 
ATOM     44  C   UNL A   1      40.679  27.150  28.727  1.00  0.00     0.074 A 
ATOM     45  C   UNL A   1      42.532  26.244  27.360  1.00  0.00     0.049 A 
ATOM     46  N   UNL A   1      41.113  28.351  29.005  1.00  0.00    -0.248 NA
ATOM     47  C   UNL A   1      39.420  26.799  29.401  1.00  0.00     0.031 C 
ATOM     48  C   UNL A   1      43.241  25.272  26.521  1.00  0.00     0.029 A 
ATOM     49  N   UNL A   1      43.465  27.227  27.572  1.00  0.00    -0.354 N 
ATOM     50  C   UNL A   1      40.142  28.930  29.819  1.00  0.00     0.074 A 
ATOM     51  C   UNL A   1      39.098  27.942  29.989  1.00  0.00     0.031 C 
ATOM     52  C   UNL A   1      44.510  25.668  26.356  1.00  0.00     0.029 A 
ATOM     53  C   UNL A   1      44.672  26.982  26.958  1.00  0.00     0.049 A 
ATOM     54  H   UNL A   1      43.287  28.031  28.111  1.00  0.00     0.167 HD
ATOM     55  C   UNL A   1      40.130  30.174  30.360  1.00  0.00     0.034 A 
ATOM     56  C   UNL A   1      45.770  27.753  26.840  1.00  0.00     0.034 A 
ATOM     57  C   UNL A   1      41.224  31.108  30.219  1.00  0.00     0.049 A 
ATOM     58  C   UNL A   1      45.731  29.130  27.440  1.00  0.00     0.074 A 
ATOM     59  C   UNL A   1      41.331  32.399  30.707  1.00  0.00     0.029 A 
ATOM     60  N   UNL A   1      42.415  30.838  29.553  1.00  0.00    -0.354 N 
ATOM     61  N   UNL A   1      44.760  29.711  28.108  1.00  0.00    -0.248 NA
ATOM     62  C   UNL A   1      46.922  29.964  27.250  1.00  0.00     0.031 C 
ATOM     63  C   UNL A   1      42.562  32.924  30.294  1.00  0.00     0.029 A 
ATOM     64  C   UNL A   1      43.254  31.941  29.603  1.00  0.00     0.049 A 
ATOM     65  H   UNL A   1      42.632  29.987  29.109  1.00  0.00     0.167 HD
ATOM     66  C   UNL A   1      45.221  30.986  28.411  1.00  0.00     0.074 A 
ATOM     67  C   UNL A   1      46.573  31.069  27.890  1.00  0.00     0.031 C 
ATOM     68  C   UNL A   1      44.585  32.003  29.047  1.00  0.00     0.034 A 
BRANCH  55  69
ATOM     69  C   UNL A   1      38.868  30.612  31.069  1.00  0.00     0.023 A 
ATOM     70  C   UNL A   1      37.765  31.153  30.386  1.00  0.00     0.031 A 
ATOM     71  C   UNL A   1      38.798  30.541  32.473  1.00  0.00     0.131 A 
ATOM     72  C   UNL A   1      36.680  31.676  31.110  1.00  0.00     0.055 A 
ATOM     73  C   UNL A   1      37.679  30.985  33.183  1.00  0.00     0.041 A 
ATOM     74  F   UNL A   1      39.827  30.056  33.186  1.00  0.00    -0.206 F 
ATOM     75  C   UNL A   1      36.619  31.573  32.502  1.00  0.00     0.022 A 
BRANCH  72  76
ATOM     76  S   UNL A   1      35.419  32.632  30.221  1.00  0.00     0.124 S 
ATOM     77  O   UNL A   1      36.132  33.878  29.952  1.00  0.00    -0.237 OA
ATOM     78  O   UNL A   1      35.142  31.790  29.063  1.00  0.00    -0.237 OA
ATOM     79  O   UNL A   1      34.327  32.743  31.187  1.00  0.00    -0.744 OA
ENDBRANCH  72  76
ENDBRANCH  55  69
BRANCH  56  80
ATOM     80  C   UNL A   1      46.946  27.277  26.054  1.00  0.00     0.023 A 
ATOM     81  C   UNL A   1      47.163  27.704  24.735  1.00  0.00     0.031 A 
ATOM     82  C   UNL A   1      47.870  26.373  26.613  1.00  0.00     0.131 A 
ATOM     83  C   UNL A   1      48.263  27.211  24.013  1.00  0.00     0.055 A 
ATOM     84  C   UNL A   1      48.992  25.932  25.911  1.00  0.00     0.041 A 
ATOM     85  F   UNL A   1      47.709  25.928  27.870  1.00  0.00    -0.206 F 
ATOM     86  C   UNL A   1      49.188  26.344  24.598  1.00  0.00     0.022 A 
BRANCH  83  87
ATOM     87  S   UNL A   1      48.434  27.668  22.266  1.00  0.00     0.124 S 
ATOM     88  O   UNL A   1      47.210  28.427  22.034  1.00  0.00    -0.237 OA
ATOM     89  O   UNL A   1      49.674  28.437  22.272  1.00  0.00    -0.237 OA
ATOM     90  O   UNL A   1      48.507  26.379  21.582  1.00  0.00    -0.744 OA
ENDBRANCH  83  87
ENDBRANCH  56  80
BRANCH  68  91
ATOM     91  C   UNL A   1      45.374  33.276  29.211  1.00  0.00     0.023 A 
ATOM     92  C   UNL A   1      45.160  34.379  28.367  1.00  0.00     0.031 A 
ATOM     93  C   UNL A   1      46.387  33.364  30.180  1.00  0.00     0.131 A 
ATOM     94  C   UNL A   1      45.997  35.500  28.460  1.00  0.00     0.055 A 
ATOM     95  C   UNL A   1      47.176  34.507  30.310  1.00  0.00     0.041 A 
ATOM     96  F   UNL A   1      46.633  32.336  31.008  1.00  0.00    -0.206 F 
ATOM     97  C   UNL A   1      46.995  35.577  29.436  1.00  0.00     0.022 A 
BRANCH  94  98
ATOM     98  S   UNL A   1      45.837  36.808  27.214  1.00  0.00     0.124 S 
ATOM     99  O   UNL A   1      46.031  38.014  28.013  1.00  0.00    -0.237 OA
ATOM    100  O   UNL A   1      46.910  36.481  26.281  1.00  0.00    -0.237 OA
ATOM    101  O   UNL A   1      44.484  36.620  26.693  1.00  0.00    -0.744 OA
ENDBRANCH  94  98
ENDBRANCH  68  91
ENDBRANCH  42  43
ENDBRANCH  35  37
ENDBRANCH  34  35
ENDBRANCH  33  34
ENDBRANCH   1  33
TORSDOF 18
ENDMDL
MODEL 2
REMARK VINA RESULT:     -12.9      2.012      2.278
REMARK SMILES COc1ccc(N2C(=O)/C(=C/c3c(C(=O)OCCOC(=O)c4ccc(-c5c6nc(c(-c7cc(S(=O)(=O)[O-])ccc7F)c7ccc([nH]7)c(-c7cc(S(=O)(=O)[O-])ccc7F)c7nc(c(-c8cc(S(=O)(=O)[O-])ccc8F)c8ccc5[nH]8)C=C7)C=C6)cc4)[nH]c4cc(OC)ccc34)SC2=S)cc1
REMARK SMILES IDX 17 1 16 2 14 3 15 4 13 5 12 6 93 7 85 8 86 9 92 10 87 12
REMARK SMILES IDX 91 13 88 14 11 15 7 16 8 17 95 18 9 19 10 20 94 21 96 22
REMARK SMILES IDX 6 23 3 24 4 25 98 26 5 27 97 28 2 29 1 30 89 31 90 32 18 33
REMARK SMILES IDX 19 34 20 35 21 36 22 37 23 38 84 39 24 40 83 41 25 42 26 43
REMARK SMILES IDX 27 44 77 45 28 46 82 47 76 48 78 49 29 50 81 51 75 52 74 53
REMARK SMILES IDX 30 55 62 56 42 57 61 58 43 59 46 60 60 61 79 62 44 63 45 64
REMARK SMILES IDX 59 66 80 67 47 68 31 69 32 70 40 71 33 72 39 73 41 74 38 75
REMARK SMILES IDX 34 76 35 77 36 78 37 79 63 80 64 81 72 82 65 83 71 84 73 85
REMARK SMILES IDX 70 86 66 87 67 88 68 89 69 90 48 91 49 92 57 93 50 94 56 95
REMARK SMILES IDX 58 96 55 97 51 98 52 99 53 100 54 101
REMARK H PARENT 85 11 78 54 46 65
REMARK Flexibility Score: inf
ROOT
ATOM      1  C   UNL A   1      35.696  23.373  24.309  1.00  0.00     0.275 C 
ENDROOT
BRANCH   1   2
ATOM      2  O   UNL A   1      35.199  23.538  25.653  1.00  0.00    -0.457 OA
BRANCH   2   3
ATOM      3  C   UNL A   1      33.847  23.442  25.767  1.00  0.00     0.355 C 
ATOM      4  O   UNL A   1      33.131  24.313  26.246  1.00  0.00    -0.244 OA
BRANCH   3   5
ATOM      5  C   UNL A   1      33.344  22.210  25.218  1.00  0.00     0.133 A 
ATOM      6  C   UNL A   1      32.388  21.921  24.248  1.00  0.00     0.016 A 
ATOM      7  C   UNL A   1      32.577  20.543  23.858  1.00  0.00     0.008 A 
ATOM      8  N   UNL A   1      33.831  20.999  25.630  1.00  0.00    -0.348 N 
ATOM      9  C   UNL A   1      33.501  20.011  24.753  1.00  0.00     0.050 A 
ATOM     10  C   UNL A   1      32.082  19.662  22.868  1.00  0.00     0.015 A 
ATOM     11  H   UNL A   1      34.351  20.859  26.454  1.00  0.00     0.167 HD
ATOM     12  C   UNL A   1      33.948  18.689  24.739  1.00  0.00     0.073 A 
ATOM     13  C   UNL A   1      32.558  18.325  22.809  1.00  0.00     0.047 A 
ATOM     14  C   UNL A   1      33.475  17.843  23.742  1.00  0.00     0.120 A 
BRANCH   6  15
ATOM     15  C   UNL A   1      31.370  22.862  23.874  1.00  0.00     0.032 C 
ATOM     16  N   UNL A   1      31.436  26.330  23.005  1.00  0.00    -0.261 N 
ATOM     17  C   UNL A   1      30.711  25.188  23.383  1.00  0.00     0.270 C 
ATOM     18  C   UNL A   1      32.649  26.072  22.365  1.00  0.00     0.152 C 
ATOM     19  O   UNL A   1      29.598  25.133  23.889  1.00  0.00    -0.268 OA
ATOM     20  C   UNL A   1      31.527  23.964  23.119  1.00  0.00     0.081 C 
ATOM     21  S   UNL A   1      32.802  24.347  22.046  1.00  0.00    -0.054 SA
ATOM     22  S   UNL A   1      33.938  27.084  22.006  1.00  0.00    -0.051 S 
BRANCH  16  23
ATOM     23  C   UNL A   1      30.943  27.650  23.315  1.00  0.00     0.051 A 
ATOM     24  C   UNL A   1      29.963  30.248  23.953  1.00  0.00     0.119 A 
ATOM     25  C   UNL A   1      29.436  29.529  22.882  1.00  0.00     0.048 A 
ATOM     26  C   UNL A   1      30.970  29.668  24.713  1.00  0.00     0.048 A 
ATOM     27  C   UNL A   1      29.922  28.250  22.560  1.00  0.00     0.030 A 
ATOM     28  C   UNL A   1      31.462  28.396  24.385  1.00  0.00     0.030 A 
BRANCH  24  29
ATOM     29  O   UNL A   1      29.423  31.487  24.161  1.00  0.00    -0.497 OA
ATOM     30  C   UNL A   1      28.296  31.826  23.359  1.00  0.00     0.278 C 
ENDBRANCH  24  29
ENDBRANCH  16  23
ENDBRANCH   6  15
BRANCH  14  31
ATOM     31  O   UNL A   1      33.979  16.579  23.839  1.00  0.00    -0.497 OA
ATOM     32  C   UNL A   1      34.796  16.262  24.952  1.00  0.00     0.278 C 
ENDBRANCH  14  31
ENDBRANCH   3   5
ENDBRANCH   2   3
ENDBRANCH   1   2
BRANCH   1  33
ATOM     33  C   UNL A   1      36.813  22.327  24.233  1.00  0.00     0.275 C 
BRANCH  33  34
ATOM     34  O   UNL A   1      37.089  21.747  25.523  1.00  0.00    -0.458 OA
BRANCH  34  35
ATOM     35  C   UNL A   1      38.397  21.519  25.765  1.00  0.00     0.338 C 
ATOM     36  O   UNL A   1      39.098  20.658  25.257  1.00  0.00    -0.246 OA
BRANCH  35  37
ATOM     37  C   UNL A   1      38.978  22.565  26.617  1.00  0.00     0.060 A 
ATOM     38  C   UNL A   1      38.432  23.838  26.504  1.00  0.00     0.016 A 
ATOM     39  C   UNL A   1      40.196  22.384  27.267  1.00  0.00     0.016 A 
ATOM     40  C   UNL A   1      39.178  24.950  26.847  1.00  0.00     0.010 A 
ATOM     41  C   UNL A   1      40.870  23.505  27.773  1.00  0.00     0.010 A 
ATOM     42  C   UNL A   1      40.396  24.806  27.515  1.00  0.00    -0.014 A 
BRANCH  42  43
ATOM     43  C   UNL A   1      41.170  26.026  27.875  1.00  0.00     0.031 A 
ATOM     44  C   UNL A   1      40.547  27.081  28.750  1.00  0.00     0.074 A 
ATOM     45  C   UNL A   1      42.453  26.151  27.476  1.00  0.00     0.049 A 
ATOM     46  N   UNL A   1      40.969  28.288  29.021  1.00  0.00    -0.248 NA
ATOM     47  C   UNL A   1      39.262  26.741  29.381  1.00  0.00     0.031 C 
ATOM     48  C   UNL A   1      43.196  25.163  26.685  1.00  0.00     0.029 A 
ATOM     49  N   UNL A   1      43.377  27.140  27.705  1.00  0.00    -0.354 N 
ATOM     50  C   UNL A   1      39.967  28.881  29.785  1.00  0.00     0.074 A 
ATOM     51  C   UNL A   1      38.917  27.896  29.933  1.00  0.00     0.031 C 
ATOM     52  C   UNL A   1      44.470  25.558  26.562  1.00  0.00     0.029 A 
ATOM     53  C   UNL A   1      44.607  26.885  27.144  1.00  0.00     0.049 A 
ATOM     54  H   UNL A   1      43.177  27.954  28.220  1.00  0.00     0.167 HD
ATOM     55  C   UNL A   1      39.932  30.136  30.300  1.00  0.00     0.034 A 
ATOM     56  C   UNL A   1      45.708  27.654  27.054  1.00  0.00     0.034 A 
ATOM     57  C   UNL A   1      41.030  31.069  30.183  1.00  0.00     0.049 A 
ATOM     58  C   UNL A   1      45.644  29.043  27.624  1.00  0.00     0.074 A 
ATOM     59  C   UNL A   1      41.116  32.370  30.649  1.00  0.00     0.029 A 
ATOM     60  N   UNL A   1      42.246  30.788  29.570  1.00  0.00    -0.354 N 
ATOM     61  N   UNL A   1      44.647  29.635  28.241  1.00  0.00    -0.248 NA
ATOM     62  C   UNL A   1      46.841  29.875  27.465  1.00  0.00     0.031 C 
ATOM     63  C   UNL A   1      42.362  32.888  30.274  1.00  0.00     0.029 A 
ATOM     64  C   UNL A   1      43.082  31.893  29.631  1.00  0.00     0.049 A 
ATOM     65  H   UNL A   1      42.481  29.928  29.152  1.00  0.00     0.167 HD
ATOM     66  C   UNL A   1      45.095  30.917  28.537  1.00  0.00     0.074 A 
ATOM     67  C   UNL A   1      46.466  30.992  28.068  1.00  0.00     0.031 C 
ATOM     68  C   UNL A   1      44.434  31.946  29.127  1.00  0.00     0.034 A 
BRANCH  55  69
ATOM     69  C   UNL A   1      38.643  30.586  30.950  1.00  0.00     0.023 A 
ATOM     70  C   UNL A   1      37.591  31.169  30.222  1.00  0.00     0.031 A 
ATOM     71  C   UNL A   1      38.494  30.484  32.346  1.00  0.00     0.131 A 
ATOM     72  C   UNL A   1      36.479  31.699  30.898  1.00  0.00     0.055 A 
ATOM     73  C   UNL A   1      37.348  30.937  33.005  1.00  0.00     0.041 A 
ATOM     74  F   UNL A   1      39.472  29.959  33.101  1.00  0.00    -0.206 F 
ATOM     75  C   UNL A   1      36.339  31.565  32.282  1.00  0.00     0.022 A 
BRANCH  72  76
ATOM     76  S   UNL A   1      35.290  32.704  29.965  1.00  0.00     0.124 S 
ATOM     77  O   UNL A   1      36.140  33.788  29.480  1.00  0.00    -0.237 OA
ATOM     78  O   UNL A   1      34.807  31.768  28.957  1.00  0.00    -0.237 OA
ATOM     79  O   UNL A   1      34.307  33.098  30.973  1.00  0.00    -0.744 OA
ENDBRANCH  72  76
ENDBRANCH  55  69
BRANCH  56  80
ATOM     80  C   UNL A   1      46.915  27.165  26.324  1.00  0.00     0.023 A 
ATOM     81  C   UNL A   1      47.956  26.506  26.996  1.00  0.00     0.031 A 
ATOM     82  C   UNL A   1      47.047  27.361  24.936  1.00  0.00     0.131 A 
ATOM     83  C   UNL A   1      49.092  26.087  26.283  1.00  0.00     0.055 A 
ATOM     84  C   UNL A   1      48.151  26.891  24.224  1.00  0.00     0.041 A 
ATOM     85  F   UNL A   1      46.083  27.989  24.243  1.00  0.00    -0.206 F 
ATOM     86  C   UNL A   1      49.187  26.258  24.900  1.00  0.00     0.022 A 
BRANCH  83  87
ATOM     87  S   UNL A   1      50.481  25.370  27.202  1.00  0.00     0.124 S 
ATOM     88  O   UNL A   1      50.901  26.493  28.033  1.00  0.00    -0.237 OA
ATOM     89  O   UNL A   1      49.844  24.259  27.900  1.00  0.00    -0.237 OA
ATOM     90  O   UNL A   1      51.423  24.986  26.153  1.00  0.00    -0.744 OA
ENDBRANCH  83  87
ENDBRANCH  56  80
BRANCH  68  91
ATOM     91  C   UNL A   1      45.215  33.223  29.296  1.00  0.00     0.023 A 
ATOM     92  C   UNL A   1      45.932  33.488  30.475  1.00  0.00     0.031 A 
ATOM     93  C   UNL A   1      45.193  34.207  28.293  1.00  0.00     0.131 A 
ATOM     94  C   UNL A   1      46.540  34.738  30.654  1.00  0.00     0.055 A 
ATOM     95  C   UNL A   1      45.853  35.425  28.451  1.00  0.00     0.041 A 
ATOM     96  F   UNL A   1      44.519  34.003  27.150  1.00  0.00    -0.206 F 
ATOM     97  C   UNL A   1      46.518  35.703  29.644  1.00  0.00     0.022 A 
BRANCH  94  98
ATOM     98  S   UNL A   1      47.264  35.126  32.271  1.00  0.00     0.124 S 
ATOM     99  O   UNL A   1      46.488  34.272  33.164  1.00  0.00    -0.237 OA
ATOM    100  O   UNL A   1      48.661  34.753  32.085  1.00  0.00    -0.237 OA
ATOM    101  O   UNL A   1      47.020  36.561  32.419  1.00  0.00    -0.744 OA
ENDBRANCH  94  98
ENDBRANCH  68  91
ENDBRANCH  42  43
ENDBRANCH  35  37
ENDBRANCH  34  35
ENDBRANCH  33  34
ENDBRANCH   1  33
TORSDOF 18
ENDMDL
MODEL 3
REMARK VINA RESULT:     -12.8      0.678      7.235
REMARK SMILES COc1ccc(N2C(=O)/C(=C/c3c(C(=O)OCCOC(=O)c4ccc(-c5c6nc(c(-c7cc(S(=O)(=O)[O-])ccc7F)c7ccc([nH]7)c(-c7cc(S(=O)(=O)[O-])ccc7F)c7nc(c(-c8cc(S(=O)(=O)[O-])ccc8F)c8ccc5[nH]8)C=C7)C=C6)cc4)[nH]c4cc(OC)ccc34)SC2=S)cc1
REMARK SMILES IDX 17 1 16 2 14 3 15 4 13 5 12 6 93 7 85 8 86 9 92 10 87 12
REMARK SMILES IDX 91 13 88 14 11 15 7 16 8 17 95 18 9 19 10 20 94 21 96 22
REMARK SMILES IDX 6 23 3 24 4 25 98 26 5 27 97 28 2 29 1 30 89 31 90 32 18 33
REMARK SMILES IDX 19 34 20 35 21 36 22 37 23 38 84 39 24 40 83 41 25 42 26 43
REMARK SMILES IDX 27 44 77 45 28 46 82 47 76 48 78 49 29 50 81 51 75 52 74 53
REMARK SMILES IDX 30 55 62 56 42 57 61 58 43 59 46 60 60 61 79 62 44 63 45 64
REMARK SMILES IDX 59 66 80 67 47 68 31 69 32 70 40 71 33 72 39 73 41 74 38 75
REMARK SMILES IDX 34 76 35 77 36 78 37 79 63 80 64 81 72 82 65 83 71 84 73 85
REMARK SMILES IDX 70 86 66 87 67 88 68 89 69 90 48 91 49 92 57 93 50 94 56 95
REMARK SMILES IDX 58 96 55 97 51 98 52 99 53 100 54 101
REMARK H PARENT 85 11 78 54 46 65
REMARK Flexibility Score: inf
ROOT
ATOM      1  C   UNL A   1      35.900  22.470  24.335  1.00  0.00     0.275 C 
ENDROOT
BRANCH   1   2
ATOM      2  O   UNL A   1      35.570  23.243  25.508  1.00  0.00    -0.457 OA
BRANCH   2   3
ATOM      3  C   UNL A   1      34.693  22.637  26.351  1.00  0.00     0.355 C 
ATOM      4  O   UNL A   1      34.485  22.994  27.505  1.00  0.00    -0.244 OA
BRANCH   3   5
ATOM      5  C   UNL A   1      33.999  21.545  25.719  1.00  0.00     0.133 A 
ATOM      6  C   UNL A   1      32.837  21.471  24.956  1.00  0.00     0.016 A 
ATOM      7  C   UNL A   1      32.843  20.188  24.291  1.00  0.00     0.008 A 
ATOM      8  N   UNL A   1      34.482  20.266  25.784  1.00  0.00    -0.348 N 
ATOM      9  C   UNL A   1      33.902  19.472  24.841  1.00  0.00     0.050 A 
ATOM     10  C   UNL A   1      32.085  19.525  23.298  1.00  0.00     0.015 A 
ATOM     11  H   UNL A   1      35.159  19.959  26.429  1.00  0.00     0.167 HD
ATOM     12  C   UNL A   1      34.244  18.166  24.488  1.00  0.00     0.073 A 
ATOM     13  C   UNL A   1      32.445  18.212  22.892  1.00  0.00     0.047 A 
ATOM     14  C   UNL A   1      33.509  17.538  23.489  1.00  0.00     0.120 A 
BRANCH   6  15
ATOM     15  C   UNL A   1      31.828  22.491  24.999  1.00  0.00     0.032 C 
ATOM     16  N   UNL A   1      31.767  25.924  24.003  1.00  0.00    -0.261 N 
ATOM     17  C   UNL A   1      31.193  24.858  24.712  1.00  0.00     0.270 C 
ATOM     18  C   UNL A   1      32.570  25.550  22.923  1.00  0.00     0.152 C 
ATOM     19  O   UNL A   1      30.400  24.909  25.643  1.00  0.00    -0.268 OA
ATOM     20  C   UNL A   1      31.727  23.562  24.192  1.00  0.00     0.081 C 
ATOM     21  S   UNL A   1      32.447  23.813  22.661  1.00  0.00    -0.054 SA
ATOM     22  S   UNL A   1      33.652  26.439  21.999  1.00  0.00    -0.051 S 
BRANCH  16  23
ATOM     23  C   UNL A   1      31.550  27.288  24.422  1.00  0.00     0.051 A 
ATOM     24  C   UNL A   1      31.132  29.989  25.226  1.00  0.00     0.119 A 
ATOM     25  C   UNL A   1      31.896  29.122  26.005  1.00  0.00     0.048 A 
ATOM     26  C   UNL A   1      30.587  29.513  24.041  1.00  0.00     0.048 A 
ATOM     27  C   UNL A   1      32.098  27.787  25.615  1.00  0.00     0.030 A 
ATOM     28  C   UNL A   1      30.780  28.178  23.658  1.00  0.00     0.030 A 
BRANCH  24  29
ATOM     29  O   UNL A   1      30.991  31.259  25.713  1.00  0.00    -0.497 OA
ATOM     30  C   UNL A   1      31.921  31.655  26.716  1.00  0.00     0.278 C 
ENDBRANCH  24  29
ENDBRANCH  16  23
ENDBRANCH   6  15
BRANCH  14  31
ATOM     31  O   UNL A   1      33.936  16.266  23.239  1.00  0.00    -0.497 OA
ATOM     32  C   UNL A   1      34.486  15.517  24.308  1.00  0.00     0.278 C 
ENDBRANCH  14  31
ENDBRANCH   3   5
ENDBRANCH   2   3
ENDBRANCH   1   2
BRANCH   1  33
ATOM     33  C   UNL A   1      37.302  21.860  24.424  1.00  0.00     0.275 C 
BRANCH  33  34
ATOM     34  O   UNL A   1      37.623  21.453  25.769  1.00  0.00    -0.458 OA
BRANCH  34  35
ATOM     35  C   UNL A   1      38.944  21.408  26.040  1.00  0.00     0.338 C 
ATOM     36  O   UNL A   1      39.750  20.588  25.628  1.00  0.00    -0.246 OA
BRANCH  35  37
ATOM     37  C   UNL A   1      39.384  22.598  26.780  1.00  0.00     0.060 A 
ATOM     38  C   UNL A   1      38.755  23.797  26.467  1.00  0.00     0.016 A 
ATOM     39  C   UNL A   1      40.562  22.602  27.521  1.00  0.00     0.016 A 
ATOM     40  C   UNL A   1      39.390  25.001  26.705  1.00  0.00     0.010 A 
ATOM     41  C   UNL A   1      41.114  23.830  27.915  1.00  0.00     0.010 A 
ATOM     42  C   UNL A   1      40.565  25.044  27.459  1.00  0.00    -0.014 A 
BRANCH  42  43
ATOM     43  C   UNL A   1      41.218  26.359  27.702  1.00  0.00     0.031 A 
ATOM     44  C   UNL A   1      42.539  26.675  27.051  1.00  0.00     0.074 A 
ATOM     45  C   UNL A   1      40.592  27.295  28.447  1.00  0.00     0.049 A 
ATOM     46  N   UNL A   1      43.358  27.669  27.278  1.00  0.00    -0.248 NA
ATOM     47  C   UNL A   1      43.014  25.731  26.029  1.00  0.00     0.031 C 
ATOM     48  C   UNL A   1      39.274  27.137  29.073  1.00  0.00     0.029 A 
ATOM     49  N   UNL A   1      40.956  28.575  28.781  1.00  0.00    -0.354 N 
ATOM     50  C   UNL A   1      44.480  27.427  26.489  1.00  0.00     0.074 A 
ATOM     51  C   UNL A   1      44.231  26.191  25.778  1.00  0.00     0.031 C 
ATOM     52  C   UNL A   1      38.912  28.294  29.644  1.00  0.00     0.029 A 
ATOM     53  C   UNL A   1      40.020  29.232  29.546  1.00  0.00     0.049 A 
ATOM     54  H   UNL A   1      41.806  28.983  28.500  1.00  0.00     0.167 HD
ATOM     55  C   UNL A   1      45.611  28.168  26.385  1.00  0.00     0.034 A 
ATOM     56  C   UNL A   1      40.068  30.432  30.153  1.00  0.00     0.034 A 
ATOM     57  C   UNL A   1      45.795  29.431  27.064  1.00  0.00     0.049 A 
ATOM     58  C   UNL A   1      41.333  31.233  30.031  1.00  0.00     0.074 A 
ATOM     59  C   UNL A   1      46.894  30.272  27.051  1.00  0.00     0.029 A 
ATOM     60  N   UNL A   1      44.837  30.045  27.866  1.00  0.00    -0.354 N 
ATOM     61  N   UNL A   1      42.434  30.939  29.377  1.00  0.00    -0.248 NA
ATOM     62  C   UNL A   1      41.373  32.513  30.745  1.00  0.00     0.031 C 
ATOM     63  C   UNL A   1      46.620  31.366  27.882  1.00  0.00     0.029 A 
ATOM     64  C   UNL A   1      45.325  31.244  28.364  1.00  0.00     0.049 A 
ATOM     65  H   UNL A   1      43.942  29.682  28.053  1.00  0.00     0.167 HD
ATOM     66  C   UNL A   1      43.305  31.996  29.610  1.00  0.00     0.074 A 
ATOM     67  C   UNL A   1      42.581  32.952  30.428  1.00  0.00     0.031 C 
ATOM     68  C   UNL A   1      44.589  32.160  29.203  1.00  0.00     0.034 A 
BRANCH  55  69
ATOM     69  C   UNL A   1      46.752  27.588  25.580  1.00  0.00     0.023 A 
ATOM     70  C   UNL A   1      47.075  28.040  24.289  1.00  0.00     0.031 A 
ATOM     71  C   UNL A   1      47.495  26.511  26.100  1.00  0.00     0.131 A 
ATOM     72  C   UNL A   1      48.050  27.367  23.534  1.00  0.00     0.055 A 
ATOM     73  C   UNL A   1      48.522  25.900  25.376  1.00  0.00     0.041 A 
ATOM     74  F   UNL A   1      47.221  26.016  27.318  1.00  0.00    -0.206 F 
ATOM     75  C   UNL A   1      48.793  26.316  24.077  1.00  0.00     0.022 A 
BRANCH  72  76
ATOM     76  S   UNL A   1      48.230  27.782  21.776  1.00  0.00     0.124 S 
ATOM     77  O   UNL A   1      48.543  26.478  21.197  1.00  0.00    -0.237 OA
ATOM     78  O   UNL A   1      46.921  28.332  21.445  1.00  0.00    -0.237 OA
ATOM     79  O   UNL A   1      49.333  28.742  21.760  1.00  0.00    -0.744 OA
ENDBRANCH  72  76
ENDBRANCH  55  69
BRANCH  56  80
ATOM     80  C   UNL A   1      38.927  30.899  30.996  1.00  0.00     0.023 A 
ATOM     81  C   UNL A   1      37.768  31.440  30.420  1.00  0.00     0.031 A 
ATOM     82  C   UNL A   1      38.988  30.817  32.400  1.00  0.00     0.131 A 
ATOM     83  C   UNL A   1      36.727  31.899  31.245  1.00  0.00     0.055 A 
ATOM     84  C   UNL A   1      37.928  31.221  33.212  1.00  0.00     0.041 A 
ATOM     85  F   UNL A   1      40.075  30.311  33.006  1.00  0.00    -0.206 F 
ATOM     86  C   UNL A   1      36.791  31.776  32.635  1.00  0.00     0.022 A 
BRANCH  83  87
ATOM     87  S   UNL A   1      35.307  32.726  30.477  1.00  0.00     0.124 S 
ATOM     88  O   UNL A   1      35.120  31.936  29.266  1.00  0.00    -0.237 OA
ATOM     89  O   UNL A   1      34.279  32.581  31.503  1.00  0.00    -0.237 OA
ATOM     90  O   UNL A   1      35.782  34.092  30.264  1.00  0.00    -0.744 OA
ENDBRANCH  83  87
ENDBRANCH  56  80
BRANCH  68  91
ATOM     91  C   UNL A   1      45.264  33.434  29.639  1.00  0.00     0.023 A 
ATOM     92  C   UNL A   1      45.206  34.597  28.851  1.00  0.00     0.031 A 
ATOM     93  C   UNL A   1      46.018  33.469  30.824  1.00  0.00     0.131 A 
ATOM     94  C   UNL A   1      45.950  35.726  29.219  1.00  0.00     0.055 A 
ATOM     95  C   UNL A   1      46.706  34.617  31.218  1.00  0.00     0.041 A 
ATOM     96  F   UNL A   1      46.108  32.384  31.610  1.00  0.00    -0.206 F 
ATOM     97  C   UNL A   1      46.689  35.748  30.405  1.00  0.00     0.022 A 
BRANCH  94  98
ATOM     98  S   UNL A   1      46.031  37.125  28.068  1.00  0.00     0.124 S 
ATOM     99  O   UNL A   1      46.620  36.510  26.884  1.00  0.00    -0.237 OA
ATOM    100  O   UNL A   1      44.630  37.516  27.955  1.00  0.00    -0.237 OA
ATOM    101  O   UNL A   1      46.888  38.087  28.759  1.00  0.00    -0.744 OA
ENDBRANCH  94  98
ENDBRANCH  68  91
ENDBRANCH  42  43
ENDBRANCH  35  37
ENDBRANCH  34  35
ENDBRANCH  33  34
ENDBRANCH   1  33
TORSDOF 18
ENDMDL
