MODEL 1
REMARK VINA RESULT:     -12.5      0.000      0.000
REMARK SMILES CC[C@@H](C)[C@H](C(=O)OCCOC(=O)c1ccc(-c2c3nc(c(-c4cc(S(=O)(=O)[O-])ccc4F)c4ccc([nH]4)c(-c4cc(S(=O)(=O)[O-])ccc4F)c4nc(c(-c5cc(S(=O)(=O)[O-])ccc5F)c5ccc2[nH]5)C=C4)C=C3)cc1)N1C(=O)/C(=C/c2ccc3c(c2)OCO3)SC1=S
REMARK SMILES IDX 10 1 9 2 8 3 6 4 7 5 5 6 3 7 4 8 2 9 1 10 77 11 78 12 92 13
REMARK SMILES IDX 79 14 80 15 91 16 93 17 81 18 82 19 83 20 87 21 84 22 86 23
REMARK SMILES IDX 85 24 88 25 90 26 89 27 11 28 12 29 13 30 14 31 15 32 76 33
REMARK SMILES IDX 16 34 75 35 17 36 18 37 19 38 69 39 20 40 74 41 68 42 70 43
REMARK SMILES IDX 21 44 73 45 67 46 66 47 22 49 54 50 34 51 53 52 35 53 38 54
REMARK SMILES IDX 52 55 71 56 36 57 37 58 51 60 72 61 39 62 23 63 24 64 32 65
REMARK SMILES IDX 25 66 31 67 33 68 30 69 26 70 27 71 28 72 29 73 55 74 56 75
REMARK SMILES IDX 64 76 57 77 63 78 65 79 62 80 58 81 59 82 60 83 61 84 40 85
REMARK SMILES IDX 41 86 49 87 42 88 48 89 50 90 47 91 43 92 44 93 45 94 46 95
REMARK H PARENT 70 48 38 59
REMARK Flexibility Score: inf
ROOT
ATOM      1  C   UNL A   1      37.994  19.722  24.952  1.00  0.00     0.275 C 
ENDROOT
BRANCH   1   2
ATOM      2  C   UNL A   1      36.468  19.658  24.950  1.00  0.00     0.274 C 
BRANCH   2   3
ATOM      3  O   UNL A   1      35.869  20.917  24.576  1.00  0.00    -0.461 OA
BRANCH   3   4
ATOM      4  C   UNL A   1      34.696  21.227  25.203  1.00  0.00     0.329 C 
ATOM      5  O   UNL A   1      34.584  21.366  26.413  1.00  0.00    -0.250 OA
BRANCH   4   6
ATOM      6  C   UNL A   1      33.534  21.323  24.195  1.00  0.00     0.204 C 
BRANCH   6   7
ATOM      7  C   UNL A   1      32.515  20.132  24.233  1.00  0.00     0.020 C 
ATOM      8  C   UNL A   1      32.850  19.061  25.285  1.00  0.00     0.010 C 
BRANCH   7   9
ATOM      9  C   UNL A   1      32.171  19.553  22.841  1.00  0.00     0.002 C 
ATOM     10  C   UNL A   1      32.537  18.090  22.642  1.00  0.00     0.004 C 
ENDBRANCH   7   9
ENDBRANCH   6   7
BRANCH   6  11
ATOM     11  N   UNL A   1      32.936  22.683  24.180  1.00  0.00    -0.278 N 
ATOM     12  C   UNL A   1      33.488  23.639  23.323  1.00  0.00     0.267 C 
ATOM     13  C   UNL A   1      31.887  23.132  24.962  1.00  0.00     0.149 C 
ATOM     14  O   UNL A   1      34.433  23.472  22.568  1.00  0.00    -0.268 OA
ATOM     15  C   UNL A   1      32.806  24.947  23.519  1.00  0.00     0.081 C 
ATOM     16  S   UNL A   1      31.306  24.651  24.309  1.00  0.00    -0.054 SA
ATOM     17  S   UNL A   1      31.167  22.470  26.311  1.00  0.00    -0.052 S 
ATOM     18  C   UNL A   1      33.392  26.134  23.280  1.00  0.00     0.029 C 
BRANCH  18  19
ATOM     19  C   UNL A   1      32.886  27.422  23.794  1.00  0.00    -0.020 A 
ATOM     20  C   UNL A   1      31.774  28.066  23.219  1.00  0.00     0.012 A 
ATOM     21  C   UNL A   1      33.545  28.040  24.871  1.00  0.00     0.058 A 
ATOM     22  C   UNL A   1      31.257  29.244  23.787  1.00  0.00     0.051 A 
ATOM     23  C   UNL A   1      32.976  29.143  25.449  1.00  0.00     0.166 A 
ATOM     24  C   UNL A   1      31.856  29.729  24.931  1.00  0.00     0.165 A 
ATOM     25  O   UNL A   1      33.409  29.722  26.597  1.00  0.00    -0.454 OA
ATOM     26  O   UNL A   1      31.436  30.774  25.690  1.00  0.00    -0.454 OA
ATOM     27  C   UNL A   1      32.367  30.699  26.796  1.00  0.00     0.468 C 
ENDBRANCH  18  19
ENDBRANCH   6  11
ENDBRANCH   4   6
ENDBRANCH   3   4
ENDBRANCH   2   3
ENDBRANCH   1   2
BRANCH   1  28
ATOM     28  O   UNL A   1      38.455  20.947  25.546  1.00  0.00    -0.458 OA
BRANCH  28  29
ATOM     29  C   UNL A   1      39.626  20.857  26.213  1.00  0.00     0.338 C 
ATOM     30  O   UNL A   1      40.353  19.874  26.298  1.00  0.00    -0.246 OA
BRANCH  29  31
ATOM     31  C   UNL A   1      39.962  22.162  26.792  1.00  0.00     0.060 A 
ATOM     32  C   UNL A   1      39.298  23.289  26.318  1.00  0.00     0.016 A 
ATOM     33  C   UNL A   1      41.007  22.295  27.705  1.00  0.00     0.016 A 
ATOM     34  C   UNL A   1      39.722  24.558  26.698  1.00  0.00     0.010 A 
ATOM     35  C   UNL A   1      41.402  23.576  28.119  1.00  0.00     0.010 A 
ATOM     36  C   UNL A   1      40.794  24.724  27.580  1.00  0.00    -0.014 A 
BRANCH  36  37
ATOM     37  C   UNL A   1      41.339  26.094  27.828  1.00  0.00     0.031 A 
ATOM     38  C   UNL A   1      42.627  26.506  27.160  1.00  0.00     0.074 A 
ATOM     39  C   UNL A   1      40.663  26.984  28.584  1.00  0.00     0.049 A 
ATOM     40  N   UNL A   1      43.341  27.590  27.324  1.00  0.00    -0.248 NA
ATOM     41  C   UNL A   1      43.197  25.560  26.186  1.00  0.00     0.031 C 
ATOM     42  C   UNL A   1      39.360  26.742  29.204  1.00  0.00     0.029 A 
ATOM     43  N   UNL A   1      40.955  28.280  28.934  1.00  0.00    -0.354 N 
ATOM     44  C   UNL A   1      44.486  27.414  26.552  1.00  0.00     0.074 A 
ATOM     45  C   UNL A   1      44.358  26.131  25.898  1.00  0.00     0.031 C 
ATOM     46  C   UNL A   1      38.936  27.871  29.793  1.00  0.00     0.029 A 
ATOM     47  C   UNL A   1      39.972  28.893  29.684  1.00  0.00     0.049 A 
ATOM     48  H   UNL A   1      41.790  28.732  28.674  1.00  0.00     0.167 HD
ATOM     49  C   UNL A   1      45.553  28.241  26.425  1.00  0.00     0.034 A 
ATOM     50  C   UNL A   1      39.921  30.129  30.227  1.00  0.00     0.034 A 
ATOM     51  C   UNL A   1      45.626  29.553  27.022  1.00  0.00     0.049 A 
ATOM     52  C   UNL A   1      41.102  31.048  30.014  1.00  0.00     0.074 A 
ATOM     53  C   UNL A   1      46.660  30.471  26.973  1.00  0.00     0.029 A 
ATOM     54  N   UNL A   1      44.607  30.143  27.761  1.00  0.00    -0.354 N 
ATOM     55  N   UNL A   1      42.197  30.846  29.316  1.00  0.00    -0.248 NA
ATOM     56  C   UNL A   1      41.038  32.362  30.664  1.00  0.00     0.031 C 
ATOM     57  C   UNL A   1      46.288  31.594  27.722  1.00  0.00     0.029 A 
ATOM     58  C   UNL A   1      44.999  31.402  28.189  1.00  0.00     0.049 A 
ATOM     59  H   UNL A   1      43.735  29.728  27.951  1.00  0.00     0.167 HD
ATOM     60  C   UNL A   1      42.937  32.019  29.429  1.00  0.00     0.074 A 
ATOM     61  C   UNL A   1      42.139  32.940  30.211  1.00  0.00     0.031 C 
ATOM     62  C   UNL A   1      44.179  32.305  28.961  1.00  0.00     0.034 A 
BRANCH  49  63
ATOM     63  C   UNL A   1      46.766  27.706  25.701  1.00  0.00     0.023 A 
ATOM     64  C   UNL A   1      47.058  28.027  24.365  1.00  0.00     0.031 A 
ATOM     65  C   UNL A   1      47.626  26.812  26.367  1.00  0.00     0.131 A 
ATOM     66  C   UNL A   1      48.142  27.407  23.720  1.00  0.00     0.055 A 
ATOM     67  C   UNL A   1      48.744  26.258  25.743  1.00  0.00     0.041 A 
ATOM     68  F   UNL A   1      47.384  26.451  27.638  1.00  0.00    -0.206 F 
ATOM     69  C   UNL A   1      49.000  26.543  24.406  1.00  0.00     0.022 A 
BRANCH  66  70
ATOM     70  S   UNL A   1      48.338  27.638  21.932  1.00  0.00     0.124 S 
ATOM     71  O   UNL A   1      49.446  28.588  21.877  1.00  0.00    -0.237 OA
ATOM     72  O   UNL A   1      48.631  26.286  21.469  1.00  0.00    -0.237 OA
ATOM     73  O   UNL A   1      47.045  28.175  21.511  1.00  0.00    -0.744 OA
ENDBRANCH  66  70
ENDBRANCH  49  63
BRANCH  50  74
ATOM     74  C   UNL A   1      38.710  30.601  30.974  1.00  0.00     0.023 A 
ATOM     75  C   UNL A   1      37.733  31.371  30.323  1.00  0.00     0.031 A 
ATOM     76  C   UNL A   1      38.478  30.291  32.325  1.00  0.00     0.131 A 
ATOM     77  C   UNL A   1      36.550  31.745  30.976  1.00  0.00     0.055 A 
ATOM     78  C   UNL A   1      37.297  30.661  32.979  1.00  0.00     0.041 A 
ATOM     79  F   UNL A   1      39.384  29.594  33.029  1.00  0.00    -0.206 F 
ATOM     80  C   UNL A   1      36.320  31.385  32.301  1.00  0.00     0.022 A 
BRANCH  77  81
ATOM     81  S   UNL A   1      35.311  32.678  30.039  1.00  0.00     0.124 S 
ATOM     82  O   UNL A   1      36.133  33.666  29.351  1.00  0.00    -0.237 OA
ATOM     83  O   UNL A   1      34.730  31.633  29.200  1.00  0.00    -0.237 OA
ATOM     84  O   UNL A   1      34.428  33.208  31.075  1.00  0.00    -0.744 OA
ENDBRANCH  77  81
ENDBRANCH  50  74
BRANCH  62  85
ATOM     85  C   UNL A   1      44.725  33.674  29.282  1.00  0.00     0.023 A 
ATOM     86  C   UNL A   1      44.506  34.764  28.421  1.00  0.00     0.031 A 
ATOM     87  C   UNL A   1      45.497  33.887  30.436  1.00  0.00     0.131 A 
ATOM     88  C   UNL A   1      45.114  35.999  28.685  1.00  0.00     0.055 A 
ATOM     89  C   UNL A   1      46.046  35.136  30.729  1.00  0.00     0.041 A 
ATOM     90  F   UNL A   1      45.734  32.883  31.296  1.00  0.00    -0.206 F 
ATOM     91  C   UNL A   1      45.870  36.197  29.843  1.00  0.00     0.022 A 
BRANCH  88  92
ATOM     92  S   UNL A   1      44.984  37.312  27.443  1.00  0.00     0.124 S 
ATOM     93  O   UNL A   1      43.626  37.121  26.942  1.00  0.00    -0.237 OA
ATOM     94  O   UNL A   1      45.207  38.517  28.235  1.00  0.00    -0.237 OA
ATOM     95  O   UNL A   1      46.047  36.992  26.492  1.00  0.00    -0.744 OA
ENDBRANCH  88  92
ENDBRANCH  62  85
ENDBRANCH  36  37
ENDBRANCH  29  31
ENDBRANCH  28  29
ENDBRANCH   1  28
TORSDOF 18
ENDMDL
MODEL 2
REMARK VINA RESULT:     -12.2      1.408      1.646
REMARK SMILES CC[C@@H](C)[C@H](C(=O)OCCOC(=O)c1ccc(-c2c3nc(c(-c4cc(S(=O)(=O)[O-])ccc4F)c4ccc([nH]4)c(-c4cc(S(=O)(=O)[O-])ccc4F)c4nc(c(-c5cc(S(=O)(=O)[O-])ccc5F)c5ccc2[nH]5)C=C4)C=C3)cc1)N1C(=O)/C(=C/c2ccc3c(c2)OCO3)SC1=S
REMARK SMILES IDX 10 1 9 2 8 3 6 4 7 5 5 6 3 7 4 8 2 9 1 10 77 11 78 12 92 13
REMARK SMILES IDX 79 14 80 15 91 16 93 17 81 18 82 19 83 20 87 21 84 22 86 23
REMARK SMILES IDX 85 24 88 25 90 26 89 27 11 28 12 29 13 30 14 31 15 32 76 33
REMARK SMILES IDX 16 34 75 35 17 36 18 37 19 38 69 39 20 40 74 41 68 42 70 43
REMARK SMILES IDX 21 44 73 45 67 46 66 47 22 49 54 50 34 51 53 52 35 53 38 54
REMARK SMILES IDX 52 55 71 56 36 57 37 58 51 60 72 61 39 62 23 63 24 64 32 65
REMARK SMILES IDX 25 66 31 67 33 68 30 69 26 70 27 71 28 72 29 73 55 74 56 75
REMARK SMILES IDX 64 76 57 77 63 78 65 79 62 80 58 81 59 82 60 83 61 84 40 85
REMARK SMILES IDX 41 86 49 87 42 88 48 89 50 90 47 91 43 92 44 93 45 94 46 95
REMARK H PARENT 70 48 38 59
REMARK Flexibility Score: inf
ROOT
ATOM      1  C   UNL A   1      37.908  19.609  24.948  1.00  0.00     0.275 C 
ENDROOT
BRANCH   1   2
ATOM      2  C   UNL A   1      36.392  19.697  24.789  1.00  0.00     0.274 C 
BRANCH   2   3
ATOM      3  O   UNL A   1      35.927  21.063  24.736  1.00  0.00    -0.461 OA
BRANCH   3   4
ATOM      4  C   UNL A   1      34.701  21.296  25.290  1.00  0.00     0.329 C 
ATOM      5  O   UNL A   1      34.495  21.353  26.494  1.00  0.00    -0.250 OA
BRANCH   4   6
ATOM      6  C   UNL A   1      33.614  21.422  24.205  1.00  0.00     0.204 C 
BRANCH   6   7
ATOM      7  C   UNL A   1      32.601  20.228  24.129  1.00  0.00     0.020 C 
ATOM      8  C   UNL A   1      32.882  19.110  25.149  1.00  0.00     0.010 C 
BRANCH   7   9
ATOM      9  C   UNL A   1      32.342  19.712  22.694  1.00  0.00     0.002 C 
ATOM     10  C   UNL A   1      32.363  18.199  22.539  1.00  0.00     0.004 C 
ENDBRANCH   7   9
ENDBRANCH   6   7
BRANCH   6  11
ATOM     11  N   UNL A   1      33.010  22.780  24.192  1.00  0.00    -0.278 N 
ATOM     12  C   UNL A   1      33.597  23.757  23.383  1.00  0.00     0.267 C 
ATOM     13  C   UNL A   1      31.924  23.208  24.934  1.00  0.00     0.149 C 
ATOM     14  O   UNL A   1      34.577  23.610  22.668  1.00  0.00    -0.268 OA
ATOM     15  C   UNL A   1      32.900  25.057  23.576  1.00  0.00     0.081 C 
ATOM     16  S   UNL A   1      31.368  24.739  24.289  1.00  0.00    -0.054 SA
ATOM     17  S   UNL A   1      31.146  22.513  26.234  1.00  0.00    -0.052 S 
ATOM     18  C   UNL A   1      33.491  26.252  23.391  1.00  0.00     0.029 C 
BRANCH  18  19
ATOM     19  C   UNL A   1      32.956  27.527  23.910  1.00  0.00    -0.020 A 
ATOM     20  C   UNL A   1      31.842  28.157  23.324  1.00  0.00     0.012 A 
ATOM     21  C   UNL A   1      33.589  28.145  25.002  1.00  0.00     0.058 A 
ATOM     22  C   UNL A   1      31.297  29.321  23.896  1.00  0.00     0.051 A 
ATOM     23  C   UNL A   1      32.993  29.233  25.582  1.00  0.00     0.166 A 
ATOM     24  C   UNL A   1      31.871  29.805  25.052  1.00  0.00     0.165 A 
ATOM     25  O   UNL A   1      33.399  29.807  26.742  1.00  0.00    -0.454 OA
ATOM     26  O   UNL A   1      31.422  30.835  25.816  1.00  0.00    -0.454 OA
ATOM     27  C   UNL A   1      32.338  30.765  26.934  1.00  0.00     0.468 C 
ENDBRANCH  18  19
ENDBRANCH   6  11
ENDBRANCH   4   6
ENDBRANCH   3   4
ENDBRANCH   2   3
ENDBRANCH   1   2
BRANCH   1  28
ATOM     28  O   UNL A   1      38.439  20.827  25.496  1.00  0.00    -0.458 OA
BRANCH  28  29
ATOM     29  C   UNL A   1      39.594  20.693  26.182  1.00  0.00     0.338 C 
ATOM     30  O   UNL A   1      40.292  19.690  26.262  1.00  0.00    -0.246 OA
BRANCH  29  31
ATOM     31  C   UNL A   1      39.956  21.978  26.791  1.00  0.00     0.060 A 
ATOM     32  C   UNL A   1      39.347  23.134  26.311  1.00  0.00     0.016 A 
ATOM     33  C   UNL A   1      40.973  22.063  27.740  1.00  0.00     0.016 A 
ATOM     34  C   UNL A   1      39.801  24.382  26.723  1.00  0.00     0.010 A 
ATOM     35  C   UNL A   1      41.397  23.324  28.185  1.00  0.00     0.010 A 
ATOM     36  C   UNL A   1      40.848  24.500  27.642  1.00  0.00    -0.014 A 
BRANCH  36  37
ATOM     37  C   UNL A   1      41.430  25.846  27.927  1.00  0.00     0.031 A 
ATOM     38  C   UNL A   1      42.757  26.219  27.313  1.00  0.00     0.074 A 
ATOM     39  C   UNL A   1      40.758  26.751  28.669  1.00  0.00     0.049 A 
ATOM     40  N   UNL A   1      43.501  27.276  27.518  1.00  0.00    -0.248 NA
ATOM     41  C   UNL A   1      43.329  25.265  26.350  1.00  0.00     0.031 C 
ATOM     42  C   UNL A   1      39.424  26.549  29.236  1.00  0.00     0.029 A 
ATOM     43  N   UNL A   1      41.082  28.032  29.046  1.00  0.00    -0.354 N 
ATOM     44  C   UNL A   1      44.669  27.067  26.788  1.00  0.00     0.074 A 
ATOM     45  C   UNL A   1      44.520  25.797  26.113  1.00  0.00     0.031 C 
ATOM     46  C   UNL A   1      39.019  27.685  29.823  1.00  0.00     0.029 A 
ATOM     47  C   UNL A   1      40.094  28.671  29.766  1.00  0.00     0.049 A 
ATOM     48  H   UNL A   1      41.942  28.456  28.823  1.00  0.00     0.167 HD
ATOM     49  C   UNL A   1      45.768  27.857  26.711  1.00  0.00     0.034 A 
ATOM     50  C   UNL A   1      40.065  29.902  30.321  1.00  0.00     0.034 A 
ATOM     51  C   UNL A   1      45.864  29.159  27.327  1.00  0.00     0.049 A 
ATOM     52  C   UNL A   1      41.285  30.780  30.165  1.00  0.00     0.074 A 
ATOM     53  C   UNL A   1      46.931  30.040  27.328  1.00  0.00     0.029 A 
ATOM     54  N   UNL A   1      44.839  29.777  28.034  1.00  0.00    -0.354 N 
ATOM     55  N   UNL A   1      42.398  30.547  29.506  1.00  0.00    -0.248 NA
ATOM     56  C   UNL A   1      41.243  32.089  30.829  1.00  0.00     0.031 C 
ATOM     57  C   UNL A   1      46.571  31.167  28.077  1.00  0.00     0.029 A 
ATOM     58  C   UNL A   1      45.259  31.016  28.492  1.00  0.00     0.049 A 
ATOM     59  H   UNL A   1      43.947  29.391  28.186  1.00  0.00     0.167 HD
ATOM     60  C   UNL A   1      43.174  31.692  29.661  1.00  0.00     0.074 A 
ATOM     61  C   UNL A   1      42.380  32.632  30.424  1.00  0.00     0.031 C 
ATOM     62  C   UNL A   1      44.442  31.939  29.244  1.00  0.00     0.034 A 
BRANCH  49  63
ATOM     63  C   UNL A   1      46.988  27.287  26.026  1.00  0.00     0.023 A 
ATOM     64  C   UNL A   1      47.984  26.574  26.713  1.00  0.00     0.031 A 
ATOM     65  C   UNL A   1      47.168  27.509  24.647  1.00  0.00     0.131 A 
ATOM     66  C   UNL A   1      49.145  26.167  26.034  1.00  0.00     0.055 A 
ATOM     67  C   UNL A   1      48.289  27.036  23.963  1.00  0.00     0.041 A 
ATOM     68  F   UNL A   1      46.261  28.203  23.943  1.00  0.00    -0.206 F 
ATOM     69  C   UNL A   1      49.293  26.372  24.660  1.00  0.00     0.022 A 
BRANCH  66  70
ATOM     70  S   UNL A   1      50.522  25.485  26.997  1.00  0.00     0.124 S 
ATOM     71  O   UNL A   1      51.498  25.195  25.950  1.00  0.00    -0.237 OA
ATOM     72  O   UNL A   1      50.855  26.585  27.894  1.00  0.00    -0.237 OA
ATOM     73  O   UNL A   1      49.941  24.307  27.640  1.00  0.00    -0.744 OA
ENDBRANCH  66  70
ENDBRANCH  49  63
BRANCH  50  74
ATOM     74  C   UNL A   1      38.844  30.408  31.029  1.00  0.00     0.023 A 
ATOM     75  C   UNL A   1      37.877  31.147  30.328  1.00  0.00     0.031 A 
ATOM     76  C   UNL A   1      38.593  30.162  32.389  1.00  0.00     0.131 A 
ATOM     77  C   UNL A   1      36.685  31.551  30.946  1.00  0.00     0.055 A 
ATOM     78  C   UNL A   1      37.403  30.563  33.008  1.00  0.00     0.041 A 
ATOM     79  F   UNL A   1      39.489  29.499  33.138  1.00  0.00    -0.206 F 
ATOM     80  C   UNL A   1      36.436  31.254  32.284  1.00  0.00     0.022 A 
BRANCH  77  81
ATOM     81  S   UNL A   1      35.461  32.439  29.949  1.00  0.00     0.124 S 
ATOM     82  O   UNL A   1      34.352  32.580  30.885  1.00  0.00    -0.237 OA
ATOM     83  O   UNL A   1      36.183  33.667  29.624  1.00  0.00    -0.237 OA
ATOM     84  O   UNL A   1      35.221  31.540  28.823  1.00  0.00    -0.744 OA
ENDBRANCH  77  81
ENDBRANCH  50  74
BRANCH  62  85
ATOM     85  C   UNL A   1      45.024  33.284  29.602  1.00  0.00     0.023 A 
ATOM     86  C   UNL A   1      44.851  34.397  28.761  1.00  0.00     0.031 A 
ATOM     87  C   UNL A   1      45.782  33.450  30.773  1.00  0.00     0.131 A 
ATOM     88  C   UNL A   1      45.491  35.608  29.061  1.00  0.00     0.055 A 
ATOM     89  C   UNL A   1      46.364  34.676  31.101  1.00  0.00     0.041 A 
ATOM     90  F   UNL A   1      45.976  32.421  31.615  1.00  0.00    -0.206 F 
ATOM     91  C   UNL A   1      46.234  35.759  30.234  1.00  0.00     0.022 A 
BRANCH  88  92
ATOM     92  S   UNL A   1      45.421  36.949  27.844  1.00  0.00     0.124 S 
ATOM     93  O   UNL A   1      44.663  36.334  26.759  1.00  0.00    -0.237 OA
ATOM     94  O   UNL A   1      44.735  38.005  28.581  1.00  0.00    -0.237 OA
ATOM     95  O   UNL A   1      46.827  37.217  27.547  1.00  0.00    -0.744 OA
ENDBRANCH  88  92
ENDBRANCH  62  85
ENDBRANCH  36  37
ENDBRANCH  29  31
ENDBRANCH  28  29
ENDBRANCH   1  28
TORSDOF 18
ENDMDL
MODEL 3
REMARK VINA RESULT:     -12.2      0.859      7.431
REMARK SMILES CC[C@@H](C)[C@H](C(=O)OCCOC(=O)c1ccc(-c2c3nc(c(-c4cc(S(=O)(=O)[O-])ccc4F)c4ccc([nH]4)c(-c4cc(S(=O)(=O)[O-])ccc4F)c4nc(c(-c5cc(S(=O)(=O)[O-])ccc5F)c5ccc2[nH]5)C=C4)C=C3)cc1)N1C(=O)/C(=C/c2ccc3c(c2)OCO3)SC1=S
REMARK SMILES IDX 10 1 9 2 8 3 6 4 7 5 5 6 3 7 4 8 2 9 1 10 77 11 78 12 92 13
REMARK SMILES IDX 79 14 80 15 91 16 93 17 81 18 82 19 83 20 87 21 84 22 86 23
REMARK SMILES IDX 85 24 88 25 90 26 89 27 11 28 12 29 13 30 14 31 15 32 76 33
REMARK SMILES IDX 16 34 75 35 17 36 18 37 19 38 69 39 20 40 74 41 68 42 70 43
REMARK SMILES IDX 21 44 73 45 67 46 66 47 22 49 54 50 34 51 53 52 35 53 38 54
REMARK SMILES IDX 52 55 71 56 36 57 37 58 51 60 72 61 39 62 23 63 24 64 32 65
REMARK SMILES IDX 25 66 31 67 33 68 30 69 26 70 27 71 28 72 29 73 55 74 56 75
REMARK SMILES IDX 64 76 57 77 63 78 65 79 62 80 58 81 59 82 60 83 61 84 40 85
REMARK SMILES IDX 41 86 49 87 42 88 48 89 50 90 47 91 43 92 44 93 45 94 46 95
REMARK H PARENT 70 48 38 59
REMARK Flexibility Score: inf
ROOT
ATOM      1  C   UNL A   1      37.484  20.142  24.919  1.00  0.00     0.275 C 
ENDROOT
BRANCH   1   2
ATOM      2  C   UNL A   1      35.959  20.217  24.953  1.00  0.00     0.274 C 
BRANCH   2   3
ATOM      3  O   UNL A   1      35.485  21.359  25.699  1.00  0.00    -0.461 OA
BRANCH   3   4
ATOM      4  C   UNL A   1      34.154  21.360  26.002  1.00  0.00     0.329 C 
ATOM      5  O   UNL A   1      33.712  21.446  27.140  1.00  0.00    -0.250 OA
BRANCH   4   6
ATOM      6  C   UNL A   1      33.293  21.187  24.736  1.00  0.00     0.204 C 
BRANCH   6   7
ATOM      7  C   UNL A   1      32.499  19.838  24.645  1.00  0.00     0.020 C 
ATOM      8  C   UNL A   1      32.875  18.822  25.737  1.00  0.00     0.010 C 
BRANCH   7   9
ATOM      9  C   UNL A   1      32.444  19.234  23.222  1.00  0.00     0.002 C 
ATOM     10  C   UNL A   1      33.032  17.837  23.092  1.00  0.00     0.004 C 
ENDBRANCH   7   9
ENDBRANCH   6   7
BRANCH   6  11
ATOM     11  N   UNL A   1      32.513  22.415  24.433  1.00  0.00    -0.278 N 
ATOM     12  C   UNL A   1      33.051  23.334  23.527  1.00  0.00     0.267 C 
ATOM     13  C   UNL A   1      31.298  22.778  24.985  1.00  0.00     0.149 C 
ATOM     14  O   UNL A   1      34.121  23.233  22.945  1.00  0.00    -0.268 OA
ATOM     15  C   UNL A   1      32.163  24.524  23.428  1.00  0.00     0.081 C 
ATOM     16  S   UNL A   1      30.616  24.084  24.036  1.00  0.00    -0.054 SA
ATOM     17  S   UNL A   1      30.474  22.181  26.304  1.00  0.00    -0.052 S 
ATOM     18  C   UNL A   1      32.601  25.752  23.097  1.00  0.00     0.029 C 
BRANCH  18  19
ATOM     19  C   UNL A   1      31.837  26.993  23.337  1.00  0.00    -0.020 A 
ATOM     20  C   UNL A   1      32.026  27.768  24.497  1.00  0.00     0.012 A 
ATOM     21  C   UNL A   1      30.875  27.402  22.398  1.00  0.00     0.058 A 
ATOM     22  C   UNL A   1      31.353  28.992  24.656  1.00  0.00     0.051 A 
ATOM     23  C   UNL A   1      30.292  28.632  22.541  1.00  0.00     0.166 A 
ATOM     24  C   UNL A   1      30.528  29.416  23.635  1.00  0.00     0.165 A 
ATOM     25  O   UNL A   1      29.491  29.218  21.617  1.00  0.00    -0.454 OA
ATOM     26  O   UNL A   1      29.890  30.613  23.546  1.00  0.00    -0.454 OA
ATOM     27  C   UNL A   1      29.318  30.517  22.220  1.00  0.00     0.468 C 
ENDBRANCH  18  19
ENDBRANCH   6  11
ENDBRANCH   4   6
ENDBRANCH   3   4
ENDBRANCH   2   3
ENDBRANCH   1   2
BRANCH   1  28
ATOM     28  O   UNL A   1      38.069  21.315  25.507  1.00  0.00    -0.458 OA
BRANCH  28  29
ATOM     29  C   UNL A   1      39.261  21.121  26.112  1.00  0.00     0.338 C 
ATOM     30  O   UNL A   1      39.913  20.085  26.140  1.00  0.00    -0.246 OA
BRANCH  29  31
ATOM     31  C   UNL A   1      39.724  22.383  26.700  1.00  0.00     0.060 A 
ATOM     32  C   UNL A   1      39.202  23.575  26.206  1.00  0.00     0.016 A 
ATOM     33  C   UNL A   1      40.751  22.402  27.642  1.00  0.00     0.016 A 
ATOM     34  C   UNL A   1      39.754  24.790  26.598  1.00  0.00     0.010 A 
ATOM     35  C   UNL A   1      41.274  23.633  28.066  1.00  0.00     0.010 A 
ATOM     36  C   UNL A   1      40.814  24.840  27.509  1.00  0.00    -0.014 A 
BRANCH  36  37
ATOM     37  C   UNL A   1      41.500  26.141  27.772  1.00  0.00     0.031 A 
ATOM     38  C   UNL A   1      40.835  27.155  28.670  1.00  0.00     0.074 A 
ATOM     39  C   UNL A   1      42.728  26.392  27.272  1.00  0.00     0.049 A 
ATOM     40  N   UNL A   1      41.187  28.387  28.938  1.00  0.00    -0.248 NA
ATOM     41  C   UNL A   1      39.599  26.729  29.345  1.00  0.00     0.031 C 
ATOM     42  C   UNL A   1      43.518  25.456  26.473  1.00  0.00     0.029 A 
ATOM     43  N   UNL A   1      43.544  27.491  27.389  1.00  0.00    -0.354 N 
ATOM     44  C   UNL A   1      40.168  28.911  29.730  1.00  0.00     0.074 A 
ATOM     45  C   UNL A   1      39.200  27.853  29.922  1.00  0.00     0.031 C 
ATOM     46  C   UNL A   1      44.725  25.990  26.234  1.00  0.00     0.029 A 
ATOM     47  C   UNL A   1      44.771  27.345  26.774  1.00  0.00     0.049 A 
ATOM     48  H   UNL A   1      43.279  28.310  27.867  1.00  0.00     0.167 HD
ATOM     49  C   UNL A   1      40.048  30.166  30.228  1.00  0.00     0.034 A 
ATOM     50  C   UNL A   1      45.804  28.208  26.653  1.00  0.00     0.034 A 
ATOM     51  C   UNL A   1      41.064  31.182  30.093  1.00  0.00     0.049 A 
ATOM     52  C   UNL A   1      45.660  29.579  27.273  1.00  0.00     0.074 A 
ATOM     53  C   UNL A   1      41.045  32.491  30.543  1.00  0.00     0.029 A 
ATOM     54  N   UNL A   1      42.295  30.993  29.478  1.00  0.00    -0.354 N 
ATOM     55  N   UNL A   1      44.669  30.071  27.982  1.00  0.00    -0.248 NA
ATOM     56  C   UNL A   1      46.777  30.511  27.074  1.00  0.00     0.031 C 
ATOM     57  C   UNL A   1      42.242  33.107  30.157  1.00  0.00     0.029 A 
ATOM     58  C   UNL A   1      43.033  32.166  29.519  1.00  0.00     0.049 A 
ATOM     59  H   UNL A   1      42.600  30.149  29.073  1.00  0.00     0.167 HD
ATOM     60  C   UNL A   1      45.058  31.361  28.330  1.00  0.00     0.074 A 
ATOM     61  C   UNL A   1      46.395  31.547  27.804  1.00  0.00     0.031 C 
ATOM     62  C   UNL A   1      44.368  32.322  28.994  1.00  0.00     0.034 A 
BRANCH  49  63
ATOM     63  C   UNL A   1      38.731  30.537  30.868  1.00  0.00     0.023 A 
ATOM     64  C   UNL A   1      37.666  31.104  30.147  1.00  0.00     0.031 A 
ATOM     65  C   UNL A   1      38.563  30.352  32.254  1.00  0.00     0.131 A 
ATOM     66  C   UNL A   1      36.511  31.526  30.826  1.00  0.00     0.055 A 
ATOM     67  C   UNL A   1      37.383  30.704  32.909  1.00  0.00     0.041 A 
ATOM     68  F   UNL A   1      39.554  29.836  32.998  1.00  0.00    -0.206 F 
ATOM     69  C   UNL A   1      36.352  31.309  32.197  1.00  0.00     0.022 A 
BRANCH  66  70
ATOM     70  S   UNL A   1      35.270  32.487  29.917  1.00  0.00     0.124 S 
ATOM     71  O   UNL A   1      34.274  32.740  30.956  1.00  0.00    -0.237 OA
ATOM     72  O   UNL A   1      36.034  33.644  29.468  1.00  0.00    -0.237 OA
ATOM     73  O   UNL A   1      34.837  31.575  28.859  1.00  0.00    -0.744 OA
ENDBRANCH  66  70
ENDBRANCH  49  63
BRANCH  50  74
ATOM     74  C   UNL A   1      47.077  27.807  25.971  1.00  0.00     0.023 A 
ATOM     75  C   UNL A   1      47.168  27.838  24.571  1.00  0.00     0.031 A 
ATOM     76  C   UNL A   1      48.226  27.408  26.674  1.00  0.00     0.131 A 
ATOM     77  C   UNL A   1      48.375  27.555  23.916  1.00  0.00     0.055 A 
ATOM     78  C   UNL A   1      49.433  27.127  26.023  1.00  0.00     0.041 A 
ATOM     79  F   UNL A   1      48.207  27.313  28.013  1.00  0.00    -0.206 F 
ATOM     80  C   UNL A   1      49.516  27.208  24.636  1.00  0.00     0.022 A 
BRANCH  77  81
ATOM     81  S   UNL A   1      48.423  27.688  22.110  1.00  0.00     0.124 S 
ATOM     82  O   UNL A   1      49.552  28.585  21.901  1.00  0.00    -0.237 OA
ATOM     83  O   UNL A   1      48.632  26.295  21.720  1.00  0.00    -0.237 OA
ATOM     84  O   UNL A   1      47.112  28.239  21.773  1.00  0.00    -0.744 OA
ENDBRANCH  77  81
ENDBRANCH  50  74
BRANCH  62  85
ATOM     85  C   UNL A   1      45.065  33.646  29.188  1.00  0.00     0.023 A 
ATOM     86  C   UNL A   1      44.817  34.730  28.328  1.00  0.00     0.031 A 
ATOM     87  C   UNL A   1      46.006  33.819  30.217  1.00  0.00     0.131 A 
ATOM     88  C   UNL A   1      45.556  35.914  28.461  1.00  0.00     0.055 A 
ATOM     89  C   UNL A   1      46.692  35.022  30.386  1.00  0.00     0.041 A 
ATOM     90  F   UNL A   1      46.278  32.818  31.071  1.00  0.00    -0.206 F 
ATOM     91  C   UNL A   1      46.481  36.073  29.496  1.00  0.00     0.022 A 
BRANCH  88  92
ATOM     92  S   UNL A   1      45.361  37.203  27.203  1.00  0.00     0.124 S 
ATOM     93  O   UNL A   1      45.700  38.410  27.951  1.00  0.00    -0.237 OA
ATOM     94  O   UNL A   1      46.323  36.795  26.184  1.00  0.00    -0.237 OA
ATOM     95  O   UNL A   1      43.958  37.090  26.809  1.00  0.00    -0.744 OA
ENDBRANCH  88  92
ENDBRANCH  62  85
ENDBRANCH  36  37
ENDBRANCH  29  31
ENDBRANCH  28  29
ENDBRANCH   1  28
TORSDOF 18
ENDMDL
