MODEL 1
REMARK VINA RESULT:     -11.6      0.000      0.000
REMARK SMILES O=C1C[N@@H+](Cc2ccc(C(=O)OCCOC(=O)c3ccc(-c4c5nc(c(-c6cc(S(=O)(=O)[O-])ccc6F)c6ccc([nH]6)c(-c6cc(S(=O)(=O)[O-])ccc6F)c6nc(c(-c7cc(S(=O)(=O)[O-])ccc7F)c7ccc4[nH]7)C=C6)C=C5)cc3)cc2)CCN1
REMARK SMILES IDX 14 1 13 2 12 3 10 4 11 5 9 6 6 7 7 8 82 9 8 10 81 11 5 12
REMARK SMILES IDX 4 13 1 14 2 15 3 16 85 17 84 18 83 20 15 22 16 23 17 24
REMARK SMILES IDX 18 25 19 26 80 27 20 28 79 29 21 30 22 31 23 32 73 33 24 34
REMARK SMILES IDX 78 35 72 36 74 37 25 38 77 39 71 40 70 41 26 43 58 44 38 45
REMARK SMILES IDX 57 46 39 47 42 48 56 49 75 50 40 51 41 52 55 54 76 55 43 56
REMARK SMILES IDX 27 57 28 58 36 59 29 60 35 61 37 62 34 63 30 64 31 65 32 66
REMARK SMILES IDX 33 67 59 68 60 69 68 70 61 71 67 72 69 73 66 74 62 75 63 76
REMARK SMILES IDX 64 77 65 78 44 79 45 80 53 81 46 82 52 83 54 84 51 85 47 86
REMARK SMILES IDX 48 87 49 88 50 89
REMARK H PARENT 85 19 4 21 74 42 42 53
REMARK Flexibility Score: inf
ROOT
ATOM      1  C   UNL A   1      36.989  19.997  24.798  1.00  0.00     0.275 C 
ENDROOT
BRANCH   1   2
ATOM      2  C   UNL A   1      35.477  20.087  25.002  1.00  0.00     0.275 C 
BRANCH   2   3
ATOM      3  O   UNL A   1      35.047  21.459  25.049  1.00  0.00    -0.458 OA
BRANCH   3   4
ATOM      4  C   UNL A   1      34.027  21.701  25.913  1.00  0.00     0.338 C 
ATOM      5  O   UNL A   1      33.524  20.891  26.665  1.00  0.00    -0.246 OA
BRANCH   4   6
ATOM      6  C   UNL A   1      33.606  23.127  25.872  1.00  0.00     0.060 A 
ATOM      7  C   UNL A   1      33.021  25.858  26.039  1.00  0.00     0.006 A 
ATOM      8  C   UNL A   1      34.315  25.438  25.717  1.00  0.00     0.010 A 
ATOM      9  C   UNL A   1      31.993  24.907  26.119  1.00  0.00     0.010 A 
ATOM     10  C   UNL A   1      34.614  24.082  25.684  1.00  0.00     0.016 A 
ATOM     11  C   UNL A   1      32.282  23.542  26.034  1.00  0.00     0.016 A 
BRANCH   7  12
ATOM     12  C   UNL A   1      32.785  27.299  26.423  1.00  0.00     0.299 C 
BRANCH  12  13
ATOM     13  N   UNL A   1      33.139  28.297  25.400  1.00  0.00    -0.322 N 
ATOM     14  O   UNL A   1      31.511  31.432  26.371  1.00  0.00    -0.269 OA
ATOM     15  C   UNL A   1      31.800  30.442  25.700  1.00  0.00     0.275 C 
ATOM     16  C   UNL A   1      33.134  29.702  25.861  1.00  0.00     0.363 C 
ATOM     17  N   UNL A   1      30.955  30.047  24.700  1.00  0.00    -0.346 N 
ATOM     18  C   UNL A   1      31.102  28.817  23.964  1.00  0.00     0.177 C 
ATOM     19  H   UNL A   1      30.201  30.639  24.470  1.00  0.00     0.163 HD
ATOM     20  C   UNL A   1      32.483  28.158  24.099  1.00  0.00     0.284 C 
ATOM     21  H   UNL A   1      34.114  28.047  25.234  1.00  0.00     0.348 HD
ENDBRANCH  12  13
ENDBRANCH   7  12
ENDBRANCH   4   6
ENDBRANCH   3   4
ENDBRANCH   2   3
ENDBRANCH   1   2
BRANCH   1  22
ATOM     22  O   UNL A   1      37.652  21.160  25.331  1.00  0.00    -0.458 OA
BRANCH  22  23
ATOM     23  C   UNL A   1      38.882  20.932  25.851  1.00  0.00     0.338 C 
ATOM     24  O   UNL A   1      39.536  19.904  25.767  1.00  0.00    -0.246 OA
BRANCH  23  25
ATOM     25  C   UNL A   1      39.403  22.145  26.501  1.00  0.00     0.060 A 
ATOM     26  C   UNL A   1      38.833  23.366  26.160  1.00  0.00     0.016 A 
ATOM     27  C   UNL A   1      40.561  22.113  27.274  1.00  0.00     0.016 A 
ATOM     28  C   UNL A   1      39.464  24.560  26.492  1.00  0.00     0.010 A 
ATOM     29  C   UNL A   1      41.143  23.321  27.695  1.00  0.00     0.010 A 
ATOM     30  C   UNL A   1      40.630  24.562  27.269  1.00  0.00    -0.014 A 
BRANCH  30  31
ATOM     31  C   UNL A   1      41.328  25.856  27.556  1.00  0.00     0.031 A 
ATOM     32  C   UNL A   1      40.668  26.903  28.424  1.00  0.00     0.074 A 
ATOM     33  C   UNL A   1      42.578  26.078  27.095  1.00  0.00     0.049 A 
ATOM     34  N   UNL A   1      41.062  28.122  28.701  1.00  0.00    -0.248 NA
ATOM     35  C   UNL A   1      39.390  26.535  29.048  1.00  0.00     0.031 C 
ATOM     36  C   UNL A   1      43.357  25.141  26.283  1.00  0.00     0.029 A 
ATOM     37  N   UNL A   1      43.425  27.147  27.263  1.00  0.00    -0.354 N 
ATOM     38  C   UNL A   1      40.056  28.684  29.484  1.00  0.00     0.074 A 
ATOM     39  C   UNL A   1      39.024  27.676  29.614  1.00  0.00     0.031 C 
ATOM     40  C   UNL A   1      44.583  25.648  26.078  1.00  0.00     0.029 A 
ATOM     41  C   UNL A   1      44.648  26.987  26.652  1.00  0.00     0.049 A 
ATOM     42  H   UNL A   1      43.180  27.953  27.773  1.00  0.00     0.167 HD
ATOM     43  C   UNL A   1      39.999  29.919  30.044  1.00  0.00     0.034 A 
ATOM     44  C   UNL A   1      45.695  27.828  26.527  1.00  0.00     0.034 A 
ATOM     45  C   UNL A   1      41.059  30.898  29.947  1.00  0.00     0.049 A 
ATOM     46  C   UNL A   1      45.596  29.205  27.130  1.00  0.00     0.074 A 
ATOM     47  C   UNL A   1      41.106  32.173  30.486  1.00  0.00     0.029 A 
ATOM     48  N   UNL A   1      42.263  30.711  29.279  1.00  0.00    -0.354 N 
ATOM     49  N   UNL A   1      44.611  29.741  27.812  1.00  0.00    -0.248 NA
ATOM     50  C   UNL A   1      46.751  30.093  26.940  1.00  0.00     0.031 C 
ATOM     51  C   UNL A   1      42.305  32.778  30.090  1.00  0.00     0.029 A 
ATOM     52  C   UNL A   1      43.046  31.854  29.374  1.00  0.00     0.049 A 
ATOM     53  H   UNL A   1      42.522  29.887  28.806  1.00  0.00     0.167 HD
ATOM     54  C   UNL A   1      45.037  31.023  28.149  1.00  0.00     0.074 A 
ATOM     55  C   UNL A   1      46.377  31.167  27.619  1.00  0.00     0.031 C 
ATOM     56  C   UNL A   1      44.377  31.995  28.830  1.00  0.00     0.034 A 
BRANCH  43  57
ATOM     57  C   UNL A   1      38.722  30.304  30.761  1.00  0.00     0.023 A 
ATOM     58  C   UNL A   1      37.651  30.931  30.103  1.00  0.00     0.031 A 
ATOM     59  C   UNL A   1      38.590  30.058  32.140  1.00  0.00     0.131 A 
ATOM     60  C   UNL A   1      36.531  31.358  30.836  1.00  0.00     0.055 A 
ATOM     61  C   UNL A   1      37.437  30.407  32.848  1.00  0.00     0.041 A 
ATOM     62  F   UNL A   1      39.585  29.480  32.831  1.00  0.00    -0.206 F 
ATOM     63  C   UNL A   1      36.405  31.077  32.198  1.00  0.00     0.022 A 
BRANCH  60  64
ATOM     64  S   UNL A   1      35.307  32.418  30.016  1.00  0.00     0.124 S 
ATOM     65  O   UNL A   1      36.130  33.547  29.593  1.00  0.00    -0.237 OA
ATOM     66  O   UNL A   1      34.807  31.556  28.951  1.00  0.00    -0.237 OA
ATOM     67  O   UNL A   1      34.348  32.720  31.078  1.00  0.00    -0.744 OA
ENDBRANCH  60  64
ENDBRANCH  43  57
BRANCH  44  68
ATOM     68  C   UNL A   1      46.905  27.423  25.750  1.00  0.00     0.023 A 
ATOM     69  C   UNL A   1      47.082  27.819  24.414  1.00  0.00     0.031 A 
ATOM     70  C   UNL A   1      47.884  26.591  26.323  1.00  0.00     0.131 A 
ATOM     71  C   UNL A   1      48.188  27.352  23.686  1.00  0.00     0.055 A 
ATOM     72  C   UNL A   1      49.016  26.183  25.616  1.00  0.00     0.041 A 
ATOM     73  F   UNL A   1      47.763  26.173  27.593  1.00  0.00    -0.206 F 
ATOM     74  C   UNL A   1      49.166  26.553  24.284  1.00  0.00     0.022 A 
BRANCH  71  75
ATOM     75  S   UNL A   1      48.285  27.724  21.913  1.00  0.00     0.124 S 
ATOM     76  O   UNL A   1      46.973  28.308  21.660  1.00  0.00    -0.237 OA
ATOM     77  O   UNL A   1      49.418  28.642  21.856  1.00  0.00    -0.237 OA
ATOM     78  O   UNL A   1      48.514  26.415  21.303  1.00  0.00    -0.744 OA
ENDBRANCH  71  75
ENDBRANCH  44  68
BRANCH  56  79
ATOM     79  C   UNL A   1      45.129  33.282  29.078  1.00  0.00     0.023 A 
ATOM     80  C   UNL A   1      45.059  34.367  28.185  1.00  0.00     0.031 A 
ATOM     81  C   UNL A   1      45.968  33.405  30.200  1.00  0.00     0.131 A 
ATOM     82  C   UNL A   1      45.870  35.494  28.387  1.00  0.00     0.055 A 
ATOM     83  C   UNL A   1      46.721  34.557  30.433  1.00  0.00     0.041 A 
ATOM     84  F   UNL A   1      46.079  32.402  31.085  1.00  0.00    -0.206 F 
ATOM     85  C   UNL A   1      46.688  35.603  29.514  1.00  0.00     0.022 A 
BRANCH  82  86
ATOM     86  S   UNL A   1      45.937  36.763  27.093  1.00  0.00     0.124 S 
ATOM     87  O   UNL A   1      46.861  37.735  27.667  1.00  0.00    -0.237 OA
ATOM     88  O   UNL A   1      46.435  36.012  25.945  1.00  0.00    -0.237 OA
ATOM     89  O   UNL A   1      44.551  37.215  26.982  1.00  0.00    -0.744 OA
ENDBRANCH  82  86
ENDBRANCH  56  79
ENDBRANCH  30  31
ENDBRANCH  23  25
ENDBRANCH  22  23
ENDBRANCH   1  22
TORSDOF 16
ENDMDL
MODEL 2
REMARK VINA RESULT:     -11.6      0.511      7.697
REMARK SMILES O=C1C[N@@H+](Cc2ccc(C(=O)OCCOC(=O)c3ccc(-c4c5nc(c(-c6cc(S(=O)(=O)[O-])ccc6F)c6ccc([nH]6)c(-c6cc(S(=O)(=O)[O-])ccc6F)c6nc(c(-c7cc(S(=O)(=O)[O-])ccc7F)c7ccc4[nH]7)C=C6)C=C5)cc3)cc2)CCN1
REMARK SMILES IDX 14 1 13 2 12 3 10 4 11 5 9 6 6 7 7 8 82 9 8 10 81 11 5 12
REMARK SMILES IDX 4 13 1 14 2 15 3 16 85 17 84 18 83 20 15 22 16 23 17 24
REMARK SMILES IDX 18 25 19 26 80 27 20 28 79 29 21 30 22 31 23 32 73 33 24 34
REMARK SMILES IDX 78 35 72 36 74 37 25 38 77 39 71 40 70 41 26 43 58 44 38 45
REMARK SMILES IDX 57 46 39 47 42 48 56 49 75 50 40 51 41 52 55 54 76 55 43 56
REMARK SMILES IDX 27 57 28 58 36 59 29 60 35 61 37 62 34 63 30 64 31 65 32 66
REMARK SMILES IDX 33 67 59 68 60 69 68 70 61 71 67 72 69 73 66 74 62 75 63 76
REMARK SMILES IDX 64 77 65 78 44 79 45 80 53 81 46 82 52 83 54 84 51 85 47 86
REMARK SMILES IDX 48 87 49 88 50 89
REMARK H PARENT 85 19 4 21 74 42 42 53
REMARK Flexibility Score: inf
ROOT
ATOM      1  C   UNL A   1      37.356  20.058  24.999  1.00  0.00     0.275 C 
ENDROOT
BRANCH   1   2
ATOM      2  C   UNL A   1      35.853  20.337  25.001  1.00  0.00     0.275 C 
BRANCH   2   3
ATOM      3  O   UNL A   1      35.525  21.369  25.948  1.00  0.00    -0.458 OA
BRANCH   3   4
ATOM      4  C   UNL A   1      34.208  21.434  26.278  1.00  0.00     0.338 C 
ATOM      5  O   UNL A   1      33.499  20.491  26.565  1.00  0.00    -0.246 OA
BRANCH   4   6
ATOM      6  C   UNL A   1      33.720  22.839  26.294  1.00  0.00     0.060 A 
ATOM      7  C   UNL A   1      32.546  25.376  26.159  1.00  0.00     0.006 A 
ATOM      8  C   UNL A   1      31.894  24.337  26.831  1.00  0.00     0.010 A 
ATOM      9  C   UNL A   1      33.856  25.175  25.696  1.00  0.00     0.010 A 
ATOM     10  C   UNL A   1      32.456  23.067  26.853  1.00  0.00     0.016 A 
ATOM     11  C   UNL A   1      34.445  23.909  25.764  1.00  0.00     0.016 A 
BRANCH   7  12
ATOM     12  C   UNL A   1      31.786  26.637  25.830  1.00  0.00     0.299 C 
BRANCH  12  13
ATOM     13  N   UNL A   1      32.514  27.626  25.018  1.00  0.00    -0.322 N 
ATOM     14  O   UNL A   1      31.888  30.904  26.530  1.00  0.00    -0.269 OA
ATOM     15  C   UNL A   1      31.900  30.004  25.691  1.00  0.00     0.275 C 
ATOM     16  C   UNL A   1      32.917  28.856  25.733  1.00  0.00     0.363 C 
ATOM     17  N   UNL A   1      31.053  30.082  24.620  1.00  0.00    -0.346 N 
ATOM     18  C   UNL A   1      30.860  29.016  23.670  1.00  0.00     0.177 C 
ATOM     19  H   UNL A   1      30.544  30.916  24.493  1.00  0.00     0.163 HD
ATOM     20  C   UNL A   1      31.949  27.932  23.703  1.00  0.00     0.284 C 
ATOM     21  H   UNL A   1      33.369  27.106  24.825  1.00  0.00     0.348 HD
ENDBRANCH  12  13
ENDBRANCH   7  12
ENDBRANCH   4   6
ENDBRANCH   3   4
ENDBRANCH   2   3
ENDBRANCH   1   2
BRANCH   1  22
ATOM     22  O   UNL A   1      38.103  21.256  25.286  1.00  0.00    -0.458 OA
BRANCH  22  23
ATOM     23  C   UNL A   1      39.223  21.071  26.025  1.00  0.00     0.338 C 
ATOM     24  O   UNL A   1      39.863  20.038  26.144  1.00  0.00    -0.246 OA
BRANCH  23  25
ATOM     25  C   UNL A   1      39.650  22.337  26.644  1.00  0.00     0.060 A 
ATOM     26  C   UNL A   1      39.048  23.512  26.212  1.00  0.00     0.016 A 
ATOM     27  C   UNL A   1      40.760  22.395  27.483  1.00  0.00     0.016 A 
ATOM     28  C   UNL A   1      39.605  24.749  26.522  1.00  0.00     0.010 A 
ATOM     29  C   UNL A   1      41.263  23.646  27.878  1.00  0.00     0.010 A 
ATOM     30  C   UNL A   1      40.722  24.841  27.364  1.00  0.00    -0.014 A 
BRANCH  30  31
ATOM     31  C   UNL A   1      41.343  26.178  27.627  1.00  0.00     0.031 A 
ATOM     32  C   UNL A   1      42.682  26.532  27.020  1.00  0.00     0.074 A 
ATOM     33  C   UNL A   1      40.686  27.108  28.355  1.00  0.00     0.049 A 
ATOM     34  N   UNL A   1      43.428  27.591  27.212  1.00  0.00    -0.248 NA
ATOM     35  C   UNL A   1      43.264  25.556  26.089  1.00  0.00     0.031 C 
ATOM     36  C   UNL A   1      39.368  26.926  28.965  1.00  0.00     0.029 A 
ATOM     37  N   UNL A   1      41.024  28.398  28.686  1.00  0.00    -0.354 N 
ATOM     38  C   UNL A   1      44.590  27.384  26.471  1.00  0.00     0.074 A 
ATOM     39  C   UNL A   1      44.454  26.084  25.847  1.00  0.00     0.031 C 
ATOM     40  C   UNL A   1      38.984  28.076  29.539  1.00  0.00     0.029 A 
ATOM     41  C   UNL A   1      40.066  29.048  29.431  1.00  0.00     0.049 A 
ATOM     42  H   UNL A   1      41.872  28.819  28.415  1.00  0.00     0.167 HD
ATOM     43  C   UNL A   1      45.664  28.201  26.322  1.00  0.00     0.034 A 
ATOM     44  C   UNL A   1      40.063  30.271  30.001  1.00  0.00     0.034 A 
ATOM     45  C   UNL A   1      45.764  29.517  26.912  1.00  0.00     0.049 A 
ATOM     46  C   UNL A   1      41.279  31.146  29.848  1.00  0.00     0.074 A 
ATOM     47  C   UNL A   1      46.803  30.429  26.813  1.00  0.00     0.029 A 
ATOM     48  N   UNL A   1      44.789  30.119  27.698  1.00  0.00    -0.354 N 
ATOM     49  N   UNL A   1      42.394  30.908  29.196  1.00  0.00    -0.248 NA
ATOM     50  C   UNL A   1      41.238  32.455  30.513  1.00  0.00     0.031 C 
ATOM     51  C   UNL A   1      46.485  31.549  27.591  1.00  0.00     0.029 A 
ATOM     52  C   UNL A   1      45.213  31.376  28.108  1.00  0.00     0.049 A 
ATOM     53  H   UNL A   1      43.924  29.712  27.931  1.00  0.00     0.167 HD
ATOM     54  C   UNL A   1      43.178  32.047  29.359  1.00  0.00     0.074 A 
ATOM     55  C   UNL A   1      42.397  32.979  30.144  1.00  0.00     0.031 C 
ATOM     56  C   UNL A   1      44.434  32.296  28.905  1.00  0.00     0.034 A 
BRANCH  43  57
ATOM     57  C   UNL A   1      46.844  27.667  25.538  1.00  0.00     0.023 A 
ATOM     58  C   UNL A   1      47.104  28.055  24.213  1.00  0.00     0.031 A 
ATOM     59  C   UNL A   1      47.712  26.730  26.129  1.00  0.00     0.131 A 
ATOM     60  C   UNL A   1      48.154  27.452  23.499  1.00  0.00     0.055 A 
ATOM     61  C   UNL A   1      48.806  26.199  25.442  1.00  0.00     0.041 A 
ATOM     62  F   UNL A   1      47.508  26.304  27.385  1.00  0.00    -0.206 F 
ATOM     63  C   UNL A   1      49.022  26.547  24.112  1.00  0.00     0.022 A 
BRANCH  60  64
ATOM     64  S   UNL A   1      48.278  27.756  21.714  1.00  0.00     0.124 S 
ATOM     65  O   UNL A   1      48.651  26.435  21.215  1.00  0.00    -0.237 OA
ATOM     66  O   UNL A   1      46.934  28.211  21.377  1.00  0.00    -0.237 OA
ATOM     67  O   UNL A   1      49.325  28.771  21.610  1.00  0.00    -0.744 OA
ENDBRANCH  60  64
ENDBRANCH  43  57
BRANCH  44  68
ATOM     68  C   UNL A   1      38.900  30.721  30.823  1.00  0.00     0.023 A 
ATOM     69  C   UNL A   1      37.761  31.288  30.229  1.00  0.00     0.031 A 
ATOM     70  C   UNL A   1      38.932  30.630  32.227  1.00  0.00     0.131 A 
ATOM     71  C   UNL A   1      36.721  31.778  31.035  1.00  0.00     0.055 A 
ATOM     72  C   UNL A   1      37.867  31.058  33.021  1.00  0.00     0.041 A 
ATOM     73  F   UNL A   1      39.999  30.106  32.851  1.00  0.00    -0.206 F 
ATOM     74  C   UNL A   1      36.758  31.649  32.425  1.00  0.00     0.022 A 
BRANCH  71  75
ATOM     75  S   UNL A   1      35.356  32.676  30.247  1.00  0.00     0.124 S 
ATOM     76  O   UNL A   1      34.386  32.755  31.333  1.00  0.00    -0.237 OA
ATOM     77  O   UNL A   1      35.997  33.931  29.866  1.00  0.00    -0.237 OA
ATOM     78  O   UNL A   1      34.977  31.810  29.132  1.00  0.00    -0.744 OA
ENDBRANCH  71  75
ENDBRANCH  44  68
BRANCH  56  79
ATOM     79  C   UNL A   1      45.010  33.659  29.211  1.00  0.00     0.023 A 
ATOM     80  C   UNL A   1      44.912  34.727  28.301  1.00  0.00     0.031 A 
ATOM     81  C   UNL A   1      45.711  33.877  30.410  1.00  0.00     0.131 A 
ATOM     82  C   UNL A   1      45.568  35.938  28.569  1.00  0.00     0.055 A 
ATOM     83  C   UNL A   1      46.304  35.106  30.703  1.00  0.00     0.041 A 
ATOM     84  F   UNL A   1      45.841  32.894  31.315  1.00  0.00    -0.206 F 
ATOM     85  C   UNL A   1      46.250  36.140  29.771  1.00  0.00     0.022 A 
BRANCH  82  86
ATOM     86  S   UNL A   1      45.626  37.204  27.272  1.00  0.00     0.124 S 
ATOM     87  O   UNL A   1      44.220  37.568  27.138  1.00  0.00    -0.237 OA
ATOM     88  O   UNL A   1      46.493  38.218  27.864  1.00  0.00    -0.237 OA
ATOM     89  O   UNL A   1      46.195  36.497  26.126  1.00  0.00    -0.744 OA
ENDBRANCH  82  86
ENDBRANCH  56  79
ENDBRANCH  30  31
ENDBRANCH  23  25
ENDBRANCH  22  23
ENDBRANCH   1  22
TORSDOF 16
ENDMDL
MODEL 3
REMARK VINA RESULT:     -11.6      1.671      7.908
REMARK SMILES O=C1C[N@@H+](Cc2ccc(C(=O)OCCOC(=O)c3ccc(-c4c5nc(c(-c6cc(S(=O)(=O)[O-])ccc6F)c6ccc([nH]6)c(-c6cc(S(=O)(=O)[O-])ccc6F)c6nc(c(-c7cc(S(=O)(=O)[O-])ccc7F)c7ccc4[nH]7)C=C6)C=C5)cc3)cc2)CCN1
REMARK SMILES IDX 14 1 13 2 12 3 10 4 11 5 9 6 6 7 7 8 82 9 8 10 81 11 5 12
REMARK SMILES IDX 4 13 1 14 2 15 3 16 85 17 84 18 83 20 15 22 16 23 17 24
REMARK SMILES IDX 18 25 19 26 80 27 20 28 79 29 21 30 22 31 23 32 73 33 24 34
REMARK SMILES IDX 78 35 72 36 74 37 25 38 77 39 71 40 70 41 26 43 58 44 38 45
REMARK SMILES IDX 57 46 39 47 42 48 56 49 75 50 40 51 41 52 55 54 76 55 43 56
REMARK SMILES IDX 27 57 28 58 36 59 29 60 35 61 37 62 34 63 30 64 31 65 32 66
REMARK SMILES IDX 33 67 59 68 60 69 68 70 61 71 67 72 69 73 66 74 62 75 63 76
REMARK SMILES IDX 64 77 65 78 44 79 45 80 53 81 46 82 52 83 54 84 51 85 47 86
REMARK SMILES IDX 48 87 49 88 50 89
REMARK H PARENT 85 19 4 21 74 42 42 53
REMARK Flexibility Score: inf
ROOT
ATOM      1  C   UNL A   1      37.470  19.932  24.822  1.00  0.00     0.275 C 
ENDROOT
BRANCH   1   2
ATOM      2  C   UNL A   1      35.976  20.199  25.002  1.00  0.00     0.275 C 
BRANCH   2   3
ATOM      3  O   UNL A   1      35.616  21.482  24.459  1.00  0.00    -0.458 OA
BRANCH   3   4
ATOM      4  C   UNL A   1      34.941  22.290  25.319  1.00  0.00     0.338 C 
ATOM      5  O   UNL A   1      34.699  22.045  26.482  1.00  0.00    -0.246 OA
BRANCH   4   6
ATOM      6  C   UNL A   1      34.557  23.572  24.672  1.00  0.00     0.060 A 
ATOM      7  C   UNL A   1      33.601  26.007  23.677  1.00  0.00     0.006 A 
ATOM      8  C   UNL A   1      34.120  25.936  24.973  1.00  0.00     0.010 A 
ATOM      9  C   UNL A   1      33.711  24.890  22.834  1.00  0.00     0.010 A 
ATOM     10  C   UNL A   1      34.548  24.716  25.481  1.00  0.00     0.016 A 
ATOM     11  C   UNL A   1      34.190  23.674  23.327  1.00  0.00     0.016 A 
BRANCH   7  12
ATOM     12  C   UNL A   1      32.819  27.228  23.259  1.00  0.00     0.299 C 
BRANCH  12  13
ATOM     13  N   UNL A   1      31.477  27.359  23.853  1.00  0.00    -0.322 N 
ATOM     14  O   UNL A   1      29.541  29.529  21.626  1.00  0.00    -0.269 OA
ATOM     15  C   UNL A   1      30.102  29.129  22.645  1.00  0.00     0.275 C 
ATOM     16  C   UNL A   1      30.388  27.642  22.894  1.00  0.00     0.363 C 
ATOM     17  N   UNL A   1      30.384  30.021  23.642  1.00  0.00    -0.346 N 
ATOM     18  C   UNL A   1      31.182  29.703  24.800  1.00  0.00     0.177 C 
ATOM     19  H   UNL A   1      30.022  30.933  23.563  1.00  0.00     0.163 HD
ATOM     20  C   UNL A   1      31.372  28.199  25.047  1.00  0.00     0.284 C 
ATOM     21  H   UNL A   1      31.334  26.406  24.186  1.00  0.00     0.348 HD
ENDBRANCH  12  13
ENDBRANCH   7  12
ENDBRANCH   4   6
ENDBRANCH   3   4
ENDBRANCH   2   3
ENDBRANCH   1   2
BRANCH   1  22
ATOM     22  O   UNL A   1      38.244  21.112  25.110  1.00  0.00    -0.458 OA
BRANCH  22  23
ATOM     23  C   UNL A   1      39.291  20.922  25.948  1.00  0.00     0.338 C 
ATOM     24  O   UNL A   1      39.897  19.880  26.141  1.00  0.00    -0.246 OA
BRANCH  23  25
ATOM     25  C   UNL A   1      39.686  22.192  26.580  1.00  0.00     0.060 A 
ATOM     26  C   UNL A   1      39.081  23.360  26.134  1.00  0.00     0.016 A 
ATOM     27  C   UNL A   1      40.774  22.262  27.446  1.00  0.00     0.016 A 
ATOM     28  C   UNL A   1      39.614  24.603  26.459  1.00  0.00     0.010 A 
ATOM     29  C   UNL A   1      41.251  23.519  27.855  1.00  0.00     0.010 A 
ATOM     30  C   UNL A   1      40.708  24.708  27.329  1.00  0.00    -0.014 A 
BRANCH  30  31
ATOM     31  C   UNL A   1      41.305  26.053  27.609  1.00  0.00     0.031 A 
ATOM     32  C   UNL A   1      42.641  26.434  27.013  1.00  0.00     0.074 A 
ATOM     33  C   UNL A   1      40.630  26.963  28.344  1.00  0.00     0.049 A 
ATOM     34  N   UNL A   1      43.369  27.504  27.220  1.00  0.00    -0.248 NA
ATOM     35  C   UNL A   1      43.244  25.478  26.074  1.00  0.00     0.031 C 
ATOM     36  C   UNL A   1      39.312  26.753  28.946  1.00  0.00     0.029 A 
ATOM     37  N   UNL A   1      40.945  28.255  28.691  1.00  0.00    -0.354 N 
ATOM     38  C   UNL A   1      44.537  27.325  26.483  1.00  0.00     0.074 A 
ATOM     39  C   UNL A   1      44.426  26.030  25.844  1.00  0.00     0.031 C 
ATOM     40  C   UNL A   1      38.906  27.890  29.530  1.00  0.00     0.029 A 
ATOM     41  C   UNL A   1      39.972  28.881  29.438  1.00  0.00     0.049 A 
ATOM     42  H   UNL A   1      41.787  28.693  28.429  1.00  0.00     0.167 HD
ATOM     43  C   UNL A   1      45.598  28.161  26.347  1.00  0.00     0.034 A 
ATOM     44  C   UNL A   1      39.946  30.097  30.021  1.00  0.00     0.034 A 
ATOM     45  C   UNL A   1      45.674  29.472  26.951  1.00  0.00     0.049 A 
ATOM     46  C   UNL A   1      41.149  30.995  29.883  1.00  0.00     0.074 A 
ATOM     47  C   UNL A   1      46.698  30.402  26.868  1.00  0.00     0.029 A 
ATOM     48  N   UNL A   1      44.685  30.049  27.740  1.00  0.00    -0.354 N 
ATOM     49  N   UNL A   1      42.270  30.781  29.235  1.00  0.00    -0.248 NA
ATOM     50  C   UNL A   1      41.082  32.295  30.562  1.00  0.00     0.031 C 
ATOM     51  C   UNL A   1      46.358  31.508  27.655  1.00  0.00     0.029 A 
ATOM     52  C   UNL A   1      45.086  31.309  28.165  1.00  0.00     0.049 A 
ATOM     53  H   UNL A   1      43.826  29.625  27.964  1.00  0.00     0.167 HD
ATOM     54  C   UNL A   1      43.034  31.932  29.413  1.00  0.00     0.074 A 
ATOM     55  C   UNL A   1      42.233  32.843  30.205  1.00  0.00     0.031 C 
ATOM     56  C   UNL A   1      44.287  32.207  28.967  1.00  0.00     0.034 A 
BRANCH  43  57
ATOM     57  C   UNL A   1      46.791  27.655  25.564  1.00  0.00     0.023 A 
ATOM     58  C   UNL A   1      47.029  28.032  24.231  1.00  0.00     0.031 A 
ATOM     59  C   UNL A   1      47.693  26.756  26.162  1.00  0.00     0.131 A 
ATOM     60  C   UNL A   1      48.094  27.454  23.519  1.00  0.00     0.055 A 
ATOM     61  C   UNL A   1      48.800  26.252  25.475  1.00  0.00     0.041 A 
ATOM     62  F   UNL A   1      47.511  26.342  27.426  1.00  0.00    -0.206 F 
ATOM     63  C   UNL A   1      48.996  26.588  24.140  1.00  0.00     0.022 A 
BRANCH  60  64
ATOM     64  S   UNL A   1      48.197  27.735  21.729  1.00  0.00     0.124 S 
ATOM     65  O   UNL A   1      46.848  28.205  21.425  1.00  0.00    -0.237 OA
ATOM     66  O   UNL A   1      49.259  28.730  21.626  1.00  0.00    -0.237 OA
ATOM     67  O   UNL A   1      48.524  26.415  21.193  1.00  0.00    -0.744 OA
ENDBRANCH  60  64
ENDBRANCH  43  57
BRANCH  44  68
ATOM     68  C   UNL A   1      38.772  30.519  30.842  1.00  0.00     0.023 A 
ATOM     69  C   UNL A   1      37.673  31.174  30.263  1.00  0.00     0.031 A 
ATOM     70  C   UNL A   1      38.754  30.311  32.234  1.00  0.00     0.131 A 
ATOM     71  C   UNL A   1      36.623  31.632  31.075  1.00  0.00     0.055 A 
ATOM     72  C   UNL A   1      37.678  30.710  33.028  1.00  0.00     0.041 A 
ATOM     73  F   UNL A   1      39.781  29.699  32.843  1.00  0.00    -0.206 F 
ATOM     74  C   UNL A   1      36.609  31.387  32.451  1.00  0.00     0.022 A 
BRANCH  71  75
ATOM     75  S   UNL A   1      35.316  32.641  30.324  1.00  0.00     0.124 S 
ATOM     76  O   UNL A   1      34.332  32.699  31.398  1.00  0.00    -0.237 OA
ATOM     77  O   UNL A   1      36.021  33.885  30.032  1.00  0.00    -0.237 OA
ATOM     78  O   UNL A   1      34.917  31.864  29.152  1.00  0.00    -0.744 OA
ENDBRANCH  71  75
ENDBRANCH  44  68
BRANCH  56  79
ATOM     79  C   UNL A   1      44.839  33.576  29.291  1.00  0.00     0.023 A 
ATOM     80  C   UNL A   1      45.574  33.821  30.465  1.00  0.00     0.031 A 
ATOM     81  C   UNL A   1      44.583  34.662  28.434  1.00  0.00     0.131 A 
ATOM     82  C   UNL A   1      45.960  35.131  30.789  1.00  0.00     0.055 A 
ATOM     83  C   UNL A   1      45.029  35.951  28.728  1.00  0.00     0.041 A 
ATOM     84  F   UNL A   1      43.884  34.489  27.302  1.00  0.00    -0.206 F 
ATOM     85  C   UNL A   1      45.706  36.195  29.920  1.00  0.00     0.022 A 
BRANCH  82  86
ATOM     86  S   UNL A   1      46.687  35.447  32.420  1.00  0.00     0.124 S 
ATOM     87  O   UNL A   1      46.505  36.888  32.561  1.00  0.00    -0.237 OA
ATOM     88  O   UNL A   1      45.867  34.614  33.294  1.00  0.00    -0.237 OA
ATOM     89  O   UNL A   1      48.073  35.009  32.269  1.00  0.00    -0.744 OA
ENDBRANCH  82  86
ENDBRANCH  56  79
ENDBRANCH  30  31
ENDBRANCH  23  25
ENDBRANCH  22  23
ENDBRANCH   1  22
TORSDOF 16
ENDMDL
