MODEL 1
REMARK VINA RESULT:     -12.2      0.000      0.000
REMARK SMILES Cc1ccc(C)c(OCc2ccc(C(=O)OCCOC(=O)c3ccc(-c4c5nc(c(-c6cc(S(=O)(=O)[O-])ccc6F)c6ccc([nH]6)c(-c6cc(S(=O)(=O)[O-])ccc6F)c6nc(c(-c7cc(S(=O)(=O)[O-])ccc7F)c7ccc4[nH]7)C=C6)C=C5)cc3)cc2)c1C
REMARK SMILES IDX 17 1 16 2 14 3 15 4 13 5 10 6 11 7 86 8 12 9 85 10 9 11 8 12
REMARK SMILES IDX 7 13 1 14 2 15 3 16 87 17 4 18 88 19 5 20 6 21 18 22 19 23
REMARK SMILES IDX 20 24 21 25 22 26 23 27 84 28 24 29 83 30 25 31 26 32 27 33
REMARK SMILES IDX 77 34 28 35 82 36 76 37 78 38 29 39 81 40 75 41 74 42 30 44
REMARK SMILES IDX 62 45 42 46 61 47 43 48 46 49 60 50 79 51 44 52 45 53 59 55
REMARK SMILES IDX 80 56 47 57 31 58 32 59 40 60 33 61 39 62 41 63 38 64 34 65
REMARK SMILES IDX 35 66 36 67 37 68 63 69 64 70 72 71 65 72 71 73 73 74 70 75
REMARK SMILES IDX 66 76 67 77 68 78 69 79 48 80 49 81 57 82 50 83 56 84 58 85
REMARK SMILES IDX 55 86 51 87 52 88 53 89 54 90
REMARK H PARENT 78 43 46 54
REMARK Flexibility Score: inf
ROOT
ATOM      1  C   UNL A   1      35.167  20.871  25.378  1.00  0.00     0.275 C 
ENDROOT
BRANCH   1   2
ATOM      2  O   UNL A   1      34.278  20.189  24.475  1.00  0.00    -0.458 OA
BRANCH   2   3
ATOM      3  C   UNL A   1      33.022  20.026  24.946  1.00  0.00     0.338 C 
ATOM      4  O   UNL A   1      32.575  19.070  25.557  1.00  0.00    -0.246 OA
BRANCH   3   5
ATOM      5  C   UNL A   1      32.185  21.179  24.595  1.00  0.00     0.060 A 
ATOM      6  C   UNL A   1      31.097  23.713  24.105  1.00  0.00    -0.011 A 
ATOM      7  C   UNL A   1      31.680  22.975  23.066  1.00  0.00     0.008 A 
ATOM      8  C   UNL A   1      30.970  23.107  25.371  1.00  0.00     0.008 A 
ATOM      9  C   UNL A   1      32.227  21.713  23.307  1.00  0.00     0.016 A 
ATOM     10  C   UNL A   1      31.522  21.851  25.620  1.00  0.00     0.016 A 
BRANCH   6  11
ATOM     11  C   UNL A   1      30.654  25.159  23.970  1.00  0.00     0.265 C 
BRANCH  11  12
ATOM     12  O   UNL A   1      31.609  26.148  23.605  1.00  0.00    -0.488 OA
BRANCH  12  13
ATOM     13  C   UNL A   1      31.711  27.375  24.205  1.00  0.00     0.125 A 
ATOM     14  C   UNL A   1      33.946  28.616  27.099  1.00  0.00     0.045 C 
ATOM     15  C   UNL A   1      32.909  28.548  26.009  1.00  0.00    -0.044 A 
ATOM     16  C   UNL A   1      32.096  29.661  25.788  1.00  0.00     0.004 A 
ATOM     17  C   UNL A   1      32.736  27.407  25.196  1.00  0.00    -0.006 A 
ATOM     18  C   UNL A   1      31.140  29.653  24.772  1.00  0.00     0.007 A 
ATOM     19  C   UNL A   1      33.598  26.180  25.392  1.00  0.00     0.049 C 
ATOM     20  C   UNL A   1      30.944  28.525  23.952  1.00  0.00    -0.009 A 
ATOM     21  C   UNL A   1      29.936  28.673  22.850  1.00  0.00     0.048 C 
ENDBRANCH  12  13
ENDBRANCH  11  12
ENDBRANCH   6  11
ENDBRANCH   3   5
ENDBRANCH   2   3
ENDBRANCH   1   2
BRANCH   1  22
ATOM     22  C   UNL A   1      36.615  20.495  25.086  1.00  0.00     0.275 C 
BRANCH  22  23
ATOM     23  O   UNL A   1      37.487  21.625  25.278  1.00  0.00    -0.458 OA
BRANCH  23  24
ATOM     24  C   UNL A   1      38.688  21.331  25.828  1.00  0.00     0.338 C 
ATOM     25  O   UNL A   1      39.237  20.243  25.865  1.00  0.00    -0.246 OA
BRANCH  24  26
ATOM     26  C   UNL A   1      39.264  22.529  26.456  1.00  0.00     0.060 A 
ATOM     27  C   UNL A   1      38.805  23.807  26.126  1.00  0.00     0.016 A 
ATOM     28  C   UNL A   1      40.372  22.365  27.288  1.00  0.00     0.016 A 
ATOM     29  C   UNL A   1      39.502  24.929  26.586  1.00  0.00     0.010 A 
ATOM     30  C   UNL A   1      41.022  23.489  27.799  1.00  0.00     0.010 A 
ATOM     31  C   UNL A   1      40.615  24.785  27.430  1.00  0.00    -0.014 A 
BRANCH  31  32
ATOM     32  C   UNL A   1      41.404  25.953  27.914  1.00  0.00     0.031 A 
ATOM     33  C   UNL A   1      40.727  27.019  28.735  1.00  0.00     0.074 A 
ATOM     34  C   UNL A   1      42.696  26.106  27.568  1.00  0.00     0.049 A 
ATOM     35  N   UNL A   1      41.112  28.243  28.988  1.00  0.00    -0.248 NA
ATOM     36  C   UNL A   1      39.431  26.657  29.328  1.00  0.00     0.031 C 
ATOM     37  C   UNL A   1      43.497  25.137  26.819  1.00  0.00     0.029 A 
ATOM     38  N   UNL A   1      43.558  27.155  27.783  1.00  0.00    -0.354 N 
ATOM     39  C   UNL A   1      40.075  28.823  29.713  1.00  0.00     0.074 A 
ATOM     40  C   UNL A   1      39.051  27.808  29.863  1.00  0.00     0.031 C 
ATOM     41  C   UNL A   1      44.731  25.635  26.636  1.00  0.00     0.029 A 
ATOM     42  C   UNL A   1      44.783  26.989  27.182  1.00  0.00     0.049 A 
ATOM     43  H   UNL A   1      43.321  27.949  28.315  1.00  0.00     0.167 HD
ATOM     44  C   UNL A   1      39.985  30.089  30.196  1.00  0.00     0.034 A 
ATOM     45  C   UNL A   1      45.814  27.845  27.031  1.00  0.00     0.034 A 
ATOM     46  C   UNL A   1      41.030  31.077  30.076  1.00  0.00     0.049 A 
ATOM     47  C   UNL A   1      45.692  29.248  27.564  1.00  0.00     0.074 A 
ATOM     48  C   UNL A   1      41.041  32.387  30.525  1.00  0.00     0.029 A 
ATOM     49  N   UNL A   1      42.261  30.856  29.474  1.00  0.00    -0.354 N 
ATOM     50  N   UNL A   1      44.671  29.817  28.160  1.00  0.00    -0.248 NA
ATOM     51  C   UNL A   1      46.856  30.127  27.386  1.00  0.00     0.031 C 
ATOM     52  C   UNL A   1      42.264  32.967  30.166  1.00  0.00     0.029 A 
ATOM     53  C   UNL A   1      43.036  32.005  29.538  1.00  0.00     0.049 A 
ATOM     54  H   UNL A   1      42.544  30.008  29.061  1.00  0.00     0.167 HD
ATOM     55  C   UNL A   1      45.076  31.120  28.440  1.00  0.00     0.074 A 
ATOM     56  C   UNL A   1      46.435  31.247  27.956  1.00  0.00     0.031 C 
ATOM     57  C   UNL A   1      44.387  32.118  29.045  1.00  0.00     0.034 A 
BRANCH  44  58
ATOM     58  C   UNL A   1      38.682  30.489  30.843  1.00  0.00     0.023 A 
ATOM     59  C   UNL A   1      37.648  31.102  30.116  1.00  0.00     0.031 A 
ATOM     60  C   UNL A   1      38.487  30.281  32.220  1.00  0.00     0.131 A 
ATOM     61  C   UNL A   1      36.496  31.547  30.780  1.00  0.00     0.055 A 
ATOM     62  C   UNL A   1      37.308  30.662  32.863  1.00  0.00     0.041 A 
ATOM     63  F   UNL A   1      39.448  29.715  32.968  1.00  0.00    -0.206 F 
ATOM     64  C   UNL A   1      36.309  31.313  32.145  1.00  0.00     0.022 A 
BRANCH  61  65
ATOM     65  S   UNL A   1      35.306  32.561  29.861  1.00  0.00     0.124 S 
ATOM     66  O   UNL A   1      34.959  31.680  28.748  1.00  0.00    -0.237 OA
ATOM     67  O   UNL A   1      34.256  32.785  30.847  1.00  0.00    -0.237 OA
ATOM     68  O   UNL A   1      36.080  33.745  29.490  1.00  0.00    -0.744 OA
ENDBRANCH  61  65
ENDBRANCH  44  58
BRANCH  45  69
ATOM     69  C   UNL A   1      47.026  27.425  26.277  1.00  0.00     0.023 A 
ATOM     70  C   UNL A   1      47.178  27.742  24.919  1.00  0.00     0.031 A 
ATOM     71  C   UNL A   1      48.043  26.686  26.906  1.00  0.00     0.131 A 
ATOM     72  C   UNL A   1      48.313  27.297  24.224  1.00  0.00     0.055 A 
ATOM     73  C   UNL A   1      49.190  26.282  26.221  1.00  0.00     0.041 A 
ATOM     74  F   UNL A   1      47.943  26.363  28.205  1.00  0.00    -0.206 F 
ATOM     75  C   UNL A   1      49.325  26.580  24.868  1.00  0.00     0.022 A 
BRANCH  72  76
ATOM     76  S   UNL A   1      48.426  27.626  22.444  1.00  0.00     0.124 S 
ATOM     77  O   UNL A   1      49.667  28.386  22.360  1.00  0.00    -0.237 OA
ATOM     78  O   UNL A   1      48.461  26.277  21.888  1.00  0.00    -0.237 OA
ATOM     79  O   UNL A   1      47.208  28.383  22.160  1.00  0.00    -0.744 OA
ENDBRANCH  72  76
ENDBRANCH  45  69
BRANCH  57  80
ATOM     80  C   UNL A   1      45.118  33.416  29.261  1.00  0.00     0.023 A 
ATOM     81  C   UNL A   1      45.130  34.428  28.287  1.00  0.00     0.031 A 
ATOM     82  C   UNL A   1      45.823  33.630  30.457  1.00  0.00     0.131 A 
ATOM     83  C   UNL A   1      45.868  35.600  28.513  1.00  0.00     0.055 A 
ATOM     84  C   UNL A   1      46.526  34.813  30.691  1.00  0.00     0.041 A 
ATOM     85  F   UNL A   1      45.842  32.690  31.415  1.00  0.00    -0.206 F 
ATOM     86  C   UNL A   1      46.557  35.803  29.712  1.00  0.00     0.022 A 
BRANCH  83  87
ATOM     87  S   UNL A   1      45.959  36.844  27.195  1.00  0.00     0.124 S 
ATOM     88  O   UNL A   1      46.252  36.024  26.024  1.00  0.00    -0.237 OA
ATOM     89  O   UNL A   1      44.630  37.444  27.237  1.00  0.00    -0.237 OA
ATOM     90  O   UNL A   1      47.047  37.720  27.625  1.00  0.00    -0.744 OA
ENDBRANCH  83  87
ENDBRANCH  57  80
ENDBRANCH  31  32
ENDBRANCH  24  26
ENDBRANCH  23  24
ENDBRANCH  22  23
ENDBRANCH   1  22
TORSDOF 17
ENDMDL
MODEL 2
REMARK VINA RESULT:     -12.2      1.357      1.639
REMARK SMILES Cc1ccc(C)c(OCc2ccc(C(=O)OCCOC(=O)c3ccc(-c4c5nc(c(-c6cc(S(=O)(=O)[O-])ccc6F)c6ccc([nH]6)c(-c6cc(S(=O)(=O)[O-])ccc6F)c6nc(c(-c7cc(S(=O)(=O)[O-])ccc7F)c7ccc4[nH]7)C=C6)C=C5)cc3)cc2)c1C
REMARK SMILES IDX 17 1 16 2 14 3 15 4 13 5 10 6 11 7 86 8 12 9 85 10 9 11 8 12
REMARK SMILES IDX 7 13 1 14 2 15 3 16 87 17 4 18 88 19 5 20 6 21 18 22 19 23
REMARK SMILES IDX 20 24 21 25 22 26 23 27 84 28 24 29 83 30 25 31 26 32 27 33
REMARK SMILES IDX 77 34 28 35 82 36 76 37 78 38 29 39 81 40 75 41 74 42 30 44
REMARK SMILES IDX 62 45 42 46 61 47 43 48 46 49 60 50 79 51 44 52 45 53 59 55
REMARK SMILES IDX 80 56 47 57 31 58 32 59 40 60 33 61 39 62 41 63 38 64 34 65
REMARK SMILES IDX 35 66 36 67 37 68 63 69 64 70 72 71 65 72 71 73 73 74 70 75
REMARK SMILES IDX 66 76 67 77 68 78 69 79 48 80 49 81 57 82 50 83 56 84 58 85
REMARK SMILES IDX 55 86 51 87 52 88 53 89 54 90
REMARK H PARENT 78 43 46 54
REMARK Flexibility Score: inf
ROOT
ATOM      1  C   UNL A   1      35.067  20.711  25.345  1.00  0.00     0.275 C 
ENDROOT
BRANCH   1   2
ATOM      2  O   UNL A   1      34.167  19.988  24.485  1.00  0.00    -0.458 OA
BRANCH   2   3
ATOM      3  C   UNL A   1      32.903  19.893  24.952  1.00  0.00     0.338 C 
ATOM      4  O   UNL A   1      32.418  18.984  25.605  1.00  0.00    -0.246 OA
BRANCH   3   5
ATOM      5  C   UNL A   1      32.111  21.057  24.541  1.00  0.00     0.060 A 
ATOM      6  C   UNL A   1      31.124  23.601  23.910  1.00  0.00    -0.011 A 
ATOM      7  C   UNL A   1      31.665  22.780  22.911  1.00  0.00     0.008 A 
ATOM      8  C   UNL A   1      30.984  23.076  25.210  1.00  0.00     0.008 A 
ATOM      9  C   UNL A   1      32.163  21.513  23.223  1.00  0.00     0.016 A 
ATOM     10  C   UNL A   1      31.487  21.815  25.529  1.00  0.00     0.016 A 
BRANCH   6  11
ATOM     11  C   UNL A   1      30.739  25.054  23.692  1.00  0.00     0.265 C 
BRANCH  11  12
ATOM     12  O   UNL A   1      31.763  26.025  23.513  1.00  0.00    -0.488 OA
BRANCH  12  13
ATOM     13  C   UNL A   1      31.765  27.257  24.111  1.00  0.00     0.125 A 
ATOM     14  C   UNL A   1      33.774  28.629  27.109  1.00  0.00     0.045 C 
ATOM     15  C   UNL A   1      32.801  28.500  25.967  1.00  0.00    -0.044 A 
ATOM     16  C   UNL A   1      31.940  29.566  25.698  1.00  0.00     0.004 A 
ATOM     17  C   UNL A   1      32.734  27.350  25.153  1.00  0.00    -0.006 A 
ATOM     18  C   UNL A   1      31.041  29.502  24.634  1.00  0.00     0.007 A 
ATOM     19  C   UNL A   1      33.651  26.172  25.400  1.00  0.00     0.049 C 
ATOM     20  C   UNL A   1      30.950  28.363  23.811  1.00  0.00    -0.009 A 
ATOM     21  C   UNL A   1      29.994  28.451  22.658  1.00  0.00     0.048 C 
ENDBRANCH  12  13
ENDBRANCH  11  12
ENDBRANCH   6  11
ENDBRANCH   3   5
ENDBRANCH   2   3
ENDBRANCH   1   2
BRANCH   1  22
ATOM     22  C   UNL A   1      36.514  20.392  24.991  1.00  0.00     0.275 C 
BRANCH  22  23
ATOM     23  O   UNL A   1      37.365  21.527  25.239  1.00  0.00    -0.458 OA
BRANCH  23  24
ATOM     24  C   UNL A   1      38.583  21.227  25.746  1.00  0.00     0.338 C 
ATOM     25  O   UNL A   1      39.137  20.142  25.743  1.00  0.00    -0.246 OA
BRANCH  24  26
ATOM     26  C   UNL A   1      39.172  22.413  26.386  1.00  0.00     0.060 A 
ATOM     27  C   UNL A   1      38.722  23.698  26.072  1.00  0.00     0.016 A 
ATOM     28  C   UNL A   1      40.281  22.231  27.212  1.00  0.00     0.016 A 
ATOM     29  C   UNL A   1      39.431  24.810  26.540  1.00  0.00     0.010 A 
ATOM     30  C   UNL A   1      40.942  23.344  27.732  1.00  0.00     0.010 A 
ATOM     31  C   UNL A   1      40.545  24.647  27.379  1.00  0.00    -0.014 A 
BRANCH  31  32
ATOM     32  C   UNL A   1      41.346  25.802  27.873  1.00  0.00     0.031 A 
ATOM     33  C   UNL A   1      40.677  26.875  28.692  1.00  0.00     0.074 A 
ATOM     34  C   UNL A   1      42.643  25.940  27.537  1.00  0.00     0.049 A 
ATOM     35  N   UNL A   1      41.076  28.094  28.952  1.00  0.00    -0.248 NA
ATOM     36  C   UNL A   1      39.372  26.528  29.274  1.00  0.00     0.031 C 
ATOM     37  C   UNL A   1      43.437  24.962  26.791  1.00  0.00     0.029 A 
ATOM     38  N   UNL A   1      43.517  26.976  27.762  1.00  0.00    -0.354 N 
ATOM     39  C   UNL A   1      40.042  28.685  29.671  1.00  0.00     0.074 A 
ATOM     40  C   UNL A   1      39.004  27.683  29.810  1.00  0.00     0.031 C 
ATOM     41  C   UNL A   1      44.678  25.445  26.619  1.00  0.00     0.029 A 
ATOM     42  C   UNL A   1      44.744  26.796  27.169  1.00  0.00     0.049 A 
ATOM     43  H   UNL A   1      43.286  27.772  28.295  1.00  0.00     0.167 HD
ATOM     44  C   UNL A   1      39.965  29.950  30.157  1.00  0.00     0.034 A 
ATOM     45  C   UNL A   1      45.787  27.639  27.029  1.00  0.00     0.034 A 
ATOM     46  C   UNL A   1      41.024  30.924  30.048  1.00  0.00     0.049 A 
ATOM     47  C   UNL A   1      45.680  29.041  27.565  1.00  0.00     0.074 A 
ATOM     48  C   UNL A   1      41.049  32.233  30.502  1.00  0.00     0.029 A 
ATOM     49  N   UNL A   1      42.257  30.689  29.454  1.00  0.00    -0.354 N 
ATOM     50  N   UNL A   1      44.662  29.623  28.156  1.00  0.00    -0.248 NA
ATOM     51  C   UNL A   1      46.857  29.906  27.399  1.00  0.00     0.031 C 
ATOM     52  C   UNL A   1      42.282  32.798  30.154  1.00  0.00     0.029 A 
ATOM     53  C   UNL A   1      43.046  31.827  29.528  1.00  0.00     0.049 A 
ATOM     54  H   UNL A   1      42.531  29.839  29.041  1.00  0.00     0.167 HD
ATOM     55  C   UNL A   1      45.083  30.918  28.443  1.00  0.00     0.074 A 
ATOM     56  C   UNL A   1      46.447  31.030  27.970  1.00  0.00     0.031 C 
ATOM     57  C   UNL A   1      44.402  31.924  29.045  1.00  0.00     0.034 A 
BRANCH  44  58
ATOM     58  C   UNL A   1      38.663  30.365  30.796  1.00  0.00     0.023 A 
ATOM     59  C   UNL A   1      37.649  31.007  30.066  1.00  0.00     0.031 A 
ATOM     60  C   UNL A   1      38.449  30.141  32.168  1.00  0.00     0.131 A 
ATOM     61  C   UNL A   1      36.498  31.465  30.724  1.00  0.00     0.055 A 
ATOM     62  C   UNL A   1      37.270  30.536  32.803  1.00  0.00     0.041 A 
ATOM     63  F   UNL A   1      39.391  29.548  32.918  1.00  0.00    -0.206 F 
ATOM     64  C   UNL A   1      36.292  31.215  32.084  1.00  0.00     0.022 A 
BRANCH  61  65
ATOM     65  S   UNL A   1      35.337  32.514  29.807  1.00  0.00     0.124 S 
ATOM     66  O   UNL A   1      34.323  32.796  30.821  1.00  0.00    -0.237 OA
ATOM     67  O   UNL A   1      36.175  33.641  29.414  1.00  0.00    -0.237 OA
ATOM     68  O   UNL A   1      34.890  31.654  28.712  1.00  0.00    -0.744 OA
ENDBRANCH  61  65
ENDBRANCH  44  58
BRANCH  45  69
ATOM     69  C   UNL A   1      46.999  27.205  26.282  1.00  0.00     0.023 A 
ATOM     70  C   UNL A   1      48.059  26.561  26.937  1.00  0.00     0.031 A 
ATOM     71  C   UNL A   1      47.116  27.445  24.902  1.00  0.00     0.131 A 
ATOM     72  C   UNL A   1      49.206  26.200  26.214  1.00  0.00     0.055 A 
ATOM     73  C   UNL A   1      48.241  27.046  24.179  1.00  0.00     0.041 A 
ATOM     74  F   UNL A   1      46.125  28.054  24.232  1.00  0.00    -0.206 F 
ATOM     75  C   UNL A   1      49.300  26.427  24.838  1.00  0.00     0.022 A 
BRANCH  72  76
ATOM     76  S   UNL A   1      50.604  25.472  27.110  1.00  0.00     0.124 S 
ATOM     77  O   UNL A   1      50.010  24.256  27.653  1.00  0.00    -0.237 OA
ATOM     78  O   UNL A   1      51.585  25.286  26.045  1.00  0.00    -0.237 OA
ATOM     79  O   UNL A   1      50.947  26.495  28.096  1.00  0.00    -0.744 OA
ENDBRANCH  72  76
ENDBRANCH  45  69
BRANCH  57  80
ATOM     80  C   UNL A   1      45.149  33.211  29.271  1.00  0.00     0.023 A 
ATOM     81  C   UNL A   1      45.169  34.232  28.306  1.00  0.00     0.031 A 
ATOM     82  C   UNL A   1      45.859  33.407  30.467  1.00  0.00     0.131 A 
ATOM     83  C   UNL A   1      45.922  35.394  28.541  1.00  0.00     0.055 A 
ATOM     84  C   UNL A   1      46.576  34.579  30.710  1.00  0.00     0.041 A 
ATOM     85  F   UNL A   1      45.870  32.458  31.417  1.00  0.00    -0.206 F 
ATOM     86  C   UNL A   1      46.616  35.577  29.740  1.00  0.00     0.022 A 
BRANCH  83  87
ATOM     87  S   UNL A   1      46.024  36.648  27.234  1.00  0.00     0.124 S 
ATOM     88  O   UNL A   1      44.637  36.735  26.787  1.00  0.00    -0.237 OA
ATOM     89  O   UNL A   1      46.536  37.810  27.953  1.00  0.00    -0.237 OA
ATOM     90  O   UNL A   1      46.951  36.062  26.268  1.00  0.00    -0.744 OA
ENDBRANCH  83  87
ENDBRANCH  57  80
ENDBRANCH  31  32
ENDBRANCH  24  26
ENDBRANCH  23  24
ENDBRANCH  22  23
ENDBRANCH   1  22
TORSDOF 17
ENDMDL
MODEL 3
REMARK VINA RESULT:     -11.9      4.616      9.757
REMARK SMILES Cc1ccc(C)c(OCc2ccc(C(=O)OCCOC(=O)c3ccc(-c4c5nc(c(-c6cc(S(=O)(=O)[O-])ccc6F)c6ccc([nH]6)c(-c6cc(S(=O)(=O)[O-])ccc6F)c6nc(c(-c7cc(S(=O)(=O)[O-])ccc7F)c7ccc4[nH]7)C=C6)C=C5)cc3)cc2)c1C
REMARK SMILES IDX 17 1 16 2 14 3 15 4 13 5 10 6 11 7 86 8 12 9 85 10 9 11 8 12
REMARK SMILES IDX 7 13 1 14 2 15 3 16 87 17 4 18 88 19 5 20 6 21 18 22 19 23
REMARK SMILES IDX 20 24 21 25 22 26 23 27 84 28 24 29 83 30 25 31 26 32 27 33
REMARK SMILES IDX 77 34 28 35 82 36 76 37 78 38 29 39 81 40 75 41 74 42 30 44
REMARK SMILES IDX 62 45 42 46 61 47 43 48 46 49 60 50 79 51 44 52 45 53 59 55
REMARK SMILES IDX 80 56 47 57 31 58 32 59 40 60 33 61 39 62 41 63 38 64 34 65
REMARK SMILES IDX 35 66 36 67 37 68 63 69 64 70 72 71 65 72 71 73 73 74 70 75
REMARK SMILES IDX 66 76 67 77 68 78 69 79 48 80 49 81 57 82 50 83 56 84 58 85
REMARK SMILES IDX 55 86 51 87 52 88 53 89 54 90
REMARK H PARENT 78 43 46 54
REMARK Flexibility Score: inf
ROOT
ATOM      1  C   UNL A   1      31.017  29.149  24.770  1.00  0.00     0.275 C 
ENDROOT
BRANCH   1   2
ATOM      2  O   UNL A   1      31.474  29.105  23.405  1.00  0.00    -0.458 OA
BRANCH   2   3
ATOM      3  C   UNL A   1      30.612  28.519  22.546  1.00  0.00     0.338 C 
ATOM      4  O   UNL A   1      29.804  29.066  21.814  1.00  0.00    -0.246 OA
BRANCH   3   5
ATOM      5  C   UNL A   1      30.730  27.058  22.610  1.00  0.00     0.060 A 
ATOM      6  C   UNL A   1      31.372  24.395  23.196  1.00  0.00    -0.011 A 
ATOM      7  C   UNL A   1      30.237  24.994  23.760  1.00  0.00     0.008 A 
ATOM      8  C   UNL A   1      32.114  25.122  22.245  1.00  0.00     0.008 A 
ATOM      9  C   UNL A   1      29.917  26.324  23.474  1.00  0.00     0.016 A 
ATOM     10  C   UNL A   1      31.805  26.453  21.962  1.00  0.00     0.016 A 
BRANCH   6  11
ATOM     11  C   UNL A   1      31.894  23.027  23.600  1.00  0.00     0.265 C 
BRANCH  11  12
ATOM     12  O   UNL A   1      32.575  22.883  24.840  1.00  0.00    -0.488 OA
BRANCH  12  13
ATOM     13  C   UNL A   1      33.931  23.011  24.990  1.00  0.00     0.125 A 
ATOM     14  C   UNL A   1      36.751  20.374  25.008  1.00  0.00     0.045 C 
ATOM     15  C   UNL A   1      35.996  21.674  25.097  1.00  0.00    -0.044 A 
ATOM     16  C   UNL A   1      36.699  22.836  25.422  1.00  0.00     0.004 A 
ATOM     17  C   UNL A   1      34.609  21.765  24.852  1.00  0.00    -0.006 A 
ATOM     18  C   UNL A   1      36.046  24.066  25.489  1.00  0.00     0.007 A 
ATOM     19  C   UNL A   1      33.806  20.536  24.488  1.00  0.00     0.049 C 
ATOM     20  C   UNL A   1      34.662  24.182  25.255  1.00  0.00    -0.009 A 
ATOM     21  C   UNL A   1      34.097  25.572  25.287  1.00  0.00     0.048 C 
ENDBRANCH  12  13
ENDBRANCH  11  12
ENDBRANCH   6  11
ENDBRANCH   3   5
ENDBRANCH   2   3
ENDBRANCH   1   2
BRANCH   1  22
ATOM     22  C   UNL A   1      31.510  30.416  25.457  1.00  0.00     0.275 C 
BRANCH  22  23
ATOM     23  O   UNL A   1      32.729  30.167  26.180  1.00  0.00    -0.458 OA
BRANCH  23  24
ATOM     24  C   UNL A   1      33.122  31.169  27.000  1.00  0.00     0.338 C 
ATOM     25  O   UNL A   1      32.503  32.183  27.276  1.00  0.00    -0.246 OA
BRANCH  24  26
ATOM     26  C   UNL A   1      34.477  30.908  27.506  1.00  0.00     0.060 A 
ATOM     27  C   UNL A   1      34.890  29.612  27.825  1.00  0.00     0.016 A 
ATOM     28  C   UNL A   1      35.295  32.003  27.789  1.00  0.00     0.016 A 
ATOM     29  C   UNL A   1      36.106  29.419  28.489  1.00  0.00     0.010 A 
ATOM     30  C   UNL A   1      36.537  31.798  28.390  1.00  0.00     0.010 A 
ATOM     31  C   UNL A   1      36.946  30.508  28.775  1.00  0.00    -0.014 A 
BRANCH  31  32
ATOM     32  C   UNL A   1      38.233  30.350  29.510  1.00  0.00     0.031 A 
ATOM     33  C   UNL A   1      39.318  29.481  28.930  1.00  0.00     0.074 A 
ATOM     34  C   UNL A   1      38.413  30.913  30.719  1.00  0.00     0.049 A 
ATOM     35  N   UNL A   1      40.361  28.951  29.515  1.00  0.00    -0.248 NA
ATOM     36  C   UNL A   1      39.191  29.150  27.503  1.00  0.00     0.031 C 
ATOM     37  C   UNL A   1      37.474  31.816  31.386  1.00  0.00     0.029 A 
ATOM     38  N   UNL A   1      39.446  30.786  31.616  1.00  0.00    -0.354 N 
ATOM     39  C   UNL A   1      40.981  28.167  28.546  1.00  0.00     0.074 A 
ATOM     40  C   UNL A   1      40.196  28.302  27.335  1.00  0.00     0.031 C 
ATOM     41  C   UNL A   1      37.972  32.160  32.584  1.00  0.00     0.029 A 
ATOM     42  C   UNL A   1      39.223  31.441  32.805  1.00  0.00     0.049 A 
ATOM     43  H   UNL A   1      40.267  30.275  31.427  1.00  0.00     0.167 HD
ATOM     44  C   UNL A   1      42.093  27.398  28.664  1.00  0.00     0.034 A 
ATOM     45  C   UNL A   1      39.911  31.420  33.964  1.00  0.00     0.034 A 
ATOM     46  C   UNL A   1      42.889  27.306  29.865  1.00  0.00     0.049 A 
ATOM     47  C   UNL A   1      41.137  30.554  34.080  1.00  0.00     0.074 A 
ATOM     48  C   UNL A   1      44.031  26.557  30.093  1.00  0.00     0.029 A 
ATOM     49  N   UNL A   1      42.633  28.002  31.038  1.00  0.00    -0.354 N 
ATOM     50  N   UNL A   1      41.659  29.741  33.192  1.00  0.00    -0.248 NA
ATOM     51  C   UNL A   1      41.855  30.590  35.362  1.00  0.00     0.031 C 
ATOM     52  C   UNL A   1      44.446  26.773  31.413  1.00  0.00     0.029 A 
ATOM     53  C   UNL A   1      43.593  27.697  31.992  1.00  0.00     0.049 A 
ATOM     54  H   UNL A   1      41.881  28.622  31.174  1.00  0.00     0.167 HD
ATOM     55  C   UNL A   1      42.775  29.178  33.806  1.00  0.00     0.074 A 
ATOM     56  C   UNL A   1      42.855  29.752  35.133  1.00  0.00     0.031 C 
ATOM     57  C   UNL A   1      43.655  28.272  33.314  1.00  0.00     0.034 A 
BRANCH  44  58
ATOM     58  C   UNL A   1      42.473  26.549  27.477  1.00  0.00     0.023 A 
ATOM     59  C   UNL A   1      42.041  25.219  27.345  1.00  0.00     0.031 A 
ATOM     60  C   UNL A   1      43.311  27.073  26.476  1.00  0.00     0.131 A 
ATOM     61  C   UNL A   1      42.502  24.437  26.276  1.00  0.00     0.055 A 
ATOM     62  C   UNL A   1      43.710  26.311  25.376  1.00  0.00     0.041 A 
ATOM     63  F   UNL A   1      43.770  28.332  26.559  1.00  0.00    -0.206 F 
ATOM     64  C   UNL A   1      43.317  24.980  25.279  1.00  0.00     0.022 A 
BRANCH  61  65
ATOM     65  S   UNL A   1      42.134  22.661  26.283  1.00  0.00     0.124 S 
ATOM     66  O   UNL A   1      40.675  22.658  26.347  1.00  0.00    -0.237 OA
ATOM     67  O   UNL A   1      42.717  22.215  25.023  1.00  0.00    -0.237 OA
ATOM     68  O   UNL A   1      42.805  22.177  27.488  1.00  0.00    -0.744 OA
ENDBRANCH  61  65
ENDBRANCH  44  58
BRANCH  45  69
ATOM     69  C   UNL A   1      39.415  32.189  35.137  1.00  0.00     0.023 A 
ATOM     70  C   UNL A   1      39.873  33.489  35.395  1.00  0.00     0.031 A 
ATOM     71  C   UNL A   1      38.483  31.623  36.025  1.00  0.00     0.131 A 
ATOM     72  C   UNL A   1      39.417  34.174  36.532  1.00  0.00     0.055 A 
ATOM     73  C   UNL A   1      38.001  32.324  37.131  1.00  0.00     0.041 A 
ATOM     74  F   UNL A   1      38.013  30.383  35.816  1.00  0.00    -0.206 F 
ATOM     75  C   UNL A   1      38.476  33.606  37.394  1.00  0.00     0.022 A 
BRANCH  72  76
ATOM     76  S   UNL A   1      40.113  35.808  36.899  1.00  0.00     0.124 S 
ATOM     77  O   UNL A   1      39.659  36.590  35.756  1.00  0.00    -0.237 OA
ATOM     78  O   UNL A   1      39.490  36.124  38.180  1.00  0.00    -0.237 OA
ATOM     79  O   UNL A   1      41.553  35.560  36.955  1.00  0.00    -0.744 OA
ENDBRANCH  72  76
ENDBRANCH  45  69
BRANCH  57  80
ATOM     80  C   UNL A   1      44.807  27.890  34.203  1.00  0.00     0.023 A 
ATOM     81  C   UNL A   1      46.014  28.610  34.197  1.00  0.00     0.031 A 
ATOM     82  C   UNL A   1      44.694  26.781  35.058  1.00  0.00     0.131 A 
ATOM     83  C   UNL A   1      47.079  28.186  35.008  1.00  0.00     0.055 A 
ATOM     84  C   UNL A   1      45.744  26.386  35.888  1.00  0.00     0.041 A 
ATOM     85  F   UNL A   1      43.561  26.062  35.096  1.00  0.00    -0.206 F 
ATOM     86  C   UNL A   1      46.948  27.086  35.859  1.00  0.00     0.022 A 
BRANCH  83  87
ATOM     87  S   UNL A   1      48.663  29.063  34.899  1.00  0.00     0.124 S 
ATOM     88  O   UNL A   1      49.360  28.304  33.864  1.00  0.00    -0.237 OA
ATOM     89  O   UNL A   1      48.251  30.413  34.530  1.00  0.00    -0.237 OA
ATOM     90  O   UNL A   1      49.221  28.933  36.244  1.00  0.00    -0.744 OA
ENDBRANCH  83  87
ENDBRANCH  57  80
ENDBRANCH  31  32
ENDBRANCH  24  26
ENDBRANCH  23  24
ENDBRANCH  22  23
ENDBRANCH   1  22
TORSDOF 17
ENDMDL
