MODEL 1
REMARK VINA RESULT:     -11.9      0.000      0.000
REMARK SMILES CSc1ccc(/C=C2\C(C)=C(CC(=O)OCCOC(=O)c3ccc(-c4c5nc(c(-c6cc(S(=O)(=O)[O-])ccc6F)c6ccc([nH]6)c(-c6cc(S(=O)(=O)[O-])ccc6F)c6nc(c(-c7cc(S(=O)(=O)[O-])ccc7F)c7ccc4[nH]7)C=C6)C=C5)cc3)c3cc(F)ccc32)cc1
REMARK SMILES IDX 16 1 15 2 13 3 14 4 12 5 11 6 7 7 8 8 9 9 90 10 10 11 84 12
REMARK SMILES IDX 89 13 85 14 88 15 86 16 87 17 6 18 3 19 4 20 92 21 5 22
REMARK SMILES IDX 91 23 2 24 1 25 17 26 18 27 19 28 20 29 21 30 22 31 83 32
REMARK SMILES IDX 23 33 82 34 24 35 25 36 26 37 76 38 27 39 81 40 75 41 77 42
REMARK SMILES IDX 28 43 80 44 74 45 73 46 29 48 61 49 41 50 60 51 42 52 45 53
REMARK SMILES IDX 59 54 78 55 43 56 44 57 58 59 79 60 46 61 30 62 31 63 39 64
REMARK SMILES IDX 32 65 38 66 40 67 37 68 33 69 34 70 35 71 36 72 62 73 63 74
REMARK SMILES IDX 71 75 64 76 70 77 72 78 69 79 65 80 66 81 67 82 68 83 47 84
REMARK SMILES IDX 48 85 56 86 49 87 55 88 57 89 54 90 50 91 51 92 52 93 53 94
REMARK H PARENT 77 47 45 58
REMARK Flexibility Score: inf
ROOT
ATOM      1  C   UNL A   1      31.719  31.091  26.400  1.00  0.00     0.274 C 
ENDROOT
BRANCH   1   2
ATOM      2  O   UNL A   1      32.852  30.251  26.717  1.00  0.00    -0.462 OA
BRANCH   2   3
ATOM      3  C   UNL A   1      32.538  28.960  27.008  1.00  0.00     0.310 C 
ATOM      4  O   UNL A   1      31.539  28.622  27.641  1.00  0.00    -0.252 OA
BRANCH   3   5
ATOM      5  C   UNL A   1      33.499  27.950  26.397  1.00  0.00     0.159 C 
BRANCH   5   6
ATOM      6  C   UNL A   1      33.346  27.558  24.911  1.00  0.00    -0.025 C 
ATOM      7  C   UNL A   1      31.563  24.709  25.686  1.00  0.00     0.017 C 
ATOM      8  C   UNL A   1      31.950  25.808  25.017  1.00  0.00    -0.014 C 
ATOM      9  C   UNL A   1      33.330  26.223  24.647  1.00  0.00    -0.039 C 
ATOM     10  C   UNL A   1      31.097  26.904  24.528  1.00  0.00    -0.010 A 
ATOM     11  C   UNL A   1      33.715  25.716  23.262  1.00  0.00     0.045 C 
ATOM     12  C   UNL A   1      32.022  27.949  24.318  1.00  0.00    -0.011 A 
ATOM     13  C   UNL A   1      29.869  26.868  23.883  1.00  0.00     0.012 A 
ATOM     14  C   UNL A   1      31.773  28.915  23.358  1.00  0.00     0.048 A 
ATOM     15  C   UNL A   1      29.596  27.882  22.957  1.00  0.00     0.040 A 
ATOM     16  C   UNL A   1      30.550  28.873  22.690  1.00  0.00     0.123 A 
ATOM     17  F   UNL A   1      30.322  29.753  21.705  1.00  0.00    -0.207 F 
BRANCH   7  18
ATOM     18  C   UNL A   1      32.359  23.479  25.916  1.00  0.00    -0.025 A 
ATOM     19  C   UNL A   1      34.639  21.940  25.548  1.00  0.00     0.007 A 
ATOM     20  C   UNL A   1      34.468  22.633  26.739  1.00  0.00     0.015 A 
ATOM     21  C   UNL A   1      33.560  21.787  24.677  1.00  0.00     0.015 A 
ATOM     22  C   UNL A   1      33.297  23.353  26.946  1.00  0.00     0.009 A 
ATOM     23  C   UNL A   1      32.414  22.560  24.863  1.00  0.00     0.009 A 
BRANCH  19  24
ATOM     24  S   UNL A   1      36.287  21.542  24.998  1.00  0.00    -0.130 SA
ATOM     25  C   UNL A   1      36.718  23.217  24.409  1.00  0.00     0.091 C 
ENDBRANCH  19  24
ENDBRANCH   7  18
ENDBRANCH   5   6
ENDBRANCH   3   5
ENDBRANCH   2   3
ENDBRANCH   1   2
BRANCH   1  26
ATOM     26  C   UNL A   1      31.814  32.377  27.248  1.00  0.00     0.275 C 
BRANCH  26  27
ATOM     27  O   UNL A   1      33.071  33.115  27.251  1.00  0.00    -0.458 OA
BRANCH  27  28
ATOM     28  C   UNL A   1      33.368  33.847  28.338  1.00  0.00     0.338 C 
ATOM     29  O   UNL A   1      32.711  34.797  28.753  1.00  0.00    -0.246 OA
BRANCH  28  30
ATOM     30  C   UNL A   1      34.591  33.505  29.072  1.00  0.00     0.060 A 
ATOM     31  C   UNL A   1      34.454  32.461  30.006  1.00  0.00     0.016 A 
ATOM     32  C   UNL A   1      35.808  34.170  28.934  1.00  0.00     0.016 A 
ATOM     33  C   UNL A   1      35.522  32.061  30.782  1.00  0.00     0.010 A 
ATOM     34  C   UNL A   1      36.903  33.735  29.691  1.00  0.00     0.010 A 
ATOM     35  C   UNL A   1      36.766  32.665  30.595  1.00  0.00    -0.014 A 
BRANCH  35  36
ATOM     36  C   UNL A   1      37.935  32.067  31.271  1.00  0.00     0.031 A 
ATOM     37  C   UNL A   1      38.732  30.990  30.614  1.00  0.00     0.074 A 
ATOM     38  C   UNL A   1      38.278  32.561  32.475  1.00  0.00     0.049 A 
ATOM     39  N   UNL A   1      39.743  30.314  31.091  1.00  0.00    -0.248 NA
ATOM     40  C   UNL A   1      38.346  30.626  29.244  1.00  0.00     0.031 C 
ATOM     41  C   UNL A   1      37.590  33.660  33.162  1.00  0.00     0.029 A 
ATOM     42  N   UNL A   1      39.286  32.214  33.334  1.00  0.00    -0.354 N 
ATOM     43  C   UNL A   1      40.113  29.428  30.088  1.00  0.00     0.074 A 
ATOM     44  C   UNL A   1      39.201  29.646  28.982  1.00  0.00     0.031 C 
ATOM     45  C   UNL A   1      38.200  33.898  34.331  1.00  0.00     0.029 A 
ATOM     46  C   UNL A   1      39.272  32.927  34.509  1.00  0.00     0.049 A 
ATOM     47  H   UNL A   1      39.955  31.521  33.131  1.00  0.00     0.167 HD
ATOM     48  C   UNL A   1      41.120  28.521  30.104  1.00  0.00     0.034 A 
ATOM     49  C   UNL A   1      40.012  32.785  35.624  1.00  0.00     0.034 A 
ATOM     50  C   UNL A   1      42.000  28.323  31.235  1.00  0.00     0.049 A 
ATOM     51  C   UNL A   1      41.063  31.711  35.647  1.00  0.00     0.074 A 
ATOM     52  C   UNL A   1      43.049  27.429  31.367  1.00  0.00     0.029 A 
ATOM     53  N   UNL A   1      41.926  29.024  32.434  1.00  0.00    -0.354 N 
ATOM     54  N   UNL A   1      41.388  30.857  34.702  1.00  0.00    -0.248 NA
ATOM     55  C   UNL A   1      41.847  31.581  36.878  1.00  0.00     0.031 C 
ATOM     56  C   UNL A   1      43.563  27.544  32.664  1.00  0.00     0.029 A 
ATOM     57  C   UNL A   1      42.888  28.561  33.320  1.00  0.00     0.049 A 
ATOM     58  H   UNL A   1      41.283  29.744  32.627  1.00  0.00     0.167 HD
ATOM     59  C   UNL A   1      42.430  30.098  35.224  1.00  0.00     0.074 A 
ATOM     60  C   UNL A   1      42.689  30.611  36.555  1.00  0.00     0.031 C 
ATOM     61  C   UNL A   1      43.113  29.072  34.654  1.00  0.00     0.034 A 
BRANCH  48  62
ATOM     62  C   UNL A   1      41.271  27.636  28.892  1.00  0.00     0.023 A 
ATOM     63  C   UNL A   1      42.283  27.846  27.937  1.00  0.00     0.031 A 
ATOM     64  C   UNL A   1      40.370  26.579  28.672  1.00  0.00     0.131 A 
ATOM     65  C   UNL A   1      42.328  27.056  26.778  1.00  0.00     0.055 A 
ATOM     66  C   UNL A   1      40.465  25.749  27.553  1.00  0.00     0.041 A 
ATOM     67  F   UNL A   1      39.369  26.343  29.535  1.00  0.00    -0.206 F 
ATOM     68  C   UNL A   1      41.439  25.994  26.591  1.00  0.00     0.022 A 
BRANCH  65  69
ATOM     69  S   UNL A   1      43.478  27.519  25.454  1.00  0.00     0.124 S 
ATOM     70  O   UNL A   1      42.563  27.836  24.361  1.00  0.00    -0.237 OA
ATOM     71  O   UNL A   1      44.191  28.651  26.037  1.00  0.00    -0.237 OA
ATOM     72  O   UNL A   1      44.279  26.312  25.256  1.00  0.00    -0.744 OA
ENDBRANCH  65  69
ENDBRANCH  48  62
BRANCH  49  73
ATOM     73  C   UNL A   1      39.741  33.633  36.815  1.00  0.00     0.023 A 
ATOM     74  C   UNL A   1      40.552  34.735  37.124  1.00  0.00     0.031 A 
ATOM     75  C   UNL A   1      38.668  33.339  37.679  1.00  0.00     0.131 A 
ATOM     76  C   UNL A   1      40.301  35.481  38.285  1.00  0.00     0.055 A 
ATOM     77  C   UNL A   1      38.390  34.116  38.803  1.00  0.00     0.041 A 
ATOM     78  F   UNL A   1      37.858  32.297  37.427  1.00  0.00    -0.206 F 
ATOM     79  C   UNL A   1      39.218  35.190  39.118  1.00  0.00     0.022 A 
BRANCH  76  80
ATOM     80  S   UNL A   1      41.461  36.800  38.735  1.00  0.00     0.124 S 
ATOM     81  O   UNL A   1      40.554  37.852  39.183  1.00  0.00    -0.237 OA
ATOM     82  O   UNL A   1      42.261  36.158  39.773  1.00  0.00    -0.237 OA
ATOM     83  O   UNL A   1      42.167  37.073  37.486  1.00  0.00    -0.744 OA
ENDBRANCH  76  80
ENDBRANCH  49  73
BRANCH  61  84
ATOM     84  C   UNL A   1      44.230  28.475  35.472  1.00  0.00     0.023 A 
ATOM     85  C   UNL A   1      44.004  27.410  36.361  1.00  0.00     0.031 A 
ATOM     86  C   UNL A   1      45.530  29.004  35.386  1.00  0.00     0.131 A 
ATOM     87  C   UNL A   1      45.049  26.946  37.173  1.00  0.00     0.055 A 
ATOM     88  C   UNL A   1      46.579  28.499  36.152  1.00  0.00     0.041 A 
ATOM     89  F   UNL A   1      45.798  30.024  34.555  1.00  0.00    -0.206 F 
ATOM     90  C   UNL A   1      46.340  27.474  37.063  1.00  0.00     0.022 A 
BRANCH  87  91
ATOM     91  S   UNL A   1      44.681  25.708  38.446  1.00  0.00     0.124 S 
ATOM     92  O   UNL A   1      43.731  24.839  37.757  1.00  0.00    -0.237 OA
ATOM     93  O   UNL A   1      45.996  25.132  38.710  1.00  0.00    -0.237 OA
ATOM     94  O   UNL A   1      44.120  26.497  39.541  1.00  0.00    -0.744 OA
ENDBRANCH  87  91
ENDBRANCH  61  84
ENDBRANCH  35  36
ENDBRANCH  28  30
ENDBRANCH  27  28
ENDBRANCH  26  27
ENDBRANCH   1  26
TORSDOF 17
ENDMDL
MODEL 2
REMARK VINA RESULT:     -11.9      5.638     10.627
REMARK SMILES CSc1ccc(/C=C2\C(C)=C(CC(=O)OCCOC(=O)c3ccc(-c4c5nc(c(-c6cc(S(=O)(=O)[O-])ccc6F)c6ccc([nH]6)c(-c6cc(S(=O)(=O)[O-])ccc6F)c6nc(c(-c7cc(S(=O)(=O)[O-])ccc7F)c7ccc4[nH]7)C=C6)C=C5)cc3)c3cc(F)ccc32)cc1
REMARK SMILES IDX 16 1 15 2 13 3 14 4 12 5 11 6 7 7 8 8 9 9 90 10 10 11 84 12
REMARK SMILES IDX 89 13 85 14 88 15 86 16 87 17 6 18 3 19 4 20 92 21 5 22
REMARK SMILES IDX 91 23 2 24 1 25 17 26 18 27 19 28 20 29 21 30 22 31 83 32
REMARK SMILES IDX 23 33 82 34 24 35 25 36 26 37 76 38 27 39 81 40 75 41 77 42
REMARK SMILES IDX 28 43 80 44 74 45 73 46 29 48 61 49 41 50 60 51 42 52 45 53
REMARK SMILES IDX 59 54 78 55 43 56 44 57 58 59 79 60 46 61 30 62 31 63 39 64
REMARK SMILES IDX 32 65 38 66 40 67 37 68 33 69 34 70 35 71 36 72 62 73 63 74
REMARK SMILES IDX 71 75 64 76 70 77 72 78 69 79 65 80 66 81 67 82 68 83 47 84
REMARK SMILES IDX 48 85 56 86 49 87 55 88 57 89 54 90 50 91 51 92 52 93 53 94
REMARK H PARENT 77 47 45 58
REMARK Flexibility Score: inf
ROOT
ATOM      1  C   UNL A   1      37.225  20.731  24.428  1.00  0.00     0.274 C 
ENDROOT
BRANCH   1   2
ATOM      2  O   UNL A   1      36.929  21.894  25.234  1.00  0.00    -0.462 OA
BRANCH   2   3
ATOM      3  C   UNL A   1      36.627  23.014  24.523  1.00  0.00     0.310 C 
ATOM      4  O   UNL A   1      36.985  23.209  23.362  1.00  0.00    -0.252 OA
BRANCH   3   5
ATOM      5  C   UNL A   1      35.720  23.982  25.272  1.00  0.00     0.159 C 
BRANCH   5   6
ATOM      6  C   UNL A   1      34.252  23.588  25.547  1.00  0.00    -0.025 C 
ATOM      7  C   UNL A   1      33.067  25.657  23.056  1.00  0.00     0.017 C 
ATOM      8  C   UNL A   1      33.162  24.589  23.864  1.00  0.00    -0.014 C 
ATOM      9  C   UNL A   1      33.327  24.564  25.342  1.00  0.00    -0.039 C 
ATOM     10  C   UNL A   1      33.179  23.169  23.472  1.00  0.00    -0.010 A 
ATOM     11  C   UNL A   1      31.980  24.498  26.055  1.00  0.00     0.045 C 
ATOM     12  C   UNL A   1      33.724  22.538  24.610  1.00  0.00    -0.011 A 
ATOM     13  C   UNL A   1      32.399  22.482  22.553  1.00  0.00     0.012 A 
ATOM     14  C   UNL A   1      33.391  21.227  24.904  1.00  0.00     0.048 A 
ATOM     15  C   UNL A   1      32.115  21.138  22.823  1.00  0.00     0.040 A 
ATOM     16  C   UNL A   1      32.590  20.536  23.996  1.00  0.00     0.123 A 
ATOM     17  F   UNL A   1      32.195  19.292  24.300  1.00  0.00    -0.207 F 
BRANCH   7  18
ATOM     18  C   UNL A   1      32.755  27.052  23.454  1.00  0.00    -0.025 A 
ATOM     19  C   UNL A   1      32.290  28.997  25.378  1.00  0.00     0.007 A 
ATOM     20  C   UNL A   1      33.527  28.941  24.749  1.00  0.00     0.015 A 
ATOM     21  C   UNL A   1      31.214  28.282  24.850  1.00  0.00     0.015 A 
ATOM     22  C   UNL A   1      33.737  28.005  23.742  1.00  0.00     0.009 A 
ATOM     23  C   UNL A   1      31.448  27.306  23.883  1.00  0.00     0.009 A 
BRANCH  19  24
ATOM     24  S   UNL A   1      32.170  29.706  27.008  1.00  0.00    -0.130 SA
ATOM     25  C   UNL A   1      31.592  31.355  26.474  1.00  0.00     0.091 C 
ENDBRANCH  19  24
ENDBRANCH   7  18
ENDBRANCH   5   6
ENDBRANCH   3   5
ENDBRANCH   2   3
ENDBRANCH   1   2
BRANCH   1  26
ATOM     26  C   UNL A   1      38.247  19.859  25.189  1.00  0.00     0.275 C 
BRANCH  26  27
ATOM     27  O   UNL A   1      38.789  20.363  26.445  1.00  0.00    -0.458 OA
BRANCH  27  28
ATOM     28  C   UNL A   1      40.080  20.733  26.470  1.00  0.00     0.338 C 
ATOM     29  O   UNL A   1      41.033  19.988  26.263  1.00  0.00    -0.246 OA
BRANCH  28  30
ATOM     30  C   UNL A   1      40.378  22.130  26.800  1.00  0.00     0.060 A 
ATOM     31  C   UNL A   1      41.257  22.313  27.883  1.00  0.00     0.016 A 
ATOM     32  C   UNL A   1      39.816  23.231  26.156  1.00  0.00     0.016 A 
ATOM     33  C   UNL A   1      41.597  23.579  28.314  1.00  0.00     0.010 A 
ATOM     34  C   UNL A   1      40.195  24.516  26.565  1.00  0.00     0.010 A 
ATOM     35  C   UNL A   1      41.104  24.689  27.626  1.00  0.00    -0.014 A 
BRANCH  35  36
ATOM     36  C   UNL A   1      41.660  26.014  27.962  1.00  0.00     0.031 A 
ATOM     37  C   UNL A   1      40.838  27.029  28.685  1.00  0.00     0.074 A 
ATOM     38  C   UNL A   1      42.944  26.254  27.634  1.00  0.00     0.049 A 
ATOM     39  N   UNL A   1      41.147  28.259  29.000  1.00  0.00    -0.248 NA
ATOM     40  C   UNL A   1      39.497  26.608  29.112  1.00  0.00     0.031 C 
ATOM     41  C   UNL A   1      43.839  25.292  26.982  1.00  0.00     0.029 A 
ATOM     42  N   UNL A   1      43.721  27.368  27.803  1.00  0.00    -0.354 N 
ATOM     43  C   UNL A   1      40.034  28.773  29.651  1.00  0.00     0.074 A 
ATOM     44  C   UNL A   1      39.037  27.721  29.669  1.00  0.00     0.031 C 
ATOM     45  C   UNL A   1      45.042  25.858  26.813  1.00  0.00     0.029 A 
ATOM     46  C   UNL A   1      44.984  27.237  27.277  1.00  0.00     0.049 A 
ATOM     47  H   UNL A   1      43.407  28.183  28.258  1.00  0.00     0.167 HD
ATOM     48  C   UNL A   1      39.873  30.012  30.178  1.00  0.00     0.034 A 
ATOM     49  C   UNL A   1      45.970  28.143  27.142  1.00  0.00     0.034 A 
ATOM     50  C   UNL A   1      40.888  31.041  30.126  1.00  0.00     0.049 A 
ATOM     51  C   UNL A   1      45.731  29.536  27.656  1.00  0.00     0.074 A 
ATOM     52  C   UNL A   1      40.834  32.334  30.619  1.00  0.00     0.029 A 
ATOM     53  N   UNL A   1      42.139  30.897  29.536  1.00  0.00    -0.354 N 
ATOM     54  N   UNL A   1      44.663  30.023  28.246  1.00  0.00    -0.248 NA
ATOM     55  C   UNL A   1      46.824  30.497  27.488  1.00  0.00     0.031 C 
ATOM     56  C   UNL A   1      42.022  32.987  30.270  1.00  0.00     0.029 A 
ATOM     57  C   UNL A   1      42.851  32.084  29.625  1.00  0.00     0.049 A 
ATOM     58  H   UNL A   1      42.473  30.071  29.116  1.00  0.00     0.167 HD
ATOM     59  C   UNL A   1      44.966  31.348  28.537  1.00  0.00     0.074 A 
ATOM     60  C   UNL A   1      46.322  31.574  28.074  1.00  0.00     0.031 C 
ATOM     61  C   UNL A   1      44.195  32.293  29.135  1.00  0.00     0.034 A 
BRANCH  48  62
ATOM     62  C   UNL A   1      38.531  30.334  30.787  1.00  0.00     0.023 A 
ATOM     63  C   UNL A   1      37.539  31.034  30.077  1.00  0.00     0.031 A 
ATOM     64  C   UNL A   1      38.249  29.960  32.114  1.00  0.00     0.131 A 
ATOM     65  C   UNL A   1      36.341  31.393  30.715  1.00  0.00     0.055 A 
ATOM     66  C   UNL A   1      37.027  30.257  32.720  1.00  0.00     0.041 A 
ATOM     67  F   UNL A   1      39.165  29.312  32.850  1.00  0.00    -0.206 F 
ATOM     68  C   UNL A   1      36.070  30.989  32.025  1.00  0.00     0.022 A 
BRANCH  65  69
ATOM     69  S   UNL A   1      35.200  32.511  29.857  1.00  0.00     0.124 S 
ATOM     70  O   UNL A   1      36.114  33.512  29.312  1.00  0.00    -0.237 OA
ATOM     71  O   UNL A   1      34.567  31.629  28.882  1.00  0.00    -0.237 OA
ATOM     72  O   UNL A   1      34.324  32.994  30.923  1.00  0.00    -0.744 OA
ENDBRANCH  65  69
ENDBRANCH  48  62
BRANCH  49  73
ATOM     73  C   UNL A   1      47.232  27.778  26.444  1.00  0.00     0.023 A 
ATOM     74  C   UNL A   1      47.358  27.907  25.053  1.00  0.00     0.031 A 
ATOM     75  C   UNL A   1      48.331  27.272  27.164  1.00  0.00     0.131 A 
ATOM     76  C   UNL A   1      48.543  27.502  24.421  1.00  0.00     0.055 A 
ATOM     77  C   UNL A   1      49.527  26.921  26.537  1.00  0.00     0.041 A 
ATOM     78  F   UNL A   1      48.263  27.132  28.498  1.00  0.00    -0.206 F 
ATOM     79  C   UNL A   1      49.633  27.025  25.153  1.00  0.00     0.022 A 
BRANCH  76  80
ATOM     80  S   UNL A   1      48.614  27.538  22.610  1.00  0.00     0.124 S 
ATOM     81  O   UNL A   1      48.623  26.115  22.285  1.00  0.00    -0.237 OA
ATOM     82  O   UNL A   1      47.394  28.265  22.273  1.00  0.00    -0.237 OA
ATOM     83  O   UNL A   1      49.859  28.249  22.332  1.00  0.00    -0.744 OA
ENDBRANCH  76  80
ENDBRANCH  49  73
BRANCH  61  84
ATOM     84  C   UNL A   1      44.835  33.642  29.347  1.00  0.00     0.023 A 
ATOM     85  C   UNL A   1      44.798  34.640  28.358  1.00  0.00     0.031 A 
ATOM     86  C   UNL A   1      45.521  33.919  30.543  1.00  0.00     0.131 A 
ATOM     87  C   UNL A   1      45.485  35.845  28.557  1.00  0.00     0.055 A 
ATOM     88  C   UNL A   1      46.153  35.142  30.760  1.00  0.00     0.041 A 
ATOM     89  F   UNL A   1      45.590  32.998  31.519  1.00  0.00    -0.206 F 
ATOM     90  C   UNL A   1      46.150  36.109  29.759  1.00  0.00     0.022 A 
BRANCH  87  91
ATOM     91  S   UNL A   1      45.583  37.031  27.187  1.00  0.00     0.124 S 
ATOM     92  O   UNL A   1      44.176  37.341  26.954  1.00  0.00    -0.237 OA
ATOM     93  O   UNL A   1      46.386  38.105  27.762  1.00  0.00    -0.237 OA
ATOM     94  O   UNL A   1      46.237  36.272  26.123  1.00  0.00    -0.744 OA
ENDBRANCH  87  91
ENDBRANCH  61  84
ENDBRANCH  35  36
ENDBRANCH  28  30
ENDBRANCH  27  28
ENDBRANCH  26  27
ENDBRANCH   1  26
TORSDOF 17
ENDMDL
MODEL 3
REMARK VINA RESULT:     -11.9      2.269      3.763
REMARK SMILES CSc1ccc(/C=C2\C(C)=C(CC(=O)OCCOC(=O)c3ccc(-c4c5nc(c(-c6cc(S(=O)(=O)[O-])ccc6F)c6ccc([nH]6)c(-c6cc(S(=O)(=O)[O-])ccc6F)c6nc(c(-c7cc(S(=O)(=O)[O-])ccc7F)c7ccc4[nH]7)C=C6)C=C5)cc3)c3cc(F)ccc32)cc1
REMARK SMILES IDX 16 1 15 2 13 3 14 4 12 5 11 6 7 7 8 8 9 9 90 10 10 11 84 12
REMARK SMILES IDX 89 13 85 14 88 15 86 16 87 17 6 18 3 19 4 20 92 21 5 22
REMARK SMILES IDX 91 23 2 24 1 25 17 26 18 27 19 28 20 29 21 30 22 31 83 32
REMARK SMILES IDX 23 33 82 34 24 35 25 36 26 37 76 38 27 39 81 40 75 41 77 42
REMARK SMILES IDX 28 43 80 44 74 45 73 46 29 48 61 49 41 50 60 51 42 52 45 53
REMARK SMILES IDX 59 54 78 55 43 56 44 57 58 59 79 60 46 61 30 62 31 63 39 64
REMARK SMILES IDX 32 65 38 66 40 67 37 68 33 69 34 70 35 71 36 72 62 73 63 74
REMARK SMILES IDX 71 75 64 76 70 77 72 78 69 79 65 80 66 81 67 82 68 83 47 84
REMARK SMILES IDX 48 85 56 86 49 87 55 88 57 89 54 90 50 91 51 92 52 93 53 94
REMARK H PARENT 77 47 45 58
REMARK Flexibility Score: inf
ROOT
ATOM      1  C   UNL A   1      32.640  30.818  26.832  1.00  0.00     0.274 C 
ENDROOT
BRANCH   1   2
ATOM      2  O   UNL A   1      33.485  29.645  26.785  1.00  0.00    -0.462 OA
BRANCH   2   3
ATOM      3  C   UNL A   1      32.853  28.479  27.086  1.00  0.00     0.310 C 
ATOM      4  O   UNL A   1      31.833  28.406  27.771  1.00  0.00    -0.252 OA
BRANCH   3   5
ATOM      5  C   UNL A   1      33.477  27.260  26.419  1.00  0.00     0.159 C 
BRANCH   5   6
ATOM      6  C   UNL A   1      32.576  26.079  25.999  1.00  0.00    -0.025 C 
ATOM      7  C   UNL A   1      31.443  27.741  23.197  1.00  0.00     0.017 C 
ATOM      8  C   UNL A   1      31.845  26.728  23.982  1.00  0.00    -0.014 C 
ATOM      9  C   UNL A   1      31.415  26.413  25.371  1.00  0.00    -0.039 C 
ATOM     10  C   UNL A   1      32.857  25.703  23.672  1.00  0.00    -0.010 A 
ATOM     11  C   UNL A   1      30.236  25.446  25.387  1.00  0.00     0.045 C 
ATOM     12  C   UNL A   1      33.188  25.198  24.947  1.00  0.00    -0.011 A 
ATOM     13  C   UNL A   1      33.068  24.971  22.513  1.00  0.00     0.012 A 
ATOM     14  C   UNL A   1      33.630  23.893  25.084  1.00  0.00     0.048 A 
ATOM     15  C   UNL A   1      33.572  23.673  22.652  1.00  0.00     0.040 A 
ATOM     16  C   UNL A   1      33.824  23.144  23.925  1.00  0.00     0.123 A 
ATOM     17  F   UNL A   1      34.178  21.856  24.041  1.00  0.00    -0.207 F 
BRANCH   7  18
ATOM     18  C   UNL A   1      30.235  28.583  23.377  1.00  0.00    -0.025 A 
ATOM     19  C   UNL A   1      28.701  30.815  22.770  1.00  0.00     0.007 A 
ATOM     20  C   UNL A   1      28.353  29.581  22.236  1.00  0.00     0.015 A 
ATOM     21  C   UNL A   1      29.622  30.879  23.816  1.00  0.00     0.015 A 
ATOM     22  C   UNL A   1      29.086  28.454  22.590  1.00  0.00     0.009 A 
ATOM     23  C   UNL A   1      30.392  29.757  24.121  1.00  0.00     0.009 A 
BRANCH  19  24
ATOM     24  S   UNL A   1      28.225  32.304  21.915  1.00  0.00    -0.130 SA
ATOM     25  C   UNL A   1      28.986  33.472  23.096  1.00  0.00     0.091 C 
ENDBRANCH  19  24
ENDBRANCH   7  18
ENDBRANCH   5   6
ENDBRANCH   3   5
ENDBRANCH   2   3
ENDBRANCH   1   2
BRANCH   1  26
ATOM     26  C   UNL A   1      33.416  31.947  27.544  1.00  0.00     0.275 C 
BRANCH  26  27
ATOM     27  O   UNL A   1      32.776  33.250  27.679  1.00  0.00    -0.458 OA
BRANCH  27  28
ATOM     28  C   UNL A   1      33.240  34.084  28.624  1.00  0.00     0.338 C 
ATOM     29  O   UNL A   1      32.702  35.131  28.971  1.00  0.00    -0.246 OA
BRANCH  28  30
ATOM     30  C   UNL A   1      34.506  33.732  29.275  1.00  0.00     0.060 A 
ATOM     31  C   UNL A   1      34.391  32.861  30.374  1.00  0.00     0.016 A 
ATOM     32  C   UNL A   1      35.751  34.239  28.907  1.00  0.00     0.016 A 
ATOM     33  C   UNL A   1      35.504  32.475  31.092  1.00  0.00     0.010 A 
ATOM     34  C   UNL A   1      36.886  33.813  29.608  1.00  0.00     0.010 A 
ATOM     35  C   UNL A   1      36.765  32.912  30.683  1.00  0.00    -0.014 A 
BRANCH  35  36
ATOM     36  C   UNL A   1      37.949  32.306  31.323  1.00  0.00     0.031 A 
ATOM     37  C   UNL A   1      38.676  31.174  30.676  1.00  0.00     0.074 A 
ATOM     38  C   UNL A   1      38.373  32.841  32.484  1.00  0.00     0.049 A 
ATOM     39  N   UNL A   1      39.690  30.487  31.130  1.00  0.00    -0.248 NA
ATOM     40  C   UNL A   1      38.205  30.763  29.347  1.00  0.00     0.031 C 
ATOM     41  C   UNL A   1      37.757  33.992  33.154  1.00  0.00     0.029 A 
ATOM     42  N   UNL A   1      39.413  32.498  33.304  1.00  0.00    -0.354 N 
ATOM     43  C   UNL A   1      39.977  29.545  30.151  1.00  0.00     0.074 A 
ATOM     44  C   UNL A   1      39.014  29.744  29.085  1.00  0.00     0.031 C 
ATOM     45  C   UNL A   1      38.436  34.260  34.278  1.00  0.00     0.029 A 
ATOM     46  C   UNL A   1      39.485  33.264  34.444  1.00  0.00     0.049 A 
ATOM     47  H   UNL A   1      40.049  31.775  33.098  1.00  0.00     0.167 HD
ATOM     48  C   UNL A   1      40.955  28.606  30.156  1.00  0.00     0.034 A 
ATOM     49  C   UNL A   1      40.279  33.146  35.524  1.00  0.00     0.034 A 
ATOM     50  C   UNL A   1      41.887  28.430  31.247  1.00  0.00     0.049 A 
ATOM     51  C   UNL A   1      41.296  32.039  35.541  1.00  0.00     0.074 A 
ATOM     52  C   UNL A   1      42.914  27.508  31.365  1.00  0.00     0.029 A 
ATOM     53  N   UNL A   1      41.900  29.184  32.415  1.00  0.00    -0.354 N 
ATOM     54  N   UNL A   1      41.543  31.133  34.621  1.00  0.00    -0.248 NA
ATOM     55  C   UNL A   1      42.141  31.938  36.734  1.00  0.00     0.031 C 
ATOM     56  C   UNL A   1      43.501  27.663  32.627  1.00  0.00     0.029 A 
ATOM     57  C   UNL A   1      42.894  28.729  33.270  1.00  0.00     0.049 A 
ATOM     58  H   UNL A   1      41.292  29.934  32.608  1.00  0.00     0.167 HD
ATOM     59  C   UNL A   1      42.588  30.364  35.122  1.00  0.00     0.074 A 
ATOM     60  C   UNL A   1      42.934  30.927  36.413  1.00  0.00     0.031 C 
ATOM     61  C   UNL A   1      43.206  29.292  34.565  1.00  0.00     0.034 A 
BRANCH  48  62
ATOM     62  C   UNL A   1      41.013  27.663  28.980  1.00  0.00     0.023 A 
ATOM     63  C   UNL A   1      41.994  27.781  27.979  1.00  0.00     0.031 A 
ATOM     64  C   UNL A   1      40.051  26.646  28.842  1.00  0.00     0.131 A 
ATOM     65  C   UNL A   1      41.954  26.940  26.856  1.00  0.00     0.055 A 
ATOM     66  C   UNL A   1      40.060  25.766  27.758  1.00  0.00     0.041 A 
ATOM     67  F   UNL A   1      39.076  26.500  29.752  1.00  0.00    -0.206 F 
ATOM     68  C   UNL A   1      41.006  25.919  26.750  1.00  0.00     0.022 A 
BRANCH  65  69
ATOM     69  S   UNL A   1      43.071  27.286  25.469  1.00  0.00     0.124 S 
ATOM     70  O   UNL A   1      42.266  28.193  24.656  1.00  0.00    -0.237 OA
ATOM     71  O   UNL A   1      44.225  27.881  26.135  1.00  0.00    -0.237 OA
ATOM     72  O   UNL A   1      43.303  25.970  24.877  1.00  0.00    -0.744 OA
ENDBRANCH  65  69
ENDBRANCH  48  62
BRANCH  49  73
ATOM     73  C   UNL A   1      40.099  34.055  36.688  1.00  0.00     0.023 A 
ATOM     74  C   UNL A   1      39.482  33.614  37.867  1.00  0.00     0.031 A 
ATOM     75  C   UNL A   1      40.530  35.394  36.627  1.00  0.00     0.131 A 
ATOM     76  C   UNL A   1      39.280  34.513  38.925  1.00  0.00     0.055 A 
ATOM     77  C   UNL A   1      40.375  36.270  37.702  1.00  0.00     0.041 A 
ATOM     78  F   UNL A   1      41.130  35.866  35.522  1.00  0.00    -0.206 F 
ATOM     79  C   UNL A   1      39.735  35.832  38.857  1.00  0.00     0.022 A 
BRANCH  76  80
ATOM     80  S   UNL A   1      38.341  33.952  40.371  1.00  0.00     0.124 S 
ATOM     81  O   UNL A   1      37.228  33.246  39.747  1.00  0.00    -0.237 OA
ATOM     82  O   UNL A   1      39.321  33.120  41.063  1.00  0.00    -0.237 OA
ATOM     83  O   UNL A   1      37.989  35.195  41.053  1.00  0.00    -0.744 OA
ENDBRANCH  76  80
ENDBRANCH  49  73
BRANCH  61  84
ATOM     84  C   UNL A   1      44.346  28.694  35.350  1.00  0.00     0.023 A 
ATOM     85  C   UNL A   1      44.128  27.729  36.349  1.00  0.00     0.031 A 
ATOM     86  C   UNL A   1      45.665  29.123  35.119  1.00  0.00     0.131 A 
ATOM     87  C   UNL A   1      45.204  27.269  37.120  1.00  0.00     0.055 A 
ATOM     88  C   UNL A   1      46.739  28.618  35.850  1.00  0.00     0.041 A 
ATOM     89  F   UNL A   1      45.928  30.046  34.179  1.00  0.00    -0.206 F 
ATOM     90  C   UNL A   1      46.512  27.696  36.867  1.00  0.00     0.022 A 
BRANCH  87  91
ATOM     91  S   UNL A   1      44.863  26.175  38.527  1.00  0.00     0.124 S 
ATOM     92  O   UNL A   1      45.900  26.569  39.475  1.00  0.00    -0.237 OA
ATOM     93  O   UNL A   1      43.497  26.545  38.885  1.00  0.00    -0.237 OA
ATOM     94  O   UNL A   1      45.013  24.834  37.963  1.00  0.00    -0.744 OA
ENDBRANCH  87  91
ENDBRANCH  61  84
ENDBRANCH  35  36
ENDBRANCH  28  30
ENDBRANCH  27  28
ENDBRANCH  26  27
ENDBRANCH   1  26
TORSDOF 17
ENDMDL
