MODEL 1
REMARK VINA RESULT:     -13.4      0.000      0.000
REMARK SMILES Cc1ccccc1C(=O)Nc1ccc(N2CCC(n3c(C)nc4cccnc43)CC2)c(C(=O)OCCOC(=O)c2ccc(-c3c4nc(c(-c5cc(S(=O)(=O)[O-])ccc5F)c5ccc([nH]5)c(-c5cc(S(=O)(=O)[O-])ccc5F)c5nc(c(-c6cc(S(=O)(=O)[O-])ccc6F)c6ccc3[nH]6)C=C5)C=C4)cc2)c1
REMARK SMILES IDX 36 1 35 2 34 3 32 4 33 5 31 6 11 7 12 8 103 9 13 10 14 11
REMARK SMILES IDX 10 12 8 13 9 14 7 16 1 17 2 18 3 19 4 20 6 21 5 22 15 23
REMARK SMILES IDX 16 24 30 25 17 26 29 27 18 28 19 29 20 30 28 31 21 32 22 33
REMARK SMILES IDX 23 34 27 35 24 36 26 37 25 38 37 39 38 40 39 41 40 42 41 43
REMARK SMILES IDX 102 44 42 45 101 46 43 47 44 48 45 49 95 50 46 51 100 52
REMARK SMILES IDX 94 53 96 54 47 55 99 56 93 57 92 58 48 60 80 61 60 62 79 63
REMARK SMILES IDX 61 64 64 65 78 66 97 67 62 68 63 69 77 71 98 72 65 73 49 74
REMARK SMILES IDX 50 75 58 76 51 77 57 78 59 79 56 80 52 81 53 82 54 83 55 84
REMARK SMILES IDX 81 85 82 86 90 87 83 88 89 89 91 90 88 91 84 92 85 93 86 94
REMARK SMILES IDX 87 95 66 96 67 97 75 98 68 99 74 100 76 101 73 102 69 103
REMARK SMILES IDX 70 104 71 105 72 106
REMARK H PARENT 10 15 96 59 64 70
REMARK Flexibility Score: inf
ROOT
ATOM      1  C   UNL A   1      34.051  29.645  27.071  1.00  0.00     0.275 C 
ENDROOT
BRANCH   1   2
ATOM      2  C   UNL A   1      33.779  28.550  26.037  1.00  0.00     0.275 C 
BRANCH   2   3
ATOM      3  O   UNL A   1      34.006  27.212  26.514  1.00  0.00    -0.458 OA
BRANCH   3   4
ATOM      4  C   UNL A   1      33.003  26.377  26.163  1.00  0.00     0.340 C 
ATOM      5  O   UNL A   1      31.890  26.343  26.655  1.00  0.00    -0.246 OA
BRANCH   4   6
ATOM      6  C   UNL A   1      33.334  25.301  25.245  1.00  0.00     0.085 A 
ATOM      7  C   UNL A   1      35.176  23.873  24.601  1.00  0.00     0.042 A 
ATOM      8  C   UNL A   1      34.686  23.850  23.298  1.00  0.00     0.028 A 
ATOM      9  C   UNL A   1      34.424  24.492  25.604  1.00  0.00     0.044 A 
ATOM     10  C   UNL A   1      33.580  24.637  22.954  1.00  0.00     0.029 A 
ATOM     11  C   UNL A   1      32.968  25.475  23.897  1.00  0.00     0.051 A 
BRANCH   7  12
ATOM     12  N   UNL A   1      36.455  23.417  24.957  1.00  0.00    -0.322 N 
ATOM     13  C   UNL A   1      36.949  22.162  25.260  1.00  0.00     0.255 C 
ATOM     14  O   UNL A   1      38.091  22.089  25.725  1.00  0.00    -0.269 OA
ATOM     15  H   UNL A   1      37.134  24.129  24.999  1.00  0.00     0.170 HD
BRANCH  13  16
ATOM     16  C   UNL A   1      36.211  20.882  25.029  1.00  0.00     0.043 A 
ATOM     17  C   UNL A   1      38.255  19.309  24.997  1.00  0.00     0.045 C 
ATOM     18  C   UNL A   1      36.791  19.609  24.856  1.00  0.00    -0.038 A 
ATOM     19  C   UNL A   1      35.950  18.504  24.602  1.00  0.00     0.004 A 
ATOM     20  C   UNL A   1      34.563  18.623  24.652  1.00  0.00     0.000 A 
ATOM     21  C   UNL A   1      34.807  20.971  25.129  1.00  0.00     0.014 A 
ATOM     22  C   UNL A   1      33.991  19.851  24.957  1.00  0.00     0.001 A 
ENDBRANCH  13  16
ENDBRANCH   7  12
BRANCH  11  23
ATOM     23  N   UNL A   1      32.280  26.585  23.403  1.00  0.00    -0.371 N 
ATOM     24  C   UNL A   1      32.918  27.520  22.495  1.00  0.00     0.118 C 
ATOM     25  C   UNL A   1      30.855  26.373  23.114  1.00  0.00     0.118 C 
ATOM     26  C   UNL A   1      32.220  28.876  22.655  1.00  0.00     0.047 C 
ATOM     27  C   UNL A   1      30.129  27.653  23.410  1.00  0.00     0.047 C 
ATOM     28  C   UNL A   1      30.663  28.818  22.571  1.00  0.00     0.094 C 
BRANCH  28  29
ATOM     29  N   UNL A   1      30.050  30.112  22.914  1.00  0.00    -0.310 N 
ATOM     30  C   UNL A   1      30.152  30.889  24.063  1.00  0.00     0.108 A 
ATOM     31  C   UNL A   1      29.194  30.793  22.069  1.00  0.00     0.160 A 
ATOM     32  C   UNL A   1      30.734  30.495  25.367  1.00  0.00     0.088 C 
ATOM     33  N   UNL A   1      29.571  32.064  23.903  1.00  0.00    -0.232 NA
ATOM     34  C   UNL A   1      28.949  32.003  22.700  1.00  0.00     0.108 A 
ATOM     35  N   UNL A   1      28.713  30.393  20.872  1.00  0.00    -0.237 NA
ATOM     36  C   UNL A   1      28.136  32.940  22.061  1.00  0.00     0.034 A 
ATOM     37  C   UNL A   1      27.925  31.331  20.294  1.00  0.00     0.113 A 
ATOM     38  C   UNL A   1      27.616  32.581  20.821  1.00  0.00     0.022 A 
ENDBRANCH  28  29
ENDBRANCH  11  23
ENDBRANCH   4   6
ENDBRANCH   3   4
ENDBRANCH   2   3
ENDBRANCH   1   2
BRANCH   1  39
ATOM     39  O   UNL A   1      35.281  29.603  27.843  1.00  0.00    -0.458 OA
BRANCH  39  40
ATOM     40  C   UNL A   1      36.167  30.614  28.048  1.00  0.00     0.338 C 
ATOM     41  O   UNL A   1      35.763  31.756  28.257  1.00  0.00    -0.246 OA
BRANCH  40  42
ATOM     42  C   UNL A   1      37.611  30.281  28.177  1.00  0.00     0.060 A 
ATOM     43  C   UNL A   1      38.299  30.692  29.338  1.00  0.00     0.016 A 
ATOM     44  C   UNL A   1      38.217  29.393  27.298  1.00  0.00     0.016 A 
ATOM     45  C   UNL A   1      39.515  30.091  29.690  1.00  0.00     0.010 A 
ATOM     46  C   UNL A   1      39.333  28.693  27.710  1.00  0.00     0.010 A 
ATOM     47  C   UNL A   1      39.998  29.043  28.898  1.00  0.00    -0.014 A 
BRANCH  47  48
ATOM     48  C   UNL A   1      41.367  28.519  28.962  1.00  0.00     0.031 A 
ATOM     49  C   UNL A   1      41.776  27.231  28.330  1.00  0.00     0.074 A 
ATOM     50  C   UNL A   1      42.174  29.349  29.662  1.00  0.00     0.049 A 
ATOM     51  N   UNL A   1      42.819  27.039  27.579  1.00  0.00    -0.248 NA
ATOM     52  C   UNL A   1      40.961  26.021  28.512  1.00  0.00     0.031 C 
ATOM     53  C   UNL A   1      43.580  29.239  29.974  1.00  0.00     0.029 A 
ATOM     54  N   UNL A   1      41.752  30.395  30.501  1.00  0.00    -0.354 N 
ATOM     55  C   UNL A   1      42.928  25.665  27.325  1.00  0.00     0.074 A 
ATOM     56  C   UNL A   1      41.675  25.105  27.851  1.00  0.00     0.031 C 
ATOM     57  C   UNL A   1      43.776  29.828  31.174  1.00  0.00     0.029 A 
ATOM     58  C   UNL A   1      42.464  30.239  31.680  1.00  0.00     0.049 A 
ATOM     59  H   UNL A   1      41.088  31.092  30.295  1.00  0.00     0.167 HD
ATOM     60  C   UNL A   1      44.070  24.992  27.675  1.00  0.00     0.034 A 
ATOM     61  C   UNL A   1      41.855  29.794  32.823  1.00  0.00     0.034 A 
ATOM     62  C   UNL A   1      44.687  25.516  28.858  1.00  0.00     0.049 A 
ATOM     63  C   UNL A   1      42.489  28.490  33.241  1.00  0.00     0.074 A 
ATOM     64  C   UNL A   1      45.645  26.482  29.083  1.00  0.00     0.029 A 
ATOM     65  N   UNL A   1      44.151  25.167  30.083  1.00  0.00    -0.354 N 
ATOM     66  N   UNL A   1      42.873  27.567  32.396  1.00  0.00    -0.248 NA
ATOM     67  C   UNL A   1      42.822  28.183  34.626  1.00  0.00     0.031 C 
ATOM     68  C   UNL A   1      45.647  26.756  30.471  1.00  0.00     0.029 A 
ATOM     69  C   UNL A   1      44.704  25.940  31.074  1.00  0.00     0.049 A 
ATOM     70  H   UNL A   1      43.475  24.467  30.224  1.00  0.00     0.167 HD
ATOM     71  C   UNL A   1      43.638  26.656  33.081  1.00  0.00     0.074 A 
ATOM     72  C   UNL A   1      43.526  27.051  34.476  1.00  0.00     0.031 C 
ATOM     73  C   UNL A   1      44.388  25.695  32.464  1.00  0.00     0.034 A 
BRANCH  60  74
ATOM     74  C   UNL A   1      44.797  24.235  26.601  1.00  0.00     0.023 A 
ATOM     75  C   UNL A   1      44.508  22.887  26.316  1.00  0.00     0.031 A 
ATOM     76  C   UNL A   1      45.798  24.834  25.825  1.00  0.00     0.131 A 
ATOM     77  C   UNL A   1      45.260  22.172  25.366  1.00  0.00     0.055 A 
ATOM     78  C   UNL A   1      46.593  24.111  24.925  1.00  0.00     0.041 A 
ATOM     79  F   UNL A   1      45.986  26.161  25.892  1.00  0.00    -0.206 F 
ATOM     80  C   UNL A   1      46.336  22.763  24.705  1.00  0.00     0.022 A 
BRANCH  77  81
ATOM     81  S   UNL A   1      44.804  20.455  24.986  1.00  0.00     0.124 S 
ATOM     82  O   UNL A   1      45.978  19.705  25.423  1.00  0.00    -0.237 OA
ATOM     83  O   UNL A   1      43.596  20.280  25.784  1.00  0.00    -0.237 OA
ATOM     84  O   UNL A   1      44.590  20.471  23.539  1.00  0.00    -0.744 OA
ENDBRANCH  77  81
ENDBRANCH  60  74
BRANCH  61  85
ATOM     85  C   UNL A   1      40.413  30.145  33.057  1.00  0.00     0.023 A 
ATOM     86  C   UNL A   1      40.068  31.511  33.167  1.00  0.00     0.031 A 
ATOM     87  C   UNL A   1      39.349  29.233  33.005  1.00  0.00     0.131 A 
ATOM     88  C   UNL A   1      38.735  31.939  33.059  1.00  0.00     0.055 A 
ATOM     89  C   UNL A   1      38.007  29.658  32.974  1.00  0.00     0.041 A 
ATOM     90  F   UNL A   1      39.579  27.915  32.908  1.00  0.00    -0.206 F 
ATOM     91  C   UNL A   1      37.696  31.018  32.963  1.00  0.00     0.022 A 
BRANCH  88  92
ATOM     92  S   UNL A   1      38.430  33.711  32.786  1.00  0.00     0.124 S 
ATOM     93  O   UNL A   1      37.843  34.119  34.058  1.00  0.00    -0.237 OA
ATOM     94  O   UNL A   1      39.771  34.219  32.508  1.00  0.00    -0.237 OA
ATOM     95  O   UNL A   1      37.529  33.730  31.639  1.00  0.00    -0.744 OA
ENDBRANCH  88  92
ENDBRANCH  61  85
BRANCH  73  96
ATOM     96  C   UNL A   1      45.039  24.519  33.145  1.00  0.00     0.023 A 
ATOM     97  C   UNL A   1      46.298  24.614  33.744  1.00  0.00     0.031 A 
ATOM     98  C   UNL A   1      44.370  23.280  33.303  1.00  0.00     0.131 A 
ATOM     99  C   UNL A   1      46.898  23.498  34.343  1.00  0.00     0.055 A 
ATOM    100  C   UNL A   1      44.929  22.198  33.987  1.00  0.00     0.041 A 
ATOM    101  F   UNL A   1      43.138  23.068  32.818  1.00  0.00    -0.206 F 
ATOM    102  C   UNL A   1      46.214  22.295  34.492  1.00  0.00     0.022 A 
BRANCH  99 103
ATOM    103  S   UNL A   1      48.631  23.649  34.830  1.00  0.00     0.124 S 
ATOM    104  O   UNL A   1      49.032  24.858  34.115  1.00  0.00    -0.237 OA
ATOM    105  O   UNL A   1      48.536  23.775  36.281  1.00  0.00    -0.237 OA
ATOM    106  O   UNL A   1      49.232  22.409  34.347  1.00  0.00    -0.744 OA
ENDBRANCH  99 103
ENDBRANCH  73  96
ENDBRANCH  47  48
ENDBRANCH  40  42
ENDBRANCH  39  40
ENDBRANCH   1  39
TORSDOF 18
ENDMDL
MODEL 2
REMARK VINA RESULT:     -12.9      1.791      2.077
REMARK SMILES Cc1ccccc1C(=O)Nc1ccc(N2CCC(n3c(C)nc4cccnc43)CC2)c(C(=O)OCCOC(=O)c2ccc(-c3c4nc(c(-c5cc(S(=O)(=O)[O-])ccc5F)c5ccc([nH]5)c(-c5cc(S(=O)(=O)[O-])ccc5F)c5nc(c(-c6cc(S(=O)(=O)[O-])ccc6F)c6ccc3[nH]6)C=C5)C=C4)cc2)c1
REMARK SMILES IDX 36 1 35 2 34 3 32 4 33 5 31 6 11 7 12 8 103 9 13 10 14 11
REMARK SMILES IDX 10 12 8 13 9 14 7 16 1 17 2 18 3 19 4 20 6 21 5 22 15 23
REMARK SMILES IDX 16 24 30 25 17 26 29 27 18 28 19 29 20 30 28 31 21 32 22 33
REMARK SMILES IDX 23 34 27 35 24 36 26 37 25 38 37 39 38 40 39 41 40 42 41 43
REMARK SMILES IDX 102 44 42 45 101 46 43 47 44 48 45 49 95 50 46 51 100 52
REMARK SMILES IDX 94 53 96 54 47 55 99 56 93 57 92 58 48 60 80 61 60 62 79 63
REMARK SMILES IDX 61 64 64 65 78 66 97 67 62 68 63 69 77 71 98 72 65 73 49 74
REMARK SMILES IDX 50 75 58 76 51 77 57 78 59 79 56 80 52 81 53 82 54 83 55 84
REMARK SMILES IDX 81 85 82 86 90 87 83 88 89 89 91 90 88 91 84 92 85 93 86 94
REMARK SMILES IDX 87 95 66 96 67 97 75 98 68 99 74 100 76 101 73 102 69 103
REMARK SMILES IDX 70 104 71 105 72 106
REMARK H PARENT 10 15 96 59 64 70
REMARK Flexibility Score: inf
ROOT
ATOM      1  C   UNL A   1      33.398  29.222  27.605  1.00  0.00     0.275 C 
ENDROOT
BRANCH   1   2
ATOM      2  C   UNL A   1      32.685  28.261  26.650  1.00  0.00     0.275 C 
BRANCH   2   3
ATOM      3  O   UNL A   1      33.292  26.960  26.554  1.00  0.00    -0.458 OA
BRANCH   3   4
ATOM      4  C   UNL A   1      32.405  26.020  26.158  1.00  0.00     0.340 C 
ATOM      5  O   UNL A   1      31.303  25.824  26.635  1.00  0.00    -0.246 OA
BRANCH   4   6
ATOM      6  C   UNL A   1      32.876  25.036  25.198  1.00  0.00     0.085 A 
ATOM      7  C   UNL A   1      34.817  23.691  24.677  1.00  0.00     0.042 A 
ATOM      8  C   UNL A   1      34.500  23.782  23.324  1.00  0.00     0.028 A 
ATOM      9  C   UNL A   1      33.927  24.209  25.623  1.00  0.00     0.044 A 
ATOM     10  C   UNL A   1      33.431  24.586  22.909  1.00  0.00     0.029 A 
ATOM     11  C   UNL A   1      32.683  25.328  23.835  1.00  0.00     0.051 A 
BRANCH   7  12
ATOM     12  N   UNL A   1      36.049  23.218  25.155  1.00  0.00    -0.322 N 
ATOM     13  C   UNL A   1      36.498  21.955  25.489  1.00  0.00     0.255 C 
ATOM     14  O   UNL A   1      37.585  21.864  26.067  1.00  0.00    -0.269 OA
ATOM     15  H   UNL A   1      36.726  23.923  25.276  1.00  0.00     0.170 HD
BRANCH  13  16
ATOM     16  C   UNL A   1      35.777  20.684  25.166  1.00  0.00     0.043 A 
ATOM     17  C   UNL A   1      37.843  19.149  25.002  1.00  0.00     0.045 C 
ATOM     18  C   UNL A   1      36.374  19.437  24.892  1.00  0.00    -0.038 A 
ATOM     19  C   UNL A   1      35.547  18.342  24.560  1.00  0.00     0.004 A 
ATOM     20  C   UNL A   1      34.158  18.437  24.628  1.00  0.00     0.000 A 
ATOM     21  C   UNL A   1      34.373  20.745  25.281  1.00  0.00     0.014 A 
ATOM     22  C   UNL A   1      33.571  19.629  25.029  1.00  0.00     0.001 A 
ENDBRANCH  13  16
ENDBRANCH   7  12
BRANCH  11  23
ATOM     23  N   UNL A   1      32.041  26.471  23.356  1.00  0.00    -0.371 N 
ATOM     24  C   UNL A   1      32.713  27.386  22.452  1.00  0.00     0.118 C 
ATOM     25  C   UNL A   1      30.606  26.324  23.075  1.00  0.00     0.118 C 
ATOM     26  C   UNL A   1      32.075  28.769  22.629  1.00  0.00     0.047 C 
ATOM     27  C   UNL A   1      29.938  27.631  23.388  1.00  0.00     0.047 C 
ATOM     28  C   UNL A   1      30.516  28.780  22.556  1.00  0.00     0.094 C 
BRANCH  28  29
ATOM     29  N   UNL A   1      29.963  30.096  22.914  1.00  0.00    -0.310 N 
ATOM     30  C   UNL A   1      30.097  30.852  24.074  1.00  0.00     0.108 A 
ATOM     31  C   UNL A   1      29.141  30.826  22.076  1.00  0.00     0.160 A 
ATOM     32  C   UNL A   1      30.656  30.415  25.374  1.00  0.00     0.088 C 
ATOM     33  N   UNL A   1      29.570  32.054  23.929  1.00  0.00    -0.232 NA
ATOM     34  C   UNL A   1      28.950  32.038  22.723  1.00  0.00     0.108 A 
ATOM     35  N   UNL A   1      28.646  30.465  20.873  1.00  0.00    -0.237 NA
ATOM     36  C   UNL A   1      28.183  33.020  22.095  1.00  0.00     0.034 A 
ATOM     37  C   UNL A   1      27.903  31.445  20.306  1.00  0.00     0.113 A 
ATOM     38  C   UNL A   1      27.650  32.702  20.849  1.00  0.00     0.022 A 
ENDBRANCH  28  29
ENDBRANCH  11  23
ENDBRANCH   4   6
ENDBRANCH   3   4
ENDBRANCH   2   3
ENDBRANCH   1   2
BRANCH   1  39
ATOM     39  O   UNL A   1      34.845  29.331  27.554  1.00  0.00    -0.458 OA
BRANCH  39  40
ATOM     40  C   UNL A   1      35.601  30.444  27.741  1.00  0.00     0.338 C 
ATOM     41  O   UNL A   1      35.066  31.548  27.823  1.00  0.00    -0.246 OA
BRANCH  40  42
ATOM     42  C   UNL A   1      37.056  30.282  28.008  1.00  0.00     0.060 A 
ATOM     43  C   UNL A   1      37.694  31.203  28.865  1.00  0.00     0.016 A 
ATOM     44  C   UNL A   1      37.726  29.129  27.618  1.00  0.00     0.016 A 
ATOM     45  C   UNL A   1      38.927  30.888  29.451  1.00  0.00     0.010 A 
ATOM     46  C   UNL A   1      38.863  28.747  28.302  1.00  0.00     0.010 A 
ATOM     47  C   UNL A   1      39.480  29.625  29.210  1.00  0.00    -0.014 A 
BRANCH  47  48
ATOM     48  C   UNL A   1      40.869  29.259  29.504  1.00  0.00     0.031 A 
ATOM     49  C   UNL A   1      41.528  28.045  28.940  1.00  0.00     0.074 A 
ATOM     50  C   UNL A   1      41.443  30.155  30.340  1.00  0.00     0.049 A 
ATOM     51  N   UNL A   1      42.699  27.995  28.378  1.00  0.00    -0.248 NA
ATOM     52  C   UNL A   1      40.841  26.745  28.969  1.00  0.00     0.031 C 
ATOM     53  C   UNL A   1      42.779  30.197  30.887  1.00  0.00     0.029 A 
ATOM     54  N   UNL A   1      40.765  31.121  31.103  1.00  0.00    -0.354 N 
ATOM     55  C   UNL A   1      43.010  26.650  28.134  1.00  0.00     0.074 A 
ATOM     56  C   UNL A   1      41.760  25.936  28.432  1.00  0.00     0.031 C 
ATOM     57  C   UNL A   1      42.698  30.770  32.108  1.00  0.00     0.029 A 
ATOM     58  C   UNL A   1      41.280  31.014  32.385  1.00  0.00     0.049 A 
ATOM     59  H   UNL A   1      40.068  31.744  30.792  1.00  0.00     0.167 HD
ATOM     60  C   UNL A   1      44.146  26.102  28.669  1.00  0.00     0.034 A 
ATOM     61  C   UNL A   1      40.543  30.469  33.402  1.00  0.00     0.034 A 
ATOM     62  C   UNL A   1      44.488  26.658  29.946  1.00  0.00     0.049 A 
ATOM     63  C   UNL A   1      41.245  29.234  33.911  1.00  0.00     0.074 A 
ATOM     64  C   UNL A   1      45.274  27.720  30.340  1.00  0.00     0.029 A 
ATOM     65  N   UNL A   1      43.797  26.215  31.057  1.00  0.00    -0.354 N 
ATOM     66  N   UNL A   1      41.872  28.387  33.137  1.00  0.00    -0.248 NA
ATOM     67  C   UNL A   1      41.372  28.928  35.330  1.00  0.00     0.031 C 
ATOM     68  C   UNL A   1      45.009  27.953  31.710  1.00  0.00     0.029 A 
ATOM     69  C   UNL A   1      44.079  27.018  32.135  1.00  0.00     0.049 A 
ATOM     70  H   UNL A   1      43.193  25.439  31.074  1.00  0.00     0.167 HD
ATOM     71  C   UNL A   1      42.612  27.549  33.936  1.00  0.00     0.074 A 
ATOM     72  C   UNL A   1      42.219  27.888  35.294  1.00  0.00     0.031 C 
ATOM     73  C   UNL A   1      43.563  26.698  33.448  1.00  0.00     0.034 A 
BRANCH  60  74
ATOM     74  C   UNL A   1      45.129  25.463  27.730  1.00  0.00     0.023 A 
ATOM     75  C   UNL A   1      45.806  26.206  26.744  1.00  0.00     0.031 A 
ATOM     76  C   UNL A   1      45.426  24.095  27.791  1.00  0.00     0.131 A 
ATOM     77  C   UNL A   1      46.657  25.573  25.819  1.00  0.00     0.055 A 
ATOM     78  C   UNL A   1      46.221  23.449  26.834  1.00  0.00     0.041 A 
ATOM     79  F   UNL A   1      44.986  23.365  28.827  1.00  0.00    -0.206 F 
ATOM     80  C   UNL A   1      46.828  24.190  25.827  1.00  0.00     0.022 A 
BRANCH  77  81
ATOM     81  S   UNL A   1      47.558  26.584  24.609  1.00  0.00     0.124 S 
ATOM     82  O   UNL A   1      48.533  27.287  25.438  1.00  0.00    -0.237 OA
ATOM     83  O   UNL A   1      48.093  25.570  23.708  1.00  0.00    -0.237 OA
ATOM     84  O   UNL A   1      46.517  27.435  24.032  1.00  0.00    -0.744 OA
ENDBRANCH  77  81
ENDBRANCH  60  74
BRANCH  61  85
ATOM     85  C   UNL A   1      39.051  30.647  33.387  1.00  0.00     0.023 A 
ATOM     86  C   UNL A   1      38.514  31.836  33.931  1.00  0.00     0.031 A 
ATOM     87  C   UNL A   1      38.151  29.801  32.722  1.00  0.00     0.131 A 
ATOM     88  C   UNL A   1      37.192  32.227  33.670  1.00  0.00     0.055 A 
ATOM     89  C   UNL A   1      36.803  30.158  32.526  1.00  0.00     0.041 A 
ATOM     90  F   UNL A   1      38.567  28.647  32.180  1.00  0.00    -0.206 F 
ATOM     91  C   UNL A   1      36.326  31.393  32.968  1.00  0.00     0.022 A 
BRANCH  88  92
ATOM     92  S   UNL A   1      36.723  33.945  34.041  1.00  0.00     0.124 S 
ATOM     93  O   UNL A   1      37.986  34.513  34.499  1.00  0.00    -0.237 OA
ATOM     94  O   UNL A   1      36.239  34.421  32.747  1.00  0.00    -0.237 OA
ATOM     95  O   UNL A   1      35.686  33.805  35.057  1.00  0.00    -0.744 OA
ENDBRANCH  88  92
ENDBRANCH  61  85
BRANCH  73  96
ATOM     96  C   UNL A   1      44.223  25.585  34.220  1.00  0.00     0.023 A 
ATOM     97  C   UNL A   1      45.582  25.612  34.543  1.00  0.00     0.031 A 
ATOM     98  C   UNL A   1      43.482  24.498  34.748  1.00  0.00     0.131 A 
ATOM     99  C   UNL A   1      46.180  24.549  35.233  1.00  0.00     0.055 A 
ATOM    100  C   UNL A   1      44.062  23.490  35.521  1.00  0.00     0.041 A 
ATOM    101  F   UNL A   1      42.161  24.375  34.554  1.00  0.00    -0.206 F 
ATOM    102  C   UNL A   1      45.428  23.498  35.748  1.00  0.00     0.022 A 
BRANCH  99 103
ATOM    103  S   UNL A   1      47.983  24.545  35.349  1.00  0.00     0.124 S 
ATOM    104  O   UNL A   1      48.207  23.557  36.402  1.00  0.00    -0.237 OA
ATOM    105  O   UNL A   1      48.380  24.137  34.005  1.00  0.00    -0.237 OA
ATOM    106  O   UNL A   1      48.307  25.923  35.707  1.00  0.00    -0.744 OA
ENDBRANCH  99 103
ENDBRANCH  73  96
ENDBRANCH  47  48
ENDBRANCH  40  42
ENDBRANCH  39  40
ENDBRANCH   1  39
TORSDOF 18
ENDMDL
MODEL 3
REMARK VINA RESULT:     -12.8      4.032      6.864
REMARK SMILES Cc1ccccc1C(=O)Nc1ccc(N2CCC(n3c(C)nc4cccnc43)CC2)c(C(=O)OCCOC(=O)c2ccc(-c3c4nc(c(-c5cc(S(=O)(=O)[O-])ccc5F)c5ccc([nH]5)c(-c5cc(S(=O)(=O)[O-])ccc5F)c5nc(c(-c6cc(S(=O)(=O)[O-])ccc6F)c6ccc3[nH]6)C=C5)C=C4)cc2)c1
REMARK SMILES IDX 36 1 35 2 34 3 32 4 33 5 31 6 11 7 12 8 103 9 13 10 14 11
REMARK SMILES IDX 10 12 8 13 9 14 7 16 1 17 2 18 3 19 4 20 6 21 5 22 15 23
REMARK SMILES IDX 16 24 30 25 17 26 29 27 18 28 19 29 20 30 28 31 21 32 22 33
REMARK SMILES IDX 23 34 27 35 24 36 26 37 25 38 37 39 38 40 39 41 40 42 41 43
REMARK SMILES IDX 102 44 42 45 101 46 43 47 44 48 45 49 95 50 46 51 100 52
REMARK SMILES IDX 94 53 96 54 47 55 99 56 93 57 92 58 48 60 80 61 60 62 79 63
REMARK SMILES IDX 61 64 64 65 78 66 97 67 62 68 63 69 77 71 98 72 65 73 49 74
REMARK SMILES IDX 50 75 58 76 51 77 57 78 59 79 56 80 52 81 53 82 54 83 55 84
REMARK SMILES IDX 81 85 82 86 90 87 83 88 89 89 91 90 88 91 84 92 85 93 86 94
REMARK SMILES IDX 87 95 66 96 67 97 75 98 68 99 74 100 76 101 73 102 69 103
REMARK SMILES IDX 70 104 71 105 72 106
REMARK H PARENT 10 15 96 59 64 70
REMARK Flexibility Score: inf
ROOT
ATOM      1  C   UNL A   1      34.033  27.014  26.628  1.00  0.00     0.275 C 
ENDROOT
BRANCH   1   2
ATOM      2  C   UNL A   1      32.798  26.326  26.041  1.00  0.00     0.275 C 
BRANCH   2   3
ATOM      3  O   UNL A   1      32.785  24.896  26.196  1.00  0.00    -0.458 OA
BRANCH   3   4
ATOM      4  C   UNL A   1      31.531  24.395  26.128  1.00  0.00     0.340 C 
ATOM      5  O   UNL A   1      30.612  24.651  26.885  1.00  0.00    -0.246 OA
BRANCH   4   6
ATOM      6  C   UNL A   1      31.303  23.317  25.181  1.00  0.00     0.085 A 
ATOM      7  C   UNL A   1      32.331  21.292  24.350  1.00  0.00     0.042 A 
ATOM      8  C   UNL A   1      31.751  21.524  23.106  1.00  0.00     0.028 A 
ATOM      9  C   UNL A   1      31.996  22.120  25.425  1.00  0.00     0.044 A 
ATOM     10  C   UNL A   1      31.036  22.706  22.878  1.00  0.00     0.029 A 
ATOM     11  C   UNL A   1      30.913  23.681  23.879  1.00  0.00     0.051 A 
BRANCH   7  12
ATOM     12  N   UNL A   1      33.339  20.341  24.571  1.00  0.00    -0.322 N 
ATOM     13  C   UNL A   1      34.700  20.454  24.784  1.00  0.00     0.255 C 
ATOM     14  O   UNL A   1      35.375  19.420  24.761  1.00  0.00    -0.269 OA
ATOM     15  H   UNL A   1      33.015  19.411  24.575  1.00  0.00     0.170 HD
BRANCH  13  16
ATOM     16  C   UNL A   1      35.409  21.737  25.078  1.00  0.00     0.043 A 
ATOM     17  C   UNL A   1      34.612  22.019  27.515  1.00  0.00     0.045 C 
ATOM     18  C   UNL A   1      35.332  22.473  26.278  1.00  0.00    -0.038 A 
ATOM     19  C   UNL A   1      36.033  23.694  26.377  1.00  0.00     0.004 A 
ATOM     20  C   UNL A   1      36.900  24.115  25.371  1.00  0.00     0.000 A 
ATOM     21  C   UNL A   1      36.331  22.153  24.095  1.00  0.00     0.014 A 
ATOM     22  C   UNL A   1      37.079  23.323  24.245  1.00  0.00     0.001 A 
ENDBRANCH  13  16
ENDBRANCH   7  12
BRANCH  11  23
ATOM     23  N   UNL A   1      30.695  24.994  23.459  1.00  0.00    -0.371 N 
ATOM     24  C   UNL A   1      31.651  25.678  22.608  1.00  0.00     0.118 C 
ATOM     25  C   UNL A   1      29.298  25.343  23.164  1.00  0.00     0.118 C 
ATOM     26  C   UNL A   1      31.502  27.184  22.855  1.00  0.00     0.047 C 
ATOM     27  C   UNL A   1      29.093  26.781  23.543  1.00  0.00     0.047 C 
ATOM     28  C   UNL A   1      30.036  27.713  22.775  1.00  0.00     0.094 C 
BRANCH  28  29
ATOM     29  N   UNL A   1      29.940  29.119  23.201  1.00  0.00    -0.310 N 
ATOM     30  C   UNL A   1      30.464  29.769  24.314  1.00  0.00     0.108 A 
ATOM     31  C   UNL A   1      29.236  30.078  22.497  1.00  0.00     0.160 A 
ATOM     32  C   UNL A   1      31.076  29.150  25.512  1.00  0.00     0.088 C 
ATOM     33  N   UNL A   1      30.282  31.075  24.239  1.00  0.00    -0.232 NA
ATOM     34  C   UNL A   1      29.499  31.272  23.150  1.00  0.00     0.108 A 
ATOM     35  N   UNL A   1      28.475  29.909  21.394  1.00  0.00    -0.237 NA
ATOM     36  C   UNL A   1      28.951  32.450  22.641  1.00  0.00     0.034 A 
ATOM     37  C   UNL A   1      27.959  31.077  20.942  1.00  0.00     0.113 A 
ATOM     38  C   UNL A   1      28.160  32.335  21.501  1.00  0.00     0.022 A 
ENDBRANCH  28  29
ENDBRANCH  11  23
ENDBRANCH   4   6
ENDBRANCH   3   4
ENDBRANCH   2   3
ENDBRANCH   1   2
BRANCH   1  39
ATOM     39  O   UNL A   1      34.518  28.241  26.022  1.00  0.00    -0.458 OA
BRANCH  39  40
ATOM     40  C   UNL A   1      34.511  29.491  26.557  1.00  0.00     0.338 C 
ATOM     41  O   UNL A   1      33.564  30.247  26.349  1.00  0.00    -0.246 OA
BRANCH  40  42
ATOM     42  C   UNL A   1      35.582  29.859  27.521  1.00  0.00     0.060 A 
ATOM     43  C   UNL A   1      35.217  30.188  28.844  1.00  0.00     0.016 A 
ATOM     44  C   UNL A   1      36.920  29.663  27.207  1.00  0.00     0.016 A 
ATOM     45  C   UNL A   1      36.172  30.160  29.869  1.00  0.00     0.010 A 
ATOM     46  C   UNL A   1      37.833  29.488  28.228  1.00  0.00     0.010 A 
ATOM     47  C   UNL A   1      37.473  29.748  29.562  1.00  0.00    -0.014 A 
BRANCH  47  48
ATOM     48  C   UNL A   1      38.633  29.940  30.439  1.00  0.00     0.031 A 
ATOM     49  C   UNL A   1      39.044  28.947  31.474  1.00  0.00     0.074 A 
ATOM     50  C   UNL A   1      39.249  31.116  30.181  1.00  0.00     0.049 A 
ATOM     51  N   UNL A   1      40.246  28.494  31.672  1.00  0.00    -0.248 NA
ATOM     52  C   UNL A   1      38.047  28.365  32.384  1.00  0.00     0.031 C 
ATOM     53  C   UNL A   1      40.417  31.710  30.790  1.00  0.00     0.029 A 
ATOM     54  N   UNL A   1      38.715  32.179  29.432  1.00  0.00    -0.354 N 
ATOM     55  C   UNL A   1      40.233  27.710  32.834  1.00  0.00     0.074 A 
ATOM     56  C   UNL A   1      38.806  27.588  33.164  1.00  0.00     0.031 C 
ATOM     57  C   UNL A   1      40.255  33.052  30.752  1.00  0.00     0.029 A 
ATOM     58  C   UNL A   1      38.926  33.316  30.196  1.00  0.00     0.049 A 
ATOM     59  H   UNL A   1      38.282  32.127  28.550  1.00  0.00     0.167 HD
ATOM     60  C   UNL A   1      41.058  28.023  33.881  1.00  0.00     0.034 A 
ATOM     61  C   UNL A   1      37.888  33.947  30.829  1.00  0.00     0.034 A 
ATOM     62  C   UNL A   1      41.280  29.434  34.015  1.00  0.00     0.049 A 
ATOM     63  C   UNL A   1      38.128  33.912  32.318  1.00  0.00     0.074 A 
ATOM     64  C   UNL A   1      42.227  30.299  33.508  1.00  0.00     0.029 A 
ATOM     65  N   UNL A   1      40.295  30.196  34.613  1.00  0.00    -0.354 N 
ATOM     66  N   UNL A   1      38.646  32.888  32.945  1.00  0.00    -0.248 NA
ATOM     67  C   UNL A   1      37.891  35.061  33.182  1.00  0.00     0.031 C 
ATOM     68  C   UNL A   1      41.772  31.614  33.763  1.00  0.00     0.029 A 
ATOM     69  C   UNL A   1      40.565  31.531  34.437  1.00  0.00     0.049 A 
ATOM     70  H   UNL A   1      39.517  29.835  35.094  1.00  0.00     0.167 HD
ATOM     71  C   UNL A   1      38.969  33.287  34.218  1.00  0.00     0.074 A 
ATOM     72  C   UNL A   1      38.425  34.630  34.335  1.00  0.00     0.031 C 
ATOM     73  C   UNL A   1      39.738  32.539  35.064  1.00  0.00     0.034 A 
BRANCH  60  74
ATOM     74  C   UNL A   1      42.001  26.964  34.377  1.00  0.00     0.023 A 
ATOM     75  C   UNL A   1      42.971  26.382  33.539  1.00  0.00     0.031 A 
ATOM     76  C   UNL A   1      41.964  26.505  35.700  1.00  0.00     0.131 A 
ATOM     77  C   UNL A   1      43.785  25.330  33.999  1.00  0.00     0.055 A 
ATOM     78  C   UNL A   1      42.727  25.416  36.145  1.00  0.00     0.041 A 
ATOM     79  F   UNL A   1      41.217  27.151  36.608  1.00  0.00    -0.206 F 
ATOM     80  C   UNL A   1      43.633  24.809  35.283  1.00  0.00     0.022 A 
BRANCH  77  81
ATOM     81  S   UNL A   1      45.067  24.658  32.902  1.00  0.00     0.124 S 
ATOM     82  O   UNL A   1      44.773  25.305  31.627  1.00  0.00    -0.237 OA
ATOM     83  O   UNL A   1      46.291  25.084  33.571  1.00  0.00    -0.237 OA
ATOM     84  O   UNL A   1      44.819  23.217  32.930  1.00  0.00    -0.744 OA
ENDBRANCH  77  81
ENDBRANCH  60  74
BRANCH  61  85
ATOM     85  C   UNL A   1      36.528  33.918  30.190  1.00  0.00     0.023 A 
ATOM     86  C   UNL A   1      35.430  34.407  30.933  1.00  0.00     0.031 A 
ATOM     87  C   UNL A   1      36.283  33.599  28.846  1.00  0.00     0.131 A 
ATOM     88  C   UNL A   1      34.209  34.716  30.314  1.00  0.00     0.055 A 
ATOM     89  C   UNL A   1      35.033  33.838  28.243  1.00  0.00     0.041 A 
ATOM     90  F   UNL A   1      37.262  33.121  28.064  1.00  0.00    -0.206 F 
ATOM     91  C   UNL A   1      34.000  34.434  28.967  1.00  0.00     0.022 A 
BRANCH  88  92
ATOM     92  S   UNL A   1      33.014  35.725  31.244  1.00  0.00     0.124 S 
ATOM     93  O   UNL A   1      32.505  34.770  32.222  1.00  0.00    -0.237 OA
ATOM     94  O   UNL A   1      33.857  36.795  31.773  1.00  0.00    -0.237 OA
ATOM     95  O   UNL A   1      32.063  36.155  30.225  1.00  0.00    -0.744 OA
ENDBRANCH  88  92
ENDBRANCH  61  85
BRANCH  73  96
ATOM     96  C   UNL A   1      39.918  32.790  36.539  1.00  0.00     0.023 A 
ATOM     97  C   UNL A   1      38.933  32.460  37.472  1.00  0.00     0.031 A 
ATOM     98  C   UNL A   1      41.136  33.282  37.072  1.00  0.00     0.131 A 
ATOM     99  C   UNL A   1      39.109  32.734  38.835  1.00  0.00     0.055 A 
ATOM    100  C   UNL A   1      41.347  33.460  38.441  1.00  0.00     0.041 A 
ATOM    101  F   UNL A   1      42.182  33.593  36.292  1.00  0.00    -0.206 F 
ATOM    102  C   UNL A   1      40.319  33.209  39.333  1.00  0.00     0.022 A 
BRANCH  99 103
ATOM    103  S   UNL A   1      37.674  32.536  39.914  1.00  0.00     0.124 S 
ATOM    104  O   UNL A   1      37.680  33.802  40.645  1.00  0.00    -0.237 OA
ATOM    105  O   UNL A   1      36.586  32.366  38.956  1.00  0.00    -0.237 OA
ATOM    106  O   UNL A   1      38.001  31.355  40.708  1.00  0.00    -0.744 OA
ENDBRANCH  99 103
ENDBRANCH  73  96
ENDBRANCH  47  48
ENDBRANCH  40  42
ENDBRANCH  39  40
ENDBRANCH   1  39
TORSDOF 18
ENDMDL
