MODEL 1
REMARK VINA RESULT:     -12.1      0.000      0.000
REMARK SMILES COc1cc(Cl)c2c(c1)C=C(C(=O)OCCOC(=O)c1ccc(-c3c4nc(c(-c5cc(S(=O)(=O)[O-])ccc5F)c5ccc([nH]5)c(-c5cc(S(=O)(=O)[O-])ccc5F)c5nc(c(-c6cc(S(=O)(=O)[O-])ccc6F)c6ccc3[nH]6)C=C5)C=C4)cc1)[C@@H](C(F)(F)F)O2
REMARK SMILES IDX 16 1 15 2 14 3 12 4 13 5 11 6 3 7 4 8 9 9 5 10 8 11 6 12
REMARK SMILES IDX 7 13 10 14 88 15 83 16 2 17 1 18 84 19 85 20 86 21 87 22
REMARK SMILES IDX 17 23 18 24 19 25 20 26 21 27 82 28 22 29 81 30 23 31 24 32
REMARK SMILES IDX 25 33 75 34 26 35 80 36 74 37 76 38 27 39 79 40 73 41 72 42
REMARK SMILES IDX 28 44 60 45 40 46 59 47 41 48 44 49 58 50 77 51 42 52 43 53
REMARK SMILES IDX 57 55 78 56 45 57 29 58 30 59 38 60 31 61 37 62 39 63 36 64
REMARK SMILES IDX 32 65 33 66 34 67 35 68 61 69 62 70 70 71 63 72 69 73 71 74
REMARK SMILES IDX 68 75 64 76 65 77 66 78 67 79 46 80 47 81 55 82 48 83 54 84
REMARK SMILES IDX 56 85 53 86 49 87 50 88 51 89 52 90
REMARK H PARENT 76 43 44 54
REMARK Flexibility Score: inf
ROOT
ATOM      1  C   UNL A   1      36.628  20.687  25.034  1.00  0.00     0.275 C 
ENDROOT
BRANCH   1   2
ATOM      2  C   UNL A   1      35.276  21.400  25.057  1.00  0.00     0.275 C 
BRANCH   2   3
ATOM      3  O   UNL A   1      35.434  22.830  24.930  1.00  0.00    -0.459 OA
BRANCH   3   4
ATOM      4  C   UNL A   1      35.174  23.337  23.701  1.00  0.00     0.338 C 
ATOM      5  O   UNL A   1      35.651  22.964  22.645  1.00  0.00    -0.246 OA
BRANCH   4   6
ATOM      6  C   UNL A   1      34.194  24.437  23.794  1.00  0.00     0.087 C 
ATOM      7  C   UNL A   1      32.692  28.421  26.045  1.00  0.00     0.121 A 
ATOM      8  C   UNL A   1      31.479  28.368  25.363  1.00  0.00     0.070 A 
ATOM      9  C   UNL A   1      33.683  27.481  25.776  1.00  0.00     0.058 A 
ATOM     10  C   UNL A   1      31.261  27.359  24.418  1.00  0.00     0.087 A 
ATOM     11  C   UNL A   1      33.449  26.453  24.852  1.00  0.00     0.022 A 
ATOM     12  Cl  UNL A   1      29.743  27.332  23.590  1.00  0.00    -0.080 Cl
ATOM     13  C   UNL A   1      32.244  26.394  24.155  1.00  0.00     0.146 A 
ATOM     14  C   UNL A   1      34.455  25.430  24.650  1.00  0.00     0.027 C 
ATOM     15  O   UNL A   1      31.988  25.443  23.202  1.00  0.00    -0.474 OA
ATOM     16  C   UNL A   1      32.907  24.327  23.033  1.00  0.00     0.316 C 
BRANCH   7  17
ATOM     17  O   UNL A   1      33.021  29.408  26.930  1.00  0.00    -0.497 OA
ATOM     18  C   UNL A   1      32.063  30.460  27.006  1.00  0.00     0.278 C 
ENDBRANCH   7  17
BRANCH  16  19
ATOM     19  C   UNL A   1      32.162  23.028  23.378  1.00  0.00     0.430 C 
ATOM     20  F   UNL A   1      30.846  23.116  23.068  1.00  0.00    -0.167 F 
ATOM     21  F   UNL A   1      32.645  21.970  22.682  1.00  0.00    -0.167 F 
ATOM     22  F   UNL A   1      32.249  22.722  24.692  1.00  0.00    -0.167 F 
ENDBRANCH  16  19
ENDBRANCH   4   6
ENDBRANCH   3   4
ENDBRANCH   2   3
ENDBRANCH   1   2
BRANCH   1  23
ATOM     23  O   UNL A   1      37.704  21.640  25.020  1.00  0.00    -0.458 OA
BRANCH  23  24
ATOM     24  C   UNL A   1      38.758  21.317  25.800  1.00  0.00     0.338 C 
ATOM     25  O   UNL A   1      39.298  20.226  25.899  1.00  0.00    -0.246 OA
BRANCH  24  26
ATOM     26  C   UNL A   1      39.254  22.506  26.504  1.00  0.00     0.060 A 
ATOM     27  C   UNL A   1      38.700  23.746  26.201  1.00  0.00     0.016 A 
ATOM     28  C   UNL A   1      40.388  22.418  27.308  1.00  0.00     0.016 A 
ATOM     29  C   UNL A   1      39.371  24.909  26.559  1.00  0.00     0.010 A 
ATOM     30  C   UNL A   1      40.980  23.590  27.785  1.00  0.00     0.010 A 
ATOM     31  C   UNL A   1      40.515  24.849  27.367  1.00  0.00    -0.014 A 
BRANCH  31  32
ATOM     32  C   UNL A   1      41.231  26.095  27.759  1.00  0.00     0.031 A 
ATOM     33  C   UNL A   1      40.540  27.138  28.598  1.00  0.00     0.074 A 
ATOM     34  C   UNL A   1      42.505  26.289  27.363  1.00  0.00     0.049 A 
ATOM     35  N   UNL A   1      40.939  28.344  28.906  1.00  0.00    -0.248 NA
ATOM     36  C   UNL A   1      39.222  26.786  29.152  1.00  0.00     0.031 C 
ATOM     37  C   UNL A   1      43.301  25.335  26.586  1.00  0.00     0.029 A 
ATOM     38  N   UNL A   1      43.359  27.347  27.557  1.00  0.00    -0.354 N 
ATOM     39  C   UNL A   1      39.910  28.910  29.652  1.00  0.00     0.074 A 
ATOM     40  C   UNL A   1      38.855  27.923  29.731  1.00  0.00     0.031 C 
ATOM     41  C   UNL A   1      44.532  25.832  26.405  1.00  0.00     0.029 A 
ATOM     42  C   UNL A   1      44.587  27.180  26.962  1.00  0.00     0.049 A 
ATOM     43  H   UNL A   1      43.115  28.148  28.075  1.00  0.00     0.167 HD
ATOM     44  C   UNL A   1      39.856  30.136  30.224  1.00  0.00     0.034 A 
ATOM     45  C   UNL A   1      45.631  28.023  26.833  1.00  0.00     0.034 A 
ATOM     46  C   UNL A   1      40.934  31.089  30.173  1.00  0.00     0.049 A 
ATOM     47  C   UNL A   1      45.533  29.396  27.437  1.00  0.00     0.074 A 
ATOM     48  C   UNL A   1      40.984  32.352  30.737  1.00  0.00     0.029 A 
ATOM     49  N   UNL A   1      42.152  30.886  29.542  1.00  0.00    -0.354 N 
ATOM     50  N   UNL A   1      44.546  29.920  28.125  1.00  0.00    -0.248 NA
ATOM     51  C   UNL A   1      46.677  30.296  27.246  1.00  0.00     0.031 C 
ATOM     52  C   UNL A   1      42.207  32.931  30.402  1.00  0.00     0.029 A 
ATOM     53  C   UNL A   1      42.951  32.006  29.686  1.00  0.00     0.049 A 
ATOM     54  H   UNL A   1      42.410  30.065  29.063  1.00  0.00     0.167 HD
ATOM     55  C   UNL A   1      44.959  31.203  28.468  1.00  0.00     0.074 A 
ATOM     56  C   UNL A   1      46.293  31.369  27.926  1.00  0.00     0.031 C 
ATOM     57  C   UNL A   1      44.290  32.154  29.164  1.00  0.00     0.034 A 
BRANCH  44  58
ATOM     58  C   UNL A   1      38.605  30.539  30.965  1.00  0.00     0.023 A 
ATOM     59  C   UNL A   1      37.586  31.237  30.288  1.00  0.00     0.031 A 
ATOM     60  C   UNL A   1      38.478  30.355  32.352  1.00  0.00     0.131 A 
ATOM     61  C   UNL A   1      36.502  31.757  31.006  1.00  0.00     0.055 A 
ATOM     62  C   UNL A   1      37.374  30.839  33.057  1.00  0.00     0.041 A 
ATOM     63  F   UNL A   1      39.421  29.693  33.041  1.00  0.00    -0.206 F 
ATOM     64  C   UNL A   1      36.387  31.555  32.386  1.00  0.00     0.022 A 
BRANCH  61  65
ATOM     65  S   UNL A   1      35.226  32.751  30.188  1.00  0.00     0.124 S 
ATOM     66  O   UNL A   1      34.828  31.883  29.081  1.00  0.00    -0.237 OA
ATOM     67  O   UNL A   1      34.234  32.905  31.247  1.00  0.00    -0.237 OA
ATOM     68  O   UNL A   1      35.928  33.969  29.795  1.00  0.00    -0.744 OA
ENDBRANCH  61  65
ENDBRANCH  44  58
BRANCH  45  69
ATOM     69  C   UNL A   1      46.852  27.556  26.117  1.00  0.00     0.023 A 
ATOM     70  C   UNL A   1      47.095  27.930  24.782  1.00  0.00     0.031 A 
ATOM     71  C   UNL A   1      47.721  26.630  26.714  1.00  0.00     0.131 A 
ATOM     72  C   UNL A   1      48.131  27.319  24.066  1.00  0.00     0.055 A 
ATOM     73  C   UNL A   1      48.796  26.075  26.016  1.00  0.00     0.041 A 
ATOM     74  F   UNL A   1      47.523  26.239  27.983  1.00  0.00    -0.206 F 
ATOM     75  C   UNL A   1      48.993  26.405  24.679  1.00  0.00     0.022 A 
BRANCH  72  76
ATOM     76  S   UNL A   1      48.323  27.603  22.284  1.00  0.00     0.124 S 
ATOM     77  O   UNL A   1      47.076  28.281  21.945  1.00  0.00    -0.237 OA
ATOM     78  O   UNL A   1      49.524  28.435  22.246  1.00  0.00    -0.237 OA
ATOM     79  O   UNL A   1      48.479  26.261  21.734  1.00  0.00    -0.744 OA
ENDBRANCH  72  76
ENDBRANCH  45  69
BRANCH  57  80
ATOM     80  C   UNL A   1      44.972  33.472  29.423  1.00  0.00     0.023 A 
ATOM     81  C   UNL A   1      44.911  34.491  28.453  1.00  0.00     0.031 A 
ATOM     82  C   UNL A   1      45.812  33.656  30.534  1.00  0.00     0.131 A 
ATOM     83  C   UNL A   1      45.715  35.629  28.588  1.00  0.00     0.055 A 
ATOM     84  C   UNL A   1      46.575  34.813  30.688  1.00  0.00     0.041 A 
ATOM     85  F   UNL A   1      45.907  32.708  31.479  1.00  0.00    -0.206 F 
ATOM     86  C   UNL A   1      46.541  35.799  29.704  1.00  0.00     0.022 A 
BRANCH  83  87
ATOM     87  S   UNL A   1      45.773  36.889  27.285  1.00  0.00     0.124 S 
ATOM     88  O   UNL A   1      46.741  37.841  27.826  1.00  0.00    -0.237 OA
ATOM     89  O   UNL A   1      46.234  36.117  26.135  1.00  0.00    -0.237 OA
ATOM     90  O   UNL A   1      44.401  37.379  27.206  1.00  0.00    -0.744 OA
ENDBRANCH  83  87
ENDBRANCH  57  80
ENDBRANCH  31  32
ENDBRANCH  24  26
ENDBRANCH  23  24
ENDBRANCH   1  23
TORSDOF 16
ENDMDL
MODEL 2
REMARK VINA RESULT:     -12.0      4.945      9.969
REMARK SMILES COc1cc(Cl)c2c(c1)C=C(C(=O)OCCOC(=O)c1ccc(-c3c4nc(c(-c5cc(S(=O)(=O)[O-])ccc5F)c5ccc([nH]5)c(-c5cc(S(=O)(=O)[O-])ccc5F)c5nc(c(-c6cc(S(=O)(=O)[O-])ccc6F)c6ccc3[nH]6)C=C5)C=C4)cc1)[C@@H](C(F)(F)F)O2
REMARK SMILES IDX 16 1 15 2 14 3 12 4 13 5 11 6 3 7 4 8 9 9 5 10 8 11 6 12
REMARK SMILES IDX 7 13 10 14 88 15 83 16 2 17 1 18 84 19 85 20 86 21 87 22
REMARK SMILES IDX 17 23 18 24 19 25 20 26 21 27 82 28 22 29 81 30 23 31 24 32
REMARK SMILES IDX 25 33 75 34 26 35 80 36 74 37 76 38 27 39 79 40 73 41 72 42
REMARK SMILES IDX 28 44 60 45 40 46 59 47 41 48 44 49 58 50 77 51 42 52 43 53
REMARK SMILES IDX 57 55 78 56 45 57 29 58 30 59 38 60 31 61 37 62 39 63 36 64
REMARK SMILES IDX 32 65 33 66 34 67 35 68 61 69 62 70 70 71 63 72 69 73 71 74
REMARK SMILES IDX 68 75 64 76 65 77 66 78 67 79 46 80 47 81 55 82 48 83 54 84
REMARK SMILES IDX 56 85 53 86 49 87 50 88 51 89 52 90
REMARK H PARENT 76 43 44 54
REMARK Flexibility Score: inf
ROOT
ATOM      1  C   UNL A   1      31.905  30.598  26.056  1.00  0.00     0.275 C 
ENDROOT
BRANCH   1   2
ATOM      2  C   UNL A   1      31.770  29.307  25.249  1.00  0.00     0.275 C 
BRANCH   2   3
ATOM      3  O   UNL A   1      32.564  28.244  25.821  1.00  0.00    -0.459 OA
BRANCH   3   4
ATOM      4  C   UNL A   1      31.872  27.314  26.521  1.00  0.00     0.338 C 
ATOM      5  O   UNL A   1      31.043  27.524  27.388  1.00  0.00    -0.246 OA
BRANCH   4   6
ATOM      6  C   UNL A   1      32.250  25.955  26.085  1.00  0.00     0.087 C 
ATOM      7  C   UNL A   1      35.733  22.794  25.047  1.00  0.00     0.121 A 
ATOM      8  C   UNL A   1      34.803  21.936  24.465  1.00  0.00     0.070 A 
ATOM      9  C   UNL A   1      35.309  23.981  25.640  1.00  0.00     0.058 A 
ATOM     10  C   UNL A   1      33.446  22.281  24.472  1.00  0.00     0.087 A 
ATOM     11  C   UNL A   1      33.955  24.338  25.616  1.00  0.00     0.022 A 
ATOM     12  Cl  UNL A   1      32.323  21.186  23.743  1.00  0.00    -0.080 Cl
ATOM     13  C   UNL A   1      33.011  23.484  25.047  1.00  0.00     0.146 A 
ATOM     14  C   UNL A   1      33.542  25.617  26.156  1.00  0.00     0.027 C 
ATOM     15  O   UNL A   1      31.669  23.761  25.047  1.00  0.00    -0.474 OA
ATOM     16  C   UNL A   1      31.205  25.073  25.471  1.00  0.00     0.316 C 
BRANCH   7  17
ATOM     17  O   UNL A   1      37.064  22.509  25.152  1.00  0.00    -0.497 OA
ATOM     18  C   UNL A   1      37.438  21.267  24.562  1.00  0.00     0.278 C 
ENDBRANCH   7  17
BRANCH  16  19
ATOM     19  C   UNL A   1      30.528  25.760  24.274  1.00  0.00     0.430 C 
ATOM     20  F   UNL A   1      29.581  26.641  24.680  1.00  0.00    -0.167 F 
ATOM     21  F   UNL A   1      31.413  26.468  23.532  1.00  0.00    -0.167 F 
ATOM     22  F   UNL A   1      29.927  24.872  23.449  1.00  0.00    -0.167 F 
ENDBRANCH  16  19
ENDBRANCH   4   6
ENDBRANCH   3   4
ENDBRANCH   2   3
ENDBRANCH   1   2
BRANCH   1  23
ATOM     23  O   UNL A   1      32.799  30.411  27.167  1.00  0.00    -0.458 OA
BRANCH  23  24
ATOM     24  C   UNL A   1      33.543  31.492  27.484  1.00  0.00     0.338 C 
ATOM     25  O   UNL A   1      33.167  32.651  27.568  1.00  0.00    -0.246 OA
BRANCH  24  26
ATOM     26  C   UNL A   1      34.918  31.087  27.801  1.00  0.00     0.060 A 
ATOM     27  C   UNL A   1      35.179  29.747  28.068  1.00  0.00     0.016 A 
ATOM     28  C   UNL A   1      35.895  32.055  28.026  1.00  0.00     0.016 A 
ATOM     29  C   UNL A   1      36.356  29.387  28.716  1.00  0.00     0.010 A 
ATOM     30  C   UNL A   1      37.132  31.668  28.548  1.00  0.00     0.010 A 
ATOM     31  C   UNL A   1      37.355  30.341  28.954  1.00  0.00    -0.014 A 
BRANCH  31  32
ATOM     32  C   UNL A   1      38.619  29.957  29.642  1.00  0.00     0.031 A 
ATOM     33  C   UNL A   1      39.572  28.985  28.994  1.00  0.00     0.074 A 
ATOM     34  C   UNL A   1      38.915  30.482  30.848  1.00  0.00     0.049 A 
ATOM     35  N   UNL A   1      40.635  28.414  29.497  1.00  0.00    -0.248 NA
ATOM     36  C   UNL A   1      39.287  28.593  27.604  1.00  0.00     0.031 C 
ATOM     37  C   UNL A   1      38.098  31.467  31.560  1.00  0.00     0.029 A 
ATOM     38  N   UNL A   1      39.978  30.268  31.689  1.00  0.00    -0.354 N 
ATOM     39  C   UNL A   1      41.120  27.567  28.507  1.00  0.00     0.074 A 
ATOM     40  C   UNL A   1      40.223  27.680  27.378  1.00  0.00     0.031 C 
ATOM     41  C   UNL A   1      38.706  31.799  32.706  1.00  0.00     0.029 A 
ATOM     42  C   UNL A   1      39.904  30.980  32.863  1.00  0.00     0.049 A 
ATOM     43  H   UNL A   1      40.724  29.663  31.472  1.00  0.00     0.167 HD
ATOM     44  C   UNL A   1      42.220  26.776  28.535  1.00  0.00     0.034 A 
ATOM     45  C   UNL A   1      40.679  30.955  33.965  1.00  0.00     0.034 A 
ATOM     46  C   UNL A   1      43.128  26.710  29.651  1.00  0.00     0.049 A 
ATOM     47  C   UNL A   1      41.869  30.036  33.993  1.00  0.00     0.074 A 
ATOM     48  C   UNL A   1      44.280  25.953  29.770  1.00  0.00     0.029 A 
ATOM     49  N   UNL A   1      43.003  27.434  30.828  1.00  0.00    -0.354 N 
ATOM     50  N   UNL A   1      42.305  29.230  33.055  1.00  0.00    -0.248 NA
ATOM     51  C   UNL A   1      42.669  30.012  35.225  1.00  0.00     0.031 C 
ATOM     52  C   UNL A   1      44.820  26.178  31.036  1.00  0.00     0.029 A 
ATOM     53  C   UNL A   1      44.045  27.126  31.684  1.00  0.00     0.049 A 
ATOM     54  H   UNL A   1      42.279  28.073  31.024  1.00  0.00     0.167 HD
ATOM     55  C   UNL A   1      43.442  28.620  33.572  1.00  0.00     0.074 A 
ATOM     56  C   UNL A   1      43.636  29.163  34.902  1.00  0.00     0.031 C 
ATOM     57  C   UNL A   1      44.245  27.692  32.998  1.00  0.00     0.034 A 
BRANCH  44  58
ATOM     58  C   UNL A   1      42.527  25.913  27.337  1.00  0.00     0.023 A 
ATOM     59  C   UNL A   1      42.102  24.570  27.314  1.00  0.00     0.031 A 
ATOM     60  C   UNL A   1      43.342  26.371  26.288  1.00  0.00     0.131 A 
ATOM     61  C   UNL A   1      42.525  23.722  26.284  1.00  0.00     0.055 A 
ATOM     62  C   UNL A   1      43.728  25.532  25.241  1.00  0.00     0.041 A 
ATOM     63  F   UNL A   1      43.770  27.643  26.263  1.00  0.00    -0.206 F 
ATOM     64  C   UNL A   1      43.330  24.198  25.243  1.00  0.00     0.022 A 
BRANCH  61  65
ATOM     65  S   UNL A   1      42.088  21.963  26.278  1.00  0.00     0.124 S 
ATOM     66  O   UNL A   1      42.463  21.553  27.629  1.00  0.00    -0.237 OA
ATOM     67  O   UNL A   1      40.652  22.007  26.016  1.00  0.00    -0.237 OA
ATOM     68  O   UNL A   1      42.909  21.401  25.211  1.00  0.00    -0.744 OA
ENDBRANCH  61  65
ENDBRANCH  44  58
BRANCH  45  69
ATOM     69  C   UNL A   1      40.343  31.853  35.106  1.00  0.00     0.023 A 
ATOM     70  C   UNL A   1      39.415  31.459  36.088  1.00  0.00     0.031 A 
ATOM     71  C   UNL A   1      40.846  33.163  35.156  1.00  0.00     0.131 A 
ATOM     72  C   UNL A   1      38.960  32.391  37.029  1.00  0.00     0.055 A 
ATOM     73  C   UNL A   1      40.440  34.067  36.140  1.00  0.00     0.041 A 
ATOM     74  F   UNL A   1      41.727  33.584  34.236  1.00  0.00    -0.206 F 
ATOM     75  C   UNL A   1      39.478  33.688  37.071  1.00  0.00     0.022 A 
BRANCH  72  76
ATOM     76  S   UNL A   1      37.597  31.983  38.156  1.00  0.00     0.124 S 
ATOM     77  O   UNL A   1      37.344  30.582  37.837  1.00  0.00    -0.237 OA
ATOM     78  O   UNL A   1      38.208  32.234  39.459  1.00  0.00    -0.237 OA
ATOM     79  O   UNL A   1      36.542  32.916  37.774  1.00  0.00    -0.744 OA
ENDBRANCH  72  76
ENDBRANCH  45  69
BRANCH  57  80
ATOM     80  C   UNL A   1      45.441  27.197  33.770  1.00  0.00     0.023 A 
ATOM     81  C   UNL A   1      45.296  26.118  34.663  1.00  0.00     0.031 A 
ATOM     82  C   UNL A   1      46.663  27.889  33.750  1.00  0.00     0.131 A 
ATOM     83  C   UNL A   1      46.340  25.794  35.536  1.00  0.00     0.055 A 
ATOM     84  C   UNL A   1      47.718  27.532  34.590  1.00  0.00     0.041 A 
ATOM     85  F   UNL A   1      46.843  28.929  32.920  1.00  0.00    -0.206 F 
ATOM     86  C   UNL A   1      47.553  26.490  35.500  1.00  0.00     0.022 A 
BRANCH  83  87
ATOM     87  S   UNL A   1      46.134  24.510  36.800  1.00  0.00     0.124 S 
ATOM     88  O   UNL A   1      45.017  23.734  36.266  1.00  0.00    -0.237 OA
ATOM     89  O   UNL A   1      47.430  23.840  36.769  1.00  0.00    -0.237 OA
ATOM     90  O   UNL A   1      45.841  25.258  38.018  1.00  0.00    -0.744 OA
ENDBRANCH  83  87
ENDBRANCH  57  80
ENDBRANCH  31  32
ENDBRANCH  24  26
ENDBRANCH  23  24
ENDBRANCH   1  23
TORSDOF 16
ENDMDL
MODEL 3
REMARK VINA RESULT:     -11.9      4.896      9.971
REMARK SMILES COc1cc(Cl)c2c(c1)C=C(C(=O)OCCOC(=O)c1ccc(-c3c4nc(c(-c5cc(S(=O)(=O)[O-])ccc5F)c5ccc([nH]5)c(-c5cc(S(=O)(=O)[O-])ccc5F)c5nc(c(-c6cc(S(=O)(=O)[O-])ccc6F)c6ccc3[nH]6)C=C5)C=C4)cc1)[C@@H](C(F)(F)F)O2
REMARK SMILES IDX 16 1 15 2 14 3 12 4 13 5 11 6 3 7 4 8 9 9 5 10 8 11 6 12
REMARK SMILES IDX 7 13 10 14 88 15 83 16 2 17 1 18 84 19 85 20 86 21 87 22
REMARK SMILES IDX 17 23 18 24 19 25 20 26 21 27 82 28 22 29 81 30 23 31 24 32
REMARK SMILES IDX 25 33 75 34 26 35 80 36 74 37 76 38 27 39 79 40 73 41 72 42
REMARK SMILES IDX 28 44 60 45 40 46 59 47 41 48 44 49 58 50 77 51 42 52 43 53
REMARK SMILES IDX 57 55 78 56 45 57 29 58 30 59 38 60 31 61 37 62 39 63 36 64
REMARK SMILES IDX 32 65 33 66 34 67 35 68 61 69 62 70 70 71 63 72 69 73 71 74
REMARK SMILES IDX 68 75 64 76 65 77 66 78 67 79 46 80 47 81 55 82 48 83 54 84
REMARK SMILES IDX 56 85 53 86 49 87 50 88 51 89 52 90
REMARK H PARENT 76 43 44 54
REMARK Flexibility Score: inf
ROOT
ATOM      1  C   UNL A   1      31.686  30.426  25.498  1.00  0.00     0.275 C 
ENDROOT
BRANCH   1   2
ATOM      2  C   UNL A   1      31.484  29.003  24.978  1.00  0.00     0.275 C 
BRANCH   2   3
ATOM      3  O   UNL A   1      32.285  28.055  25.716  1.00  0.00    -0.459 OA
BRANCH   3   4
ATOM      4  C   UNL A   1      31.590  27.122  26.411  1.00  0.00     0.338 C 
ATOM      5  O   UNL A   1      30.725  27.330  27.241  1.00  0.00    -0.246 OA
BRANCH   4   6
ATOM      6  C   UNL A   1      32.018  25.764  26.021  1.00  0.00     0.087 C 
ATOM      7  C   UNL A   1      35.612  22.653  25.243  1.00  0.00     0.121 A 
ATOM      8  C   UNL A   1      34.734  21.770  24.621  1.00  0.00     0.070 A 
ATOM      9  C   UNL A   1      35.133  23.841  25.790  1.00  0.00     0.058 A 
ATOM     10  C   UNL A   1      33.373  22.090  24.540  1.00  0.00     0.087 A 
ATOM     11  C   UNL A   1      33.776  24.172  25.680  1.00  0.00     0.022 A 
ATOM     12  Cl  UNL A   1      32.316  20.963  23.764  1.00  0.00    -0.080 Cl
ATOM     13  C   UNL A   1      32.883  23.292  25.069  1.00  0.00     0.146 A 
ATOM     14  C   UNL A   1      33.309  25.452  26.173  1.00  0.00     0.027 C 
ATOM     15  O   UNL A   1      31.539  23.545  24.985  1.00  0.00    -0.474 OA
ATOM     16  C   UNL A   1      31.027  24.854  25.360  1.00  0.00     0.316 C 
BRANCH   7  17
ATOM     17  O   UNL A   1      36.940  22.395  25.431  1.00  0.00    -0.497 OA
ATOM     18  C   UNL A   1      37.438  21.321  24.639  1.00  0.00     0.278 C 
ENDBRANCH   7  17
BRANCH  16  19
ATOM     19  C   UNL A   1      30.411  25.509  24.113  1.00  0.00     0.430 C 
ATOM     20  F   UNL A   1      31.340  26.196  23.405  1.00  0.00    -0.167 F 
ATOM     21  F   UNL A   1      29.890  24.589  23.265  1.00  0.00    -0.167 F 
ATOM     22  F   UNL A   1      29.420  26.375  24.428  1.00  0.00    -0.167 F 
ENDBRANCH  16  19
ENDBRANCH   4   6
ENDBRANCH   3   4
ENDBRANCH   2   3
ENDBRANCH   1   2
BRANCH   1  23
ATOM     23  O   UNL A   1      32.225  30.407  26.831  1.00  0.00    -0.458 OA
BRANCH  23  24
ATOM     24  C   UNL A   1      32.891  31.525  27.189  1.00  0.00     0.338 C 
ATOM     25  O   UNL A   1      32.452  32.663  27.244  1.00  0.00    -0.246 OA
BRANCH  24  26
ATOM     26  C   UNL A   1      34.263  31.193  27.593  1.00  0.00     0.060 A 
ATOM     27  C   UNL A   1      34.600  29.857  27.792  1.00  0.00     0.016 A 
ATOM     28  C   UNL A   1      35.145  32.205  27.962  1.00  0.00     0.016 A 
ATOM     29  C   UNL A   1      35.744  29.533  28.512  1.00  0.00     0.010 A 
ATOM     30  C   UNL A   1      36.362  31.867  28.560  1.00  0.00     0.010 A 
ATOM     31  C   UNL A   1      36.648  30.532  28.896  1.00  0.00    -0.014 A 
BRANCH  31  32
ATOM     32  C   UNL A   1      37.879  30.186  29.660  1.00  0.00     0.031 A 
ATOM     33  C   UNL A   1      38.909  29.260  29.065  1.00  0.00     0.074 A 
ATOM     34  C   UNL A   1      38.074  30.704  30.889  1.00  0.00     0.049 A 
ATOM     35  N   UNL A   1      39.958  28.722  29.630  1.00  0.00    -0.248 NA
ATOM     36  C   UNL A   1      38.731  28.878  27.654  1.00  0.00     0.031 C 
ATOM     37  C   UNL A   1      37.175  31.647  31.558  1.00  0.00     0.029 A 
ATOM     38  N   UNL A   1      39.088  30.518  31.797  1.00  0.00    -0.354 N 
ATOM     39  C   UNL A   1      40.540  27.909  28.664  1.00  0.00     0.074 A 
ATOM     40  C   UNL A   1      39.714  28.005  27.480  1.00  0.00     0.031 C 
ATOM     41  C   UNL A   1      37.694  31.985  32.746  1.00  0.00     0.029 A 
ATOM     42  C   UNL A   1      38.909  31.210  32.972  1.00  0.00     0.049 A 
ATOM     43  H   UNL A   1      39.869  29.944  31.622  1.00  0.00     0.167 HD
ATOM     44  C   UNL A   1      41.664  27.160  28.755  1.00  0.00     0.034 A 
ATOM     45  C   UNL A   1      39.612  31.197  34.122  1.00  0.00     0.034 A 
ATOM     46  C   UNL A   1      42.499  27.112  29.928  1.00  0.00     0.049 A 
ATOM     47  C   UNL A   1      40.831  30.324  34.218  1.00  0.00     0.074 A 
ATOM     48  C   UNL A   1      43.669  26.397  30.113  1.00  0.00     0.029 A 
ATOM     49  N   UNL A   1      42.270  27.813  31.102  1.00  0.00    -0.354 N 
ATOM     50  N   UNL A   1      41.359  29.548  33.300  1.00  0.00    -0.248 NA
ATOM     51  C   UNL A   1      41.549  30.311  35.499  1.00  0.00     0.031 C 
ATOM     52  C   UNL A   1      44.117  26.623  31.414  1.00  0.00     0.029 A 
ATOM     53  C   UNL A   1      43.265  27.532  32.022  1.00  0.00     0.049 A 
ATOM     54  H   UNL A   1      41.511  28.421  31.258  1.00  0.00     0.167 HD
ATOM     55  C   UNL A   1      42.482  28.974  33.884  1.00  0.00     0.074 A 
ATOM     56  C   UNL A   1      42.568  29.504  35.230  1.00  0.00     0.031 C 
ATOM     57  C   UNL A   1      43.356  28.085  33.353  1.00  0.00     0.034 A 
BRANCH  44  58
ATOM     58  C   UNL A   1      42.083  26.327  27.569  1.00  0.00     0.023 A 
ATOM     59  C   UNL A   1      41.699  24.974  27.495  1.00  0.00     0.031 A 
ATOM     60  C   UNL A   1      42.959  26.825  26.590  1.00  0.00     0.131 A 
ATOM     61  C   UNL A   1      42.220  24.156  26.485  1.00  0.00     0.055 A 
ATOM     62  C   UNL A   1      43.443  26.016  25.561  1.00  0.00     0.041 A 
ATOM     63  F   UNL A   1      43.350  28.109  26.616  1.00  0.00    -0.206 F 
ATOM     64  C   UNL A   1      43.085  24.672  25.513  1.00  0.00     0.022 A 
BRANCH  61  65
ATOM     65  S   UNL A   1      41.835  22.386  26.419  1.00  0.00     0.124 S 
ATOM     66  O   UNL A   1      42.626  21.945  25.272  1.00  0.00    -0.237 OA
ATOM     67  O   UNL A   1      42.310  21.922  27.720  1.00  0.00    -0.237 OA
ATOM     68  O   UNL A   1      40.390  22.349  26.223  1.00  0.00    -0.744 OA
ENDBRANCH  61  65
ENDBRANCH  44  58
BRANCH  45  69
ATOM     69  C   UNL A   1      39.166  32.065  35.249  1.00  0.00     0.023 A 
ATOM     70  C   UNL A   1      39.580  33.407  35.337  1.00  0.00     0.031 A 
ATOM     71  C   UNL A   1      38.430  31.528  36.316  1.00  0.00     0.131 A 
ATOM     72  C   UNL A   1      39.323  34.140  36.501  1.00  0.00     0.055 A 
ATOM     73  C   UNL A   1      38.116  32.285  37.447  1.00  0.00     0.041 A 
ATOM     74  F   UNL A   1      38.020  30.250  36.279  1.00  0.00    -0.206 F 
ATOM     75  C   UNL A   1      38.580  33.593  37.551  1.00  0.00     0.022 A 
BRANCH  72  76
ATOM     76  S   UNL A   1      40.043  35.789  36.740  1.00  0.00     0.124 S 
ATOM     77  O   UNL A   1      41.465  35.486  36.870  1.00  0.00    -0.237 OA
ATOM     78  O   UNL A   1      39.652  36.462  35.503  1.00  0.00    -0.237 OA
ATOM     79  O   UNL A   1      39.391  36.279  37.949  1.00  0.00    -0.744 OA
ENDBRANCH  72  76
ENDBRANCH  45  69
BRANCH  57  80
ATOM     80  C   UNL A   1      44.517  27.625  34.195  1.00  0.00     0.023 A 
ATOM     81  C   UNL A   1      44.370  26.499  35.028  1.00  0.00     0.031 A 
ATOM     82  C   UNL A   1      45.693  28.386  34.302  1.00  0.00     0.131 A 
ATOM     83  C   UNL A   1      45.362  26.195  35.968  1.00  0.00     0.055 A 
ATOM     84  C   UNL A   1      46.700  28.052  35.207  1.00  0.00     0.041 A 
ATOM     85  F   UNL A   1      45.872  29.472  33.533  1.00  0.00    -0.206 F 
ATOM     86  C   UNL A   1      46.530  26.960  36.056  1.00  0.00     0.022 A 
BRANCH  83  87
ATOM     87  S   UNL A   1      45.138  24.844  37.157  1.00  0.00     0.124 S 
ATOM     88  O   UNL A   1      46.329  24.975  37.994  1.00  0.00    -0.237 OA
ATOM     89  O   UNL A   1      43.880  25.211  37.801  1.00  0.00    -0.237 OA
ATOM     90  O   UNL A   1      45.095  23.646  36.326  1.00  0.00    -0.744 OA
ENDBRANCH  83  87
ENDBRANCH  57  80
ENDBRANCH  31  32
ENDBRANCH  24  26
ENDBRANCH  23  24
ENDBRANCH   1  23
TORSDOF 16
ENDMDL
