MODEL 1
REMARK VINA RESULT:     -11.1      0.000      0.000
REMARK SMILES O=C(OCCOC(=O)c1cnn2c(C(F)(F)F)ccnc12)c1ccc(-c2c3nc(c(-c4cc(S(=O)(=O)[O-])ccc4F)c4ccc([nH]4)c(-c4cc(S(=O)(=O)[O-])ccc4F)c4nc(c(-c5cc(S(=O)(=O)[O-])ccc5F)c5ccc2[nH]5)C=C4)C=C3)cc1
REMARK SMILES IDX 4 1 3 2 2 3 1 4 22 5 23 6 84 7 24 8 83 9 25 10 26 11 27 12
REMARK SMILES IDX 77 13 28 14 82 15 76 16 78 17 29 18 81 19 75 20 74 21 30 23
REMARK SMILES IDX 62 24 42 25 61 26 43 27 46 28 60 29 79 30 44 31 45 32 59 34
REMARK SMILES IDX 80 35 47 36 31 37 32 38 40 39 33 40 39 41 41 42 38 43 34 44
REMARK SMILES IDX 35 45 36 46 37 47 63 48 64 49 72 50 65 51 71 52 73 53 70 54
REMARK SMILES IDX 66 55 67 56 68 57 69 58 48 59 49 60 57 61 50 62 56 63 58 64
REMARK SMILES IDX 55 65 51 66 52 67 53 68 54 69 5 70 6 71 7 72 8 73 9 74 10 75
REMARK SMILES IDX 21 76 11 77 12 78 20 79 13 80 19 81 18 82 14 83 15 84 16 85
REMARK SMILES IDX 17 86
REMARK H PARENT 78 22 46 33
REMARK Flexibility Score: inf
ROOT
ATOM      1  C   UNL A   1      34.397  35.356  28.425  1.00  0.00     0.275 C 
ENDROOT
BRANCH   1   2
ATOM      2  O   UNL A   1      34.407  34.259  27.495  1.00  0.00    -0.458 OA
BRANCH   2   3
ATOM      3  C   UNL A   1      34.373  32.920  27.709  1.00  0.00     0.338 C 
ATOM      4  O   UNL A   1      33.309  32.334  27.512  1.00  0.00    -0.246 OA
BRANCH   3   5
ATOM      5  C   UNL A   1      35.500  32.138  28.316  1.00  0.00     0.060 A 
ATOM      6  C   UNL A   1      35.473  30.789  28.675  1.00  0.00     0.016 A 
ATOM      7  C   UNL A   1      36.708  32.837  28.508  1.00  0.00     0.016 A 
ATOM      8  C   UNL A   1      36.619  30.138  29.138  1.00  0.00     0.010 A 
ATOM      9  C   UNL A   1      37.865  32.185  28.949  1.00  0.00     0.010 A 
ATOM     10  C   UNL A   1      37.823  30.824  29.266  1.00  0.00    -0.014 A 
BRANCH  10  11
ATOM     11  C   UNL A   1      38.985  30.152  29.885  1.00  0.00     0.031 A 
ATOM     12  C   UNL A   1      39.545  30.730  31.149  1.00  0.00     0.074 A 
ATOM     13  C   UNL A   1      39.477  29.004  29.381  1.00  0.00     0.049 A 
ATOM     14  N   UNL A   1      40.545  30.310  31.875  1.00  0.00    -0.248 NA
ATOM     15  C   UNL A   1      38.850  31.908  31.693  1.00  0.00     0.031 C 
ATOM     16  C   UNL A   1      38.903  28.254  28.266  1.00  0.00     0.029 A 
ATOM     17  N   UNL A   1      40.575  28.266  29.741  1.00  0.00    -0.354 N 
ATOM     18  C   UNL A   1      40.561  31.134  32.993  1.00  0.00     0.074 A 
ATOM     19  C   UNL A   1      39.534  32.134  32.802  1.00  0.00     0.031 C 
ATOM     20  C   UNL A   1      39.698  27.206  27.985  1.00  0.00     0.029 A 
ATOM     21  C   UNL A   1      40.845  27.230  28.878  1.00  0.00     0.049 A 
ATOM     22  H   UNL A   1      41.118  28.460  30.539  1.00  0.00     0.167 HD
ATOM     23  C   UNL A   1      41.331  31.028  34.102  1.00  0.00     0.034 A 
ATOM     24  C   UNL A   1      41.915  26.416  28.801  1.00  0.00     0.034 A 
ATOM     25  C   UNL A   1      42.386  30.056  34.238  1.00  0.00     0.049 A 
ATOM     26  C   UNL A   1      42.939  26.496  29.897  1.00  0.00     0.074 A 
ATOM     27  C   UNL A   1      43.261  29.869  35.292  1.00  0.00     0.029 A 
ATOM     28  N   UNL A   1      42.724  29.119  33.267  1.00  0.00    -0.354 N 
ATOM     29  N   UNL A   1      42.949  27.278  30.950  1.00  0.00    -0.248 NA
ATOM     30  C   UNL A   1      44.055  25.549  29.827  1.00  0.00     0.031 C 
ATOM     31  C   UNL A   1      44.176  28.875  34.926  1.00  0.00     0.029 A 
ATOM     32  C   UNL A   1      43.824  28.383  33.677  1.00  0.00     0.049 A 
ATOM     33  H   UNL A   1      42.253  28.998  32.412  1.00  0.00     0.167 HD
ATOM     34  C   UNL A   1      44.036  26.868  31.711  1.00  0.00     0.074 A 
ATOM     35  C   UNL A   1      44.669  25.788  30.977  1.00  0.00     0.031 C 
ATOM     36  C   UNL A   1      44.448  27.320  32.923  1.00  0.00     0.034 A 
BRANCH  23  37
ATOM     37  C   UNL A   1      41.073  32.029  35.199  1.00  0.00     0.023 A 
ATOM     38  C   UNL A   1      40.180  31.745  36.250  1.00  0.00     0.031 A 
ATOM     39  C   UNL A   1      41.647  33.308  35.146  1.00  0.00     0.131 A 
ATOM     40  C   UNL A   1      39.818  32.757  37.151  1.00  0.00     0.055 A 
ATOM     41  C   UNL A   1      41.344  34.286  36.095  1.00  0.00     0.041 A 
ATOM     42  F   UNL A   1      42.481  33.642  34.150  1.00  0.00    -0.206 F 
ATOM     43  C   UNL A   1      40.412  34.020  37.094  1.00  0.00     0.022 A 
BRANCH  40  44
ATOM     44  S   UNL A   1      38.437  32.451  38.289  1.00  0.00     0.124 S 
ATOM     45  O   UNL A   1      39.130  32.327  39.568  1.00  0.00    -0.237 OA
ATOM     46  O   UNL A   1      37.617  33.645  38.121  1.00  0.00    -0.237 OA
ATOM     47  O   UNL A   1      37.846  31.213  37.786  1.00  0.00    -0.744 OA
ENDBRANCH  40  44
ENDBRANCH  23  37
BRANCH  24  48
ATOM     48  C   UNL A   1      42.106  25.508  27.636  1.00  0.00     0.023 A 
ATOM     49  C   UNL A   1      41.577  24.211  27.605  1.00  0.00     0.031 A 
ATOM     50  C   UNL A   1      42.902  25.923  26.553  1.00  0.00     0.131 A 
ATOM     51  C   UNL A   1      41.872  23.365  26.521  1.00  0.00     0.055 A 
ATOM     52  C   UNL A   1      43.155  25.096  25.457  1.00  0.00     0.041 A 
ATOM     53  F   UNL A   1      43.456  27.145  26.551  1.00  0.00    -0.206 F 
ATOM     54  C   UNL A   1      42.644  23.804  25.441  1.00  0.00     0.022 A 
BRANCH  51  55
ATOM     55  S   UNL A   1      41.305  21.643  26.582  1.00  0.00     0.124 S 
ATOM     56  O   UNL A   1      42.247  20.990  25.681  1.00  0.00    -0.237 OA
ATOM     57  O   UNL A   1      41.449  21.333  28.000  1.00  0.00    -0.237 OA
ATOM     58  O   UNL A   1      39.928  21.722  26.100  1.00  0.00    -0.744 OA
ENDBRANCH  51  55
ENDBRANCH  24  48
BRANCH  36  59
ATOM     59  C   UNL A   1      45.602  26.589  33.554  1.00  0.00     0.023 A 
ATOM     60  C   UNL A   1      45.409  25.448  34.349  1.00  0.00     0.031 A 
ATOM     61  C   UNL A   1      46.914  27.062  33.375  1.00  0.00     0.131 A 
ATOM     62  C   UNL A   1      46.505  24.856  34.990  1.00  0.00     0.055 A 
ATOM     63  C   UNL A   1      48.009  26.424  33.954  1.00  0.00     0.041 A 
ATOM     64  F   UNL A   1      47.151  28.155  32.632  1.00  0.00    -0.206 F 
ATOM     65  C   UNL A   1      47.806  25.321  34.779  1.00  0.00     0.022 A 
BRANCH  62  66
ATOM     66  S   UNL A   1      46.193  23.535  36.189  1.00  0.00     0.124 S 
ATOM     67  O   UNL A   1      46.288  24.252  37.456  1.00  0.00    -0.237 OA
ATOM     68  O   UNL A   1      44.858  23.078  35.814  1.00  0.00    -0.237 OA
ATOM     69  O   UNL A   1      47.269  22.579  35.934  1.00  0.00    -0.744 OA
ENDBRANCH  62  66
ENDBRANCH  36  59
ENDBRANCH  10  11
ENDBRANCH   3   5
ENDBRANCH   2   3
ENDBRANCH   1   2
BRANCH   1  70
ATOM     70  C   UNL A   1      32.997  35.798  28.872  1.00  0.00     0.275 C 
BRANCH  70  71
ATOM     71  O   UNL A   1      33.006  36.713  29.977  1.00  0.00    -0.458 OA
BRANCH  71  72
ATOM     72  C   UNL A   1      32.574  36.201  31.171  1.00  0.00     0.343 C 
ATOM     73  O   UNL A   1      31.398  36.005  31.455  1.00  0.00    -0.246 OA
BRANCH  72  74
ATOM     74  C   UNL A   1      33.659  35.739  31.997  1.00  0.00     0.124 A 
ATOM     75  C   UNL A   1      34.399  36.509  32.910  1.00  0.00     0.153 A 
ATOM     76  C   UNL A   1      34.225  34.482  32.068  1.00  0.00     0.170 A 
ATOM     77  N   UNL A   1      35.266  35.789  33.618  1.00  0.00    -0.174 NA
ATOM     78  N   UNL A   1      35.147  34.529  33.133  1.00  0.00    -0.209 N 
ATOM     79  N   UNL A   1      34.039  33.349  31.322  1.00  0.00    -0.236 NA
ATOM     80  C   UNL A   1      35.837  33.387  33.525  1.00  0.00     0.150 A 
ATOM     81  C   UNL A   1      34.771  32.327  31.652  1.00  0.00     0.116 A 
ATOM     82  C   UNL A   1      35.724  32.268  32.790  1.00  0.00     0.053 A 
BRANCH  80  83
ATOM     83  C   UNL A   1      36.630  33.483  34.774  1.00  0.00     0.433 C 
ATOM     84  F   UNL A   1      37.163  32.290  35.142  1.00  0.00    -0.165 F 
ATOM     85  F   UNL A   1      37.650  34.373  34.680  1.00  0.00    -0.165 F 
ATOM     86  F   UNL A   1      35.869  33.886  35.827  1.00  0.00    -0.165 F 
ENDBRANCH  80  83
ENDBRANCH  72  74
ENDBRANCH  71  72
ENDBRANCH  70  71
ENDBRANCH   1  70
TORSDOF 15
ENDMDL
MODEL 2
REMARK VINA RESULT:     -10.9      4.824     12.457
REMARK SMILES O=C(OCCOC(=O)c1cnn2c(C(F)(F)F)ccnc12)c1ccc(-c2c3nc(c(-c4cc(S(=O)(=O)[O-])ccc4F)c4ccc([nH]4)c(-c4cc(S(=O)(=O)[O-])ccc4F)c4nc(c(-c5cc(S(=O)(=O)[O-])ccc5F)c5ccc2[nH]5)C=C4)C=C3)cc1
REMARK SMILES IDX 4 1 3 2 2 3 1 4 22 5 23 6 84 7 24 8 83 9 25 10 26 11 27 12
REMARK SMILES IDX 77 13 28 14 82 15 76 16 78 17 29 18 81 19 75 20 74 21 30 23
REMARK SMILES IDX 62 24 42 25 61 26 43 27 46 28 60 29 79 30 44 31 45 32 59 34
REMARK SMILES IDX 80 35 47 36 31 37 32 38 40 39 33 40 39 41 41 42 38 43 34 44
REMARK SMILES IDX 35 45 36 46 37 47 63 48 64 49 72 50 65 51 71 52 73 53 70 54
REMARK SMILES IDX 66 55 67 56 68 57 69 58 48 59 49 60 57 61 50 62 56 63 58 64
REMARK SMILES IDX 55 65 51 66 52 67 53 68 54 69 5 70 6 71 7 72 8 73 9 74 10 75
REMARK SMILES IDX 21 76 11 77 12 78 20 79 13 80 19 81 18 82 14 83 15 84 16 85
REMARK SMILES IDX 17 86
REMARK H PARENT 78 22 46 33
REMARK Flexibility Score: inf
ROOT
ATOM      1  C   UNL A   1      41.215  20.010  27.305  1.00  0.00     0.275 C 
ENDROOT
BRANCH   1   2
ATOM      2  O   UNL A   1      40.398  20.720  26.358  1.00  0.00    -0.458 OA
BRANCH   2   3
ATOM      3  C   UNL A   1      39.598  21.802  26.521  1.00  0.00     0.338 C 
ATOM      4  O   UNL A   1      38.449  21.738  26.084  1.00  0.00    -0.246 OA
BRANCH   3   5
ATOM      5  C   UNL A   1      40.068  23.122  27.057  1.00  0.00     0.060 A 
ATOM      6  C   UNL A   1      40.909  23.319  28.153  1.00  0.00     0.016 A 
ATOM      7  C   UNL A   1      39.636  24.265  26.357  1.00  0.00     0.016 A 
ATOM      8  C   UNL A   1      41.365  24.593  28.500  1.00  0.00     0.010 A 
ATOM      9  C   UNL A   1      40.107  25.542  26.684  1.00  0.00     0.010 A 
ATOM     10  C   UNL A   1      40.979  25.709  27.763  1.00  0.00    -0.014 A 
BRANCH  10  11
ATOM     11  C   UNL A   1      41.362  27.059  28.228  1.00  0.00     0.031 A 
ATOM     12  C   UNL A   1      42.822  27.374  28.356  1.00  0.00     0.074 A 
ATOM     13  C   UNL A   1      40.436  28.011  28.447  1.00  0.00     0.049 A 
ATOM     14  N   UNL A   1      43.395  28.486  28.728  1.00  0.00    -0.248 NA
ATOM     15  C   UNL A   1      43.757  26.309  27.959  1.00  0.00     0.031 C 
ATOM     16  C   UNL A   1      39.005  27.877  28.183  1.00  0.00     0.029 A 
ATOM     17  N   UNL A   1      40.558  29.283  28.946  1.00  0.00    -0.354 N 
ATOM     18  C   UNL A   1      44.757  28.276  28.553  1.00  0.00     0.074 A 
ATOM     19  C   UNL A   1      44.927  26.902  28.133  1.00  0.00     0.031 C 
ATOM     20  C   UNL A   1      38.375  28.992  28.595  1.00  0.00     0.029 A 
ATOM     21  C   UNL A   1      39.351  29.899  29.175  1.00  0.00     0.049 A 
ATOM     22  H   UNL A   1      41.427  29.711  29.124  1.00  0.00     0.167 HD
ATOM     23  C   UNL A   1      45.767  29.168  28.681  1.00  0.00     0.034 A 
ATOM     24  C   UNL A   1      39.068  31.052  29.811  1.00  0.00     0.034 A 
ATOM     25  C   UNL A   1      45.573  30.514  29.156  1.00  0.00     0.049 A 
ATOM     26  C   UNL A   1      40.216  31.929  30.221  1.00  0.00     0.074 A 
ATOM     27  C   UNL A   1      46.515  31.503  29.366  1.00  0.00     0.029 A 
ATOM     28  N   UNL A   1      44.343  31.050  29.523  1.00  0.00    -0.354 N 
ATOM     29  N   UNL A   1      41.502  31.723  30.054  1.00  0.00    -0.248 NA
ATOM     30  C   UNL A   1      39.878  33.211  30.845  1.00  0.00     0.031 C 
ATOM     31  C   UNL A   1      45.868  32.607  29.934  1.00  0.00     0.029 A 
ATOM     32  C   UNL A   1      44.508  32.340  30.003  1.00  0.00     0.049 A 
ATOM     33  H   UNL A   1      43.480  30.581  29.455  1.00  0.00     0.167 HD
ATOM     34  C   UNL A   1      42.127  32.885  30.487  1.00  0.00     0.074 A 
ATOM     35  C   UNL A   1      41.074  33.772  30.947  1.00  0.00     0.031 C 
ATOM     36  C   UNL A   1      43.446  33.201  30.470  1.00  0.00     0.034 A 
BRANCH  23  37
ATOM     37  C   UNL A   1      47.151  28.671  28.349  1.00  0.00     0.023 A 
ATOM     38  C   UNL A   1      47.629  28.674  27.024  1.00  0.00     0.031 A 
ATOM     39  C   UNL A   1      47.962  28.103  29.343  1.00  0.00     0.131 A 
ATOM     40  C   UNL A   1      48.841  28.039  26.718  1.00  0.00     0.055 A 
ATOM     41  C   UNL A   1      49.206  27.545  29.042  1.00  0.00     0.041 A 
ATOM     42  F   UNL A   1      47.544  28.047  30.616  1.00  0.00    -0.206 F 
ATOM     43  C   UNL A   1      49.644  27.494  27.722  1.00  0.00     0.022 A 
BRANCH  40  44
ATOM     44  S   UNL A   1      49.271  27.785  24.972  1.00  0.00     0.124 S 
ATOM     45  O   UNL A   1      48.063  28.254  24.299  1.00  0.00    -0.237 OA
ATOM     46  O   UNL A   1      50.456  28.619  24.813  1.00  0.00    -0.237 OA
ATOM     47  O   UNL A   1      49.506  26.344  24.883  1.00  0.00    -0.744 OA
ENDBRANCH  40  44
ENDBRANCH  23  37
BRANCH  24  48
ATOM     48  C   UNL A   1      37.665  31.418  30.149  1.00  0.00     0.023 A 
ATOM     49  C   UNL A   1      36.789  31.973  29.206  1.00  0.00     0.031 A 
ATOM     50  C   UNL A   1      37.206  31.275  31.472  1.00  0.00     0.131 A 
ATOM     51  C   UNL A   1      35.507  32.388  29.607  1.00  0.00     0.055 A 
ATOM     52  C   UNL A   1      35.916  31.646  31.855  1.00  0.00     0.041 A 
ATOM     53  F   UNL A   1      38.017  30.776  32.416  1.00  0.00    -0.206 F 
ATOM     54  C   UNL A   1      35.060  32.215  30.920  1.00  0.00     0.022 A 
BRANCH  51  55
ATOM     55  S   UNL A   1      34.454  33.245  28.404  1.00  0.00     0.124 S 
ATOM     56  O   UNL A   1      35.444  33.808  27.492  1.00  0.00    -0.237 OA
ATOM     57  O   UNL A   1      33.647  32.148  27.882  1.00  0.00    -0.237 OA
ATOM     58  O   UNL A   1      33.729  34.217  29.219  1.00  0.00    -0.744 OA
ENDBRANCH  51  55
ENDBRANCH  24  48
BRANCH  36  59
ATOM     59  C   UNL A   1      43.807  34.597  30.902  1.00  0.00     0.023 A 
ATOM     60  C   UNL A   1      44.064  34.912  32.245  1.00  0.00     0.031 A 
ATOM     61  C   UNL A   1      43.868  35.631  29.951  1.00  0.00     0.131 A 
ATOM     62  C   UNL A   1      44.306  36.243  32.611  1.00  0.00     0.055 A 
ATOM     63  C   UNL A   1      44.184  36.940  30.311  1.00  0.00     0.041 A 
ATOM     64  F   UNL A   1      43.621  35.384  28.654  1.00  0.00    -0.206 F 
ATOM     65  C   UNL A   1      44.391  37.254  31.651  1.00  0.00     0.022 A 
BRANCH  62  66
ATOM     66  S   UNL A   1      44.401  36.649  34.374  1.00  0.00     0.124 S 
ATOM     67  O   UNL A   1      44.212  38.096  34.358  1.00  0.00    -0.237 OA
ATOM     68  O   UNL A   1      43.303  35.869  34.937  1.00  0.00    -0.237 OA
ATOM     69  O   UNL A   1      45.738  36.202  34.757  1.00  0.00    -0.744 OA
ENDBRANCH  62  66
ENDBRANCH  36  59
ENDBRANCH  10  11
ENDBRANCH   3   5
ENDBRANCH   2   3
ENDBRANCH   1   2
BRANCH   1  70
ATOM     70  C   UNL A   1      42.259  19.079  26.674  1.00  0.00     0.275 C 
BRANCH  70  71
ATOM     71  O   UNL A   1      42.541  19.374  25.298  1.00  0.00    -0.458 OA
BRANCH  71  72
ATOM     72  C   UNL A   1      43.851  19.249  24.924  1.00  0.00     0.343 C 
ATOM     73  O   UNL A   1      44.314  18.276  24.341  1.00  0.00    -0.246 OA
BRANCH  72  74
ATOM     74  C   UNL A   1      44.598  20.465  25.118  1.00  0.00     0.124 A 
ATOM     75  C   UNL A   1      45.964  20.563  25.433  1.00  0.00     0.153 A 
ATOM     76  C   UNL A   1      44.161  21.773  25.067  1.00  0.00     0.170 A 
ATOM     77  N   UNL A   1      46.410  21.817  25.439  1.00  0.00    -0.174 NA
ATOM     78  N   UNL A   1      45.315  22.575  25.181  1.00  0.00    -0.209 N 
ATOM     79  N   UNL A   1      42.911  22.318  24.948  1.00  0.00    -0.236 NA
ATOM     80  C   UNL A   1      45.230  23.959  25.084  1.00  0.00     0.150 A 
ATOM     81  C   UNL A   1      42.856  23.617  24.959  1.00  0.00     0.116 A 
ATOM     82  C   UNL A   1      44.020  24.538  25.020  1.00  0.00     0.053 A 
BRANCH  80  83
ATOM     83  C   UNL A   1      46.511  24.703  25.016  1.00  0.00     0.433 C 
ATOM     84  F   UNL A   1      47.321  24.249  24.026  1.00  0.00    -0.165 F 
ATOM     85  F   UNL A   1      46.334  26.034  24.821  1.00  0.00    -0.165 F 
ATOM     86  F   UNL A   1      47.230  24.579  26.164  1.00  0.00    -0.165 F 
ENDBRANCH  80  83
ENDBRANCH  72  74
ENDBRANCH  71  72
ENDBRANCH  70  71
ENDBRANCH   1  70
TORSDOF 15
ENDMDL
MODEL 3
REMARK VINA RESULT:     -10.9      5.084     12.619
REMARK SMILES O=C(OCCOC(=O)c1cnn2c(C(F)(F)F)ccnc12)c1ccc(-c2c3nc(c(-c4cc(S(=O)(=O)[O-])ccc4F)c4ccc([nH]4)c(-c4cc(S(=O)(=O)[O-])ccc4F)c4nc(c(-c5cc(S(=O)(=O)[O-])ccc5F)c5ccc2[nH]5)C=C4)C=C3)cc1
REMARK SMILES IDX 4 1 3 2 2 3 1 4 22 5 23 6 84 7 24 8 83 9 25 10 26 11 27 12
REMARK SMILES IDX 77 13 28 14 82 15 76 16 78 17 29 18 81 19 75 20 74 21 30 23
REMARK SMILES IDX 62 24 42 25 61 26 43 27 46 28 60 29 79 30 44 31 45 32 59 34
REMARK SMILES IDX 80 35 47 36 31 37 32 38 40 39 33 40 39 41 41 42 38 43 34 44
REMARK SMILES IDX 35 45 36 46 37 47 63 48 64 49 72 50 65 51 71 52 73 53 70 54
REMARK SMILES IDX 66 55 67 56 68 57 69 58 48 59 49 60 57 61 50 62 56 63 58 64
REMARK SMILES IDX 55 65 51 66 52 67 53 68 54 69 5 70 6 71 7 72 8 73 9 74 10 75
REMARK SMILES IDX 21 76 11 77 12 78 20 79 13 80 19 81 18 82 14 83 15 84 16 85
REMARK SMILES IDX 17 86
REMARK H PARENT 78 22 46 33
REMARK Flexibility Score: inf
ROOT
ATOM      1  C   UNL A   1      41.046  19.755  27.112  1.00  0.00     0.275 C 
ENDROOT
BRANCH   1   2
ATOM      2  O   UNL A   1      40.464  20.723  26.220  1.00  0.00    -0.458 OA
BRANCH   2   3
ATOM      3  C   UNL A   1      39.648  21.775  26.472  1.00  0.00     0.338 C 
ATOM      4  O   UNL A   1      38.474  21.691  26.113  1.00  0.00    -0.246 OA
BRANCH   3   5
ATOM      5  C   UNL A   1      40.117  23.091  27.018  1.00  0.00     0.060 A 
ATOM      6  C   UNL A   1      40.991  23.280  28.090  1.00  0.00     0.016 A 
ATOM      7  C   UNL A   1      39.647  24.242  26.354  1.00  0.00     0.016 A 
ATOM      8  C   UNL A   1      41.441  24.554  28.445  1.00  0.00     0.010 A 
ATOM      9  C   UNL A   1      40.112  25.518  26.689  1.00  0.00     0.010 A 
ATOM     10  C   UNL A   1      41.017  25.678  27.742  1.00  0.00    -0.014 A 
BRANCH  10  11
ATOM     11  C   UNL A   1      41.397  27.025  28.219  1.00  0.00     0.031 A 
ATOM     12  C   UNL A   1      42.856  27.340  28.357  1.00  0.00     0.074 A 
ATOM     13  C   UNL A   1      40.469  27.975  28.441  1.00  0.00     0.049 A 
ATOM     14  N   UNL A   1      43.427  28.448  28.741  1.00  0.00    -0.248 NA
ATOM     15  C   UNL A   1      43.794  26.278  27.957  1.00  0.00     0.031 C 
ATOM     16  C   UNL A   1      39.039  27.842  28.169  1.00  0.00     0.029 A 
ATOM     17  N   UNL A   1      40.588  29.242  28.951  1.00  0.00    -0.354 N 
ATOM     18  C   UNL A   1      44.789  28.240  28.571  1.00  0.00     0.074 A 
ATOM     19  C   UNL A   1      44.962  26.870  28.142  1.00  0.00     0.031 C 
ATOM     20  C   UNL A   1      38.407  28.953  28.586  1.00  0.00     0.029 A 
ATOM     21  C   UNL A   1      39.379  29.856  29.179  1.00  0.00     0.049 A 
ATOM     22  H   UNL A   1      41.456  29.669  29.137  1.00  0.00     0.167 HD
ATOM     23  C   UNL A   1      45.798  29.132  28.711  1.00  0.00     0.034 A 
ATOM     24  C   UNL A   1      39.093  31.004  29.822  1.00  0.00     0.034 A 
ATOM     25  C   UNL A   1      45.601  30.474  29.196  1.00  0.00     0.049 A 
ATOM     26  C   UNL A   1      40.239  31.878  30.244  1.00  0.00     0.074 A 
ATOM     27  C   UNL A   1      46.542  31.462  29.419  1.00  0.00     0.029 A 
ATOM     28  N   UNL A   1      44.369  31.007  29.561  1.00  0.00    -0.354 N 
ATOM     29  N   UNL A   1      41.525  31.674  30.083  1.00  0.00    -0.248 NA
ATOM     30  C   UNL A   1      39.896  33.155  30.877  1.00  0.00     0.031 C 
ATOM     31  C   UNL A   1      45.891  32.561  29.992  1.00  0.00     0.029 A 
ATOM     32  C   UNL A   1      44.531  32.293  30.052  1.00  0.00     0.049 A 
ATOM     33  H   UNL A   1      43.507  30.538  29.484  1.00  0.00     0.167 HD
ATOM     34  C   UNL A   1      42.147  32.833  30.528  1.00  0.00     0.074 A 
ATOM     35  C   UNL A   1      41.092  33.716  30.990  1.00  0.00     0.031 C 
ATOM     36  C   UNL A   1      43.466  33.150  30.520  1.00  0.00     0.034 A 
BRANCH  23  37
ATOM     37  C   UNL A   1      47.184  28.638  28.383  1.00  0.00     0.023 A 
ATOM     38  C   UNL A   1      47.673  28.660  27.061  1.00  0.00     0.031 A 
ATOM     39  C   UNL A   1      47.987  28.055  29.374  1.00  0.00     0.131 A 
ATOM     40  C   UNL A   1      48.886  28.028  26.755  1.00  0.00     0.055 A 
ATOM     41  C   UNL A   1      49.233  27.500  29.075  1.00  0.00     0.041 A 
ATOM     42  F   UNL A   1      47.559  27.981  30.644  1.00  0.00    -0.206 F 
ATOM     43  C   UNL A   1      49.681  27.467  27.758  1.00  0.00     0.022 A 
BRANCH  40  44
ATOM     44  S   UNL A   1      49.328  27.799  25.010  1.00  0.00     0.124 S 
ATOM     45  O   UNL A   1      49.594  26.364  24.957  1.00  0.00    -0.237 OA
ATOM     46  O   UNL A   1      48.128  28.253  24.317  1.00  0.00    -0.237 OA
ATOM     47  O   UNL A   1      50.505  28.650  24.840  1.00  0.00    -0.744 OA
ENDBRANCH  40  44
ENDBRANCH  23  37
BRANCH  24  48
ATOM     48  C   UNL A   1      37.688  31.366  30.156  1.00  0.00     0.023 A 
ATOM     49  C   UNL A   1      36.804  31.891  29.203  1.00  0.00     0.031 A 
ATOM     50  C   UNL A   1      37.235  31.252  31.483  1.00  0.00     0.131 A 
ATOM     51  C   UNL A   1      35.520  32.306  29.598  1.00  0.00     0.055 A 
ATOM     52  C   UNL A   1      35.943  31.622  31.862  1.00  0.00     0.041 A 
ATOM     53  F   UNL A   1      38.053  30.783  32.437  1.00  0.00    -0.206 F 
ATOM     54  C   UNL A   1      35.079  32.161  30.916  1.00  0.00     0.022 A 
BRANCH  51  55
ATOM     55  S   UNL A   1      34.457  33.125  28.378  1.00  0.00     0.124 S 
ATOM     56  O   UNL A   1      35.439  33.776  27.519  1.00  0.00    -0.237 OA
ATOM     57  O   UNL A   1      33.744  31.992  27.797  1.00  0.00    -0.237 OA
ATOM     58  O   UNL A   1      33.639  34.023  29.189  1.00  0.00    -0.744 OA
ENDBRANCH  51  55
ENDBRANCH  24  48
BRANCH  36  59
ATOM     59  C   UNL A   1      43.825  34.543  30.965  1.00  0.00     0.023 A 
ATOM     60  C   UNL A   1      43.830  35.624  30.071  1.00  0.00     0.031 A 
ATOM     61  C   UNL A   1      44.191  34.779  32.301  1.00  0.00     0.131 A 
ATOM     62  C   UNL A   1      44.260  36.884  30.511  1.00  0.00     0.055 A 
ATOM     63  C   UNL A   1      44.544  36.051  32.750  1.00  0.00     0.041 A 
ATOM     64  F   UNL A   1      44.211  33.776  33.193  1.00  0.00    -0.206 F 
ATOM     65  C   UNL A   1      44.593  37.110  31.849  1.00  0.00     0.022 A 
BRANCH  62  66
ATOM     66  S   UNL A   1      44.477  38.198  29.283  1.00  0.00     0.124 S 
ATOM     67  O   UNL A   1      45.158  37.490  28.204  1.00  0.00    -0.237 OA
ATOM     68  O   UNL A   1      43.102  38.605  29.010  1.00  0.00    -0.237 OA
ATOM     69  O   UNL A   1      45.290  39.191  29.984  1.00  0.00    -0.744 OA
ENDBRANCH  62  66
ENDBRANCH  36  59
ENDBRANCH  10  11
ENDBRANCH   3   5
ENDBRANCH   2   3
ENDBRANCH   1   2
BRANCH   1  70
ATOM     70  C   UNL A   1      42.329  19.098  26.588  1.00  0.00     0.275 C 
BRANCH  70  71
ATOM     71  O   UNL A   1      42.601  19.379  25.208  1.00  0.00    -0.458 OA
BRANCH  71  72
ATOM     72  C   UNL A   1      43.914  19.275  24.831  1.00  0.00     0.343 C 
ATOM     73  O   UNL A   1      44.388  18.317  24.233  1.00  0.00    -0.246 OA
BRANCH  72  74
ATOM     74  C   UNL A   1      44.646  20.496  25.045  1.00  0.00     0.124 A 
ATOM     75  C   UNL A   1      46.013  20.606  25.352  1.00  0.00     0.153 A 
ATOM     76  C   UNL A   1      44.192  21.799  25.024  1.00  0.00     0.170 A 
ATOM     77  N   UNL A   1      46.442  21.865  25.381  1.00  0.00    -0.174 NA
ATOM     78  N   UNL A   1      45.336  22.614  25.147  1.00  0.00    -0.209 N 
ATOM     79  N   UNL A   1      42.934  22.330  24.925  1.00  0.00    -0.236 NA
ATOM     80  C   UNL A   1      45.232  23.998  25.078  1.00  0.00     0.150 A 
ATOM     81  C   UNL A   1      42.862  23.628  24.963  1.00  0.00     0.116 A 
ATOM     82  C   UNL A   1      44.013  24.563  25.035  1.00  0.00     0.053 A 
BRANCH  80  83
ATOM     83  C   UNL A   1      46.502  24.760  25.016  1.00  0.00     0.433 C 
ATOM     84  F   UNL A   1      47.370  24.248  24.107  1.00  0.00    -0.165 F 
ATOM     85  F   UNL A   1      46.314  26.068  24.709  1.00  0.00    -0.165 F 
ATOM     86  F   UNL A   1      47.162  24.741  26.206  1.00  0.00    -0.165 F 
ENDBRANCH  80  83
ENDBRANCH  72  74
ENDBRANCH  71  72
ENDBRANCH  70  71
ENDBRANCH   1  70
TORSDOF 15
ENDMDL
