MODEL 1
REMARK VINA RESULT:     -10.8      0.000      0.000
REMARK SMILES O=C(CC[NH+]1CCC(CC(=O)OCCOC(=O)c2ccc(-c3c4nc(c(-c5cc(S(=O)(=O)[O-])ccc5F)c5ccc([nH]5)c(-c5cc(S(=O)(=O)[O-])ccc5F)c5nc(c(-c6cc(S(=O)(=O)[O-])ccc6F)c6ccc3[nH]6)C=C5)C=C4)cc2)CC1)NC1CC1
REMARK SMILES IDX 13 1 12 2 10 3 11 4 9 5 8 6 5 7 6 8 82 9 7 11 81 12 4 13
REMARK SMILES IDX 3 14 2 15 1 16 83 17 84 19 85 20 86 21 14 22 15 23 16 24
REMARK SMILES IDX 17 25 18 26 19 27 80 28 20 29 79 30 21 31 22 32 23 33 73 34
REMARK SMILES IDX 24 35 78 36 72 37 74 38 25 39 77 40 71 41 70 42 26 44 58 45
REMARK SMILES IDX 38 46 57 47 39 48 42 49 56 50 75 51 40 52 41 53 55 55 76 56
REMARK SMILES IDX 43 57 27 58 28 59 36 60 29 61 35 62 37 63 34 64 30 65 31 66
REMARK SMILES IDX 32 67 33 68 59 69 60 70 68 71 61 72 67 73 69 74 66 75 62 76
REMARK SMILES IDX 63 77 64 78 65 79 44 80 45 81 53 82 46 83 52 84 54 85 51 86
REMARK SMILES IDX 47 87 48 88 49 89 50 90
REMARK H PARENT 5 10 83 18 74 43 42 54
REMARK Flexibility Score: inf
ROOT
ATOM      1  C   UNL A   1      31.401  29.548  25.404  1.00  0.00     0.274 C 
ENDROOT
BRANCH   1   2
ATOM      2  O   UNL A   1      32.094  28.364  25.842  1.00  0.00    -0.462 OA
BRANCH   2   3
ATOM      3  C   UNL A   1      31.453  27.561  26.731  1.00  0.00     0.306 C 
ATOM      4  O   UNL A   1      31.114  27.905  27.857  1.00  0.00    -0.252 OA
BRANCH   3   5
ATOM      5  C   UNL A   1      31.236  26.147  26.215  1.00  0.00     0.126 C 
BRANCH   5   6
ATOM      6  C   UNL A   1      32.341  25.144  26.567  1.00  0.00     0.011 C 
ATOM      7  N   UNL A   1      33.902  22.681  26.225  1.00  0.00    -0.334 N 
ATOM      8  C   UNL A   1      32.884  22.814  27.268  1.00  0.00     0.262 C 
ATOM      9  C   UNL A   1      34.475  23.977  25.837  1.00  0.00     0.262 C 
ATOM     10  H   UNL A   1      33.426  22.325  25.396  1.00  0.00     0.348 HD
ATOM     11  C   UNL A   1      31.761  23.754  26.856  1.00  0.00     0.066 C 
ATOM     12  C   UNL A   1      33.387  24.994  25.449  1.00  0.00     0.066 C 
BRANCH   7  13
ATOM     13  C   UNL A   1      34.928  21.669  26.559  1.00  0.00     0.272 C 
BRANCH  13  14
ATOM     14  C   UNL A   1      35.514  20.810  25.424  1.00  0.00     0.161 C 
BRANCH  14  15
ATOM     15  C   UNL A   1      34.433  20.019  24.710  1.00  0.00     0.225 C 
ATOM     16  O   UNL A   1      33.411  20.545  24.275  1.00  0.00    -0.275 OA
ATOM     17  N   UNL A   1      34.677  18.658  24.659  1.00  0.00    -0.353 N 
ATOM     18  H   UNL A   1      35.593  18.337  24.826  1.00  0.00     0.163 HD
BRANCH  17  19
ATOM     19  C   UNL A   1      33.657  17.697  24.372  1.00  0.00     0.082 C 
ATOM     20  C   UNL A   1      33.166  17.471  22.972  1.00  0.00     0.027 C 
ATOM     21  C   UNL A   1      34.029  16.437  23.632  1.00  0.00     0.027 C 
ENDBRANCH  17  19
ENDBRANCH  14  15
ENDBRANCH  13  14
ENDBRANCH   7  13
ENDBRANCH   5   6
ENDBRANCH   3   5
ENDBRANCH   2   3
ENDBRANCH   1   2
BRANCH   1  22
ATOM     22  C   UNL A   1      31.850  30.780  26.192  1.00  0.00     0.275 C 
BRANCH  22  23
ATOM     23  O   UNL A   1      33.202  30.630  26.656  1.00  0.00    -0.458 OA
BRANCH  23  24
ATOM     24  C   UNL A   1      33.693  31.679  27.352  1.00  0.00     0.338 C 
ATOM     25  O   UNL A   1      33.142  32.754  27.565  1.00  0.00    -0.246 OA
BRANCH  24  26
ATOM     26  C   UNL A   1      34.975  31.289  27.951  1.00  0.00     0.060 A 
ATOM     27  C   UNL A   1      35.120  29.979  28.413  1.00  0.00     0.016 A 
ATOM     28  C   UNL A   1      36.013  32.213  28.090  1.00  0.00     0.016 A 
ATOM     29  C   UNL A   1      36.311  29.583  29.018  1.00  0.00     0.010 A 
ATOM     30  C   UNL A   1      37.207  31.814  28.699  1.00  0.00     0.010 A 
ATOM     31  C   UNL A   1      37.361  30.498  29.173  1.00  0.00    -0.014 A 
BRANCH  31  32
ATOM     32  C   UNL A   1      38.599  30.098  29.886  1.00  0.00     0.031 A 
ATOM     33  C   UNL A   1      39.519  29.090  29.259  1.00  0.00     0.074 A 
ATOM     34  C   UNL A   1      38.902  30.652  31.075  1.00  0.00     0.049 A 
ATOM     35  N   UNL A   1      40.594  28.530  29.750  1.00  0.00    -0.248 NA
ATOM     36  C   UNL A   1      39.181  28.655  27.896  1.00  0.00     0.031 C 
ATOM     37  C   UNL A   1      38.114  31.683  31.751  1.00  0.00     0.029 A 
ATOM     38  N   UNL A   1      39.952  30.423  31.928  1.00  0.00    -0.354 N 
ATOM     39  C   UNL A   1      41.063  27.675  28.759  1.00  0.00     0.074 A 
ATOM     40  C   UNL A   1      40.132  27.764  27.653  1.00  0.00     0.031 C 
ATOM     41  C   UNL A   1      38.709  31.997  32.914  1.00  0.00     0.029 A 
ATOM     42  C   UNL A   1      39.886  31.153  33.093  1.00  0.00     0.049 A 
ATOM     43  H   UNL A   1      40.682  29.794  31.727  1.00  0.00     0.167 HD
ATOM     44  C   UNL A   1      42.172  26.893  28.770  1.00  0.00     0.034 A 
ATOM     45  C   UNL A   1      40.670  31.118  34.190  1.00  0.00     0.034 A 
ATOM     46  C   UNL A   1      43.081  26.805  29.888  1.00  0.00     0.049 A 
ATOM     47  C   UNL A   1      41.839  30.163  34.218  1.00  0.00     0.074 A 
ATOM     48  C   UNL A   1      44.216  26.022  30.020  1.00  0.00     0.029 A 
ATOM     49  N   UNL A   1      42.959  27.527  31.069  1.00  0.00    -0.354 N 
ATOM     50  N   UNL A   1      42.250  29.331  33.287  1.00  0.00    -0.248 NA
ATOM     51  C   UNL A   1      42.649  30.142  35.443  1.00  0.00     0.031 C 
ATOM     52  C   UNL A   1      44.747  26.230  31.297  1.00  0.00     0.029 A 
ATOM     53  C   UNL A   1      43.986  27.193  31.938  1.00  0.00     0.049 A 
ATOM     54  H   UNL A   1      42.248  28.179  31.259  1.00  0.00     0.167 HD
ATOM     55  C   UNL A   1      43.388  28.717  33.804  1.00  0.00     0.074 A 
ATOM     56  C   UNL A   1      43.605  29.282  35.120  1.00  0.00     0.031 C 
ATOM     57  C   UNL A   1      44.186  27.771  33.245  1.00  0.00     0.034 A 
BRANCH  44  58
ATOM     58  C   UNL A   1      42.430  26.041  27.553  1.00  0.00     0.023 A 
ATOM     59  C   UNL A   1      42.110  24.672  27.530  1.00  0.00     0.031 A 
ATOM     60  C   UNL A   1      43.019  26.600  26.405  1.00  0.00     0.131 A 
ATOM     61  C   UNL A   1      42.437  23.896  26.408  1.00  0.00     0.055 A 
ATOM     62  C   UNL A   1      43.275  25.838  25.264  1.00  0.00     0.041 A 
ATOM     63  F   UNL A   1      43.367  27.897  26.379  1.00  0.00    -0.206 F 
ATOM     64  C   UNL A   1      42.994  24.475  25.265  1.00  0.00     0.022 A 
BRANCH  61  65
ATOM     65  S   UNL A   1      42.232  22.097  26.507  1.00  0.00     0.124 S 
ATOM     66  O   UNL A   1      43.379  21.627  25.732  1.00  0.00    -0.237 OA
ATOM     67  O   UNL A   1      42.287  21.850  27.943  1.00  0.00    -0.237 OA
ATOM     68  O   UNL A   1      40.931  21.865  25.883  1.00  0.00    -0.744 OA
ENDBRANCH  61  65
ENDBRANCH  44  58
BRANCH  45  69
ATOM     69  C   UNL A   1      40.362  31.968  35.378  1.00  0.00     0.023 A 
ATOM     70  C   UNL A   1      39.391  31.578  36.314  1.00  0.00     0.031 A 
ATOM     71  C   UNL A   1      40.972  33.224  35.549  1.00  0.00     0.131 A 
ATOM     72  C   UNL A   1      39.015  32.457  37.341  1.00  0.00     0.055 A 
ATOM     73  C   UNL A   1      40.639  34.070  36.609  1.00  0.00     0.041 A 
ATOM     74  F   UNL A   1      41.903  33.652  34.681  1.00  0.00    -0.206 F 
ATOM     75  C   UNL A   1      39.641  33.695  37.502  1.00  0.00     0.022 A 
BRANCH  72  76
ATOM     76  S   UNL A   1      37.604  32.011  38.392  1.00  0.00     0.124 S 
ATOM     77  O   UNL A   1      37.264  30.686  37.885  1.00  0.00    -0.237 OA
ATOM     78  O   UNL A   1      38.195  32.056  39.725  1.00  0.00    -0.237 OA
ATOM     79  O   UNL A   1      36.625  33.059  38.110  1.00  0.00    -0.744 OA
ENDBRANCH  72  76
ENDBRANCH  45  69
BRANCH  57  80
ATOM     80  C   UNL A   1      45.395  27.344  34.037  1.00  0.00     0.023 A 
ATOM     81  C   UNL A   1      45.350  26.264  34.935  1.00  0.00     0.031 A 
ATOM     82  C   UNL A   1      46.609  28.043  33.900  1.00  0.00     0.131 A 
ATOM     83  C   UNL A   1      46.480  25.949  35.705  1.00  0.00     0.055 A 
ATOM     84  C   UNL A   1      47.746  27.689  34.627  1.00  0.00     0.041 A 
ATOM     85  F   UNL A   1      46.706  29.082  33.056  1.00  0.00    -0.206 F 
ATOM     86  C   UNL A   1      47.682  26.644  35.546  1.00  0.00     0.022 A 
BRANCH  83  87
ATOM     87  S   UNL A   1      46.336  24.665  36.979  1.00  0.00     0.124 S 
ATOM     88  O   UNL A   1      46.824  25.359  38.166  1.00  0.00    -0.237 OA
ATOM     89  O   UNL A   1      44.908  24.364  36.960  1.00  0.00    -0.237 OA
ATOM     90  O   UNL A   1      47.201  23.594  36.487  1.00  0.00    -0.744 OA
ENDBRANCH  83  87
ENDBRANCH  57  80
ENDBRANCH  31  32
ENDBRANCH  24  26
ENDBRANCH  23  24
ENDBRANCH  22  23
ENDBRANCH   1  22
TORSDOF 19
ENDMDL
MODEL 2
REMARK VINA RESULT:     -10.6      5.190     10.479
REMARK SMILES O=C(CC[NH+]1CCC(CC(=O)OCCOC(=O)c2ccc(-c3c4nc(c(-c5cc(S(=O)(=O)[O-])ccc5F)c5ccc([nH]5)c(-c5cc(S(=O)(=O)[O-])ccc5F)c5nc(c(-c6cc(S(=O)(=O)[O-])ccc6F)c6ccc3[nH]6)C=C5)C=C4)cc2)CC1)NC1CC1
REMARK SMILES IDX 13 1 12 2 10 3 11 4 9 5 8 6 5 7 6 8 82 9 7 11 81 12 4 13
REMARK SMILES IDX 3 14 2 15 1 16 83 17 84 19 85 20 86 21 14 22 15 23 16 24
REMARK SMILES IDX 17 25 18 26 19 27 80 28 20 29 79 30 21 31 22 32 23 33 73 34
REMARK SMILES IDX 24 35 78 36 72 37 74 38 25 39 77 40 71 41 70 42 26 44 58 45
REMARK SMILES IDX 38 46 57 47 39 48 42 49 56 50 75 51 40 52 41 53 55 55 76 56
REMARK SMILES IDX 43 57 27 58 28 59 36 60 29 61 35 62 37 63 34 64 30 65 31 66
REMARK SMILES IDX 32 67 33 68 59 69 60 70 68 71 61 72 67 73 69 74 66 75 62 76
REMARK SMILES IDX 63 77 64 78 65 79 44 80 45 81 53 82 46 83 52 84 54 85 51 86
REMARK SMILES IDX 47 87 48 88 49 89 50 90
REMARK H PARENT 5 10 83 18 74 43 42 54
REMARK Flexibility Score: inf
ROOT
ATOM      1  C   UNL A   1      35.533  20.607  25.039  1.00  0.00     0.274 C 
ENDROOT
BRANCH   1   2
ATOM      2  O   UNL A   1      34.556  21.292  24.233  1.00  0.00    -0.462 OA
BRANCH   2   3
ATOM      3  C   UNL A   1      33.331  21.500  24.782  1.00  0.00     0.306 C 
ATOM      4  O   UNL A   1      32.313  20.901  24.454  1.00  0.00    -0.252 OA
BRANCH   3   5
ATOM      5  C   UNL A   1      33.321  22.605  25.827  1.00  0.00     0.126 C 
BRANCH   5   6
ATOM      6  C   UNL A   1      32.673  23.922  25.382  1.00  0.00     0.011 C 
ATOM      7  N   UNL A   1      32.262  26.828  25.424  1.00  0.00    -0.334 N 
ATOM      8  C   UNL A   1      31.323  25.904  26.061  1.00  0.00     0.262 C 
ATOM      9  C   UNL A   1      32.992  26.202  24.313  1.00  0.00     0.262 C 
ATOM     10  H   UNL A   1      32.965  27.061  26.125  1.00  0.00     0.348 HD
ATOM     11  C   UNL A   1      32.011  24.643  26.562  1.00  0.00     0.066 C 
ATOM     12  C   UNL A   1      33.678  24.893  24.741  1.00  0.00     0.066 C 
BRANCH   7  13
ATOM     13  C   UNL A   1      31.630  28.113  25.053  1.00  0.00     0.272 C 
BRANCH  13  14
ATOM     14  C   UNL A   1      31.823  28.643  23.621  1.00  0.00     0.161 C 
BRANCH  14  15
ATOM     15  C   UNL A   1      30.501  29.050  22.995  1.00  0.00     0.225 C 
ATOM     16  O   UNL A   1      29.971  28.400  22.097  1.00  0.00    -0.275 OA
ATOM     17  N   UNL A   1      29.994  30.241  23.483  1.00  0.00    -0.353 N 
ATOM     18  H   UNL A   1      30.345  30.589  24.335  1.00  0.00     0.163 HD
BRANCH  17  19
ATOM     19  C   UNL A   1      28.981  30.988  22.804  1.00  0.00     0.082 C 
ATOM     20  C   UNL A   1      27.658  31.281  23.451  1.00  0.00     0.027 C 
ATOM     21  C   UNL A   1      28.661  32.383  23.280  1.00  0.00     0.027 C 
ENDBRANCH  17  19
ENDBRANCH  14  15
ENDBRANCH  13  14
ENDBRANCH   7  13
ENDBRANCH   5   6
ENDBRANCH   3   5
ENDBRANCH   2   3
ENDBRANCH   1   2
BRANCH   1  22
ATOM     22  C   UNL A   1      36.947  21.112  24.749  1.00  0.00     0.275 C 
BRANCH  22  23
ATOM     23  O   UNL A   1      37.529  21.714  25.917  1.00  0.00    -0.458 OA
BRANCH  23  24
ATOM     24  C   UNL A   1      38.843  21.457  26.107  1.00  0.00     0.338 C 
ATOM     25  O   UNL A   1      39.448  20.432  25.814  1.00  0.00    -0.246 OA
BRANCH  24  26
ATOM     26  C   UNL A   1      39.493  22.671  26.614  1.00  0.00     0.060 A 
ATOM     27  C   UNL A   1      39.079  23.906  26.108  1.00  0.00     0.016 A 
ATOM     28  C   UNL A   1      40.525  22.595  27.552  1.00  0.00     0.016 A 
ATOM     29  C   UNL A   1      39.698  25.077  26.541  1.00  0.00     0.010 A 
ATOM     30  C   UNL A   1      41.145  23.771  27.984  1.00  0.00     0.010 A 
ATOM     31  C   UNL A   1      40.740  25.019  27.476  1.00  0.00    -0.014 A 
BRANCH  31  32
ATOM     32  C   UNL A   1      41.450  26.258  27.878  1.00  0.00     0.031 A 
ATOM     33  C   UNL A   1      40.715  27.310  28.658  1.00  0.00     0.074 A 
ATOM     34  C   UNL A   1      42.748  26.426  27.562  1.00  0.00     0.049 A 
ATOM     35  N   UNL A   1      41.112  28.501  29.023  1.00  0.00    -0.248 NA
ATOM     36  C   UNL A   1      39.348  26.973  29.084  1.00  0.00     0.031 C 
ATOM     37  C   UNL A   1      43.578  25.447  26.860  1.00  0.00     0.029 A 
ATOM     38  N   UNL A   1      43.596  27.481  27.788  1.00  0.00    -0.354 N 
ATOM     39  C   UNL A   1      40.046  29.060  29.720  1.00  0.00     0.074 A 
ATOM     40  C   UNL A   1      38.972  28.088  29.694  1.00  0.00     0.031 C 
ATOM     41  C   UNL A   1      44.816  25.948  26.712  1.00  0.00     0.029 A 
ATOM     42  C   UNL A   1      44.853  27.301  27.258  1.00  0.00     0.049 A 
ATOM     43  H   UNL A   1      43.329  28.290  28.281  1.00  0.00     0.167 HD
ATOM     44  C   UNL A   1      39.974  30.270  30.331  1.00  0.00     0.034 A 
ATOM     45  C   UNL A   1      45.902  28.147  27.194  1.00  0.00     0.034 A 
ATOM     46  C   UNL A   1      41.049  31.232  30.334  1.00  0.00     0.049 A 
ATOM     47  C   UNL A   1      45.760  29.527  27.791  1.00  0.00     0.074 A 
ATOM     48  C   UNL A   1      41.074  32.499  30.893  1.00  0.00     0.029 A 
ATOM     49  N   UNL A   1      42.294  31.034  29.750  1.00  0.00    -0.354 N 
ATOM     50  N   UNL A   1      44.732  30.056  28.415  1.00  0.00    -0.248 NA
ATOM     51  C   UNL A   1      46.919  30.422  27.675  1.00  0.00     0.031 C 
ATOM     52  C   UNL A   1      42.309  33.085  30.599  1.00  0.00     0.029 A 
ATOM     53  C   UNL A   1      43.084  32.161  29.918  1.00  0.00     0.049 A 
ATOM     54  H   UNL A   1      42.573  30.213  29.284  1.00  0.00     0.167 HD
ATOM     55  C   UNL A   1      45.138  31.333  28.796  1.00  0.00     0.074 A 
ATOM     56  C   UNL A   1      46.505  31.488  28.344  1.00  0.00     0.031 C 
ATOM     57  C   UNL A   1      44.446  32.293  29.462  1.00  0.00     0.034 A 
BRANCH  44  58
ATOM     58  C   UNL A   1      38.673  30.629  31.003  1.00  0.00     0.023 A 
ATOM     59  C   UNL A   1      37.631  31.260  30.301  1.00  0.00     0.031 A 
ATOM     60  C   UNL A   1      38.477  30.353  32.368  1.00  0.00     0.131 A 
ATOM     61  C   UNL A   1      36.466  31.649  30.980  1.00  0.00     0.055 A 
ATOM     62  C   UNL A   1      37.286  30.677  33.020  1.00  0.00     0.041 A 
ATOM     63  F   UNL A   1      39.447  29.773  33.093  1.00  0.00    -0.206 F 
ATOM     64  C   UNL A   1      36.276  31.339  32.328  1.00  0.00     0.022 A 
BRANCH  61  65
ATOM     65  S   UNL A   1      35.251  32.670  30.103  1.00  0.00     0.124 S 
ATOM     66  O   UNL A   1      34.248  32.894  31.143  1.00  0.00    -0.237 OA
ATOM     67  O   UNL A   1      36.038  33.835  29.713  1.00  0.00    -0.237 OA
ATOM     68  O   UNL A   1      34.815  31.814  29.001  1.00  0.00    -0.744 OA
ENDBRANCH  61  65
ENDBRANCH  44  58
BRANCH  45  69
ATOM     69  C   UNL A   1      47.163  27.751  26.500  1.00  0.00     0.023 A 
ATOM     70  C   UNL A   1      47.324  27.955  25.121  1.00  0.00     0.031 A 
ATOM     71  C   UNL A   1      48.191  27.085  27.191  1.00  0.00     0.131 A 
ATOM     72  C   UNL A   1      48.455  27.445  24.464  1.00  0.00     0.055 A 
ATOM     73  C   UNL A   1      49.344  26.634  26.545  1.00  0.00     0.041 A 
ATOM     74  F   UNL A   1      48.088  26.857  28.510  1.00  0.00    -0.206 F 
ATOM     75  C   UNL A   1      49.472  26.797  25.170  1.00  0.00     0.022 A 
BRANCH  72  76
ATOM     76  S   UNL A   1      48.520  27.530  22.653  1.00  0.00     0.124 S 
ATOM     77  O   UNL A   1      49.776  28.237  22.433  1.00  0.00    -0.237 OA
ATOM     78  O   UNL A   1      48.504  26.119  22.285  1.00  0.00    -0.237 OA
ATOM     79  O   UNL A   1      47.313  28.277  22.305  1.00  0.00    -0.744 OA
ENDBRANCH  72  76
ENDBRANCH  45  69
BRANCH  57  80
ATOM     80  C   UNL A   1      45.187  33.565  29.788  1.00  0.00     0.023 A 
ATOM     81  C   UNL A   1      45.184  34.669  28.919  1.00  0.00     0.031 A 
ATOM     82  C   UNL A   1      45.922  33.664  30.984  1.00  0.00     0.131 A 
ATOM     83  C   UNL A   1      45.948  35.805  29.230  1.00  0.00     0.055 A 
ATOM     84  C   UNL A   1      46.635  34.817  31.314  1.00  0.00     0.041 A 
ATOM     85  F   UNL A   1      45.959  32.639  31.849  1.00  0.00    -0.206 F 
ATOM     86  C   UNL A   1      46.661  35.892  30.429  1.00  0.00     0.022 A 
BRANCH  83  87
ATOM     87  S   UNL A   1      46.063  37.140  28.007  1.00  0.00     0.124 S 
ATOM     88  O   UNL A   1      44.680  37.600  27.929  1.00  0.00    -0.237 OA
ATOM     89  O   UNL A   1      47.006  38.060  28.635  1.00  0.00    -0.237 OA
ATOM     90  O   UNL A   1      46.561  36.465  26.810  1.00  0.00    -0.744 OA
ENDBRANCH  83  87
ENDBRANCH  57  80
ENDBRANCH  31  32
ENDBRANCH  24  26
ENDBRANCH  23  24
ENDBRANCH  22  23
ENDBRANCH   1  22
TORSDOF 19
ENDMDL
MODEL 3
REMARK VINA RESULT:     -10.3      4.779      7.759
REMARK SMILES O=C(CC[NH+]1CCC(CC(=O)OCCOC(=O)c2ccc(-c3c4nc(c(-c5cc(S(=O)(=O)[O-])ccc5F)c5ccc([nH]5)c(-c5cc(S(=O)(=O)[O-])ccc5F)c5nc(c(-c6cc(S(=O)(=O)[O-])ccc6F)c6ccc3[nH]6)C=C5)C=C4)cc2)CC1)NC1CC1
REMARK SMILES IDX 13 1 12 2 10 3 11 4 9 5 8 6 5 7 6 8 82 9 7 11 81 12 4 13
REMARK SMILES IDX 3 14 2 15 1 16 83 17 84 19 85 20 86 21 14 22 15 23 16 24
REMARK SMILES IDX 17 25 18 26 19 27 80 28 20 29 79 30 21 31 22 32 23 33 73 34
REMARK SMILES IDX 24 35 78 36 72 37 74 38 25 39 77 40 71 41 70 42 26 44 58 45
REMARK SMILES IDX 38 46 57 47 39 48 42 49 56 50 75 51 40 52 41 53 55 55 76 56
REMARK SMILES IDX 43 57 27 58 28 59 36 60 29 61 35 62 37 63 34 64 30 65 31 66
REMARK SMILES IDX 32 67 33 68 59 69 60 70 68 71 61 72 67 73 69 74 66 75 62 76
REMARK SMILES IDX 63 77 64 78 65 79 44 80 45 81 53 82 46 83 52 84 54 85 51 86
REMARK SMILES IDX 47 87 48 88 49 89 50 90
REMARK H PARENT 5 10 83 18 74 43 42 54
REMARK Flexibility Score: inf
ROOT
ATOM      1  C   UNL A   1      36.127  20.026  25.000  1.00  0.00     0.274 C 
ENDROOT
BRANCH   1   2
ATOM      2  O   UNL A   1      35.279  21.138  24.653  1.00  0.00    -0.462 OA
BRANCH   2   3
ATOM      3  C   UNL A   1      33.965  21.047  24.987  1.00  0.00     0.306 C 
ATOM      4  O   UNL A   1      33.551  20.630  26.063  1.00  0.00    -0.252 OA
BRANCH   3   5
ATOM      5  C   UNL A   1      33.029  21.469  23.865  1.00  0.00     0.126 C 
BRANCH   5   6
ATOM      6  C   UNL A   1      32.733  22.971  23.788  1.00  0.00     0.011 C 
ATOM      7  N   UNL A   1      32.007  25.469  22.428  1.00  0.00    -0.334 N 
ATOM      8  C   UNL A   1      33.387  25.168  22.808  1.00  0.00     0.262 C 
ATOM      9  C   UNL A   1      31.030  24.786  23.287  1.00  0.00     0.262 C 
ATOM     10  H   UNL A   1      31.871  25.088  21.492  1.00  0.00     0.348 HD
ATOM     11  C   UNL A   1      33.671  23.673  22.798  1.00  0.00     0.066 C 
ATOM     12  C   UNL A   1      31.287  23.270  23.359  1.00  0.00     0.066 C 
BRANCH   7  13
ATOM     13  C   UNL A   1      31.756  26.922  22.304  1.00  0.00     0.272 C 
BRANCH  13  14
ATOM     14  C   UNL A   1      30.402  27.480  22.779  1.00  0.00     0.161 C 
BRANCH  14  15
ATOM     15  C   UNL A   1      30.575  28.451  23.933  1.00  0.00     0.225 C 
ATOM     16  O   UNL A   1      30.289  29.642  23.838  1.00  0.00    -0.275 OA
ATOM     17  N   UNL A   1      31.138  27.884  25.063  1.00  0.00    -0.353 N 
ATOM     18  H   UNL A   1      31.139  26.903  25.147  1.00  0.00     0.163 HD
BRANCH  17  19
ATOM     19  C   UNL A   1      31.719  28.662  26.113  1.00  0.00     0.082 C 
ATOM     20  C   UNL A   1      31.683  28.200  27.540  1.00  0.00     0.027 C 
ATOM     21  C   UNL A   1      32.976  28.163  26.781  1.00  0.00     0.027 C 
ENDBRANCH  17  19
ENDBRANCH  14  15
ENDBRANCH  13  14
ENDBRANCH   7  13
ENDBRANCH   5   6
ENDBRANCH   3   5
ENDBRANCH   2   3
ENDBRANCH   1   2
BRANCH   1  22
ATOM     22  C   UNL A   1      37.604  20.370  24.804  1.00  0.00     0.275 C 
BRANCH  22  23
ATOM     23  O   UNL A   1      38.027  21.378  25.737  1.00  0.00    -0.458 OA
BRANCH  23  24
ATOM     24  C   UNL A   1      39.281  21.230  26.220  1.00  0.00     0.338 C 
ATOM     25  O   UNL A   1      39.974  20.219  26.188  1.00  0.00    -0.246 OA
BRANCH  24  26
ATOM     26  C   UNL A   1      39.763  22.534  26.688  1.00  0.00     0.060 A 
ATOM     27  C   UNL A   1      39.196  23.687  26.142  1.00  0.00     0.016 A 
ATOM     28  C   UNL A   1      40.790  22.622  27.630  1.00  0.00     0.016 A 
ATOM     29  C   UNL A   1      39.653  24.942  26.538  1.00  0.00     0.010 A 
ATOM     30  C   UNL A   1      41.249  23.883  28.026  1.00  0.00     0.010 A 
ATOM     31  C   UNL A   1      40.688  25.050  27.477  1.00  0.00    -0.014 A 
BRANCH  31  32
ATOM     32  C   UNL A   1      41.227  26.384  27.841  1.00  0.00     0.031 A 
ATOM     33  C   UNL A   1      42.654  26.719  27.511  1.00  0.00     0.074 A 
ATOM     34  C   UNL A   1      40.436  27.291  28.443  1.00  0.00     0.049 A 
ATOM     35  N   UNL A   1      43.350  27.780  27.824  1.00  0.00    -0.248 NA
ATOM     36  C   UNL A   1      43.394  25.722  26.722  1.00  0.00     0.031 C 
ATOM     37  C   UNL A   1      39.019  27.098  28.758  1.00  0.00     0.029 A 
ATOM     38  N   UNL A   1      40.709  28.555  28.901  1.00  0.00    -0.354 N 
ATOM     39  C   UNL A   1      44.612  27.582  27.274  1.00  0.00     0.074 A 
ATOM     40  C   UNL A   1      44.593  26.281  26.637  1.00  0.00     0.031 C 
ATOM     41  C   UNL A   1      38.550  28.204  29.358  1.00  0.00     0.029 A 
ATOM     42  C   UNL A   1      39.640  29.162  29.520  1.00  0.00     0.049 A 
ATOM     43  H   UNL A   1      41.588  28.987  28.798  1.00  0.00     0.167 HD
ATOM     44  C   UNL A   1      45.684  28.414  27.292  1.00  0.00     0.034 A 
ATOM     45  C   UNL A   1      39.562  30.341  30.171  1.00  0.00     0.034 A 
ATOM     46  C   UNL A   1      45.690  29.702  27.943  1.00  0.00     0.049 A 
ATOM     47  C   UNL A   1      40.799  31.201  30.266  1.00  0.00     0.074 A 
ATOM     48  C   UNL A   1      46.729  30.611  28.051  1.00  0.00     0.029 A 
ATOM     49  N   UNL A   1      44.602  30.265  28.598  1.00  0.00    -0.354 N 
ATOM     50  N   UNL A   1      41.997  30.985  29.772  1.00  0.00    -0.248 NA
ATOM     51  C   UNL A   1      40.673  32.464  31.005  1.00  0.00     0.031 C 
ATOM     52  C   UNL A   1      46.286  31.695  28.816  1.00  0.00     0.029 A 
ATOM     53  C   UNL A   1      44.951  31.498  29.127  1.00  0.00     0.049 A 
ATOM     54  H   UNL A   1      43.713  29.849  28.675  1.00  0.00     0.167 HD
ATOM     55  C   UNL A   1      42.754  32.103  30.112  1.00  0.00     0.074 A 
ATOM     56  C   UNL A   1      41.875  32.995  30.840  1.00  0.00     0.031 C 
ATOM     57  C   UNL A   1      44.058  32.374  29.847  1.00  0.00     0.034 A 
BRANCH  44  58
ATOM     58  C   UNL A   1      46.946  27.929  26.624  1.00  0.00     0.023 A 
ATOM     59  C   UNL A   1      47.151  28.074  25.241  1.00  0.00     0.031 A 
ATOM     60  C   UNL A   1      47.952  27.297  27.378  1.00  0.00     0.131 A 
ATOM     61  C   UNL A   1      48.304  27.541  24.645  1.00  0.00     0.055 A 
ATOM     62  C   UNL A   1      49.129  26.834  26.789  1.00  0.00     0.041 A 
ATOM     63  F   UNL A   1      47.800  27.110  28.698  1.00  0.00    -0.206 F 
ATOM     64  C   UNL A   1      49.306  26.944  25.413  1.00  0.00     0.022 A 
BRANCH  61  65
ATOM     65  S   UNL A   1      48.420  27.532  22.835  1.00  0.00     0.124 S 
ATOM     66  O   UNL A   1      47.210  28.259  22.458  1.00  0.00    -0.237 OA
ATOM     67  O   UNL A   1      49.682  28.224  22.596  1.00  0.00    -0.237 OA
ATOM     68  O   UNL A   1      48.415  26.110  22.498  1.00  0.00    -0.744 OA
ENDBRANCH  61  65
ENDBRANCH  44  58
BRANCH  45  69
ATOM     69  C   UNL A   1      38.293  30.767  30.832  1.00  0.00     0.023 A 
ATOM     70  C   UNL A   1      37.304  31.462  30.119  1.00  0.00     0.031 A 
ATOM     71  C   UNL A   1      38.089  30.561  32.208  1.00  0.00     0.131 A 
ATOM     72  C   UNL A   1      36.186  31.979  30.793  1.00  0.00     0.055 A 
ATOM     73  C   UNL A   1      36.946  31.023  32.863  1.00  0.00     0.041 A 
ATOM     74  F   UNL A   1      39.005  29.908  32.941  1.00  0.00    -0.206 F 
ATOM     75  C   UNL A   1      35.994  31.753  32.158  1.00  0.00     0.022 A 
BRANCH  72  76
ATOM     76  S   UNL A   1      35.048  33.060  29.884  1.00  0.00     0.124 S 
ATOM     77  O   UNL A   1      35.957  34.068  29.351  1.00  0.00    -0.237 OA
ATOM     78  O   UNL A   1      34.470  32.139  28.912  1.00  0.00    -0.237 OA
ATOM     79  O   UNL A   1      34.128  33.531  30.917  1.00  0.00    -0.744 OA
ENDBRANCH  72  76
ENDBRANCH  45  69
BRANCH  57  80
ATOM     80  C   UNL A   1      44.582  33.713  30.297  1.00  0.00     0.023 A 
ATOM     81  C   UNL A   1      45.149  33.898  31.569  1.00  0.00     0.031 A 
ATOM     82  C   UNL A   1      44.495  34.827  29.441  1.00  0.00     0.131 A 
ATOM     83  C   UNL A   1      45.557  35.180  31.972  1.00  0.00     0.055 A 
ATOM     84  C   UNL A   1      44.953  36.087  29.827  1.00  0.00     0.041 A 
ATOM     85  F   UNL A   1      43.962  34.705  28.215  1.00  0.00    -0.206 F 
ATOM     86  C   UNL A   1      45.476  36.271  31.104  1.00  0.00     0.022 A 
BRANCH  83  87
ATOM     87  S   UNL A   1      46.121  35.417  33.680  1.00  0.00     0.124 S 
ATOM     88  O   UNL A   1      47.077  36.510  33.535  1.00  0.00    -0.237 OA
ATOM     89  O   UNL A   1      44.881  35.744  34.377  1.00  0.00    -0.237 OA
ATOM     90  O   UNL A   1      46.705  34.124  34.031  1.00  0.00    -0.744 OA
ENDBRANCH  83  87
ENDBRANCH  57  80
ENDBRANCH  31  32
ENDBRANCH  24  26
ENDBRANCH  23  24
ENDBRANCH  22  23
ENDBRANCH   1  22
TORSDOF 19
ENDMDL
