MODEL 1
REMARK VINA RESULT:     -12.0      0.000      0.000
REMARK SMILES C[C@@H](C(=O)OCCOC(=O)c1ccc(-c2c3nc(c(-c4cc(S(=O)(=O)[O-])ccc4F)c4ccc([nH]4)c(-c4cc(S(=O)(=O)[O-])ccc4F)c4nc(c(-c5cc(S(=O)(=O)[O-])ccc5F)c5ccc2[nH]5)C=C4)C=C3)cc1)c1ccc(C[C@H]2CCC[C@H]2O)cc1
REMARK SMILES IDX 6 1 5 2 3 3 4 4 2 5 1 6 74 7 75 8 86 9 76 10 85 11 77 12
REMARK SMILES IDX 78 13 79 14 80 15 83 16 81 17 82 18 84 19 7 21 8 22 9 23
REMARK SMILES IDX 10 24 11 25 12 26 73 27 13 28 72 29 14 30 15 31 16 32 66 33
REMARK SMILES IDX 17 34 71 35 65 36 67 37 18 38 70 39 64 40 63 41 19 43 51 44
REMARK SMILES IDX 31 45 50 46 32 47 35 48 49 49 68 50 33 51 34 52 48 54 69 55
REMARK SMILES IDX 36 56 20 57 21 58 29 59 22 60 28 61 30 62 27 63 23 64 24 65
REMARK SMILES IDX 25 66 26 67 52 68 53 69 61 70 54 71 60 72 62 73 59 74 55 75
REMARK SMILES IDX 56 76 57 77 58 78 37 79 38 80 46 81 39 82 45 83 47 84 44 85
REMARK SMILES IDX 40 86 41 87 42 88 43 89
REMARK H PARENT 84 20 67 42 35 53
REMARK Flexibility Score: inf
ROOT
ATOM      1  C   UNL A   1      31.141  29.332  24.232  1.00  0.00     0.274 C 
ENDROOT
BRANCH   1   2
ATOM      2  O   UNL A   1      31.731  28.083  24.644  1.00  0.00    -0.462 OA
BRANCH   2   3
ATOM      3  C   UNL A   1      30.872  27.057  24.902  1.00  0.00     0.313 C 
ATOM      4  O   UNL A   1      30.017  26.668  24.114  1.00  0.00    -0.252 OA
BRANCH   3   5
ATOM      5  C   UNL A   1      31.051  26.483  26.313  1.00  0.00     0.126 C 
ATOM      6  C   UNL A   1      31.692  27.467  27.299  1.00  0.00     0.025 C 
BRANCH   5   7
ATOM      7  C   UNL A   1      31.747  25.127  26.282  1.00  0.00    -0.034 A 
ATOM      8  C   UNL A   1      33.128  25.069  26.039  1.00  0.00     0.005 A 
ATOM      9  C   UNL A   1      31.076  23.924  26.541  1.00  0.00     0.005 A 
ATOM     10  C   UNL A   1      33.811  23.849  26.046  1.00  0.00     0.004 A 
ATOM     11  C   UNL A   1      31.762  22.704  26.545  1.00  0.00     0.004 A 
ATOM     12  C   UNL A   1      33.137  22.649  26.292  1.00  0.00    -0.048 A 
BRANCH  12  13
ATOM     13  C   UNL A   1      33.903  21.345  26.359  1.00  0.00     0.041 C 
BRANCH  13  14
ATOM     14  C   UNL A   1      33.779  20.348  25.197  1.00  0.00     0.022 C 
ATOM     15  C   UNL A   1      35.090  19.678  24.744  1.00  0.00     0.007 C 
ATOM     16  C   UNL A   1      32.743  19.216  25.314  1.00  0.00     0.117 C 
ATOM     17  C   UNL A   1      34.766  18.200  24.550  1.00  0.00     0.003 C 
ATOM     18  C   UNL A   1      33.259  18.160  24.340  1.00  0.00     0.032 C 
BRANCH  16  19
ATOM     19  O   UNL A   1      32.640  18.631  26.604  1.00  0.00    -0.393 OA
ATOM     20  H   UNL A   1      33.518  18.599  27.015  1.00  0.00     0.210 HD
ENDBRANCH  16  19
ENDBRANCH  13  14
ENDBRANCH  12  13
ENDBRANCH   5   7
ENDBRANCH   3   5
ENDBRANCH   2   3
ENDBRANCH   1   2
BRANCH   1  21
ATOM     21  C   UNL A   1      31.286  30.364  25.345  1.00  0.00     0.275 C 
BRANCH  21  22
ATOM     22  O   UNL A   1      32.636  30.337  25.836  1.00  0.00    -0.458 OA
BRANCH  22  23
ATOM     23  C   UNL A   1      32.925  31.196  26.839  1.00  0.00     0.338 C 
ATOM     24  O   UNL A   1      32.209  32.091  27.266  1.00  0.00    -0.246 OA
BRANCH  23  25
ATOM     25  C   UNL A   1      34.277  30.919  27.363  1.00  0.00     0.060 A 
ATOM     26  C   UNL A   1      34.693  29.610  27.596  1.00  0.00     0.016 A 
ATOM     27  C   UNL A   1      35.105  31.984  27.727  1.00  0.00     0.016 A 
ATOM     28  C   UNL A   1      35.888  29.376  28.282  1.00  0.00     0.010 A 
ATOM     29  C   UNL A   1      36.343  31.734  28.335  1.00  0.00     0.010 A 
ATOM     30  C   UNL A   1      36.733  30.426  28.673  1.00  0.00    -0.014 A 
BRANCH  30  31
ATOM     31  C   UNL A   1      37.957  30.172  29.503  1.00  0.00     0.031 A 
ATOM     32  C   UNL A   1      39.110  29.369  28.937  1.00  0.00     0.074 A 
ATOM     33  C   UNL A   1      38.092  30.691  30.741  1.00  0.00     0.049 A 
ATOM     34  N   UNL A   1      40.141  28.845  29.552  1.00  0.00    -0.248 NA
ATOM     35  C   UNL A   1      39.089  29.110  27.489  1.00  0.00     0.031 C 
ATOM     36  C   UNL A   1      37.119  31.552  31.416  1.00  0.00     0.029 A 
ATOM     37  N   UNL A   1      39.119  30.586  31.653  1.00  0.00    -0.354 N 
ATOM     38  C   UNL A   1      40.840  28.122  28.589  1.00  0.00     0.074 A 
ATOM     39  C   UNL A   1      40.119  28.290  27.343  1.00  0.00     0.031 C 
ATOM     40  C   UNL A   1      37.619  31.947  32.595  1.00  0.00     0.029 A 
ATOM     41  C   UNL A   1      38.893  31.274  32.823  1.00  0.00     0.049 A 
ATOM     42  H   UNL A   1      39.938  30.067  31.483  1.00  0.00     0.167 HD
ATOM     43  C   UNL A   1      41.967  27.378  28.731  1.00  0.00     0.034 A 
ATOM     44  C   UNL A   1      39.589  31.319  33.977  1.00  0.00     0.034 A 
ATOM     45  C   UNL A   1      42.726  27.282  29.957  1.00  0.00     0.049 A 
ATOM     46  C   UNL A   1      40.829  30.479  34.123  1.00  0.00     0.074 A 
ATOM     47  C   UNL A   1      43.882  26.560  30.201  1.00  0.00     0.029 A 
ATOM     48  N   UNL A   1      42.423  27.949  31.135  1.00  0.00    -0.354 N 
ATOM     49  N   UNL A   1      41.394  29.682  33.246  1.00  0.00    -0.248 NA
ATOM     50  C   UNL A   1      41.506  30.520  35.426  1.00  0.00     0.031 C 
ATOM     51  C   UNL A   1      44.253  26.753  31.538  1.00  0.00     0.029 A 
ATOM     52  C   UNL A   1      43.363  27.646  32.111  1.00  0.00     0.049 A 
ATOM     53  H   UNL A   1      41.653  28.549  31.261  1.00  0.00     0.167 HD
ATOM     54  C   UNL A   1      42.486  29.117  33.900  1.00  0.00     0.074 A 
ATOM     55  C   UNL A   1      42.521  29.692  35.228  1.00  0.00     0.031 C 
ATOM     56  C   UNL A   1      43.372  28.197  33.444  1.00  0.00     0.034 A 
BRANCH  43  57
ATOM     57  C   UNL A   1      42.413  26.551  27.549  1.00  0.00     0.023 A 
ATOM     58  C   UNL A   1      42.011  25.218  27.367  1.00  0.00     0.031 A 
ATOM     59  C   UNL A   1      43.275  27.116  26.589  1.00  0.00     0.131 A 
ATOM     60  C   UNL A   1      42.519  24.476  26.289  1.00  0.00     0.055 A 
ATOM     61  C   UNL A   1      43.718  26.396  25.480  1.00  0.00     0.041 A 
ATOM     62  F   UNL A   1      43.707  28.380  26.720  1.00  0.00    -0.206 F 
ATOM     63  C   UNL A   1      43.351  25.062  25.330  1.00  0.00     0.022 A 
BRANCH  60  64
ATOM     64  S   UNL A   1      42.185  22.694  26.226  1.00  0.00     0.124 S 
ATOM     65  O   UNL A   1      40.730  22.662  26.349  1.00  0.00    -0.237 OA
ATOM     66  O   UNL A   1      42.724  22.320  24.924  1.00  0.00    -0.237 OA
ATOM     67  O   UNL A   1      42.912  22.167  27.379  1.00  0.00    -0.744 OA
ENDBRANCH  60  64
ENDBRANCH  43  57
BRANCH  44  68
ATOM     68  C   UNL A   1      39.075  32.114  35.130  1.00  0.00     0.023 A 
ATOM     69  C   UNL A   1      38.492  31.487  36.243  1.00  0.00     0.031 A 
ATOM     70  C   UNL A   1      39.140  33.519  35.120  1.00  0.00     0.131 A 
ATOM     71  C   UNL A   1      37.976  32.268  37.289  1.00  0.00     0.055 A 
ATOM     72  C   UNL A   1      38.675  34.287  36.187  1.00  0.00     0.041 A 
ATOM     73  F   UNL A   1      39.680  34.166  34.075  1.00  0.00    -0.206 F 
ATOM     74  C   UNL A   1      38.080  33.662  37.277  1.00  0.00     0.022 A 
BRANCH  71  75
ATOM     75  S   UNL A   1      37.103  31.439  38.646  1.00  0.00     0.124 S 
ATOM     76  O   UNL A   1      38.049  31.588  39.745  1.00  0.00    -0.237 OA
ATOM     77  O   UNL A   1      35.876  32.223  38.744  1.00  0.00    -0.237 OA
ATOM     78  O   UNL A   1      36.927  30.074  38.153  1.00  0.00    -0.744 OA
ENDBRANCH  71  75
ENDBRANCH  44  68
BRANCH  56  79
ATOM     79  C   UNL A   1      44.459  27.773  34.397  1.00  0.00     0.023 A 
ATOM     80  C   UNL A   1      44.352  26.593  35.154  1.00  0.00     0.031 A 
ATOM     81  C   UNL A   1      45.601  28.573  34.574  1.00  0.00     0.131 A 
ATOM     82  C   UNL A   1      45.344  26.272  36.092  1.00  0.00     0.055 A 
ATOM     83  C   UNL A   1      46.608  28.225  35.475  1.00  0.00     0.041 A 
ATOM     84  F   UNL A   1      45.752  29.711  33.878  1.00  0.00    -0.206 F 
ATOM     85  C   UNL A   1      46.477  27.075  36.249  1.00  0.00     0.022 A 
BRANCH  82  86
ATOM     86  S   UNL A   1      45.096  24.832  37.167  1.00  0.00     0.124 S 
ATOM     87  O   UNL A   1      44.275  25.389  38.238  1.00  0.00    -0.237 OA
ATOM     88  O   UNL A   1      44.429  23.888  36.278  1.00  0.00    -0.237 OA
ATOM     89  O   UNL A   1      46.454  24.458  37.559  1.00  0.00    -0.744 OA
ENDBRANCH  82  86
ENDBRANCH  56  79
ENDBRANCH  30  31
ENDBRANCH  23  25
ENDBRANCH  22  23
ENDBRANCH  21  22
ENDBRANCH   1  21
TORSDOF 18
ENDMDL
MODEL 2
REMARK VINA RESULT:     -12.0      1.701      2.086
REMARK SMILES C[C@@H](C(=O)OCCOC(=O)c1ccc(-c2c3nc(c(-c4cc(S(=O)(=O)[O-])ccc4F)c4ccc([nH]4)c(-c4cc(S(=O)(=O)[O-])ccc4F)c4nc(c(-c5cc(S(=O)(=O)[O-])ccc5F)c5ccc2[nH]5)C=C4)C=C3)cc1)c1ccc(C[C@H]2CCC[C@H]2O)cc1
REMARK SMILES IDX 6 1 5 2 3 3 4 4 2 5 1 6 74 7 75 8 86 9 76 10 85 11 77 12
REMARK SMILES IDX 78 13 79 14 80 15 83 16 81 17 82 18 84 19 7 21 8 22 9 23
REMARK SMILES IDX 10 24 11 25 12 26 73 27 13 28 72 29 14 30 15 31 16 32 66 33
REMARK SMILES IDX 17 34 71 35 65 36 67 37 18 38 70 39 64 40 63 41 19 43 51 44
REMARK SMILES IDX 31 45 50 46 32 47 35 48 49 49 68 50 33 51 34 52 48 54 69 55
REMARK SMILES IDX 36 56 20 57 21 58 29 59 22 60 28 61 30 62 27 63 23 64 24 65
REMARK SMILES IDX 25 66 26 67 52 68 53 69 61 70 54 71 60 72 62 73 59 74 55 75
REMARK SMILES IDX 56 76 57 77 58 78 37 79 38 80 46 81 39 82 45 83 47 84 44 85
REMARK SMILES IDX 40 86 41 87 42 88 43 89
REMARK H PARENT 84 20 67 42 35 53
REMARK Flexibility Score: inf
ROOT
ATOM      1  C   UNL A   1      32.959  28.972  24.529  1.00  0.00     0.274 C 
ENDROOT
BRANCH   1   2
ATOM      2  O   UNL A   1      32.478  27.634  24.291  1.00  0.00    -0.462 OA
BRANCH   2   3
ATOM      3  C   UNL A   1      33.345  26.617  24.561  1.00  0.00     0.313 C 
ATOM      4  O   UNL A   1      33.887  26.453  25.648  1.00  0.00    -0.252 OA
BRANCH   3   5
ATOM      5  C   UNL A   1      33.615  25.735  23.336  1.00  0.00     0.126 C 
ATOM      6  C   UNL A   1      32.565  25.884  22.229  1.00  0.00     0.025 C 
BRANCH   5   7
ATOM      7  C   UNL A   1      33.864  24.284  23.733  1.00  0.00    -0.034 A 
ATOM      8  C   UNL A   1      35.176  23.783  23.716  1.00  0.00     0.005 A 
ATOM      9  C   UNL A   1      32.842  23.431  24.170  1.00  0.00     0.005 A 
ATOM     10  C   UNL A   1      35.451  22.472  24.115  1.00  0.00     0.004 A 
ATOM     11  C   UNL A   1      33.121  22.118  24.566  1.00  0.00     0.004 A 
ATOM     12  C   UNL A   1      34.427  21.619  24.539  1.00  0.00    -0.048 A 
BRANCH  12  13
ATOM     13  C   UNL A   1      34.753  20.224  25.028  1.00  0.00     0.041 C 
BRANCH  13  14
ATOM     14  C   UNL A   1      33.899  19.045  24.537  1.00  0.00     0.022 C 
ATOM     15  C   UNL A   1      34.665  17.749  24.210  1.00  0.00     0.007 C 
ATOM     16  C   UNL A   1      32.689  18.617  25.387  1.00  0.00     0.117 C 
ATOM     17  C   UNL A   1      33.853  16.611  24.818  1.00  0.00     0.003 C 
ATOM     18  C   UNL A   1      32.446  17.173  24.957  1.00  0.00     0.032 C 
BRANCH  16  19
ATOM     19  O   UNL A   1      32.904  18.643  26.790  1.00  0.00    -0.393 OA
ATOM     20  H   UNL A   1      32.775  19.546  27.120  1.00  0.00     0.210 HD
ENDBRANCH  16  19
ENDBRANCH  13  14
ENDBRANCH  12  13
ENDBRANCH   5   7
ENDBRANCH   3   5
ENDBRANCH   2   3
ENDBRANCH   1   2
BRANCH   1  21
ATOM     21  C   UNL A   1      31.905  29.772  25.287  1.00  0.00     0.275 C 
BRANCH  21  22
ATOM     22  O   UNL A   1      32.312  29.901  26.660  1.00  0.00    -0.458 OA
BRANCH  22  23
ATOM     23  C   UNL A   1      32.882  31.076  27.007  1.00  0.00     0.338 C 
ATOM     24  O   UNL A   1      32.374  32.187  26.931  1.00  0.00    -0.246 OA
BRANCH  23  25
ATOM     25  C   UNL A   1      34.257  30.845  27.490  1.00  0.00     0.060 A 
ATOM     26  C   UNL A   1      34.747  29.549  27.640  1.00  0.00     0.016 A 
ATOM     27  C   UNL A   1      35.033  31.930  27.901  1.00  0.00     0.016 A 
ATOM     28  C   UNL A   1      35.966  29.342  28.290  1.00  0.00     0.010 A 
ATOM     29  C   UNL A   1      36.296  31.714  28.473  1.00  0.00     0.010 A 
ATOM     30  C   UNL A   1      36.761  30.412  28.727  1.00  0.00    -0.014 A 
BRANCH  30  31
ATOM     31  C   UNL A   1      38.014  30.178  29.520  1.00  0.00     0.031 A 
ATOM     32  C   UNL A   1      39.149  29.365  28.932  1.00  0.00     0.074 A 
ATOM     33  C   UNL A   1      38.191  30.724  30.741  1.00  0.00     0.049 A 
ATOM     34  N   UNL A   1      40.201  28.856  29.523  1.00  0.00    -0.248 NA
ATOM     35  C   UNL A   1      39.079  29.075  27.492  1.00  0.00     0.031 C 
ATOM     36  C   UNL A   1      37.239  31.598  31.430  1.00  0.00     0.029 A 
ATOM     37  N   UNL A   1      39.248  30.641  31.619  1.00  0.00    -0.354 N 
ATOM     38  C   UNL A   1      40.869  28.113  28.552  1.00  0.00     0.074 A 
ATOM     39  C   UNL A   1      40.105  28.253  27.328  1.00  0.00     0.031 C 
ATOM     40  C   UNL A   1      37.779  32.020  32.582  1.00  0.00     0.029 A 
ATOM     41  C   UNL A   1      39.061  31.354  32.781  1.00  0.00     0.049 A 
ATOM     42  H   UNL A   1      40.062  30.120  31.432  1.00  0.00     0.167 HD
ATOM     43  C   UNL A   1      42.002  27.375  28.672  1.00  0.00     0.034 A 
ATOM     44  C   UNL A   1      39.797  31.426  33.909  1.00  0.00     0.034 A 
ATOM     45  C   UNL A   1      42.803  27.307  29.872  1.00  0.00     0.049 A 
ATOM     46  C   UNL A   1      41.043  30.591  34.030  1.00  0.00     0.074 A 
ATOM     47  C   UNL A   1      43.968  26.591  30.092  1.00  0.00     0.029 A 
ATOM     48  N   UNL A   1      42.539  27.998  31.046  1.00  0.00    -0.354 N 
ATOM     49  N   UNL A   1      41.579  29.776  33.152  1.00  0.00    -0.248 NA
ATOM     50  C   UNL A   1      41.764  30.662  35.308  1.00  0.00     0.031 C 
ATOM     51  C   UNL A   1      44.384  26.815  31.411  1.00  0.00     0.029 A 
ATOM     52  C   UNL A   1      43.512  27.719  31.994  1.00  0.00     0.049 A 
ATOM     53  H   UNL A   1      41.772  28.600  31.185  1.00  0.00     0.167 HD
ATOM     54  C   UNL A   1      42.694  29.227  33.780  1.00  0.00     0.074 A 
ATOM     55  C   UNL A   1      42.773  29.831  35.094  1.00  0.00     0.031 C 
ATOM     56  C   UNL A   1      43.566  28.298  33.314  1.00  0.00     0.034 A 
BRANCH  43  57
ATOM     57  C   UNL A   1      42.408  26.522  27.493  1.00  0.00     0.023 A 
ATOM     58  C   UNL A   1      41.999  25.187  27.351  1.00  0.00     0.031 A 
ATOM     59  C   UNL A   1      43.240  27.065  26.496  1.00  0.00     0.131 A 
ATOM     60  C   UNL A   1      42.471  24.422  26.273  1.00  0.00     0.055 A 
ATOM     61  C   UNL A   1      43.647  26.322  25.387  1.00  0.00     0.041 A 
ATOM     62  F   UNL A   1      43.679  28.331  26.587  1.00  0.00    -0.206 F 
ATOM     63  C   UNL A   1      43.273  24.987  25.277  1.00  0.00     0.022 A 
BRANCH  60  64
ATOM     64  S   UNL A   1      42.132  22.640  26.257  1.00  0.00     0.124 S 
ATOM     65  O   UNL A   1      40.672  22.617  26.210  1.00  0.00    -0.237 OA
ATOM     66  O   UNL A   1      42.816  22.201  25.047  1.00  0.00    -0.237 OA
ATOM     67  O   UNL A   1      42.715  22.167  27.511  1.00  0.00    -0.744 OA
ENDBRANCH  60  64
ENDBRANCH  43  57
BRANCH  44  68
ATOM     68  C   UNL A   1      39.321  32.245  35.061  1.00  0.00     0.023 A 
ATOM     69  C   UNL A   1      39.779  33.556  35.260  1.00  0.00     0.031 A 
ATOM     70  C   UNL A   1      38.416  31.711  35.996  1.00  0.00     0.131 A 
ATOM     71  C   UNL A   1      39.346  34.282  36.382  1.00  0.00     0.055 A 
ATOM     72  C   UNL A   1      37.947  32.455  37.078  1.00  0.00     0.041 A 
ATOM     73  F   UNL A   1      37.955  30.457  35.856  1.00  0.00    -0.206 F 
ATOM     74  C   UNL A   1      38.420  33.747  37.281  1.00  0.00     0.022 A 
BRANCH  71  75
ATOM     75  S   UNL A   1      40.063  35.920  36.690  1.00  0.00     0.124 S 
ATOM     76  O   UNL A   1      41.466  35.594  36.911  1.00  0.00    -0.237 OA
ATOM     77  O   UNL A   1      39.756  36.625  35.449  1.00  0.00    -0.237 OA
ATOM     78  O   UNL A   1      39.338  36.392  37.867  1.00  0.00    -0.744 OA
ENDBRANCH  71  75
ENDBRANCH  44  68
BRANCH  56  79
ATOM     79  C   UNL A   1      44.686  27.897  34.238  1.00  0.00     0.023 A 
ATOM     80  C   UNL A   1      44.498  26.930  35.241  1.00  0.00     0.031 A 
ATOM     81  C   UNL A   1      45.946  28.511  34.135  1.00  0.00     0.131 A 
ATOM     82  C   UNL A   1      45.539  26.641  36.137  1.00  0.00     0.055 A 
ATOM     83  C   UNL A   1      46.993  28.186  34.999  1.00  0.00     0.041 A 
ATOM     84  F   UNL A   1      46.178  29.442  33.197  1.00  0.00    -0.206 F 
ATOM     85  C   UNL A   1      46.789  27.255  36.015  1.00  0.00     0.022 A 
BRANCH  82  86
ATOM     86  S   UNL A   1      45.214  25.512  37.519  1.00  0.00     0.124 S 
ATOM     87  O   UNL A   1      45.246  24.209  36.861  1.00  0.00    -0.237 OA
ATOM     88  O   UNL A   1      46.323  25.797  38.423  1.00  0.00    -0.237 OA
ATOM     89  O   UNL A   1      43.899  25.929  38.002  1.00  0.00    -0.744 OA
ENDBRANCH  82  86
ENDBRANCH  56  79
ENDBRANCH  30  31
ENDBRANCH  23  25
ENDBRANCH  22  23
ENDBRANCH  21  22
ENDBRANCH   1  21
TORSDOF 18
ENDMDL
MODEL 3
REMARK VINA RESULT:     -11.7      5.182     10.310
REMARK SMILES C[C@@H](C(=O)OCCOC(=O)c1ccc(-c2c3nc(c(-c4cc(S(=O)(=O)[O-])ccc4F)c4ccc([nH]4)c(-c4cc(S(=O)(=O)[O-])ccc4F)c4nc(c(-c5cc(S(=O)(=O)[O-])ccc5F)c5ccc2[nH]5)C=C4)C=C3)cc1)c1ccc(C[C@H]2CCC[C@H]2O)cc1
REMARK SMILES IDX 6 1 5 2 3 3 4 4 2 5 1 6 74 7 75 8 86 9 76 10 85 11 77 12
REMARK SMILES IDX 78 13 79 14 80 15 83 16 81 17 82 18 84 19 7 21 8 22 9 23
REMARK SMILES IDX 10 24 11 25 12 26 73 27 13 28 72 29 14 30 15 31 16 32 66 33
REMARK SMILES IDX 17 34 71 35 65 36 67 37 18 38 70 39 64 40 63 41 19 43 51 44
REMARK SMILES IDX 31 45 50 46 32 47 35 48 49 49 68 50 33 51 34 52 48 54 69 55
REMARK SMILES IDX 36 56 20 57 21 58 29 59 22 60 28 61 30 62 27 63 23 64 24 65
REMARK SMILES IDX 25 66 26 67 52 68 53 69 61 70 54 71 60 72 62 73 59 74 55 75
REMARK SMILES IDX 56 76 57 77 58 78 37 79 38 80 46 81 39 82 45 83 47 84 44 85
REMARK SMILES IDX 40 86 41 87 42 88 43 89
REMARK H PARENT 84 20 67 42 35 53
REMARK Flexibility Score: inf
ROOT
ATOM      1  C   UNL A   1      35.701  22.182  24.282  1.00  0.00     0.274 C 
ENDROOT
BRANCH   1   2
ATOM      2  O   UNL A   1      34.750  21.099  24.313  1.00  0.00    -0.462 OA
BRANCH   2   3
ATOM      3  C   UNL A   1      33.848  21.107  25.335  1.00  0.00     0.313 C 
ATOM      4  O   UNL A   1      34.160  21.169  26.520  1.00  0.00    -0.252 OA
BRANCH   3   5
ATOM      5  C   UNL A   1      32.403  20.968  24.843  1.00  0.00     0.126 C 
ATOM      6  C   UNL A   1      32.255  20.052  23.623  1.00  0.00     0.025 C 
BRANCH   5   7
ATOM      7  C   UNL A   1      31.742  22.330  24.653  1.00  0.00    -0.034 A 
ATOM      8  C   UNL A   1      31.215  22.999  25.768  1.00  0.00     0.005 A 
ATOM      9  C   UNL A   1      31.681  22.976  23.410  1.00  0.00     0.005 A 
ATOM     10  C   UNL A   1      30.641  24.267  25.643  1.00  0.00     0.004 A 
ATOM     11  C   UNL A   1      31.103  24.245  23.288  1.00  0.00     0.004 A 
ATOM     12  C   UNL A   1      30.570  24.906  24.400  1.00  0.00    -0.048 A 
BRANCH  12  13
ATOM     13  C   UNL A   1      30.003  26.305  24.294  1.00  0.00     0.041 C 
BRANCH  13  14
ATOM     14  C   UNL A   1      30.967  27.490  24.141  1.00  0.00     0.022 C 
ATOM     15  C   UNL A   1      32.422  27.234  24.575  1.00  0.00     0.007 C 
ATOM     16  C   UNL A   1      31.051  28.191  22.773  1.00  0.00     0.117 C 
ATOM     17  C   UNL A   1      33.302  27.844  23.489  1.00  0.00     0.003 C 
ATOM     18  C   UNL A   1      32.415  28.874  22.807  1.00  0.00     0.032 C 
BRANCH  16  19
ATOM     19  O   UNL A   1      31.007  27.321  21.652  1.00  0.00    -0.393 OA
ATOM     20  H   UNL A   1      30.779  27.829  20.857  1.00  0.00     0.210 HD
ENDBRANCH  16  19
ENDBRANCH  13  14
ENDBRANCH  12  13
ENDBRANCH   5   7
ENDBRANCH   3   5
ENDBRANCH   2   3
ENDBRANCH   1   2
BRANCH   1  21
ATOM     21  C   UNL A   1      37.115  21.633  24.441  1.00  0.00     0.275 C 
BRANCH  21  22
ATOM     22  O   UNL A   1      37.514  21.758  25.816  1.00  0.00    -0.458 OA
BRANCH  22  23
ATOM     23  C   UNL A   1      38.836  21.631  26.069  1.00  0.00     0.338 C 
ATOM     24  O   UNL A   1      39.537  20.657  25.833  1.00  0.00    -0.246 OA
BRANCH  23  25
ATOM     25  C   UNL A   1      39.344  22.860  26.711  1.00  0.00     0.060 A 
ATOM     26  C   UNL A   1      38.787  24.101  26.409  1.00  0.00     0.016 A 
ATOM     27  C   UNL A   1      40.462  22.788  27.545  1.00  0.00     0.016 A 
ATOM     28  C   UNL A   1      39.409  25.267  26.860  1.00  0.00     0.010 A 
ATOM     29  C   UNL A   1      41.025  23.961  28.066  1.00  0.00     0.010 A 
ATOM     30  C   UNL A   1      40.541  25.226  27.688  1.00  0.00    -0.014 A 
BRANCH  30  31
ATOM     31  C   UNL A   1      41.266  26.481  28.078  1.00  0.00     0.031 A 
ATOM     32  C   UNL A   1      40.571  27.535  28.916  1.00  0.00     0.074 A 
ATOM     33  C   UNL A   1      42.559  26.683  27.749  1.00  0.00     0.049 A 
ATOM     34  N   UNL A   1      40.927  28.771  29.162  1.00  0.00    -0.248 NA
ATOM     35  C   UNL A   1      39.299  27.148  29.545  1.00  0.00     0.031 C 
ATOM     36  C   UNL A   1      43.408  25.744  27.014  1.00  0.00     0.029 A 
ATOM     37  N   UNL A   1      43.398  27.744  28.008  1.00  0.00    -0.354 N 
ATOM     38  C   UNL A   1      39.886  29.335  29.895  1.00  0.00     0.074 A 
ATOM     39  C   UNL A   1      38.891  28.296  30.066  1.00  0.00     0.031 C 
ATOM     40  C   UNL A   1      44.653  26.236  26.940  1.00  0.00     0.029 A 
ATOM     41  C   UNL A   1      44.669  27.579  27.510  1.00  0.00     0.049 A 
ATOM     42  H   UNL A   1      43.113  28.546  28.504  1.00  0.00     0.167 HD
ATOM     43  C   UNL A   1      39.765  30.601  30.370  1.00  0.00     0.034 A 
ATOM     44  C   UNL A   1      45.720  28.423  27.456  1.00  0.00     0.034 A 
ATOM     45  C   UNL A   1      40.797  31.608  30.269  1.00  0.00     0.049 A 
ATOM     46  C   UNL A   1      45.565  29.827  27.975  1.00  0.00     0.074 A 
ATOM     47  C   UNL A   1      40.773  32.917  30.722  1.00  0.00     0.029 A 
ATOM     48  N   UNL A   1      42.047  31.413  29.700  1.00  0.00    -0.354 N 
ATOM     49  N   UNL A   1      44.519  30.390  28.532  1.00  0.00    -0.248 NA
ATOM     50  C   UNL A   1      46.724  30.718  27.826  1.00  0.00     0.031 C 
ATOM     51  C   UNL A   1      41.989  33.525  30.387  1.00  0.00     0.029 A 
ATOM     52  C   UNL A   1      42.797  32.577  29.781  1.00  0.00     0.049 A 
ATOM     53  H   UNL A   1      42.357  30.569  29.297  1.00  0.00     0.167 HD
ATOM     54  C   UNL A   1      44.892  31.706  28.788  1.00  0.00     0.074 A 
ATOM     55  C   UNL A   1      46.268  31.842  28.359  1.00  0.00     0.031 C 
ATOM     56  C   UNL A   1      44.156  32.715  29.320  1.00  0.00     0.034 A 
BRANCH  43  57
ATOM     57  C   UNL A   1      38.442  30.994  30.984  1.00  0.00     0.023 A 
ATOM     58  C   UNL A   1      37.407  31.577  30.235  1.00  0.00     0.031 A 
ATOM     59  C   UNL A   1      38.225  30.789  32.360  1.00  0.00     0.131 A 
ATOM     60  C   UNL A   1      36.229  31.991  30.876  1.00  0.00     0.055 A 
ATOM     61  C   UNL A   1      37.023  31.135  32.978  1.00  0.00     0.041 A 
ATOM     62  F   UNL A   1      39.185  30.254  33.131  1.00  0.00    -0.206 F 
ATOM     63  C   UNL A   1      36.019  31.752  32.238  1.00  0.00     0.022 A 
BRANCH  60  64
ATOM     64  S   UNL A   1      35.024  32.965  29.934  1.00  0.00     0.124 S 
ATOM     65  O   UNL A   1      34.489  31.964  29.014  1.00  0.00    -0.237 OA
ATOM     66  O   UNL A   1      34.112  33.427  30.974  1.00  0.00    -0.237 OA
ATOM     67  O   UNL A   1      35.836  34.006  29.308  1.00  0.00    -0.744 OA
ENDBRANCH  60  64
ENDBRANCH  43  57
BRANCH  44  68
ATOM     68  C   UNL A   1      46.987  27.998  26.792  1.00  0.00     0.023 A 
ATOM     69  C   UNL A   1      47.125  28.037  25.396  1.00  0.00     0.031 A 
ATOM     70  C   UNL A   1      48.071  27.523  27.552  1.00  0.00     0.131 A 
ATOM     71  C   UNL A   1      48.315  27.585  24.802  1.00  0.00     0.055 A 
ATOM     72  C   UNL A   1      49.270  27.128  26.960  1.00  0.00     0.041 A 
ATOM     73  F   UNL A   1      47.986  27.459  28.890  1.00  0.00    -0.206 F 
ATOM     74  C   UNL A   1      49.394  27.149  25.575  1.00  0.00     0.022 A 
BRANCH  71  75
ATOM     75  S   UNL A   1      48.412  27.513  22.992  1.00  0.00     0.124 S 
ATOM     76  O   UNL A   1      47.237  28.282  22.600  1.00  0.00    -0.237 OA
ATOM     77  O   UNL A   1      49.705  28.137  22.731  1.00  0.00    -0.237 OA
ATOM     78  O   UNL A   1      48.345  26.081  22.705  1.00  0.00    -0.744 OA
ENDBRANCH  71  75
ENDBRANCH  44  68
BRANCH  56  79
ATOM     79  C   UNL A   1      44.844  34.047  29.474  1.00  0.00     0.023 A 
ATOM     80  C   UNL A   1      44.742  35.043  28.487  1.00  0.00     0.031 A 
ATOM     81  C   UNL A   1      45.635  34.311  30.606  1.00  0.00     0.131 A 
ATOM     82  C   UNL A   1      45.463  36.239  28.625  1.00  0.00     0.055 A 
ATOM     83  C   UNL A   1      46.312  35.521  30.760  1.00  0.00     0.041 A 
ATOM     84  F   UNL A   1      45.767  33.393  31.576  1.00  0.00    -0.206 F 
ATOM     85  C   UNL A   1      46.239  36.488  29.761  1.00  0.00     0.022 A 
BRANCH  82  86
ATOM     86  S   UNL A   1      45.442  37.434  27.261  1.00  0.00     0.124 S 
ATOM     87  O   UNL A   1      45.982  38.632  27.897  1.00  0.00    -0.237 OA
ATOM     88  O   UNL A   1      46.302  36.794  26.272  1.00  0.00    -0.237 OA
ATOM     89  O   UNL A   1      44.029  37.511  26.894  1.00  0.00    -0.744 OA
ENDBRANCH  82  86
ENDBRANCH  56  79
ENDBRANCH  30  31
ENDBRANCH  23  25
ENDBRANCH  22  23
ENDBRANCH  21  22
ENDBRANCH   1  21
TORSDOF 18
ENDMDL
