MODEL 1
REMARK VINA RESULT:     -11.2      0.000      0.000
REMARK SMILES O=C(OCCOC(=O)[C@H]1CSC2(CCCCC2)[NH2+]1)c1ccc(-c2c3nc(c(-c4cc(S(=O)(=O)[O-])ccc4F)c4ccc([nH]4)c(-c4cc(S(=O)(=O)[O-])ccc4F)c4nc(c(-c5cc(S(=O)(=O)[O-])ccc5F)c5ccc2[nH]5)C=C4)C=C3)cc1
REMARK SMILES IDX 3 1 2 2 1 3 19 4 20 5 81 6 21 7 80 8 22 9 23 10 24 11 74 12
REMARK SMILES IDX 25 13 79 14 73 15 75 16 26 17 78 18 72 19 71 20 27 22 59 23
REMARK SMILES IDX 39 24 58 25 40 26 43 27 57 28 76 29 41 30 42 31 56 33 77 34
REMARK SMILES IDX 44 35 28 36 29 37 37 38 30 39 36 40 38 41 35 42 31 43 32 44
REMARK SMILES IDX 33 45 34 46 60 47 61 48 69 49 62 50 68 51 70 52 67 53 63 54
REMARK SMILES IDX 64 55 65 56 66 57 45 58 46 59 54 60 47 61 53 62 55 63 52 64
REMARK SMILES IDX 48 65 49 66 50 67 51 68 4 69 5 70 6 71 7 72 8 73 9 74 10 75
REMARK SMILES IDX 18 76 11 77 12 78 13 81 17 82 14 83 16 84 15 85
REMARK H PARENT 75 21 43 32 18 79 18 80
REMARK Flexibility Score: inf
ROOT
ATOM      1  O   UNL A   1      41.664  21.209  25.846  1.00  0.00    -0.458 OA
ENDROOT
BRANCH   1   2
ATOM      2  C   UNL A   1      40.491  21.798  26.161  1.00  0.00     0.338 C 
ATOM      3  O   UNL A   1      39.480  21.367  25.605  1.00  0.00    -0.246 OA
BRANCH   2   4
ATOM      4  C   UNL A   1      40.352  22.944  27.140  1.00  0.00     0.060 A 
ATOM      5  C   UNL A   1      41.133  23.269  28.260  1.00  0.00     0.016 A 
ATOM      6  C   UNL A   1      39.420  23.894  26.757  1.00  0.00     0.016 A 
ATOM      7  C   UNL A   1      41.192  24.585  28.775  1.00  0.00     0.010 A 
ATOM      8  C   UNL A   1      39.496  25.193  27.264  1.00  0.00     0.010 A 
ATOM      9  C   UNL A   1      40.484  25.616  28.173  1.00  0.00    -0.014 A 
BRANCH   9  10
ATOM     10  C   UNL A   1      40.812  27.095  28.354  1.00  0.00     0.031 A 
ATOM     11  C   UNL A   1      42.136  27.637  27.832  1.00  0.00     0.074 A 
ATOM     12  C   UNL A   1      40.113  27.917  29.189  1.00  0.00     0.049 A 
ATOM     13  N   UNL A   1      42.804  28.703  28.200  1.00  0.00    -0.248 NA
ATOM     14  C   UNL A   1      42.864  26.792  26.877  1.00  0.00     0.031 C 
ATOM     15  C   UNL A   1      38.893  27.595  29.939  1.00  0.00     0.029 A 
ATOM     16  N   UNL A   1      40.375  29.220  29.589  1.00  0.00    -0.354 N 
ATOM     17  C   UNL A   1      44.076  28.553  27.651  1.00  0.00     0.074 A 
ATOM     18  C   UNL A   1      44.097  27.247  27.028  1.00  0.00     0.031 C 
ATOM     19  C   UNL A   1      38.515  28.655  30.681  1.00  0.00     0.029 A 
ATOM     20  C   UNL A   1      39.464  29.746  30.488  1.00  0.00     0.049 A 
ATOM     21  H   UNL A   1      41.149  29.731  29.260  1.00  0.00     0.167 HD
ATOM     22  C   UNL A   1      45.108  29.432  27.599  1.00  0.00     0.034 A 
ATOM     23  C   UNL A   1      39.382  30.958  31.087  1.00  0.00     0.034 A 
ATOM     24  C   UNL A   1      44.999  30.816  27.979  1.00  0.00     0.049 A 
ATOM     25  C   UNL A   1      40.425  32.020  30.801  1.00  0.00     0.074 A 
ATOM     26  C   UNL A   1      45.872  31.852  27.689  1.00  0.00     0.029 A 
ATOM     27  N   UNL A   1      43.952  31.367  28.696  1.00  0.00    -0.354 N 
ATOM     28  N   UNL A   1      41.546  31.914  30.130  1.00  0.00    -0.248 NA
ATOM     29  C   UNL A   1      40.173  33.376  31.322  1.00  0.00     0.031 C 
ATOM     30  C   UNL A   1      45.379  33.021  28.273  1.00  0.00     0.029 A 
ATOM     31  C   UNL A   1      44.163  32.725  28.864  1.00  0.00     0.049 A 
ATOM     32  H   UNL A   1      43.173  30.869  29.035  1.00  0.00     0.167 HD
ATOM     33  C   UNL A   1      42.095  33.197  30.105  1.00  0.00     0.074 A 
ATOM     34  C   UNL A   1      41.187  34.062  30.818  1.00  0.00     0.031 C 
ATOM     35  C   UNL A   1      43.250  33.614  29.532  1.00  0.00     0.034 A 
BRANCH  22  36
ATOM     36  C   UNL A   1      46.435  28.966  27.041  1.00  0.00     0.023 A 
ATOM     37  C   UNL A   1      46.629  28.721  25.674  1.00  0.00     0.031 A 
ATOM     38  C   UNL A   1      47.537  28.786  27.898  1.00  0.00     0.131 A 
ATOM     39  C   UNL A   1      47.841  28.190  25.220  1.00  0.00     0.055 A 
ATOM     40  C   UNL A   1      48.785  28.380  27.419  1.00  0.00     0.041 A 
ATOM     41  F   UNL A   1      47.422  29.004  29.217  1.00  0.00    -0.206 F 
ATOM     42  C   UNL A   1      48.936  28.055  26.075  1.00  0.00     0.022 A 
BRANCH  39  43
ATOM     43  S   UNL A   1      47.905  27.532  23.534  1.00  0.00     0.124 S 
ATOM     44  O   UNL A   1      47.567  26.129  23.758  1.00  0.00    -0.237 OA
ATOM     45  O   UNL A   1      46.889  28.324  22.844  1.00  0.00    -0.237 OA
ATOM     46  O   UNL A   1      49.281  27.784  23.119  1.00  0.00    -0.744 OA
ENDBRANCH  39  43
ENDBRANCH  22  36
BRANCH  23  47
ATOM     47  C   UNL A   1      38.253  31.313  32.005  1.00  0.00     0.023 A 
ATOM     48  C   UNL A   1      37.043  31.803  31.479  1.00  0.00     0.031 A 
ATOM     49  C   UNL A   1      38.415  31.329  33.399  1.00  0.00     0.131 A 
ATOM     50  C   UNL A   1      36.087  32.382  32.330  1.00  0.00     0.055 A 
ATOM     51  C   UNL A   1      37.432  31.850  34.248  1.00  0.00     0.041 A 
ATOM     52  F   UNL A   1      39.546  30.866  33.956  1.00  0.00    -0.206 F 
ATOM     53  C   UNL A   1      36.270  32.402  33.713  1.00  0.00     0.022 A 
BRANCH  50  54
ATOM     54  S   UNL A   1      34.671  33.241  31.583  1.00  0.00     0.124 S 
ATOM     55  O   UNL A   1      34.436  32.435  30.390  1.00  0.00    -0.237 OA
ATOM     56  O   UNL A   1      33.667  33.136  32.637  1.00  0.00    -0.237 OA
ATOM     57  O   UNL A   1      35.181  34.589  31.341  1.00  0.00    -0.744 OA
ENDBRANCH  50  54
ENDBRANCH  23  47
BRANCH  35  58
ATOM     58  C   UNL A   1      43.569  35.089  29.545  1.00  0.00     0.023 A 
ATOM     59  C   UNL A   1      42.980  35.993  28.645  1.00  0.00     0.031 A 
ATOM     60  C   UNL A   1      44.454  35.600  30.513  1.00  0.00     0.131 A 
ATOM     61  C   UNL A   1      43.311  37.357  28.710  1.00  0.00     0.055 A 
ATOM     62  C   UNL A   1      44.738  36.962  30.606  1.00  0.00     0.041 A 
ATOM     63  F   UNL A   1      45.047  34.780  31.396  1.00  0.00    -0.206 F 
ATOM     64  C   UNL A   1      44.170  37.849  29.697  1.00  0.00     0.022 A 
BRANCH  61  65
ATOM     65  S   UNL A   1      42.642  38.481  27.453  1.00  0.00     0.124 S 
ATOM     66  O   UNL A   1      42.037  37.552  26.505  1.00  0.00    -0.237 OA
ATOM     67  O   UNL A   1      41.712  39.298  28.227  1.00  0.00    -0.237 OA
ATOM     68  O   UNL A   1      43.823  39.189  26.961  1.00  0.00    -0.744 OA
ENDBRANCH  61  65
ENDBRANCH  35  58
ENDBRANCH   9  10
ENDBRANCH   2   4
ENDBRANCH   1   2
BRANCH   1  69
ATOM     69  C   UNL A   1      42.271  20.157  26.583  1.00  0.00     0.275 C 
BRANCH  69  70
ATOM     70  C   UNL A   1      43.082  19.177  25.708  1.00  0.00     0.274 C 
BRANCH  70  71
ATOM     71  O   UNL A   1      43.550  19.711  24.429  1.00  0.00    -0.458 OA
BRANCH  71  72
ATOM     72  C   UNL A   1      44.897  19.896  24.301  1.00  0.00     0.365 C 
ATOM     73  O   UNL A   1      45.634  18.995  23.892  1.00  0.00    -0.245 OA
BRANCH  72  74
ATOM     74  C   UNL A   1      45.504  21.253  24.777  1.00  0.00     0.304 C 
ATOM     75  C   UNL A   1      44.595  22.343  24.201  1.00  0.00     0.153 C 
ATOM     76  N   UNL A   1      45.685  21.472  26.233  1.00  0.00    -0.320 N 
ATOM     77  S   UNL A   1      44.374  23.631  25.434  1.00  0.00    -0.089 SA
ATOM     78  C   UNL A   1      45.580  22.918  26.591  1.00  0.00     0.143 C 
ATOM     79  H   UNL A   1      46.607  21.131  26.506  1.00  0.00     0.348 HD
ATOM     80  H   UNL A   1      44.948  20.968  26.725  1.00  0.00     0.348 HD
ATOM     81  C   UNL A   1      45.044  23.012  28.022  1.00  0.00     0.081 C 
ATOM     82  C   UNL A   1      46.897  23.734  26.545  1.00  0.00     0.081 C 
ATOM     83  C   UNL A   1      44.884  24.391  28.641  1.00  0.00     0.007 C 
ATOM     84  C   UNL A   1      46.761  25.156  27.147  1.00  0.00     0.007 C 
ATOM     85  C   UNL A   1      46.180  25.173  28.561  1.00  0.00     0.001 C 
ENDBRANCH  72  74
ENDBRANCH  71  72
ENDBRANCH  70  71
ENDBRANCH  69  70
ENDBRANCH   1  69
TORSDOF 14
ENDMDL
MODEL 2
REMARK VINA RESULT:     -10.8      4.312     12.775
REMARK SMILES O=C(OCCOC(=O)[C@H]1CSC2(CCCCC2)[NH2+]1)c1ccc(-c2c3nc(c(-c4cc(S(=O)(=O)[O-])ccc4F)c4ccc([nH]4)c(-c4cc(S(=O)(=O)[O-])ccc4F)c4nc(c(-c5cc(S(=O)(=O)[O-])ccc5F)c5ccc2[nH]5)C=C4)C=C3)cc1
REMARK SMILES IDX 3 1 2 2 1 3 19 4 20 5 81 6 21 7 80 8 22 9 23 10 24 11 74 12
REMARK SMILES IDX 25 13 79 14 73 15 75 16 26 17 78 18 72 19 71 20 27 22 59 23
REMARK SMILES IDX 39 24 58 25 40 26 43 27 57 28 76 29 41 30 42 31 56 33 77 34
REMARK SMILES IDX 44 35 28 36 29 37 37 38 30 39 36 40 38 41 35 42 31 43 32 44
REMARK SMILES IDX 33 45 34 46 60 47 61 48 69 49 62 50 68 51 70 52 67 53 63 54
REMARK SMILES IDX 64 55 65 56 66 57 45 58 46 59 54 60 47 61 53 62 55 63 52 64
REMARK SMILES IDX 48 65 49 66 50 67 51 68 4 69 5 70 6 71 7 72 8 73 9 74 10 75
REMARK SMILES IDX 18 76 11 77 12 78 13 81 17 82 14 83 16 84 15 85
REMARK H PARENT 75 21 43 32 18 79 18 80
REMARK Flexibility Score: inf
ROOT
ATOM      1  O   UNL A   1      33.869  33.109  29.032  1.00  0.00    -0.458 OA
ENDROOT
BRANCH   1   2
ATOM      2  C   UNL A   1      34.230  32.028  28.308  1.00  0.00     0.338 C 
ATOM      3  O   UNL A   1      33.328  31.390  27.764  1.00  0.00    -0.246 OA
BRANCH   2   4
ATOM      4  C   UNL A   1      35.659  31.560  28.136  1.00  0.00     0.060 A 
ATOM      5  C   UNL A   1      36.863  32.229  28.407  1.00  0.00     0.016 A 
ATOM      6  C   UNL A   1      35.772  30.214  27.830  1.00  0.00     0.016 A 
ATOM      7  C   UNL A   1      38.067  31.532  28.658  1.00  0.00     0.010 A 
ATOM      8  C   UNL A   1      36.963  29.534  28.094  1.00  0.00     0.010 A 
ATOM      9  C   UNL A   1      38.096  30.144  28.663  1.00  0.00    -0.014 A 
BRANCH   9  10
ATOM     10  C   UNL A   1      39.185  29.316  29.339  1.00  0.00     0.031 A 
ATOM     11  C   UNL A   1      39.483  29.537  30.816  1.00  0.00     0.074 A 
ATOM     12  C   UNL A   1      40.095  28.572  28.647  1.00  0.00     0.049 A 
ATOM     13  N   UNL A   1      40.574  29.275  31.495  1.00  0.00    -0.248 NA
ATOM     14  C   UNL A   1      38.477  30.276  31.589  1.00  0.00     0.031 C 
ATOM     15  C   UNL A   1      40.127  28.326  27.199  1.00  0.00     0.029 A 
ATOM     16  N   UNL A   1      41.230  27.906  29.088  1.00  0.00    -0.354 N 
ATOM     17  C   UNL A   1      40.437  29.964  32.699  1.00  0.00     0.074 A 
ATOM     18  C   UNL A   1      39.213  30.727  32.592  1.00  0.00     0.031 C 
ATOM     19  C   UNL A   1      41.196  27.569  26.885  1.00  0.00     0.029 A 
ATOM     20  C   UNL A   1      41.955  27.273  28.094  1.00  0.00     0.049 A 
ATOM     21  H   UNL A   1      41.498  27.885  30.035  1.00  0.00     0.167 HD
ATOM     22  C   UNL A   1      41.205  29.918  33.817  1.00  0.00     0.034 A 
ATOM     23  C   UNL A   1      43.089  26.534  28.136  1.00  0.00     0.034 A 
ATOM     24  C   UNL A   1      42.264  28.965  34.020  1.00  0.00     0.049 A 
ATOM     25  C   UNL A   1      43.787  26.283  29.457  1.00  0.00     0.074 A 
ATOM     26  C   UNL A   1      42.895  28.631  35.208  1.00  0.00     0.029 A 
ATOM     27  N   UNL A   1      42.826  28.173  33.036  1.00  0.00    -0.354 N 
ATOM     28  N   UNL A   1      43.539  26.810  30.632  1.00  0.00    -0.248 NA
ATOM     29  C   UNL A   1      44.897  25.312  29.465  1.00  0.00     0.031 C 
ATOM     30  C   UNL A   1      43.873  27.674  34.934  1.00  0.00     0.029 A 
ATOM     31  C   UNL A   1      43.801  27.359  33.589  1.00  0.00     0.049 A 
ATOM     32  H   UNL A   1      42.571  28.185  32.085  1.00  0.00     0.167 HD
ATOM     33  C   UNL A   1      44.422  26.189  31.518  1.00  0.00     0.074 A 
ATOM     34  C   UNL A   1      45.203  25.249  30.752  1.00  0.00     0.031 C 
ATOM     35  C   UNL A   1      44.560  26.384  32.852  1.00  0.00     0.034 A 
BRANCH  22  36
ATOM     36  C   UNL A   1      40.894  30.867  34.953  1.00  0.00     0.023 A 
ATOM     37  C   UNL A   1      39.774  30.703  35.782  1.00  0.00     0.031 A 
ATOM     38  C   UNL A   1      41.753  31.948  35.226  1.00  0.00     0.131 A 
ATOM     39  C   UNL A   1      39.471  31.665  36.751  1.00  0.00     0.055 A 
ATOM     40  C   UNL A   1      41.515  32.832  36.280  1.00  0.00     0.041 A 
ATOM     41  F   UNL A   1      42.844  32.163  34.473  1.00  0.00    -0.206 F 
ATOM     42  C   UNL A   1      40.353  32.708  37.036  1.00  0.00     0.022 A 
BRANCH  39  43
ATOM     43  S   UNL A   1      37.830  31.615  37.517  1.00  0.00     0.124 S 
ATOM     44  O   UNL A   1      38.114  32.152  38.845  1.00  0.00    -0.237 OA
ATOM     45  O   UNL A   1      37.043  32.480  36.641  1.00  0.00    -0.237 OA
ATOM     46  O   UNL A   1      37.476  30.200  37.478  1.00  0.00    -0.744 OA
ENDBRANCH  39  43
ENDBRANCH  22  36
BRANCH  23  47
ATOM     47  C   UNL A   1      43.668  25.902  26.906  1.00  0.00     0.023 A 
ATOM     48  C   UNL A   1      43.257  24.614  26.514  1.00  0.00     0.031 A 
ATOM     49  C   UNL A   1      44.738  26.488  26.212  1.00  0.00     0.131 A 
ATOM     50  C   UNL A   1      43.975  23.914  25.531  1.00  0.00     0.055 A 
ATOM     51  C   UNL A   1      45.411  25.810  25.190  1.00  0.00     0.041 A 
ATOM     52  F   UNL A   1      45.165  27.719  26.538  1.00  0.00    -0.206 F 
ATOM     53  C   UNL A   1      45.045  24.507  24.859  1.00  0.00     0.022 A 
BRANCH  50  54
ATOM     54  S   UNL A   1      43.578  22.164  25.253  1.00  0.00     0.124 S 
ATOM     55  O   UNL A   1      42.124  22.173  25.354  1.00  0.00    -0.237 OA
ATOM     56  O   UNL A   1      44.127  21.940  23.918  1.00  0.00    -0.237 OA
ATOM     57  O   UNL A   1      44.280  21.480  26.336  1.00  0.00    -0.744 OA
ENDBRANCH  50  54
ENDBRANCH  23  47
BRANCH  35  58
ATOM     58  C   UNL A   1      45.516  25.498  33.613  1.00  0.00     0.023 A 
ATOM     59  C   UNL A   1      45.191  24.182  33.980  1.00  0.00     0.031 A 
ATOM     60  C   UNL A   1      46.797  25.979  33.941  1.00  0.00     0.131 A 
ATOM     61  C   UNL A   1      46.124  23.402  34.682  1.00  0.00     0.055 A 
ATOM     62  C   UNL A   1      47.739  25.182  34.592  1.00  0.00     0.041 A 
ATOM     63  F   UNL A   1      47.161  27.230  33.617  1.00  0.00    -0.206 F 
ATOM     64  C   UNL A   1      47.402  23.887  34.974  1.00  0.00     0.022 A 
BRANCH  61  65
ATOM     65  S   UNL A   1      45.631  21.755  35.262  1.00  0.00     0.124 S 
ATOM     66  O   UNL A   1      44.243  21.679  34.820  1.00  0.00    -0.237 OA
ATOM     67  O   UNL A   1      46.571  20.883  34.563  1.00  0.00    -0.237 OA
ATOM     68  O   UNL A   1      45.818  21.829  36.710  1.00  0.00    -0.744 OA
ENDBRANCH  61  65
ENDBRANCH  35  58
ENDBRANCH   9  10
ENDBRANCH   2   4
ENDBRANCH   1   2
BRANCH   1  69
ATOM     69  C   UNL A   1      33.870  34.447  28.553  1.00  0.00     0.275 C 
BRANCH  69  70
ATOM     70  C   UNL A   1      33.311  35.467  29.567  1.00  0.00     0.274 C 
BRANCH  70  71
ATOM     71  O   UNL A   1      32.660  34.895  30.746  1.00  0.00    -0.458 OA
BRANCH  71  72
ATOM     72  C   UNL A   1      32.961  35.469  31.947  1.00  0.00     0.365 C 
ATOM     73  O   UNL A   1      32.274  36.381  32.413  1.00  0.00    -0.245 OA
BRANCH  72  74
ATOM     74  C   UNL A   1      34.259  35.008  32.682  1.00  0.00     0.304 C 
ATOM     75  C   UNL A   1      34.269  33.478  32.594  1.00  0.00     0.153 C 
ATOM     76  N   UNL A   1      35.561  35.543  32.216  1.00  0.00    -0.320 N 
ATOM     77  S   UNL A   1      35.947  32.923  32.275  1.00  0.00    -0.089 SA
ATOM     78  C   UNL A   1      36.673  34.578  32.459  1.00  0.00     0.143 C 
ATOM     79  H   UNL A   1      35.760  36.409  32.716  1.00  0.00     0.348 HD
ATOM     80  H   UNL A   1      35.496  35.707  31.211  1.00  0.00     0.348 HD
ATOM     81  C   UNL A   1      37.737  34.801  31.379  1.00  0.00     0.081 C 
ATOM     82  C   UNL A   1      37.389  34.687  33.830  1.00  0.00     0.081 C 
ATOM     83  C   UNL A   1      39.002  33.961  31.432  1.00  0.00     0.007 C 
ATOM     84  C   UNL A   1      38.672  33.822  33.925  1.00  0.00     0.007 C 
ATOM     85  C   UNL A   1      39.667  34.069  32.791  1.00  0.00     0.001 C 
ENDBRANCH  72  74
ENDBRANCH  71  72
ENDBRANCH  70  71
ENDBRANCH  69  70
ENDBRANCH   1  69
TORSDOF 14
ENDMDL
MODEL 3
REMARK VINA RESULT:     -10.5      4.948      7.194
REMARK SMILES O=C(OCCOC(=O)[C@H]1CSC2(CCCCC2)[NH2+]1)c1ccc(-c2c3nc(c(-c4cc(S(=O)(=O)[O-])ccc4F)c4ccc([nH]4)c(-c4cc(S(=O)(=O)[O-])ccc4F)c4nc(c(-c5cc(S(=O)(=O)[O-])ccc5F)c5ccc2[nH]5)C=C4)C=C3)cc1
REMARK SMILES IDX 3 1 2 2 1 3 19 4 20 5 81 6 21 7 80 8 22 9 23 10 24 11 74 12
REMARK SMILES IDX 25 13 79 14 73 15 75 16 26 17 78 18 72 19 71 20 27 22 59 23
REMARK SMILES IDX 39 24 58 25 40 26 43 27 57 28 76 29 41 30 42 31 56 33 77 34
REMARK SMILES IDX 44 35 28 36 29 37 37 38 30 39 36 40 38 41 35 42 31 43 32 44
REMARK SMILES IDX 33 45 34 46 60 47 61 48 69 49 62 50 68 51 70 52 67 53 63 54
REMARK SMILES IDX 64 55 65 56 66 57 45 58 46 59 54 60 47 61 53 62 55 63 52 64
REMARK SMILES IDX 48 65 49 66 50 67 51 68 4 69 5 70 6 71 7 72 8 73 9 74 10 75
REMARK SMILES IDX 18 76 11 77 12 78 13 81 17 82 14 83 16 84 15 85
REMARK H PARENT 75 21 43 32 18 79 18 80
REMARK Flexibility Score: inf
ROOT
ATOM      1  O   UNL A   1      45.106  23.469  24.999  1.00  0.00    -0.458 OA
ENDROOT
BRANCH   1   2
ATOM      2  C   UNL A   1      45.165  24.818  24.978  1.00  0.00     0.338 C 
ATOM      3  O   UNL A   1      46.223  25.328  24.608  1.00  0.00    -0.246 OA
BRANCH   2   4
ATOM      4  C   UNL A   1      44.023  25.724  25.386  1.00  0.00     0.060 A 
ATOM      5  C   UNL A   1      42.707  25.402  25.754  1.00  0.00     0.016 A 
ATOM      6  C   UNL A   1      44.400  27.042  25.584  1.00  0.00     0.016 A 
ATOM      7  C   UNL A   1      41.922  26.264  26.553  1.00  0.00     0.010 A 
ATOM      8  C   UNL A   1      43.621  27.880  26.385  1.00  0.00     0.010 A 
ATOM      9  C   UNL A   1      42.436  27.465  27.021  1.00  0.00    -0.014 A 
BRANCH   9  10
ATOM     10  C   UNL A   1      41.868  28.231  28.213  1.00  0.00     0.031 A 
ATOM     11  C   UNL A   1      42.548  28.112  29.570  1.00  0.00     0.074 A 
ATOM     12  C   UNL A   1      40.633  28.809  28.207  1.00  0.00     0.049 A 
ATOM     13  N   UNL A   1      42.058  28.317  30.769  1.00  0.00    -0.248 NA
ATOM     14  C   UNL A   1      43.907  27.557  29.581  1.00  0.00     0.031 C 
ATOM     15  C   UNL A   1      39.706  28.919  27.073  1.00  0.00     0.029 A 
ATOM     16  N   UNL A   1      39.910  29.389  29.240  1.00  0.00    -0.354 N 
ATOM     17  C   UNL A   1      42.982  27.757  31.648  1.00  0.00     0.074 A 
ATOM     18  C   UNL A   1      43.990  27.121  30.828  1.00  0.00     0.031 C 
ATOM     19  C   UNL A   1      38.570  29.528  27.464  1.00  0.00     0.029 A 
ATOM     20  C   UNL A   1      38.655  29.849  28.884  1.00  0.00     0.049 A 
ATOM     21  H   UNL A   1      40.262  29.465  30.156  1.00  0.00     0.167 HD
ATOM     22  C   UNL A   1      43.040  27.821  33.003  1.00  0.00     0.034 A 
ATOM     23  C   UNL A   1      37.683  30.465  29.598  1.00  0.00     0.034 A 
ATOM     24  C   UNL A   1      42.195  28.672  33.799  1.00  0.00     0.049 A 
ATOM     25  C   UNL A   1      37.889  30.758  31.071  1.00  0.00     0.074 A 
ATOM     26  C   UNL A   1      42.362  29.042  35.124  1.00  0.00     0.029 A 
ATOM     27  N   UNL A   1      41.053  29.308  33.350  1.00  0.00    -0.354 N 
ATOM     28  N   UNL A   1      38.861  30.368  31.860  1.00  0.00    -0.248 NA
ATOM     29  C   UNL A   1      36.885  31.603  31.742  1.00  0.00     0.031 C 
ATOM     30  C   UNL A   1      41.294  29.862  35.491  1.00  0.00     0.029 A 
ATOM     31  C   UNL A   1      40.502  30.061  34.375  1.00  0.00     0.049 A 
ATOM     32  H   UNL A   1      40.686  29.239  32.439  1.00  0.00     0.167 HD
ATOM     33  C   UNL A   1      38.610  30.969  33.095  1.00  0.00     0.074 A 
ATOM     34  C   UNL A   1      37.405  31.749  32.951  1.00  0.00     0.031 C 
ATOM     35  C   UNL A   1      39.327  30.880  34.241  1.00  0.00     0.034 A 
BRANCH  22  36
ATOM     36  C   UNL A   1      44.097  27.016  33.726  1.00  0.00     0.023 A 
ATOM     37  C   UNL A   1      43.932  25.654  34.019  1.00  0.00     0.031 A 
ATOM     38  C   UNL A   1      45.307  27.623  34.111  1.00  0.00     0.131 A 
ATOM     39  C   UNL A   1      44.891  24.979  34.782  1.00  0.00     0.055 A 
ATOM     40  C   UNL A   1      46.317  26.909  34.759  1.00  0.00     0.041 A 
ATOM     41  F   UNL A   1      45.531  28.923  33.861  1.00  0.00    -0.206 F 
ATOM     42  C   UNL A   1      46.102  25.583  35.121  1.00  0.00     0.022 A 
BRANCH  39  43
ATOM     43  S   UNL A   1      44.453  23.356  35.456  1.00  0.00     0.124 S 
ATOM     44  O   UNL A   1      45.087  22.461  34.491  1.00  0.00    -0.237 OA
ATOM     45  O   UNL A   1      45.062  23.387  36.783  1.00  0.00    -0.237 OA
ATOM     46  O   UNL A   1      42.994  23.359  35.439  1.00  0.00    -0.744 OA
ENDBRANCH  39  43
ENDBRANCH  22  36
BRANCH  23  47
ATOM     47  C   UNL A   1      36.403  30.920  28.966  1.00  0.00     0.023 A 
ATOM     48  C   UNL A   1      35.473  29.974  28.494  1.00  0.00     0.031 A 
ATOM     49  C   UNL A   1      36.166  32.273  28.676  1.00  0.00     0.131 A 
ATOM     50  C   UNL A   1      34.409  30.380  27.673  1.00  0.00     0.055 A 
ATOM     51  C   UNL A   1      35.068  32.679  27.908  1.00  0.00     0.041 A 
ATOM     52  F   UNL A   1      37.014  33.218  29.109  1.00  0.00    -0.206 F 
ATOM     53  C   UNL A   1      34.195  31.728  27.382  1.00  0.00     0.022 A 
BRANCH  50  54
ATOM     54  S   UNL A   1      33.401  29.101  26.869  1.00  0.00     0.124 S 
ATOM     55  O   UNL A   1      32.768  29.857  25.795  1.00  0.00    -0.237 OA
ATOM     56  O   UNL A   1      34.414  28.132  26.462  1.00  0.00    -0.237 OA
ATOM     57  O   UNL A   1      32.506  28.654  27.935  1.00  0.00    -0.744 OA
ENDBRANCH  50  54
ENDBRANCH  23  47
BRANCH  35  58
ATOM     58  C   UNL A   1      38.907  31.724  35.419  1.00  0.00     0.023 A 
ATOM     59  C   UNL A   1      38.254  31.181  36.539  1.00  0.00     0.031 A 
ATOM     60  C   UNL A   1      39.206  33.100  35.431  1.00  0.00     0.131 A 
ATOM     61  C   UNL A   1      37.893  32.015  37.609  1.00  0.00     0.055 A 
ATOM     62  C   UNL A   1      38.892  33.913  36.520  1.00  0.00     0.041 A 
ATOM     63  F   UNL A   1      39.827  33.672  34.387  1.00  0.00    -0.206 F 
ATOM     64  C   UNL A   1      38.225  33.374  37.615  1.00  0.00     0.022 A 
BRANCH  61  65
ATOM     65  S   UNL A   1      36.933  31.316  38.981  1.00  0.00     0.124 S 
ATOM     66  O   UNL A   1      37.888  31.374  40.082  1.00  0.00    -0.237 OA
ATOM     67  O   UNL A   1      35.801  32.233  39.070  1.00  0.00    -0.237 OA
ATOM     68  O   UNL A   1      36.602  29.969  38.517  1.00  0.00    -0.744 OA
ENDBRANCH  61  65
ENDBRANCH  35  58
ENDBRANCH   9  10
ENDBRANCH   2   4
ENDBRANCH   1   2
BRANCH   1  69
ATOM     69  C   UNL A   1      46.104  22.603  24.476  1.00  0.00     0.275 C 
BRANCH  69  70
ATOM     70  C   UNL A   1      45.545  21.266  23.944  1.00  0.00     0.274 C 
BRANCH  70  71
ATOM     71  O   UNL A   1      45.944  20.073  24.690  1.00  0.00    -0.458 OA
BRANCH  71  72
ATOM     72  C   UNL A   1      44.936  19.287  25.170  1.00  0.00     0.365 C 
ATOM     73  O   UNL A   1      45.098  18.080  25.365  1.00  0.00    -0.245 OA
BRANCH  72  74
ATOM     74  C   UNL A   1      43.532  19.936  25.379  1.00  0.00     0.304 C 
ATOM     75  C   UNL A   1      42.745  18.958  26.258  1.00  0.00     0.153 C 
ATOM     76  N   UNL A   1      43.463  21.297  25.963  1.00  0.00    -0.320 N 
ATOM     77  S   UNL A   1      41.789  19.892  27.459  1.00  0.00    -0.089 SA
ATOM     78  C   UNL A   1      42.202  21.505  26.734  1.00  0.00     0.143 C 
ATOM     79  H   UNL A   1      43.506  21.983  25.209  1.00  0.00     0.348 HD
ATOM     80  H   UNL A   1      44.249  21.409  26.604  1.00  0.00     0.348 HD
ATOM     81  C   UNL A   1      42.490  22.516  27.848  1.00  0.00     0.081 C 
ATOM     82  C   UNL A   1      40.990  22.047  25.933  1.00  0.00     0.081 C 
ATOM     83  C   UNL A   1      41.344  22.932  28.756  1.00  0.00     0.007 C 
ATOM     84  C   UNL A   1      39.793  22.457  26.829  1.00  0.00     0.007 C 
ATOM     85  C   UNL A   1      40.166  23.434  27.944  1.00  0.00     0.001 C 
ENDBRANCH  72  74
ENDBRANCH  71  72
ENDBRANCH  70  71
ENDBRANCH  69  70
ENDBRANCH   1  69
TORSDOF 14
ENDMDL
