MODEL 1
REMARK VINA RESULT:     -11.3      0.000      0.000
REMARK SMILES C[C@H](CC#N)[N@@H+](C)Cc1cc(F)cc(/C=C/C(=O)OCCOC(=O)c2ccc(-c3c4nc(c(-c5cc(S(=O)(=O)[O-])ccc5F)c5ccc([nH]5)c(-c5cc(S(=O)(=O)[O-])ccc5F)c5nc(c(-c6cc(S(=O)(=O)[O-])ccc6F)c6ccc3[nH]6)C=C5)C=C4)cc2)c1
REMARK SMILES IDX 19 1 17 2 18 3 16 4 15 5 14 6 9 7 10 8 88 9 11 10 12 11
REMARK SMILES IDX 13 12 8 13 6 14 7 15 2 17 1 18 3 19 4 20 5 21 20 22 21 23
REMARK SMILES IDX 22 24 23 25 24 26 25 27 26 28 87 29 27 30 86 31 28 32 29 33
REMARK SMILES IDX 30 34 80 35 31 36 85 37 79 38 81 39 32 40 84 41 78 42 77 43
REMARK SMILES IDX 33 45 65 46 45 47 64 48 46 49 49 50 63 51 82 52 47 53 48 54
REMARK SMILES IDX 62 56 83 57 50 58 34 59 35 60 43 61 36 62 42 63 44 64 41 65
REMARK SMILES IDX 37 66 38 67 39 68 40 69 66 70 67 71 75 72 68 73 74 74 76 75
REMARK SMILES IDX 73 76 69 77 70 78 71 79 72 80 51 81 52 82 60 83 53 84 59 85
REMARK SMILES IDX 61 86 58 87 54 88 55 89 56 90 57 91
REMARK H PARENT 6 16 81 44 49 55
REMARK Flexibility Score: inf
ROOT
ATOM      1  O   UNL A   1      41.662  20.755  26.328  1.00  0.00    -0.459 OA
ENDROOT
BRANCH   1   2
ATOM      2  C   UNL A   1      40.566  20.029  25.989  1.00  0.00     0.330 C 
ATOM      3  O   UNL A   1      40.547  18.837  25.723  1.00  0.00    -0.247 OA
BRANCH   2   4
ATOM      4  C   UNL A   1      39.338  20.854  25.968  1.00  0.00     0.094 C 
ATOM      5  C   UNL A   1      38.249  20.506  25.270  1.00  0.00     0.016 C 
BRANCH   5   6
ATOM      6  C   UNL A   1      37.006  21.272  25.219  1.00  0.00    -0.022 A 
ATOM      7  C   UNL A   1      34.602  21.139  24.812  1.00  0.00     0.010 A 
ATOM      8  C   UNL A   1      34.594  22.527  24.609  1.00  0.00     0.048 A 
ATOM      9  C   UNL A   1      35.805  20.551  25.214  1.00  0.00     0.018 A 
ATOM     10  C   UNL A   1      35.771  23.265  24.729  1.00  0.00     0.124 A 
ATOM     11  F   UNL A   1      35.739  24.589  24.526  1.00  0.00    -0.207 F 
ATOM     12  C   UNL A   1      36.985  22.647  25.005  1.00  0.00     0.047 A 
BRANCH   7  13
ATOM     13  C   UNL A   1      33.326  20.344  24.649  1.00  0.00     0.299 C 
BRANCH  13  14
ATOM     14  N   UNL A   1      33.321  19.118  23.822  1.00  0.00    -0.331 N 
ATOM     15  C   UNL A   1      32.178  19.080  22.912  1.00  0.00     0.333 C 
ATOM     16  H   UNL A   1      34.198  19.289  23.330  1.00  0.00     0.348 HD
BRANCH  14  17
ATOM     17  C   UNL A   1      33.758  17.793  24.314  1.00  0.00     0.195 C 
ATOM     18  C   UNL A   1      34.109  16.733  23.261  1.00  0.00     0.076 C 
BRANCH  17  19
ATOM     19  C   UNL A   1      33.007  17.104  25.485  1.00  0.00     0.184 C 
BRANCH  19  20
ATOM     20  C   UNL A   1      33.078  15.587  25.486  1.00  0.00     0.068 C 
ATOM     21  N   UNL A   1      33.138  14.327  25.486  1.00  0.00    -0.198 NA
ENDBRANCH  19  20
ENDBRANCH  17  19
ENDBRANCH  14  17
ENDBRANCH  13  14
ENDBRANCH   7  13
ENDBRANCH   5   6
ENDBRANCH   2   4
ENDBRANCH   1   2
BRANCH   1  22
ATOM     22  C   UNL A   1      42.927  20.275  25.842  1.00  0.00     0.275 C 
BRANCH  22  23
ATOM     23  C   UNL A   1      43.848  21.436  25.456  1.00  0.00     0.275 C 
BRANCH  23  24
ATOM     24  O   UNL A   1      43.105  22.554  24.940  1.00  0.00    -0.458 OA
BRANCH  24  25
ATOM     25  C   UNL A   1      43.758  23.743  24.991  1.00  0.00     0.338 C 
ATOM     26  O   UNL A   1      44.587  24.155  24.197  1.00  0.00    -0.246 OA
BRANCH  25  27
ATOM     27  C   UNL A   1      43.204  24.562  26.084  1.00  0.00     0.060 A 
ATOM     28  C   UNL A   1      43.732  25.844  26.264  1.00  0.00     0.016 A 
ATOM     29  C   UNL A   1      42.207  24.084  26.938  1.00  0.00     0.016 A 
ATOM     30  C   UNL A   1      43.252  26.663  27.283  1.00  0.00     0.010 A 
ATOM     31  C   UNL A   1      41.732  24.902  27.969  1.00  0.00     0.010 A 
ATOM     32  C   UNL A   1      42.250  26.197  28.145  1.00  0.00    -0.014 A 
BRANCH  32  33
ATOM     33  C   UNL A   1      41.762  27.074  29.237  1.00  0.00     0.031 A 
ATOM     34  C   UNL A   1      42.507  27.138  30.538  1.00  0.00     0.074 A 
ATOM     35  C   UNL A   1      40.677  27.844  29.036  1.00  0.00     0.049 A 
ATOM     36  N   UNL A   1      42.217  27.812  31.621  1.00  0.00    -0.248 NA
ATOM     37  C   UNL A   1      43.741  26.344  30.632  1.00  0.00     0.031 C 
ATOM     38  C   UNL A   1      39.911  27.908  27.789  1.00  0.00     0.029 A 
ATOM     39  N   UNL A   1      40.039  28.730  29.866  1.00  0.00    -0.354 N 
ATOM     40  C   UNL A   1      43.231  27.527  32.529  1.00  0.00     0.074 A 
ATOM     41  C   UNL A   1      44.131  26.601  31.873  1.00  0.00     0.031 C 
ATOM     42  C   UNL A   1      38.915  28.797  27.934  1.00  0.00     0.029 A 
ATOM     43  C   UNL A   1      38.944  29.331  29.294  1.00  0.00     0.049 A 
ATOM     44  H   UNL A   1      40.337  28.917  30.785  1.00  0.00     0.167 HD
ATOM     45  C   UNL A   1      43.391  27.997  33.789  1.00  0.00     0.034 A 
ATOM     46  C   UNL A   1      38.049  30.197  29.812  1.00  0.00     0.034 A 
ATOM     47  C   UNL A   1      42.483  28.914  34.431  1.00  0.00     0.049 A 
ATOM     48  C   UNL A   1      38.203  30.640  31.243  1.00  0.00     0.074 A 
ATOM     49  C   UNL A   1      42.549  29.437  35.711  1.00  0.00     0.029 A 
ATOM     50  N   UNL A   1      41.341  29.445  33.845  1.00  0.00    -0.354 N 
ATOM     51  N   UNL A   1      39.132  30.312  32.110  1.00  0.00    -0.248 NA
ATOM     52  C   UNL A   1      37.184  31.560  31.768  1.00  0.00     0.031 C 
ATOM     53  C   UNL A   1      41.420  30.239  35.917  1.00  0.00     0.029 A 
ATOM     54  C   UNL A   1      40.684  30.269  34.745  1.00  0.00     0.049 A 
ATOM     55  H   UNL A   1      41.043  29.262  32.924  1.00  0.00     0.167 HD
ATOM     56  C   UNL A   1      38.819  30.999  33.278  1.00  0.00     0.074 A 
ATOM     57  C   UNL A   1      37.617  31.761  33.005  1.00  0.00     0.031 C 
ATOM     58  C   UNL A   1      39.475  31.006  34.465  1.00  0.00     0.034 A 
BRANCH  45  59
ATOM     59  C   UNL A   1      44.567  27.485  34.577  1.00  0.00     0.023 A 
ATOM     60  C   UNL A   1      44.506  26.284  35.303  1.00  0.00     0.031 A 
ATOM     61  C   UNL A   1      45.774  28.207  34.588  1.00  0.00     0.131 A 
ATOM     62  C   UNL A   1      45.622  25.859  36.042  1.00  0.00     0.055 A 
ATOM     63  C   UNL A   1      46.898  27.750  35.277  1.00  0.00     0.041 A 
ATOM     64  F   UNL A   1      45.879  29.371  33.928  1.00  0.00    -0.206 F 
ATOM     65  C   UNL A   1      46.824  26.572  36.015  1.00  0.00     0.022 A 
BRANCH  62  66
ATOM     66  S   UNL A   1      45.464  24.394  37.100  1.00  0.00     0.124 S 
ATOM     67  O   UNL A   1      44.690  24.924  38.219  1.00  0.00    -0.237 OA
ATOM     68  O   UNL A   1      44.773  23.448  36.233  1.00  0.00    -0.237 OA
ATOM     69  O   UNL A   1      46.850  24.051  37.417  1.00  0.00    -0.744 OA
ENDBRANCH  62  66
ENDBRANCH  45  59
BRANCH  46  70
ATOM     70  C   UNL A   1      36.906  30.665  28.983  1.00  0.00     0.023 A 
ATOM     71  C   UNL A   1      35.964  29.762  28.466  1.00  0.00     0.031 A 
ATOM     72  C   UNL A   1      36.740  32.033  28.702  1.00  0.00     0.131 A 
ATOM     73  C   UNL A   1      34.904  30.239  27.680  1.00  0.00     0.055 A 
ATOM     74  C   UNL A   1      35.663  32.505  27.951  1.00  0.00     0.041 A 
ATOM     75  F   UNL A   1      37.614  32.934  29.179  1.00  0.00    -0.206 F 
ATOM     76  C   UNL A   1      34.739  31.604  27.431  1.00  0.00     0.022 A 
BRANCH  73  77
ATOM     77  S   UNL A   1      33.739  29.045  26.965  1.00  0.00     0.124 S 
ATOM     78  O   UNL A   1      34.635  27.977  26.538  1.00  0.00    -0.237 OA
ATOM     79  O   UNL A   1      32.874  28.743  28.101  1.00  0.00    -0.237 OA
ATOM     80  O   UNL A   1      33.102  29.796  25.886  1.00  0.00    -0.744 OA
ENDBRANCH  73  77
ENDBRANCH  46  70
BRANCH  58  81
ATOM     81  C   UNL A   1      38.925  31.887  35.554  1.00  0.00     0.023 A 
ATOM     82  C   UNL A   1      38.262  31.353  36.671  1.00  0.00     0.031 A 
ATOM     83  C   UNL A   1      39.102  33.281  35.486  1.00  0.00     0.131 A 
ATOM     84  C   UNL A   1      37.776  32.212  37.669  1.00  0.00     0.055 A 
ATOM     85  C   UNL A   1      38.654  34.127  36.500  1.00  0.00     0.041 A 
ATOM     86  F   UNL A   1      39.732  33.838  34.440  1.00  0.00    -0.206 F 
ATOM     87  C   UNL A   1      37.982  33.593  37.598  1.00  0.00     0.022 A 
BRANCH  84  88
ATOM     88  S   UNL A   1      36.846  31.506  39.057  1.00  0.00     0.124 S 
ATOM     89  O   UNL A   1      37.775  31.693  40.168  1.00  0.00    -0.237 OA
ATOM     90  O   UNL A   1      35.644  32.332  39.086  1.00  0.00    -0.237 OA
ATOM     91  O   UNL A   1      36.633  30.117  38.655  1.00  0.00    -0.744 OA
ENDBRANCH  84  88
ENDBRANCH  58  81
ENDBRANCH  32  33
ENDBRANCH  25  27
ENDBRANCH  24  25
ENDBRANCH  23  24
ENDBRANCH  22  23
ENDBRANCH   1  22
TORSDOF 20
ENDMDL
MODEL 2
REMARK VINA RESULT:     -10.8      2.765      8.669
REMARK SMILES C[C@H](CC#N)[N@@H+](C)Cc1cc(F)cc(/C=C/C(=O)OCCOC(=O)c2ccc(-c3c4nc(c(-c5cc(S(=O)(=O)[O-])ccc5F)c5ccc([nH]5)c(-c5cc(S(=O)(=O)[O-])ccc5F)c5nc(c(-c6cc(S(=O)(=O)[O-])ccc6F)c6ccc3[nH]6)C=C5)C=C4)cc2)c1
REMARK SMILES IDX 19 1 17 2 18 3 16 4 15 5 14 6 9 7 10 8 88 9 11 10 12 11
REMARK SMILES IDX 13 12 8 13 6 14 7 15 2 17 1 18 3 19 4 20 5 21 20 22 21 23
REMARK SMILES IDX 22 24 23 25 24 26 25 27 26 28 87 29 27 30 86 31 28 32 29 33
REMARK SMILES IDX 30 34 80 35 31 36 85 37 79 38 81 39 32 40 84 41 78 42 77 43
REMARK SMILES IDX 33 45 65 46 45 47 64 48 46 49 49 50 63 51 82 52 47 53 48 54
REMARK SMILES IDX 62 56 83 57 50 58 34 59 35 60 43 61 36 62 42 63 44 64 41 65
REMARK SMILES IDX 37 66 38 67 39 68 40 69 66 70 67 71 75 72 68 73 74 74 76 75
REMARK SMILES IDX 73 76 69 77 70 78 71 79 72 80 51 81 52 82 60 83 53 84 59 85
REMARK SMILES IDX 61 86 58 87 54 88 55 89 56 90 57 91
REMARK H PARENT 6 16 81 44 49 55
REMARK Flexibility Score: inf
ROOT
ATOM      1  O   UNL A   1      31.278  29.098  23.822  1.00  0.00    -0.459 OA
ENDROOT
BRANCH   1   2
ATOM      2  C   UNL A   1      30.702  28.065  23.155  1.00  0.00     0.330 C 
ATOM      3  O   UNL A   1      30.238  28.108  22.026  1.00  0.00    -0.247 OA
BRANCH   2   4
ATOM      4  C   UNL A   1      30.684  26.824  23.961  1.00  0.00     0.094 C 
ATOM      5  C   UNL A   1      31.580  25.843  23.791  1.00  0.00     0.016 C 
BRANCH   5   6
ATOM      6  C   UNL A   1      31.621  24.602  24.562  1.00  0.00    -0.022 A 
ATOM      7  C   UNL A   1      32.140  22.218  24.469  1.00  0.00     0.010 A 
ATOM      8  C   UNL A   1      31.370  22.040  25.629  1.00  0.00     0.048 A 
ATOM      9  C   UNL A   1      32.330  23.527  24.014  1.00  0.00     0.018 A 
ATOM     10  C   UNL A   1      30.757  23.131  26.244  1.00  0.00     0.124 A 
ATOM     11  F   UNL A   1      30.023  22.935  27.347  1.00  0.00    -0.207 F 
ATOM     12  C   UNL A   1      30.851  24.409  25.706  1.00  0.00     0.047 A 
BRANCH   7  13
ATOM     13  C   UNL A   1      32.774  21.024  23.794  1.00  0.00     0.299 C 
BRANCH  13  14
ATOM     14  N   UNL A   1      33.642  20.111  24.569  1.00  0.00    -0.331 N 
ATOM     15  C   UNL A   1      34.945  20.707  24.853  1.00  0.00     0.333 C 
ATOM     16  H   UNL A   1      33.056  20.053  25.403  1.00  0.00     0.348 HD
BRANCH  14  17
ATOM     17  C   UNL A   1      33.666  18.643  24.381  1.00  0.00     0.195 C 
ATOM     18  C   UNL A   1      32.399  17.866  24.760  1.00  0.00     0.076 C 
BRANCH  17  19
ATOM     19  C   UNL A   1      34.907  17.818  24.812  1.00  0.00     0.184 C 
BRANCH  19  20
ATOM     20  C   UNL A   1      34.650  16.334  25.010  1.00  0.00     0.068 C 
ATOM     21  N   UNL A   1      34.437  15.102  25.175  1.00  0.00    -0.198 NA
ENDBRANCH  19  20
ENDBRANCH  17  19
ENDBRANCH  14  17
ENDBRANCH  13  14
ENDBRANCH   7  13
ENDBRANCH   5   6
ENDBRANCH   2   4
ENDBRANCH   1   2
BRANCH   1  22
ATOM     22  C   UNL A   1      31.412  28.951  25.245  1.00  0.00     0.275 C 
BRANCH  22  23
ATOM     23  C   UNL A   1      31.707  30.295  25.916  1.00  0.00     0.275 C 
BRANCH  23  24
ATOM     24  O   UNL A   1      33.118  30.491  26.116  1.00  0.00    -0.458 OA
BRANCH  24  25
ATOM     25  C   UNL A   1      33.437  31.474  26.995  1.00  0.00     0.338 C 
ATOM     26  O   UNL A   1      32.759  32.446  27.281  1.00  0.00    -0.246 OA
BRANCH  25  27
ATOM     27  C   UNL A   1      34.685  31.120  27.697  1.00  0.00     0.060 A 
ATOM     28  C   UNL A   1      34.837  29.798  28.122  1.00  0.00     0.016 A 
ATOM     29  C   UNL A   1      35.680  32.065  27.960  1.00  0.00     0.016 A 
ATOM     30  C   UNL A   1      35.992  29.406  28.794  1.00  0.00     0.010 A 
ATOM     31  C   UNL A   1      36.836  31.674  28.645  1.00  0.00     0.010 A 
ATOM     32  C   UNL A   1      36.999  30.342  29.063  1.00  0.00    -0.014 A 
BRANCH  32  33
ATOM     33  C   UNL A   1      38.215  29.914  29.795  1.00  0.00     0.031 A 
ATOM     34  C   UNL A   1      38.482  30.433  31.178  1.00  0.00     0.074 A 
ATOM     35  C   UNL A   1      39.051  29.022  29.231  1.00  0.00     0.049 A 
ATOM     36  N   UNL A   1      39.506  30.208  31.960  1.00  0.00    -0.248 NA
ATOM     37  C   UNL A   1      37.462  31.320  31.757  1.00  0.00     0.031 C 
ATOM     38  C   UNL A   1      38.859  28.404  27.918  1.00  0.00     0.029 A 
ATOM     39  N   UNL A   1      40.218  28.469  29.693  1.00  0.00    -0.354 N 
ATOM     40  C   UNL A   1      39.257  30.922  33.127  1.00  0.00     0.074 A 
ATOM     41  C   UNL A   1      37.994  31.606  32.938  1.00  0.00     0.031 C 
ATOM     42  C   UNL A   1      39.866  27.546  27.688  1.00  0.00     0.029 A 
ATOM     43  C   UNL A   1      40.797  27.588  28.813  1.00  0.00     0.049 A 
ATOM     44  H   UNL A   1      40.605  28.685  30.573  1.00  0.00     0.167 HD
ATOM     45  C   UNL A   1      40.014  30.996  34.247  1.00  0.00     0.034 A 
ATOM     46  C   UNL A   1      41.958  26.906  28.891  1.00  0.00     0.034 A 
ATOM     47  C   UNL A   1      41.273  30.315  34.419  1.00  0.00     0.049 A 
ATOM     48  C   UNL A   1      42.823  27.071  30.113  1.00  0.00     0.074 A 
ATOM     49  C   UNL A   1      42.124  30.338  35.510  1.00  0.00     0.029 A 
ATOM     50  N   UNL A   1      41.865  29.487  33.474  1.00  0.00    -0.354 N 
ATOM     51  N   UNL A   1      42.605  27.800  31.182  1.00  0.00    -0.248 NA
ATOM     52  C   UNL A   1      44.092  26.331  30.135  1.00  0.00     0.031 C 
ATOM     53  C   UNL A   1      43.254  29.572  35.204  1.00  0.00     0.029 A 
ATOM     54  C   UNL A   1      43.080  29.016  33.948  1.00  0.00     0.049 A 
ATOM     55  H   UNL A   1      41.479  29.268  32.595  1.00  0.00     0.167 HD
ATOM     56  C   UNL A   1      43.702  27.593  32.012  1.00  0.00     0.074 A 
ATOM     57  C   UNL A   1      44.579  26.670  31.321  1.00  0.00     0.031 C 
ATOM     58  C   UNL A   1      43.953  28.113  33.239  1.00  0.00     0.034 A 
BRANCH  45  59
ATOM     59  C   UNL A   1      39.526  31.888  35.358  1.00  0.00     0.023 A 
ATOM     60  C   UNL A   1      39.964  33.216  35.488  1.00  0.00     0.031 A 
ATOM     61  C   UNL A   1      38.595  31.401  36.293  1.00  0.00     0.131 A 
ATOM     62  C   UNL A   1      39.498  34.002  36.553  1.00  0.00     0.055 A 
ATOM     63  C   UNL A   1      38.092  32.205  37.316  1.00  0.00     0.041 A 
ATOM     64  F   UNL A   1      38.161  30.132  36.226  1.00  0.00    -0.206 F 
ATOM     65  C   UNL A   1      38.548  33.513  37.454  1.00  0.00     0.022 A 
BRANCH  62  66
ATOM     66  S   UNL A   1      40.202  35.657  36.793  1.00  0.00     0.124 S 
ATOM     67  O   UNL A   1      39.714  35.991  38.128  1.00  0.00    -0.237 OA
ATOM     68  O   UNL A   1      41.634  35.413  36.676  1.00  0.00    -0.237 OA
ATOM     69  O   UNL A   1      39.613  36.440  35.708  1.00  0.00    -0.744 OA
ENDBRANCH  62  66
ENDBRANCH  45  59
BRANCH  46  70
ATOM     70  C   UNL A   1      42.388  26.042  27.760  1.00  0.00     0.023 A 
ATOM     71  C   UNL A   1      41.963  24.708  27.659  1.00  0.00     0.031 A 
ATOM     72  C   UNL A   1      43.232  26.549  26.755  1.00  0.00     0.131 A 
ATOM     73  C   UNL A   1      42.397  23.920  26.582  1.00  0.00     0.055 A 
ATOM     74  C   UNL A   1      43.630  25.772  25.666  1.00  0.00     0.041 A 
ATOM     75  F   UNL A   1      43.660  27.820  26.807  1.00  0.00    -0.206 F 
ATOM     76  C   UNL A   1      43.215  24.446  25.579  1.00  0.00     0.022 A 
BRANCH  73  77
ATOM     77  S   UNL A   1      41.890  22.179  26.511  1.00  0.00     0.124 S 
ATOM     78  O   UNL A   1      42.306  21.696  27.822  1.00  0.00    -0.237 OA
ATOM     79  O   UNL A   1      40.451  22.287  26.293  1.00  0.00    -0.237 OA
ATOM     80  O   UNL A   1      42.649  21.650  25.380  1.00  0.00    -0.744 OA
ENDBRANCH  73  77
ENDBRANCH  46  70
BRANCH  58  81
ATOM     81  C   UNL A   1      45.216  27.673  33.931  1.00  0.00     0.023 A 
ATOM     82  C   UNL A   1      45.246  26.539  34.759  1.00  0.00     0.031 A 
ATOM     83  C   UNL A   1      46.413  28.382  33.726  1.00  0.00     0.131 A 
ATOM     84  C   UNL A   1      46.448  26.159  35.375  1.00  0.00     0.055 A 
ATOM     85  C   UNL A   1      47.613  27.976  34.308  1.00  0.00     0.041 A 
ATOM     86  F   UNL A   1      46.434  29.471  32.941  1.00  0.00    -0.206 F 
ATOM     87  C   UNL A   1      47.635  26.861  35.142  1.00  0.00     0.022 A 
BRANCH  84  88
ATOM     88  S   UNL A   1      46.442  24.743  36.510  1.00  0.00     0.124 S 
ATOM     89  O   UNL A   1      47.574  23.961  36.021  1.00  0.00    -0.237 OA
ATOM     90  O   UNL A   1      46.621  25.379  37.811  1.00  0.00    -0.237 OA
ATOM     91  O   UNL A   1      45.130  24.137  36.294  1.00  0.00    -0.744 OA
ENDBRANCH  84  88
ENDBRANCH  58  81
ENDBRANCH  32  33
ENDBRANCH  25  27
ENDBRANCH  24  25
ENDBRANCH  23  24
ENDBRANCH  22  23
ENDBRANCH   1  22
TORSDOF 20
ENDMDL
MODEL 3
REMARK VINA RESULT:     -10.7      5.206      9.273
REMARK SMILES C[C@H](CC#N)[N@@H+](C)Cc1cc(F)cc(/C=C/C(=O)OCCOC(=O)c2ccc(-c3c4nc(c(-c5cc(S(=O)(=O)[O-])ccc5F)c5ccc([nH]5)c(-c5cc(S(=O)(=O)[O-])ccc5F)c5nc(c(-c6cc(S(=O)(=O)[O-])ccc6F)c6ccc3[nH]6)C=C5)C=C4)cc2)c1
REMARK SMILES IDX 19 1 17 2 18 3 16 4 15 5 14 6 9 7 10 8 88 9 11 10 12 11
REMARK SMILES IDX 13 12 8 13 6 14 7 15 2 17 1 18 3 19 4 20 5 21 20 22 21 23
REMARK SMILES IDX 22 24 23 25 24 26 25 27 26 28 87 29 27 30 86 31 28 32 29 33
REMARK SMILES IDX 30 34 80 35 31 36 85 37 79 38 81 39 32 40 84 41 78 42 77 43
REMARK SMILES IDX 33 45 65 46 45 47 64 48 46 49 49 50 63 51 82 52 47 53 48 54
REMARK SMILES IDX 62 56 83 57 50 58 34 59 35 60 43 61 36 62 42 63 44 64 41 65
REMARK SMILES IDX 37 66 38 67 39 68 40 69 66 70 67 71 75 72 68 73 74 74 76 75
REMARK SMILES IDX 73 76 69 77 70 78 71 79 72 80 51 81 52 82 60 83 53 84 59 85
REMARK SMILES IDX 61 86 58 87 54 88 55 89 56 90 57 91
REMARK H PARENT 6 16 81 44 49 55
REMARK Flexibility Score: inf
ROOT
ATOM      1  O   UNL A   1      38.793  21.847  26.050  1.00  0.00    -0.459 OA
ENDROOT
BRANCH   1   2
ATOM      2  C   UNL A   1      38.018  22.953  25.915  1.00  0.00     0.330 C 
ATOM      3  O   UNL A   1      38.278  24.068  26.338  1.00  0.00    -0.247 OA
BRANCH   2   4
ATOM      4  C   UNL A   1      36.770  22.669  25.173  1.00  0.00     0.094 C 
ATOM      5  C   UNL A   1      35.852  23.612  24.922  1.00  0.00     0.016 C 
BRANCH   5   6
ATOM      6  C   UNL A   1      34.608  23.396  24.186  1.00  0.00    -0.022 A 
ATOM      7  C   UNL A   1      32.901  21.749  23.605  1.00  0.00     0.010 A 
ATOM      8  C   UNL A   1      32.518  22.575  22.536  1.00  0.00     0.048 A 
ATOM      9  C   UNL A   1      33.885  22.232  24.474  1.00  0.00     0.018 A 
ATOM     10  C   UNL A   1      33.162  23.792  22.318  1.00  0.00     0.124 A 
ATOM     11  F   UNL A   1      32.781  24.560  21.289  1.00  0.00    -0.207 F 
ATOM     12  C   UNL A   1      34.224  24.199  23.116  1.00  0.00     0.047 A 
BRANCH   7  13
ATOM     13  C   UNL A   1      32.218  20.418  23.813  1.00  0.00     0.299 C 
BRANCH  13  14
ATOM     14  N   UNL A   1      32.958  19.161  23.571  1.00  0.00    -0.331 N 
ATOM     15  C   UNL A   1      32.294  18.319  22.579  1.00  0.00     0.333 C 
ATOM     16  H   UNL A   1      33.814  19.582  23.207  1.00  0.00     0.348 HD
BRANCH  14  17
ATOM     17  C   UNL A   1      33.677  18.413  24.627  1.00  0.00     0.195 C 
ATOM     18  C   UNL A   1      35.209  18.488  24.622  1.00  0.00     0.076 C 
BRANCH  17  19
ATOM     19  C   UNL A   1      33.248  16.968  24.995  1.00  0.00     0.184 C 
BRANCH  19  20
ATOM     20  C   UNL A   1      34.391  15.977  25.133  1.00  0.00     0.068 C 
ATOM     21  N   UNL A   1      35.340  15.155  25.247  1.00  0.00    -0.198 NA
ENDBRANCH  19  20
ENDBRANCH  17  19
ENDBRANCH  14  17
ENDBRANCH  13  14
ENDBRANCH   7  13
ENDBRANCH   5   6
ENDBRANCH   2   4
ENDBRANCH   1   2
BRANCH   1  22
ATOM     22  C   UNL A   1      38.290  20.632  25.469  1.00  0.00     0.275 C 
BRANCH  22  23
ATOM     23  C   UNL A   1      39.396  19.583  25.332  1.00  0.00     0.275 C 
BRANCH  23  24
ATOM     24  O   UNL A   1      40.340  19.663  26.414  1.00  0.00    -0.458 OA
BRANCH  24  25
ATOM     25  C   UNL A   1      41.620  19.907  26.035  1.00  0.00     0.338 C 
ATOM     26  O   UNL A   1      42.324  19.195  25.340  1.00  0.00    -0.246 OA
BRANCH  25  27
ATOM     27  C   UNL A   1      42.009  21.264  26.462  1.00  0.00     0.060 A 
ATOM     28  C   UNL A   1      42.170  22.234  25.469  1.00  0.00     0.016 A 
ATOM     29  C   UNL A   1      42.240  21.582  27.803  1.00  0.00     0.016 A 
ATOM     30  C   UNL A   1      42.540  23.532  25.810  1.00  0.00     0.010 A 
ATOM     31  C   UNL A   1      42.623  22.883  28.145  1.00  0.00     0.010 A 
ATOM     32  C   UNL A   1      42.773  23.866  27.152  1.00  0.00    -0.014 A 
BRANCH  32  33
ATOM     33  C   UNL A   1      43.185  25.247  27.498  1.00  0.00     0.031 A 
ATOM     34  C   UNL A   1      42.192  26.199  28.100  1.00  0.00     0.074 A 
ATOM     35  C   UNL A   1      44.463  25.626  27.313  1.00  0.00     0.049 A 
ATOM     36  N   UNL A   1      42.350  27.454  28.433  1.00  0.00    -0.248 NA
ATOM     37  C   UNL A   1      40.847  25.668  28.365  1.00  0.00     0.031 C 
ATOM     38  C   UNL A   1      45.527  24.765  26.793  1.00  0.00     0.029 A 
ATOM     39  N   UNL A   1      45.089  26.822  27.555  1.00  0.00    -0.354 N 
ATOM     40  C   UNL A   1      41.127  27.867  28.948  1.00  0.00     0.074 A 
ATOM     41  C   UNL A   1      40.231  26.732  28.863  1.00  0.00     0.031 C 
ATOM     42  C   UNL A   1      46.677  25.460  26.769  1.00  0.00     0.029 A 
ATOM     43  C   UNL A   1      46.423  26.823  27.226  1.00  0.00     0.049 A 
ATOM     44  H   UNL A   1      44.625  27.607  27.928  1.00  0.00     0.167 HD
ATOM     45  C   UNL A   1      40.789  29.080  29.446  1.00  0.00     0.034 A 
ATOM     46  C   UNL A   1      47.335  27.816  27.268  1.00  0.00     0.034 A 
ATOM     47  C   UNL A   1      41.689  30.204  29.519  1.00  0.00     0.049 A 
ATOM     48  C   UNL A   1      46.911  29.180  27.747  1.00  0.00     0.074 A 
ATOM     49  C   UNL A   1      41.438  31.480  29.992  1.00  0.00     0.029 A 
ATOM     50  N   UNL A   1      43.016  30.189  29.108  1.00  0.00    -0.354 N 
ATOM     51  N   UNL A   1      45.734  29.573  28.172  1.00  0.00    -0.248 NA
ATOM     52  C   UNL A   1      47.935  30.234  27.742  1.00  0.00     0.031 C 
ATOM     53  C   UNL A   1      42.593  32.250  29.815  1.00  0.00     0.029 A 
ATOM     54  C   UNL A   1      43.586  31.438  29.293  1.00  0.00     0.049 A 
ATOM     55  H   UNL A   1      43.482  29.404  28.738  1.00  0.00     0.167 HD
ATOM     56  C   UNL A   1      45.879  30.916  28.502  1.00  0.00     0.074 A 
ATOM     57  C   UNL A   1      47.259  31.266  28.229  1.00  0.00     0.031 C 
ATOM     58  C   UNL A   1      44.957  31.778  28.996  1.00  0.00     0.034 A 
BRANCH  45  59
ATOM     59  C   UNL A   1      39.367  29.273  29.903  1.00  0.00     0.023 A 
ATOM     60  C   UNL A   1      38.402  29.883  29.085  1.00  0.00     0.031 A 
ATOM     61  C   UNL A   1      38.970  28.822  31.175  1.00  0.00     0.131 A 
ATOM     62  C   UNL A   1      37.094  30.060  29.562  1.00  0.00     0.055 A 
ATOM     63  C   UNL A   1      37.654  28.950  31.622  1.00  0.00     0.041 A 
ATOM     64  F   UNL A   1      39.858  28.251  32.004  1.00  0.00    -0.206 F 
ATOM     65  C   UNL A   1      36.709  29.577  30.816  1.00  0.00     0.022 A 
BRANCH  62  66
ATOM     66  S   UNL A   1      35.913  30.996  28.553  1.00  0.00     0.124 S 
ATOM     67  O   UNL A   1      36.794  31.942  27.874  1.00  0.00    -0.237 OA
ATOM     68  O   UNL A   1      35.318  29.960  27.717  1.00  0.00    -0.237 OA
ATOM     69  O   UNL A   1      35.014  31.590  29.542  1.00  0.00    -0.744 OA
ENDBRANCH  62  66
ENDBRANCH  45  59
BRANCH  46  70
ATOM     70  C   UNL A   1      48.724  27.565  26.800  1.00  0.00     0.023 A 
ATOM     71  C   UNL A   1      49.081  27.737  25.454  1.00  0.00     0.031 A 
ATOM     72  C   UNL A   1      49.719  27.151  27.704  1.00  0.00     0.131 A 
ATOM     73  C   UNL A   1      50.400  27.481  25.046  1.00  0.00     0.055 A 
ATOM     74  C   UNL A   1      51.037  26.934  27.301  1.00  0.00     0.041 A 
ATOM     75  F   UNL A   1      49.424  26.977  29.002  1.00  0.00    -0.206 F 
ATOM     76  C   UNL A   1      51.382  27.095  25.963  1.00  0.00     0.022 A 
BRANCH  73  77
ATOM     77  S   UNL A   1      50.821  27.645  23.289  1.00  0.00     0.124 S 
ATOM     78  O   UNL A   1      49.659  27.039  22.649  1.00  0.00    -0.237 OA
ATOM     79  O   UNL A   1      50.956  29.089  23.138  1.00  0.00    -0.237 OA
ATOM     80  O   UNL A   1      52.066  26.890  23.166  1.00  0.00    -0.744 OA
ENDBRANCH  73  77
ENDBRANCH  46  70
BRANCH  58  81
ATOM     81  C   UNL A   1      45.413  33.179  29.304  1.00  0.00     0.023 A 
ATOM     82  C   UNL A   1      45.418  34.185  28.324  1.00  0.00     0.031 A 
ATOM     83  C   UNL A   1      45.813  33.516  30.610  1.00  0.00     0.131 A 
ATOM     84  C   UNL A   1      45.841  35.480  28.659  1.00  0.00     0.055 A 
ATOM     85  C   UNL A   1      46.193  34.815  30.947  1.00  0.00     0.041 A 
ATOM     86  F   UNL A   1      45.822  32.590  31.581  1.00  0.00    -0.206 F 
ATOM     87  C   UNL A   1      46.212  35.805  29.967  1.00  0.00     0.022 A 
BRANCH  84  88
ATOM     88  S   UNL A   1      45.923  36.740  27.356  1.00  0.00     0.124 S 
ATOM     89  O   UNL A   1      46.105  35.923  26.159  1.00  0.00    -0.237 OA
ATOM     90  O   UNL A   1      44.633  37.410  27.481  1.00  0.00    -0.237 OA
ATOM     91  O   UNL A   1      47.080  37.549  27.735  1.00  0.00    -0.744 OA
ENDBRANCH  84  88
ENDBRANCH  58  81
ENDBRANCH  32  33
ENDBRANCH  25  27
ENDBRANCH  24  25
ENDBRANCH  23  24
ENDBRANCH  22  23
ENDBRANCH   1  22
TORSDOF 20
ENDMDL
