MODEL 1
REMARK VINA RESULT:     -11.4      0.000      0.000
REMARK SMILES CC(C)CCNC(=O)[C@@H](C)Oc1ccc(N)cc1C(=O)OCCOC(=O)c1ccc(-c2c3nc(c(-c4cc(S(=O)(=O)[O-])ccc4F)c4ccc([nH]4)c(-c4cc(S(=O)(=O)[O-])ccc4F)c4nc(c(-c5cc(S(=O)(=O)[O-])ccc5F)c5ccc2[nH]5)C=C4)C=C3)cc1
REMARK SMILES IDX 21 1 19 2 20 3 18 4 12 5 13 6 14 7 17 8 15 9 11 10 9 11
REMARK SMILES IDX 10 12 7 13 6 14 8 16 5 17 4 18 2 19 1 20 3 21 16 22 22 25
REMARK SMILES IDX 23 26 24 27 25 28 26 29 27 30 28 31 89 32 29 33 88 34 30 35
REMARK SMILES IDX 31 36 32 37 82 38 33 39 87 40 81 41 83 42 34 43 86 44 80 45
REMARK SMILES IDX 79 46 35 48 67 49 47 50 66 51 48 52 51 53 65 54 84 55 49 56
REMARK SMILES IDX 50 57 64 59 85 60 52 61 36 62 37 63 45 64 38 65 44 66 46 67
REMARK SMILES IDX 43 68 39 69 40 70 41 71 42 72 68 73 69 74 77 75 70 76 76 77
REMARK SMILES IDX 78 78 75 79 71 80 72 81 73 82 74 83 53 84 54 85 62 86 55 87
REMARK SMILES IDX 61 88 63 89 60 90 56 91 57 92 58 93 59 94
REMARK H PARENT 6 15 16 23 16 24 83 47 51 58
REMARK Flexibility Score: inf
ROOT
ATOM      1  O   UNL A   1      32.565  27.540  25.247  1.00  0.00    -0.458 OA
ENDROOT
BRANCH   1   2
ATOM      2  C   UNL A   1      31.754  26.585  24.734  1.00  0.00     0.342 C 
ATOM      3  O   UNL A   1      30.576  26.421  25.015  1.00  0.00    -0.246 OA
BRANCH   2   4
ATOM      4  C   UNL A   1      32.425  25.723  23.738  1.00  0.00     0.104 A 
ATOM      5  C   UNL A   1      32.982  24.487  24.065  1.00  0.00     0.135 A 
ATOM      6  C   UNL A   1      33.155  23.538  23.054  1.00  0.00     0.049 A 
ATOM      7  C   UNL A   1      32.977  23.893  21.712  1.00  0.00     0.029 A 
ATOM      8  C   UNL A   1      32.292  26.079  22.387  1.00  0.00     0.045 A 
ATOM      9  C   UNL A   1      32.625  25.194  21.365  1.00  0.00     0.032 A 
BRANCH   5  10
ATOM     10  O   UNL A   1      33.261  24.148  25.354  1.00  0.00    -0.480 OA
BRANCH  10  11
ATOM     11  C   UNL A   1      32.668  22.913  25.779  1.00  0.00     0.258 C 
ATOM     12  C   UNL A   1      31.217  23.088  26.231  1.00  0.00     0.064 C 
BRANCH  11  13
ATOM     13  C   UNL A   1      33.469  21.854  26.598  1.00  0.00     0.260 C 
ATOM     14  N   UNL A   1      33.900  20.662  26.097  1.00  0.00    -0.353 N 
ATOM     15  H   UNL A   1      34.523  20.178  26.684  1.00  0.00     0.163 HD
ATOM     16  O   UNL A   1      33.737  22.074  27.787  1.00  0.00    -0.271 OA
BRANCH  14  17
ATOM     17  C   UNL A   1      33.603  19.979  24.849  1.00  0.00     0.116 C 
BRANCH  17  18
ATOM     18  C   UNL A   1      33.454  18.466  25.009  1.00  0.00     0.024 C 
BRANCH  18  19
ATOM     19  C   UNL A   1      32.896  17.707  23.786  1.00  0.00    -0.016 C 
ATOM     20  C   UNL A   1      32.243  18.627  22.753  1.00  0.00     0.007 C 
ATOM     21  C   UNL A   1      34.028  16.914  23.125  1.00  0.00     0.007 C 
ENDBRANCH  18  19
ENDBRANCH  17  18
ENDBRANCH  14  17
ENDBRANCH  11  13
ENDBRANCH  10  11
ENDBRANCH   5  10
BRANCH   9  22
ATOM     22  N   UNL A   1      32.519  25.578  20.044  1.00  0.00    -0.399 N 
ATOM     23  H   UNL A   1      33.329  25.674  19.493  1.00  0.00     0.156 HD
ATOM     24  H   UNL A   1      31.633  25.756  19.654  1.00  0.00     0.156 HD
ENDBRANCH   9  22
ENDBRANCH   2   4
ENDBRANCH   1   2
BRANCH   1  25
ATOM     25  C   UNL A   1      32.464  28.831  24.609  1.00  0.00     0.275 C 
BRANCH  25  26
ATOM     26  C   UNL A   1      31.538  29.770  25.379  1.00  0.00     0.275 C 
BRANCH  26  27
ATOM     27  O   UNL A   1      32.011  29.923  26.727  1.00  0.00    -0.458 OA
BRANCH  27  28
ATOM     28  C   UNL A   1      32.607  31.102  27.011  1.00  0.00     0.338 C 
ATOM     29  O   UNL A   1      32.112  32.216  26.901  1.00  0.00    -0.246 OA
BRANCH  28  30
ATOM     30  C   UNL A   1      33.978  30.874  27.510  1.00  0.00     0.060 A 
ATOM     31  C   UNL A   1      34.482  29.579  27.601  1.00  0.00     0.016 A 
ATOM     32  C   UNL A   1      34.720  31.938  28.019  1.00  0.00     0.016 A 
ATOM     33  C   UNL A   1      35.659  29.328  28.307  1.00  0.00     0.010 A 
ATOM     34  C   UNL A   1      35.958  31.695  28.629  1.00  0.00     0.010 A 
ATOM     35  C   UNL A   1      36.419  30.382  28.839  1.00  0.00    -0.014 A 
BRANCH  35  36
ATOM     36  C   UNL A   1      37.625  30.105  29.683  1.00  0.00     0.031 A 
ATOM     37  C   UNL A   1      38.805  29.358  29.097  1.00  0.00     0.074 A 
ATOM     38  C   UNL A   1      37.705  30.546  30.956  1.00  0.00     0.049 A 
ATOM     39  N   UNL A   1      39.865  28.874  29.695  1.00  0.00    -0.248 NA
ATOM     40  C   UNL A   1      38.772  29.098  27.649  1.00  0.00     0.031 C 
ATOM     41  C   UNL A   1      36.671  31.308  31.660  1.00  0.00     0.029 A 
ATOM     42  N   UNL A   1      38.717  30.440  31.882  1.00  0.00    -0.354 N 
ATOM     43  C   UNL A   1      40.573  28.177  28.719  1.00  0.00     0.074 A 
ATOM     44  C   UNL A   1      39.826  28.310  27.488  1.00  0.00     0.031 C 
ATOM     45  C   UNL A   1      37.128  31.660  32.871  1.00  0.00     0.029 A 
ATOM     46  C   UNL A   1      38.449  31.074  33.074  1.00  0.00     0.049 A 
ATOM     47  H   UNL A   1      39.556  29.955  31.708  1.00  0.00     0.167 HD
ATOM     48  C   UNL A   1      41.734  27.484  28.839  1.00  0.00     0.034 A 
ATOM     49  C   UNL A   1      39.165  31.153  34.213  1.00  0.00     0.034 A 
ATOM     50  C   UNL A   1      42.526  27.434  30.044  1.00  0.00     0.049 A 
ATOM     51  C   UNL A   1      40.479  30.424  34.306  1.00  0.00     0.074 A 
ATOM     52  C   UNL A   1      43.729  26.781  30.261  1.00  0.00     0.029 A 
ATOM     53  N   UNL A   1      42.212  28.082  31.230  1.00  0.00    -0.354 N 
ATOM     54  N   UNL A   1      41.084  29.692  33.398  1.00  0.00    -0.248 NA
ATOM     55  C   UNL A   1      41.195  30.514  35.585  1.00  0.00     0.031 C 
ATOM     56  C   UNL A   1      44.123  27.007  31.586  1.00  0.00     0.029 A 
ATOM     57  C   UNL A   1      43.192  27.842  32.180  1.00  0.00     0.049 A 
ATOM     58  H   UNL A   1      41.409  28.633  31.375  1.00  0.00     0.167 HD
ATOM     59  C   UNL A   1      42.249  29.231  34.004  1.00  0.00     0.074 A 
ATOM     60  C   UNL A   1      42.283  29.801  35.335  1.00  0.00     0.031 C 
ATOM     61  C   UNL A   1      43.199  28.397  33.512  1.00  0.00     0.034 A 
BRANCH  48  62
ATOM     62  C   UNL A   1      42.184  26.671  27.650  1.00  0.00     0.023 A 
ATOM     63  C   UNL A   1      41.848  25.317  27.490  1.00  0.00     0.031 A 
ATOM     64  C   UNL A   1      42.991  27.271  26.665  1.00  0.00     0.131 A 
ATOM     65  C   UNL A   1      42.371  24.591  26.408  1.00  0.00     0.055 A 
ATOM     66  C   UNL A   1      43.450  26.562  25.554  1.00  0.00     0.041 A 
ATOM     67  F   UNL A   1      43.359  28.558  26.775  1.00  0.00    -0.206 F 
ATOM     68  C   UNL A   1      43.151  25.210  25.427  1.00  0.00     0.022 A 
BRANCH  65  69
ATOM     69  S   UNL A   1      42.120  22.795  26.363  1.00  0.00     0.124 S 
ATOM     70  O   UNL A   1      40.669  22.697  26.513  1.00  0.00    -0.237 OA
ATOM     71  O   UNL A   1      42.652  22.433  25.055  1.00  0.00    -0.237 OA
ATOM     72  O   UNL A   1      42.891  22.311  27.506  1.00  0.00    -0.744 OA
ENDBRANCH  65  69
ENDBRANCH  48  62
BRANCH  49  73
ATOM     73  C   UNL A   1      38.641  31.904  35.390  1.00  0.00     0.023 A 
ATOM     74  C   UNL A   1      38.154  31.227  36.520  1.00  0.00     0.031 A 
ATOM     75  C   UNL A   1      38.570  33.308  35.380  1.00  0.00     0.131 A 
ATOM     76  C   UNL A   1      37.581  31.952  37.576  1.00  0.00     0.055 A 
ATOM     77  C   UNL A   1      38.046  34.027  36.456  1.00  0.00     0.041 A 
ATOM     78  F   UNL A   1      39.019  34.004  34.323  1.00  0.00    -0.206 F 
ATOM     79  C   UNL A   1      37.537  33.348  37.558  1.00  0.00     0.022 A 
BRANCH  76  80
ATOM     80  S   UNL A   1      36.817  31.037  38.944  1.00  0.00     0.124 S 
ATOM     81  O   UNL A   1      36.713  29.694  38.383  1.00  0.00    -0.237 OA
ATOM     82  O   UNL A   1      37.797  31.212  40.010  1.00  0.00    -0.237 OA
ATOM     83  O   UNL A   1      35.546  31.728  39.148  1.00  0.00    -0.744 OA
ENDBRANCH  76  80
ENDBRANCH  49  73
BRANCH  61  84
ATOM     84  C   UNL A   1      44.352  28.077  34.428  1.00  0.00     0.023 A 
ATOM     85  C   UNL A   1      44.303  26.980  35.305  1.00  0.00     0.031 A 
ATOM     86  C   UNL A   1      45.483  28.910  34.464  1.00  0.00     0.131 A 
ATOM     87  C   UNL A   1      45.338  26.779  36.230  1.00  0.00     0.055 A 
ATOM     88  C   UNL A   1      46.534  28.676  35.352  1.00  0.00     0.041 A 
ATOM     89  F   UNL A   1      45.578  29.971  33.648  1.00  0.00    -0.206 F 
ATOM     90  C   UNL A   1      46.458  27.616  36.253  1.00  0.00     0.022 A 
BRANCH  87  91
ATOM     91  S   UNL A   1      45.150  25.477  37.479  1.00  0.00     0.124 S 
ATOM     92  O   UNL A   1      46.458  24.828  37.446  1.00  0.00    -0.237 OA
ATOM     93  O   UNL A   1      44.848  26.244  38.683  1.00  0.00    -0.237 OA
ATOM     94  O   UNL A   1      44.046  24.668  36.966  1.00  0.00    -0.744 OA
ENDBRANCH  87  91
ENDBRANCH  61  84
ENDBRANCH  35  36
ENDBRANCH  28  30
ENDBRANCH  27  28
ENDBRANCH  26  27
ENDBRANCH  25  26
ENDBRANCH   1  25
TORSDOF 21
ENDMDL
MODEL 2
REMARK VINA RESULT:     -11.2      5.113     10.042
REMARK SMILES CC(C)CCNC(=O)[C@@H](C)Oc1ccc(N)cc1C(=O)OCCOC(=O)c1ccc(-c2c3nc(c(-c4cc(S(=O)(=O)[O-])ccc4F)c4ccc([nH]4)c(-c4cc(S(=O)(=O)[O-])ccc4F)c4nc(c(-c5cc(S(=O)(=O)[O-])ccc5F)c5ccc2[nH]5)C=C4)C=C3)cc1
REMARK SMILES IDX 21 1 19 2 20 3 18 4 12 5 13 6 14 7 17 8 15 9 11 10 9 11
REMARK SMILES IDX 10 12 7 13 6 14 8 16 5 17 4 18 2 19 1 20 3 21 16 22 22 25
REMARK SMILES IDX 23 26 24 27 25 28 26 29 27 30 28 31 89 32 29 33 88 34 30 35
REMARK SMILES IDX 31 36 32 37 82 38 33 39 87 40 81 41 83 42 34 43 86 44 80 45
REMARK SMILES IDX 79 46 35 48 67 49 47 50 66 51 48 52 51 53 65 54 84 55 49 56
REMARK SMILES IDX 50 57 64 59 85 60 52 61 36 62 37 63 45 64 38 65 44 66 46 67
REMARK SMILES IDX 43 68 39 69 40 70 41 71 42 72 68 73 69 74 77 75 70 76 76 77
REMARK SMILES IDX 78 78 75 79 71 80 72 81 73 82 74 83 53 84 54 85 62 86 55 87
REMARK SMILES IDX 61 88 63 89 60 90 56 91 57 92 58 93 59 94
REMARK H PARENT 6 15 16 23 16 24 83 47 51 58
REMARK Flexibility Score: inf
ROOT
ATOM      1  O   UNL A   1      35.231  22.046  25.610  1.00  0.00    -0.458 OA
ENDROOT
BRANCH   1   2
ATOM      2  C   UNL A   1      34.210  22.305  26.461  1.00  0.00     0.342 C 
ATOM      3  O   UNL A   1      34.080  21.841  27.584  1.00  0.00    -0.246 OA
BRANCH   2   4
ATOM      4  C   UNL A   1      33.223  23.260  25.914  1.00  0.00     0.104 A 
ATOM      5  C   UNL A   1      32.094  22.854  25.204  1.00  0.00     0.135 A 
ATOM      6  C   UNL A   1      30.992  23.711  25.142  1.00  0.00     0.049 A 
ATOM      7  C   UNL A   1      31.097  25.032  25.593  1.00  0.00     0.029 A 
ATOM      8  C   UNL A   1      33.329  24.598  26.324  1.00  0.00     0.045 A 
ATOM      9  C   UNL A   1      32.297  25.510  26.111  1.00  0.00     0.032 A 
BRANCH   5  10
ATOM     10  O   UNL A   1      32.001  21.606  24.665  1.00  0.00    -0.480 OA
BRANCH  10  11
ATOM     11  C   UNL A   1      32.539  21.497  23.339  1.00  0.00     0.258 C 
ATOM     12  C   UNL A   1      32.728  22.861  22.672  1.00  0.00     0.064 C 
BRANCH  11  13
ATOM     13  C   UNL A   1      32.097  20.363  22.362  1.00  0.00     0.260 C 
ATOM     14  N   UNL A   1      32.103  19.037  22.675  1.00  0.00    -0.353 N 
ATOM     15  H   UNL A   1      31.650  18.464  22.015  1.00  0.00     0.163 HD
ATOM     16  O   UNL A   1      31.725  20.653  21.217  1.00  0.00    -0.271 OA
BRANCH  14  17
ATOM     17  C   UNL A   1      32.657  18.316  23.809  1.00  0.00     0.116 C 
BRANCH  17  18
ATOM     18  C   UNL A   1      33.619  17.200  23.404  1.00  0.00     0.024 C 
BRANCH  18  19
ATOM     19  C   UNL A   1      33.769  16.036  24.407  1.00  0.00    -0.016 C 
ATOM     20  C   UNL A   1      35.111  16.043  25.141  1.00  0.00     0.007 C 
ATOM     21  C   UNL A   1      32.626  16.100  25.425  1.00  0.00     0.007 C 
ENDBRANCH  18  19
ENDBRANCH  17  18
ENDBRANCH  14  17
ENDBRANCH  11  13
ENDBRANCH  10  11
ENDBRANCH   5  10
BRANCH   9  22
ATOM     22  N   UNL A   1      32.438  26.828  26.491  1.00  0.00    -0.399 N 
ATOM     23  H   UNL A   1      32.040  27.543  25.944  1.00  0.00     0.156 HD
ATOM     24  H   UNL A   1      32.936  27.053  27.310  1.00  0.00     0.156 HD
ENDBRANCH   9  22
ENDBRANCH   2   4
ENDBRANCH   1   2
BRANCH   1  25
ATOM     25  C   UNL A   1      35.271  20.696  25.101  1.00  0.00     0.275 C 
BRANCH  25  26
ATOM     26  C   UNL A   1      36.703  20.175  24.997  1.00  0.00     0.275 C 
BRANCH  26  27
ATOM     27  O   UNL A   1      37.629  21.268  25.107  1.00  0.00    -0.458 OA
BRANCH  27  28
ATOM     28  C   UNL A   1      38.788  20.994  25.746  1.00  0.00     0.338 C 
ATOM     29  O   UNL A   1      39.356  19.911  25.798  1.00  0.00    -0.246 OA
BRANCH  28  30
ATOM     30  C   UNL A   1      39.320  22.215  26.383  1.00  0.00     0.060 A 
ATOM     31  C   UNL A   1      38.725  23.450  26.136  1.00  0.00     0.016 A 
ATOM     32  C   UNL A   1      40.499  22.157  27.124  1.00  0.00     0.016 A 
ATOM     33  C   UNL A   1      39.366  24.631  26.512  1.00  0.00     0.010 A 
ATOM     34  C   UNL A   1      41.082  23.340  27.600  1.00  0.00     0.010 A 
ATOM     35  C   UNL A   1      40.560  24.599  27.249  1.00  0.00    -0.014 A 
BRANCH  35  36
ATOM     36  C   UNL A   1      41.298  25.863  27.565  1.00  0.00     0.031 A 
ATOM     37  C   UNL A   1      40.674  26.897  28.479  1.00  0.00     0.074 A 
ATOM     38  C   UNL A   1      42.538  26.089  27.082  1.00  0.00     0.049 A 
ATOM     39  N   UNL A   1      41.066  28.119  28.744  1.00  0.00    -0.248 NA
ATOM     40  C   UNL A   1      39.430  26.513  29.163  1.00  0.00     0.031 C 
ATOM     41  C   UNL A   1      43.293  25.182  26.215  1.00  0.00     0.029 A 
ATOM     42  N   UNL A   1      43.398  27.146  27.272  1.00  0.00    -0.354 N 
ATOM     43  C   UNL A   1      40.073  28.676  29.547  1.00  0.00     0.074 A 
ATOM     44  C   UNL A   1      39.066  27.653  29.732  1.00  0.00     0.031 C 
ATOM     45  C   UNL A   1      44.521  25.682  26.011  1.00  0.00     0.029 A 
ATOM     46  C   UNL A   1      44.616  26.990  26.651  1.00  0.00     0.049 A 
ATOM     47  H   UNL A   1      43.163  27.940  27.804  1.00  0.00     0.167 HD
ATOM     48  C   UNL A   1      40.003  29.925  30.074  1.00  0.00     0.034 A 
ATOM     49  C   UNL A   1      45.681  27.814  26.574  1.00  0.00     0.034 A 
ATOM     50  C   UNL A   1      41.052  30.908  29.967  1.00  0.00     0.049 A 
ATOM     51  C   UNL A   1      45.604  29.174  27.216  1.00  0.00     0.074 A 
ATOM     52  C   UNL A   1      41.089  32.192  30.487  1.00  0.00     0.029 A 
ATOM     53  N   UNL A   1      42.264  30.711  29.321  1.00  0.00    -0.354 N 
ATOM     54  N   UNL A   1      44.615  29.714  27.891  1.00  0.00    -0.248 NA
ATOM     55  C   UNL A   1      46.779  30.042  27.066  1.00  0.00     0.031 C 
ATOM     56  C   UNL A   1      42.307  32.782  30.125  1.00  0.00     0.029 A 
ATOM     57  C   UNL A   1      43.051  31.848  29.424  1.00  0.00     0.049 A 
ATOM     58  H   UNL A   1      42.527  29.884  28.856  1.00  0.00     0.167 HD
ATOM     59  C   UNL A   1      45.051  30.990  28.238  1.00  0.00     0.074 A 
ATOM     60  C   UNL A   1      46.404  31.120  27.737  1.00  0.00     0.031 C 
ATOM     61  C   UNL A   1      44.388  31.973  28.897  1.00  0.00     0.034 A 
BRANCH  48  62
ATOM     62  C   UNL A   1      38.717  30.317  30.760  1.00  0.00     0.023 A 
ATOM     63  C   UNL A   1      37.665  30.956  30.084  1.00  0.00     0.031 A 
ATOM     64  C   UNL A   1      38.559  30.063  32.135  1.00  0.00     0.131 A 
ATOM     65  C   UNL A   1      36.531  31.377  30.798  1.00  0.00     0.055 A 
ATOM     66  C   UNL A   1      37.399  30.419  32.824  1.00  0.00     0.041 A 
ATOM     67  F   UNL A   1      39.540  29.471  32.837  1.00  0.00    -0.206 F 
ATOM     68  C   UNL A   1      36.381  31.093  32.158  1.00  0.00     0.022 A 
BRANCH  65  69
ATOM     69  S   UNL A   1      35.304  32.410  29.949  1.00  0.00     0.124 S 
ATOM     70  O   UNL A   1      36.121  33.542  29.516  1.00  0.00    -0.237 OA
ATOM     71  O   UNL A   1      34.825  31.528  28.892  1.00  0.00    -0.237 OA
ATOM     72  O   UNL A   1      34.331  32.717  30.995  1.00  0.00    -0.744 OA
ENDBRANCH  65  69
ENDBRANCH  48  62
BRANCH  49  73
ATOM     73  C   UNL A   1      46.901  27.412  25.817  1.00  0.00     0.023 A 
ATOM     74  C   UNL A   1      47.077  27.793  24.477  1.00  0.00     0.031 A 
ATOM     75  C   UNL A   1      47.882  26.594  26.405  1.00  0.00     0.131 A 
ATOM     76  C   UNL A   1      48.187  27.326  23.757  1.00  0.00     0.055 A 
ATOM     77  C   UNL A   1      49.011  26.175  25.700  1.00  0.00     0.041 A 
ATOM     78  F   UNL A   1      47.760  26.199  27.682  1.00  0.00    -0.206 F 
ATOM     79  C   UNL A   1      49.163  26.531  24.364  1.00  0.00     0.022 A 
BRANCH  76  80
ATOM     80  S   UNL A   1      48.297  27.706  21.987  1.00  0.00     0.124 S 
ATOM     81  O   UNL A   1      47.010  28.346  21.738  1.00  0.00    -0.237 OA
ATOM     82  O   UNL A   1      49.466  28.577  21.936  1.00  0.00    -0.237 OA
ATOM     83  O   UNL A   1      48.471  26.395  21.366  1.00  0.00    -0.744 OA
ENDBRANCH  76  80
ENDBRANCH  49  73
BRANCH  61  84
ATOM     84  C   UNL A   1      45.140  33.260  29.116  1.00  0.00     0.023 A 
ATOM     85  C   UNL A   1      45.030  34.331  28.213  1.00  0.00     0.031 A 
ATOM     86  C   UNL A   1      46.018  33.394  30.205  1.00  0.00     0.131 A 
ATOM     87  C   UNL A   1      45.834  35.469  28.378  1.00  0.00     0.055 A 
ATOM     88  C   UNL A   1      46.779  34.548  30.393  1.00  0.00     0.041 A 
ATOM     89  F   UNL A   1      46.160  32.399  31.095  1.00  0.00    -0.206 F 
ATOM     90  C   UNL A   1      46.702  35.587  29.467  1.00  0.00     0.022 A 
BRANCH  87  91
ATOM     91  S   UNL A   1      45.814  36.743  27.087  1.00  0.00     0.124 S 
ATOM     92  O   UNL A   1      46.441  36.053  25.963  1.00  0.00    -0.237 OA
ATOM     93  O   UNL A   1      44.389  37.023  26.950  1.00  0.00    -0.237 OA
ATOM     94  O   UNL A   1      46.606  37.828  27.666  1.00  0.00    -0.744 OA
ENDBRANCH  87  91
ENDBRANCH  61  84
ENDBRANCH  35  36
ENDBRANCH  28  30
ENDBRANCH  27  28
ENDBRANCH  26  27
ENDBRANCH  25  26
ENDBRANCH   1  25
TORSDOF 21
ENDMDL
MODEL 3
REMARK VINA RESULT:     -11.2      5.132     10.204
REMARK SMILES CC(C)CCNC(=O)[C@@H](C)Oc1ccc(N)cc1C(=O)OCCOC(=O)c1ccc(-c2c3nc(c(-c4cc(S(=O)(=O)[O-])ccc4F)c4ccc([nH]4)c(-c4cc(S(=O)(=O)[O-])ccc4F)c4nc(c(-c5cc(S(=O)(=O)[O-])ccc5F)c5ccc2[nH]5)C=C4)C=C3)cc1
REMARK SMILES IDX 21 1 19 2 20 3 18 4 12 5 13 6 14 7 17 8 15 9 11 10 9 11
REMARK SMILES IDX 10 12 7 13 6 14 8 16 5 17 4 18 2 19 1 20 3 21 16 22 22 25
REMARK SMILES IDX 23 26 24 27 25 28 26 29 27 30 28 31 89 32 29 33 88 34 30 35
REMARK SMILES IDX 31 36 32 37 82 38 33 39 87 40 81 41 83 42 34 43 86 44 80 45
REMARK SMILES IDX 79 46 35 48 67 49 47 50 66 51 48 52 51 53 65 54 84 55 49 56
REMARK SMILES IDX 50 57 64 59 85 60 52 61 36 62 37 63 45 64 38 65 44 66 46 67
REMARK SMILES IDX 43 68 39 69 40 70 41 71 42 72 68 73 69 74 77 75 70 76 76 77
REMARK SMILES IDX 78 78 75 79 71 80 72 81 73 82 74 83 53 84 54 85 62 86 55 87
REMARK SMILES IDX 61 88 63 89 60 90 56 91 57 92 58 93 59 94
REMARK H PARENT 6 15 16 23 16 24 83 47 51 58
REMARK Flexibility Score: inf
ROOT
ATOM      1  O   UNL A   1      35.286  21.435  25.442  1.00  0.00    -0.458 OA
ENDROOT
BRANCH   1   2
ATOM      2  C   UNL A   1      34.007  21.197  25.818  1.00  0.00     0.342 C 
ATOM      3  O   UNL A   1      33.610  21.077  26.967  1.00  0.00    -0.246 OA
BRANCH   2   4
ATOM      4  C   UNL A   1      33.069  21.116  24.678  1.00  0.00     0.104 A 
ATOM      5  C   UNL A   1      32.602  22.244  24.005  1.00  0.00     0.135 A 
ATOM      6  C   UNL A   1      32.138  22.103  22.694  1.00  0.00     0.049 A 
ATOM      7  C   UNL A   1      31.943  20.829  22.146  1.00  0.00     0.029 A 
ATOM      8  C   UNL A   1      32.829  19.845  24.133  1.00  0.00     0.045 A 
ATOM      9  C   UNL A   1      32.209  19.688  22.896  1.00  0.00     0.032 A 
BRANCH   5  10
ATOM     10  O   UNL A   1      32.685  23.488  24.553  1.00  0.00    -0.480 OA
BRANCH  10  11
ATOM     11  C   UNL A   1      33.646  24.346  23.921  1.00  0.00     0.258 C 
ATOM     12  C   UNL A   1      34.744  24.801  24.884  1.00  0.00     0.064 C 
BRANCH  11  13
ATOM     13  C   UNL A   1      33.224  25.425  22.876  1.00  0.00     0.260 C 
ATOM     14  N   UNL A   1      32.317  26.413  23.118  1.00  0.00    -0.353 N 
ATOM     15  H   UNL A   1      32.276  27.104  22.419  1.00  0.00     0.163 HD
ATOM     16  O   UNL A   1      33.717  25.403  21.740  1.00  0.00    -0.271 OA
BRANCH  14  17
ATOM     17  C   UNL A   1      31.399  26.629  24.223  1.00  0.00     0.116 C 
BRANCH  17  18
ATOM     18  C   UNL A   1      31.195  28.105  24.561  1.00  0.00     0.024 C 
BRANCH  18  19
ATOM     19  C   UNL A   1      31.743  28.570  25.927  1.00  0.00    -0.016 C 
ATOM     20  C   UNL A   1      32.970  27.780  26.384  1.00  0.00     0.007 C 
ATOM     21  C   UNL A   1      32.091  30.060  25.849  1.00  0.00     0.007 C 
ENDBRANCH  18  19
ENDBRANCH  17  18
ENDBRANCH  14  17
ENDBRANCH  11  13
ENDBRANCH  10  11
ENDBRANCH   5  10
BRANCH   9  22
ATOM     22  N   UNL A   1      31.952  18.428  22.397  1.00  0.00    -0.399 N 
ATOM     23  H   UNL A   1      32.551  18.034  21.724  1.00  0.00     0.156 HD
ATOM     24  H   UNL A   1      31.169  17.923  22.717  1.00  0.00     0.156 HD
ENDBRANCH   9  22
ENDBRANCH   2   4
ENDBRANCH   1   2
BRANCH   1  25
ATOM     25  C   UNL A   1      36.014  20.270  24.996  1.00  0.00     0.275 C 
BRANCH  25  26
ATOM     26  C   UNL A   1      37.498  20.574  24.797  1.00  0.00     0.275 C 
BRANCH  26  27
ATOM     27  O   UNL A   1      37.923  21.568  25.744  1.00  0.00    -0.458 OA
BRANCH  27  28
ATOM     28  C   UNL A   1      39.196  21.455  26.183  1.00  0.00     0.338 C 
ATOM     29  O   UNL A   1      39.926  20.479  26.065  1.00  0.00    -0.246 OA
BRANCH  28  30
ATOM     30  C   UNL A   1      39.626  22.710  26.831  1.00  0.00     0.060 A 
ATOM     31  C   UNL A   1      39.028  23.918  26.481  1.00  0.00     0.016 A 
ATOM     32  C   UNL A   1      40.720  22.710  27.693  1.00  0.00     0.016 A 
ATOM     33  C   UNL A   1      39.594  25.128  26.882  1.00  0.00     0.010 A 
ATOM     34  C   UNL A   1      41.219  23.923  28.188  1.00  0.00     0.010 A 
ATOM     35  C   UNL A   1      40.704  25.154  27.741  1.00  0.00    -0.014 A 
BRANCH  35  36
ATOM     36  C   UNL A   1      41.372  26.450  28.090  1.00  0.00     0.031 A 
ATOM     37  C   UNL A   1      40.637  27.481  28.920  1.00  0.00     0.074 A 
ATOM     38  C   UNL A   1      42.642  26.706  27.712  1.00  0.00     0.049 A 
ATOM     39  N   UNL A   1      40.965  28.721  29.189  1.00  0.00    -0.248 NA
ATOM     40  C   UNL A   1      39.350  27.070  29.502  1.00  0.00     0.031 C 
ATOM     41  C   UNL A   1      43.498  25.806  26.937  1.00  0.00     0.029 A 
ATOM     42  N   UNL A   1      43.448  27.795  27.952  1.00  0.00    -0.354 N 
ATOM     43  C   UNL A   1      39.889  29.261  29.888  1.00  0.00     0.074 A 
ATOM     44  C   UNL A   1      38.902  28.210  30.009  1.00  0.00     0.031 C 
ATOM     45  C   UNL A   1      44.723  26.343  26.829  1.00  0.00     0.029 A 
ATOM     46  C   UNL A   1      44.721  27.666  27.443  1.00  0.00     0.049 A 
ATOM     47  H   UNL A   1      43.142  28.592  28.442  1.00  0.00     0.167 HD
ATOM     48  C   UNL A   1      39.733  30.518  30.377  1.00  0.00     0.034 A 
ATOM     49  C   UNL A   1      45.761  28.523  27.440  1.00  0.00     0.034 A 
ATOM     50  C   UNL A   1      40.756  31.534  30.339  1.00  0.00     0.049 A 
ATOM     51  C   UNL A   1      45.585  29.894  28.040  1.00  0.00     0.074 A 
ATOM     52  C   UNL A   1      40.707  32.829  30.828  1.00  0.00     0.029 A 
ATOM     53  N   UNL A   1      42.026  31.363  29.806  1.00  0.00    -0.354 N 
ATOM     54  N   UNL A   1      44.525  30.415  28.612  1.00  0.00    -0.248 NA
ATOM     55  C   UNL A   1      46.741  30.797  27.972  1.00  0.00     0.031 C 
ATOM     56  C   UNL A   1      41.933  33.451  30.560  1.00  0.00     0.029 A 
ATOM     57  C   UNL A   1      42.765  32.528  29.950  1.00  0.00     0.049 A 
ATOM     58  H   UNL A   1      42.355  30.536  29.386  1.00  0.00     0.167 HD
ATOM     59  C   UNL A   1      44.888  31.711  28.966  1.00  0.00     0.074 A 
ATOM     60  C   UNL A   1      46.275  31.876  28.582  1.00  0.00     0.031 C 
ATOM     61  C   UNL A   1      44.138  32.686  29.540  1.00  0.00     0.034 A 
BRANCH  48  62
ATOM     62  C   UNL A   1      38.380  30.882  30.938  1.00  0.00     0.023 A 
ATOM     63  C   UNL A   1      37.380  31.491  30.163  1.00  0.00     0.031 A 
ATOM     64  C   UNL A   1      38.101  30.630  32.294  1.00  0.00     0.131 A 
ATOM     65  C   UNL A   1      36.175  31.888  30.765  1.00  0.00     0.055 A 
ATOM     66  C   UNL A   1      36.874  30.961  32.870  1.00  0.00     0.041 A 
ATOM     67  F   UNL A   1      39.027  30.065  33.088  1.00  0.00    -0.206 F 
ATOM     68  C   UNL A   1      35.906  31.607  32.107  1.00  0.00     0.022 A 
BRANCH  65  69
ATOM     69  S   UNL A   1      35.008  32.887  29.800  1.00  0.00     0.124 S 
ATOM     70  O   UNL A   1      35.891  33.905  29.233  1.00  0.00    -0.237 OA
ATOM     71  O   UNL A   1      34.465  31.916  28.857  1.00  0.00    -0.237 OA
ATOM     72  O   UNL A   1      34.065  33.378  30.802  1.00  0.00    -0.744 OA
ENDBRANCH  65  69
ENDBRANCH  48  62
BRANCH  49  73
ATOM     73  C   UNL A   1      47.055  28.146  26.803  1.00  0.00     0.023 A 
ATOM     74  C   UNL A   1      47.191  28.122  25.405  1.00  0.00     0.031 A 
ATOM     75  C   UNL A   1      48.158  27.751  27.580  1.00  0.00     0.131 A 
ATOM     76  C   UNL A   1      48.389  27.675  24.827  1.00  0.00     0.055 A 
ATOM     77  C   UNL A   1      49.365  27.357  27.001  1.00  0.00     0.041 A 
ATOM     78  F   UNL A   1      48.080  27.753  28.921  1.00  0.00    -0.206 F 
ATOM     79  C   UNL A   1      49.482  27.305  25.616  1.00  0.00     0.022 A 
BRANCH  76  80
ATOM     80  S   UNL A   1      48.473  27.504  23.023  1.00  0.00     0.124 S 
ATOM     81  O   UNL A   1      47.282  28.232  22.599  1.00  0.00    -0.237 OA
ATOM     82  O   UNL A   1      49.752  28.135  22.718  1.00  0.00    -0.237 OA
ATOM     83  O   UNL A   1      48.427  26.059  22.815  1.00  0.00    -0.744 OA
ENDBRANCH  76  80
ENDBRANCH  49  73
BRANCH  61  84
ATOM     84  C   UNL A   1      44.828  34.001  29.793  1.00  0.00     0.023 A 
ATOM     85  C   UNL A   1      44.800  35.034  28.840  1.00  0.00     0.031 A 
ATOM     86  C   UNL A   1      45.566  34.202  30.972  1.00  0.00     0.131 A 
ATOM     87  C   UNL A   1      45.551  36.200  29.051  1.00  0.00     0.055 A 
ATOM     88  C   UNL A   1      46.271  35.385  31.200  1.00  0.00     0.041 A 
ATOM     89  F   UNL A   1      45.626  33.247  31.912  1.00  0.00    -0.206 F 
ATOM     90  C   UNL A   1      46.280  36.385  30.230  1.00  0.00     0.022 A 
BRANCH  87  91
ATOM     91  S   UNL A   1      45.654  37.423  27.716  1.00  0.00     0.124 S 
ATOM     92  O   UNL A   1      47.093  37.501  27.481  1.00  0.00    -0.237 OA
ATOM     93  O   UNL A   1      44.868  36.795  26.659  1.00  0.00    -0.237 OA
ATOM     94  O   UNL A   1      45.057  38.621  28.303  1.00  0.00    -0.744 OA
ENDBRANCH  87  91
ENDBRANCH  61  84
ENDBRANCH  35  36
ENDBRANCH  28  30
ENDBRANCH  27  28
ENDBRANCH  26  27
ENDBRANCH  25  26
ENDBRANCH   1  25
TORSDOF 21
ENDMDL
