MODEL 1
REMARK VINA RESULT:      -9.3      0.000      0.000
REMARK SMILES CCCC[C@@H](C(=O)OCCOC(=O)c1ccc(-c2c3nc(c(-c4cc(S(=O)(=O)[O-])ccc4F)c4ccc([nH]4)c(-c4cc(S(=O)(=O)[O-])ccc4F)c4nc(c(-c5cc(S(=O)(=O)[O-])ccc5F)c5ccc2[nH]5)C=C4)C=C3)cc1)[C@]1(O)COc2cc(O)ccc21
REMARK SMILES IDX 9 1 8 2 6 3 7 4 5 5 4 6 3 7 2 8 1 9 77 10 79 11 87 12 80 13
REMARK SMILES IDX 81 14 86 15 82 16 85 17 83 18 78 19 84 21 10 23 11 24 12 25
REMARK SMILES IDX 13 26 14 27 15 28 76 29 16 30 75 31 17 32 18 33 19 34 69 35
REMARK SMILES IDX 20 36 74 37 68 38 70 39 21 40 73 41 67 42 66 43 22 45 54 46
REMARK SMILES IDX 34 47 53 48 35 49 38 50 52 51 71 52 36 53 37 54 51 56 72 57
REMARK SMILES IDX 39 58 23 59 24 60 32 61 25 62 31 63 33 64 30 65 26 66 27 67
REMARK SMILES IDX 28 68 29 69 55 70 56 71 64 72 57 73 63 74 65 75 62 76 58 77
REMARK SMILES IDX 59 78 60 79 61 80 40 81 41 82 49 83 42 84 48 85 50 86 47 87
REMARK SMILES IDX 43 88 44 89 45 90 46 91
REMARK H PARENT 78 20 84 22 70 44 38 55
REMARK Flexibility Score: inf
ROOT
ATOM      1  C   UNL A   1      41.022  20.326  26.583  1.00  0.00     0.274 C 
ENDROOT
BRANCH   1   2
ATOM      2  O   UNL A   1      42.127  21.107  27.063  1.00  0.00    -0.462 OA
BRANCH   2   3
ATOM      3  C   UNL A   1      43.250  21.076  26.295  1.00  0.00     0.312 C 
ATOM      4  O   UNL A   1      43.602  20.121  25.613  1.00  0.00    -0.252 OA
BRANCH   3   5
ATOM      5  C   UNL A   1      44.006  22.399  26.354  1.00  0.00     0.139 C 
BRANCH   5   6
ATOM      6  C   UNL A   1      43.655  23.177  27.658  1.00  0.00     0.019 C 
BRANCH   6   7
ATOM      7  C   UNL A   1      44.806  23.435  28.642  1.00  0.00     0.001 C 
BRANCH   7   8
ATOM      8  C   UNL A   1      45.261  24.887  28.747  1.00  0.00    -0.003 C 
ATOM      9  C   UNL A   1      46.747  25.067  28.477  1.00  0.00     0.004 C 
ENDBRANCH   7   8
ENDBRANCH   6   7
ENDBRANCH   5   6
BRANCH   5  10
ATOM     10  C   UNL A   1      43.812  23.250  25.041  1.00  0.00     0.140 C 
ATOM     11  C   UNL A   1      44.980  23.072  24.054  1.00  0.00     0.270 C 
ATOM     12  C   UNL A   1      44.005  24.744  25.158  1.00  0.00     0.030 A 
ATOM     13  O   UNL A   1      46.040  23.875  24.597  1.00  0.00    -0.490 OA
ATOM     14  C   UNL A   1      45.361  24.999  24.978  1.00  0.00     0.129 A 
ATOM     15  C   UNL A   1      43.144  25.810  25.331  1.00  0.00     0.014 A 
ATOM     16  C   UNL A   1      45.935  26.239  25.118  1.00  0.00     0.093 A 
ATOM     17  C   UNL A   1      43.689  27.108  25.373  1.00  0.00     0.047 A 
ATOM     18  C   UNL A   1      45.077  27.304  25.299  1.00  0.00     0.119 A 
BRANCH  10  19
ATOM     19  O   UNL A   1      42.581  22.910  24.412  1.00  0.00    -0.381 OA
ATOM     20  H   UNL A   1      41.949  23.638  24.522  1.00  0.00     0.212 HD
ENDBRANCH  10  19
BRANCH  18  21
ATOM     21  O   UNL A   1      45.638  28.545  25.368  1.00  0.00    -0.508 OA
ATOM     22  H   UNL A   1      45.653  29.008  26.182  1.00  0.00     0.293 HD
ENDBRANCH  18  21
ENDBRANCH   5  10
ENDBRANCH   3   5
ENDBRANCH   2   3
ENDBRANCH   1   2
BRANCH   1  23
ATOM     23  C   UNL A   1      39.863  21.260  26.221  1.00  0.00     0.275 C 
BRANCH  23  24
ATOM     24  O   UNL A   1      40.244  22.641  26.400  1.00  0.00    -0.458 OA
BRANCH  24  25
ATOM     25  C   UNL A   1      39.252  23.565  26.288  1.00  0.00     0.338 C 
ATOM     26  O   UNL A   1      38.199  23.430  25.684  1.00  0.00    -0.246 OA
BRANCH  25  27
ATOM     27  C   UNL A   1      39.557  24.723  27.165  1.00  0.00     0.060 A 
ATOM     28  C   UNL A   1      40.081  25.867  26.552  1.00  0.00     0.016 A 
ATOM     29  C   UNL A   1      39.212  24.756  28.522  1.00  0.00     0.016 A 
ATOM     30  C   UNL A   1      40.115  27.078  27.245  1.00  0.00     0.010 A 
ATOM     31  C   UNL A   1      39.321  25.958  29.241  1.00  0.00     0.010 A 
ATOM     32  C   UNL A   1      39.744  27.132  28.598  1.00  0.00    -0.014 A 
BRANCH  32  33
ATOM     33  C   UNL A   1      40.071  28.369  29.355  1.00  0.00     0.031 A 
ATOM     34  C   UNL A   1      41.532  28.638  29.590  1.00  0.00     0.074 A 
ATOM     35  C   UNL A   1      39.143  29.273  29.723  1.00  0.00     0.049 A 
ATOM     36  N   UNL A   1      42.114  29.667  30.144  1.00  0.00    -0.248 NA
ATOM     37  C   UNL A   1      42.461  27.613  29.088  1.00  0.00     0.031 C 
ATOM     38  C   UNL A   1      37.709  29.180  29.451  1.00  0.00     0.029 A 
ATOM     39  N   UNL A   1      39.276  30.470  30.388  1.00  0.00    -0.354 N 
ATOM     40  C   UNL A   1      43.478  29.429  30.021  1.00  0.00     0.074 A 
ATOM     41  C   UNL A   1      43.633  28.156  29.356  1.00  0.00     0.031 C 
ATOM     42  C   UNL A   1      37.098  30.276  29.940  1.00  0.00     0.029 A 
ATOM     43  C   UNL A   1      38.086  31.134  30.598  1.00  0.00     0.049 A 
ATOM     44  H   UNL A   1      40.145  30.823  30.687  1.00  0.00     0.167 HD
ATOM     45  C   UNL A   1      44.516  30.193  30.439  1.00  0.00     0.034 A 
ATOM     46  C   UNL A   1      37.833  32.284  31.262  1.00  0.00     0.034 A 
ATOM     47  C   UNL A   1      44.350  31.398  31.207  1.00  0.00     0.049 A 
ATOM     48  C   UNL A   1      38.999  33.027  31.889  1.00  0.00     0.074 A 
ATOM     49  C   UNL A   1      45.316  32.176  31.816  1.00  0.00     0.029 A 
ATOM     50  N   UNL A   1      43.123  31.979  31.502  1.00  0.00    -0.354 N 
ATOM     51  N   UNL A   1      40.286  32.766  31.813  1.00  0.00    -0.248 NA
ATOM     52  C   UNL A   1      38.679  34.213  32.698  1.00  0.00     0.031 C 
ATOM     53  C   UNL A   1      44.670  33.186  32.537  1.00  0.00     0.029 A 
ATOM     54  C   UNL A   1      43.304  33.089  32.310  1.00  0.00     0.049 A 
ATOM     55  H   UNL A   1      42.251  31.650  31.183  1.00  0.00     0.167 HD
ATOM     56  C   UNL A   1      40.925  33.770  32.541  1.00  0.00     0.074 A 
ATOM     57  C   UNL A   1      39.885  34.651  33.030  1.00  0.00     0.031 C 
ATOM     58  C   UNL A   1      42.249  33.951  32.787  1.00  0.00     0.034 A 
BRANCH  45  59
ATOM     59  C   UNL A   1      45.891  29.642  30.172  1.00  0.00     0.023 A 
ATOM     60  C   UNL A   1      46.623  30.018  29.030  1.00  0.00     0.031 A 
ATOM     61  C   UNL A   1      46.411  28.622  30.987  1.00  0.00     0.131 A 
ATOM     62  C   UNL A   1      47.785  29.312  28.685  1.00  0.00     0.055 A 
ATOM     63  C   UNL A   1      47.612  27.981  30.682  1.00  0.00     0.041 A 
ATOM     64  F   UNL A   1      45.734  28.196  32.065  1.00  0.00    -0.206 F 
ATOM     65  C   UNL A   1      48.297  28.311  29.515  1.00  0.00     0.022 A 
BRANCH  62  66
ATOM     66  S   UNL A   1      48.517  29.591  27.047  1.00  0.00     0.124 S 
ATOM     67  O   UNL A   1      48.500  28.243  26.485  1.00  0.00    -0.237 OA
ATOM     68  O   UNL A   1      47.593  30.546  26.446  1.00  0.00    -0.237 OA
ATOM     69  O   UNL A   1      49.846  30.115  27.351  1.00  0.00    -0.744 OA
ENDBRANCH  62  66
ENDBRANCH  45  59
BRANCH  46  70
ATOM     70  C   UNL A   1      36.434  32.789  31.458  1.00  0.00     0.023 A 
ATOM     71  C   UNL A   1      35.756  33.506  30.455  1.00  0.00     0.031 A 
ATOM     72  C   UNL A   1      35.794  32.660  32.706  1.00  0.00     0.131 A 
ATOM     73  C   UNL A   1      34.513  34.107  30.732  1.00  0.00     0.055 A 
ATOM     74  C   UNL A   1      34.535  33.211  32.959  1.00  0.00     0.041 A 
ATOM     75  F   UNL A   1      36.393  32.005  33.714  1.00  0.00    -0.206 F 
ATOM     76  C   UNL A   1      33.893  33.953  31.973  1.00  0.00     0.022 A 
BRANCH  73  77
ATOM     77  S   UNL A   1      33.760  35.191  29.484  1.00  0.00     0.124 S 
ATOM     78  O   UNL A   1      32.565  34.437  29.119  1.00  0.00    -0.237 OA
ATOM     79  O   UNL A   1      33.540  36.417  30.241  1.00  0.00    -0.237 OA
ATOM     80  O   UNL A   1      34.784  35.278  28.445  1.00  0.00    -0.744 OA
ENDBRANCH  73  77
ENDBRANCH  46  70
BRANCH  58  81
ATOM     81  C   UNL A   1      42.648  35.171  33.582  1.00  0.00     0.023 A 
ATOM     82  C   UNL A   1      43.110  36.345  32.963  1.00  0.00     0.031 A 
ATOM     83  C   UNL A   1      42.541  35.161  34.985  1.00  0.00     0.131 A 
ATOM     84  C   UNL A   1      43.493  37.444  33.746  1.00  0.00     0.055 A 
ATOM     85  C   UNL A   1      42.869  36.277  35.755  1.00  0.00     0.041 A 
ATOM     86  F   UNL A   1      42.105  34.066  35.629  1.00  0.00    -0.206 F 
ATOM     87  C   UNL A   1      43.358  37.423  35.138  1.00  0.00     0.022 A 
BRANCH  84  88
ATOM     88  S   UNL A   1      44.246  38.878  32.930  1.00  0.00     0.124 S 
ATOM     89  O   UNL A   1      45.655  38.499  32.889  1.00  0.00    -0.237 OA
ATOM     90  O   UNL A   1      43.556  38.905  31.645  1.00  0.00    -0.237 OA
ATOM     91  O   UNL A   1      43.929  39.989  33.826  1.00  0.00    -0.744 OA
ENDBRANCH  84  88
ENDBRANCH  58  81
ENDBRANCH  32  33
ENDBRANCH  25  27
ENDBRANCH  24  25
ENDBRANCH  23  24
ENDBRANCH   1  23
TORSDOF 20
ENDMDL
MODEL 2
REMARK VINA RESULT:      -9.3      3.860      6.757
REMARK SMILES CCCC[C@@H](C(=O)OCCOC(=O)c1ccc(-c2c3nc(c(-c4cc(S(=O)(=O)[O-])ccc4F)c4ccc([nH]4)c(-c4cc(S(=O)(=O)[O-])ccc4F)c4nc(c(-c5cc(S(=O)(=O)[O-])ccc5F)c5ccc2[nH]5)C=C4)C=C3)cc1)[C@]1(O)COc2cc(O)ccc21
REMARK SMILES IDX 9 1 8 2 6 3 7 4 5 5 4 6 3 7 2 8 1 9 77 10 79 11 87 12 80 13
REMARK SMILES IDX 81 14 86 15 82 16 85 17 83 18 78 19 84 21 10 23 11 24 12 25
REMARK SMILES IDX 13 26 14 27 15 28 76 29 16 30 75 31 17 32 18 33 19 34 69 35
REMARK SMILES IDX 20 36 74 37 68 38 70 39 21 40 73 41 67 42 66 43 22 45 54 46
REMARK SMILES IDX 34 47 53 48 35 49 38 50 52 51 71 52 36 53 37 54 51 56 72 57
REMARK SMILES IDX 39 58 23 59 24 60 32 61 25 62 31 63 33 64 30 65 26 66 27 67
REMARK SMILES IDX 28 68 29 69 55 70 56 71 64 72 57 73 63 74 65 75 62 76 58 77
REMARK SMILES IDX 59 78 60 79 61 80 40 81 41 82 49 83 42 84 48 85 50 86 47 87
REMARK SMILES IDX 43 88 44 89 45 90 46 91
REMARK H PARENT 78 20 84 22 70 44 38 55
REMARK Flexibility Score: inf
ROOT
ATOM      1  C   UNL A   1      38.102  20.037  24.820  1.00  0.00     0.274 C 
ENDROOT
BRANCH   1   2
ATOM      2  O   UNL A   1      36.750  20.329  25.206  1.00  0.00    -0.462 OA
BRANCH   2   3
ATOM      3  C   UNL A   1      36.183  21.408  24.603  1.00  0.00     0.312 C 
ATOM      4  O   UNL A   1      36.709  22.065  23.712  1.00  0.00    -0.252 OA
BRANCH   3   5
ATOM      5  C   UNL A   1      34.784  21.684  25.144  1.00  0.00     0.139 C 
BRANCH   5   6
ATOM      6  C   UNL A   1      33.805  22.041  23.985  1.00  0.00     0.019 C 
BRANCH   6   7
ATOM      7  C   UNL A   1      32.703  21.020  23.670  1.00  0.00     0.001 C 
BRANCH   7   8
ATOM      8  C   UNL A   1      32.497  19.936  24.724  1.00  0.00    -0.003 C 
ATOM      9  C   UNL A   1      32.939  18.559  24.256  1.00  0.00     0.004 C 
ENDBRANCH   7   8
ENDBRANCH   6   7
ENDBRANCH   5   6
BRANCH   5  10
ATOM     10  C   UNL A   1      34.798  22.748  26.307  1.00  0.00     0.140 C 
ATOM     11  C   UNL A   1      34.176  22.201  27.605  1.00  0.00     0.270 C 
ATOM     12  C   UNL A   1      33.820  23.894  26.200  1.00  0.00     0.030 A 
ATOM     13  O   UNL A   1      32.759  22.250  27.376  1.00  0.00    -0.490 OA
ATOM     14  C   UNL A   1      32.624  23.467  26.769  1.00  0.00     0.129 A 
ATOM     15  C   UNL A   1      33.912  25.193  25.739  1.00  0.00     0.014 A 
ATOM     16  C   UNL A   1      31.464  24.203  26.763  1.00  0.00     0.093 A 
ATOM     17  C   UNL A   1      32.768  26.011  25.816  1.00  0.00     0.047 A 
ATOM     18  C   UNL A   1      31.553  25.499  26.295  1.00  0.00     0.119 A 
BRANCH  10  19
ATOM     19  O   UNL A   1      36.129  23.193  26.550  1.00  0.00    -0.381 OA
ATOM     20  H   UNL A   1      36.690  22.432  26.771  1.00  0.00     0.212 HD
ENDBRANCH  10  19
BRANCH  18  21
ATOM     21  O   UNL A   1      30.420  26.256  26.353  1.00  0.00    -0.508 OA
ATOM     22  H   UNL A   1      29.944  26.446  25.570  1.00  0.00     0.293 HD
ENDBRANCH  18  21
ENDBRANCH   5  10
ENDBRANCH   3   5
ENDBRANCH   2   3
ENDBRANCH   1   2
BRANCH   1  23
ATOM     23  C   UNL A   1      39.065  20.760  25.768  1.00  0.00     0.275 C 
BRANCH  23  24
ATOM     24  O   UNL A   1      39.973  19.823  26.385  1.00  0.00    -0.458 OA
BRANCH  24  25
ATOM     25  C   UNL A   1      41.301  20.051  26.198  1.00  0.00     0.338 C 
ATOM     26  O   UNL A   1      42.086  19.324  25.608  1.00  0.00    -0.246 OA
BRANCH  25  27
ATOM     27  C   UNL A   1      41.638  21.418  26.667  1.00  0.00     0.060 A 
ATOM     28  C   UNL A   1      41.739  22.420  25.694  1.00  0.00     0.016 A 
ATOM     29  C   UNL A   1      41.713  21.756  28.025  1.00  0.00     0.016 A 
ATOM     30  C   UNL A   1      41.759  23.762  26.074  1.00  0.00     0.010 A 
ATOM     31  C   UNL A   1      41.812  23.104  28.404  1.00  0.00     0.010 A 
ATOM     32  C   UNL A   1      41.804  24.117  27.431  1.00  0.00    -0.014 A 
BRANCH  32  33
ATOM     33  C   UNL A   1      42.113  25.531  27.767  1.00  0.00     0.031 A 
ATOM     34  C   UNL A   1      43.444  26.051  27.299  1.00  0.00     0.074 A 
ATOM     35  C   UNL A   1      41.225  26.358  28.353  1.00  0.00     0.049 A 
ATOM     36  N   UNL A   1      43.946  27.253  27.376  1.00  0.00    -0.248 NA
ATOM     37  C   UNL A   1      44.307  25.075  26.612  1.00  0.00     0.031 C 
ATOM     38  C   UNL A   1      39.863  26.003  28.748  1.00  0.00     0.029 A 
ATOM     39  N   UNL A   1      41.333  27.686  28.697  1.00  0.00    -0.354 N 
ATOM     40  C   UNL A   1      45.167  27.186  26.713  1.00  0.00     0.074 A 
ATOM     41  C   UNL A   1      45.333  25.825  26.257  1.00  0.00     0.031 C 
ATOM     42  C   UNL A   1      39.262  27.088  29.274  1.00  0.00     0.029 A 
ATOM     43  C   UNL A   1      40.205  28.207  29.294  1.00  0.00     0.049 A 
ATOM     44  H   UNL A   1      42.145  28.218  28.529  1.00  0.00     0.167 HD
ATOM     45  C   UNL A   1      46.081  28.166  26.514  1.00  0.00     0.034 A 
ATOM     46  C   UNL A   1      39.980  29.436  29.812  1.00  0.00     0.034 A 
ATOM     47  C   UNL A   1      45.962  29.483  27.078  1.00  0.00     0.049 A 
ATOM     48  C   UNL A   1      41.098  30.462  29.746  1.00  0.00     0.074 A 
ATOM     49  C   UNL A   1      46.886  30.511  27.077  1.00  0.00     0.029 A 
ATOM     50  N   UNL A   1      44.854  29.940  27.780  1.00  0.00    -0.354 N 
ATOM     51  N   UNL A   1      42.272  30.374  29.162  1.00  0.00    -0.248 NA
ATOM     52  C   UNL A   1      40.861  31.751  30.416  1.00  0.00     0.031 C 
ATOM     53  C   UNL A   1      46.364  31.564  27.837  1.00  0.00     0.029 A 
ATOM     54  C   UNL A   1      45.081  31.225  28.243  1.00  0.00     0.049 A 
ATOM     55  H   UNL A   1      44.027  29.426  27.927  1.00  0.00     0.167 HD
ATOM     56  C   UNL A   1      42.899  31.602  29.372  1.00  0.00     0.074 A 
ATOM     57  C   UNL A   1      41.966  32.420  30.118  1.00  0.00     0.031 C 
ATOM     58  C   UNL A   1      44.134  32.020  28.988  1.00  0.00     0.034 A 
BRANCH  45  59
ATOM     59  C   UNL A   1      47.326  27.764  25.768  1.00  0.00     0.023 A 
ATOM     60  C   UNL A   1      47.490  28.062  24.401  1.00  0.00     0.031 A 
ATOM     61  C   UNL A   1      48.288  26.951  26.389  1.00  0.00     0.131 A 
ATOM     62  C   UNL A   1      48.538  27.470  23.682  1.00  0.00     0.055 A 
ATOM     63  C   UNL A   1      49.376  26.433  25.685  1.00  0.00     0.041 A 
ATOM     64  F   UNL A   1      48.158  26.602  27.679  1.00  0.00    -0.206 F 
ATOM     65  C   UNL A   1      49.496  26.676  24.319  1.00  0.00     0.022 A 
BRANCH  62  66
ATOM     66  S   UNL A   1      48.531  27.600  21.871  1.00  0.00     0.124 S 
ATOM     67  O   UNL A   1      48.649  26.198  21.476  1.00  0.00    -0.237 OA
ATOM     68  O   UNL A   1      47.244  28.233  21.605  1.00  0.00    -0.237 OA
ATOM     69  O   UNL A   1      49.703  28.422  21.582  1.00  0.00    -0.744 OA
ENDBRANCH  62  66
ENDBRANCH  45  59
BRANCH  46  70
ATOM     70  C   UNL A   1      38.698  29.772  30.513  1.00  0.00     0.023 A 
ATOM     71  C   UNL A   1      37.715  30.583  29.915  1.00  0.00     0.031 A 
ATOM     72  C   UNL A   1      38.486  29.378  31.849  1.00  0.00     0.131 A 
ATOM     73  C   UNL A   1      36.603  31.015  30.663  1.00  0.00     0.055 A 
ATOM     74  C   UNL A   1      37.352  29.762  32.569  1.00  0.00     0.041 A 
ATOM     75  F   UNL A   1      39.393  28.619  32.486  1.00  0.00    -0.206 F 
ATOM     76  C   UNL A   1      36.410  30.599  31.981  1.00  0.00     0.022 A 
BRANCH  73  77
ATOM     77  S   UNL A   1      35.460  32.220  29.928  1.00  0.00     0.124 S 
ATOM     78  O   UNL A   1      34.437  32.329  30.962  1.00  0.00    -0.237 OA
ATOM     79  O   UNL A   1      36.321  33.384  29.751  1.00  0.00    -0.237 OA
ATOM     80  O   UNL A   1      35.031  31.573  28.690  1.00  0.00    -0.744 OA
ENDBRANCH  73  77
ENDBRANCH  46  70
BRANCH  58  81
ATOM     81  C   UNL A   1      44.525  33.438  29.329  1.00  0.00     0.023 A 
ATOM     82  C   UNL A   1      44.066  34.536  28.582  1.00  0.00     0.031 A 
ATOM     83  C   UNL A   1      45.355  33.691  30.435  1.00  0.00     0.131 A 
ATOM     84  C   UNL A   1      44.478  35.834  28.922  1.00  0.00     0.055 A 
ATOM     85  C   UNL A   1      45.714  34.988  30.804  1.00  0.00     0.041 A 
ATOM     86  F   UNL A   1      45.822  32.679  31.185  1.00  0.00    -0.206 F 
ATOM     87  C   UNL A   1      45.284  36.068  30.040  1.00  0.00     0.022 A 
BRANCH  84  88
ATOM     88  S   UNL A   1      44.010  37.211  27.838  1.00  0.00     0.124 S 
ATOM     89  O   UNL A   1      43.603  36.516  26.621  1.00  0.00    -0.237 OA
ATOM     90  O   UNL A   1      42.939  37.854  28.594  1.00  0.00    -0.237 OA
ATOM     91  O   UNL A   1      45.241  37.992  27.724  1.00  0.00    -0.744 OA
ENDBRANCH  84  88
ENDBRANCH  58  81
ENDBRANCH  32  33
ENDBRANCH  25  27
ENDBRANCH  24  25
ENDBRANCH  23  24
ENDBRANCH   1  23
TORSDOF 20
ENDMDL
MODEL 3
REMARK VINA RESULT:      -9.2      5.375     11.331
REMARK SMILES CCCC[C@@H](C(=O)OCCOC(=O)c1ccc(-c2c3nc(c(-c4cc(S(=O)(=O)[O-])ccc4F)c4ccc([nH]4)c(-c4cc(S(=O)(=O)[O-])ccc4F)c4nc(c(-c5cc(S(=O)(=O)[O-])ccc5F)c5ccc2[nH]5)C=C4)C=C3)cc1)[C@]1(O)COc2cc(O)ccc21
REMARK SMILES IDX 9 1 8 2 6 3 7 4 5 5 4 6 3 7 2 8 1 9 77 10 79 11 87 12 80 13
REMARK SMILES IDX 81 14 86 15 82 16 85 17 83 18 78 19 84 21 10 23 11 24 12 25
REMARK SMILES IDX 13 26 14 27 15 28 76 29 16 30 75 31 17 32 18 33 19 34 69 35
REMARK SMILES IDX 20 36 74 37 68 38 70 39 21 40 73 41 67 42 66 43 22 45 54 46
REMARK SMILES IDX 34 47 53 48 35 49 38 50 52 51 71 52 36 53 37 54 51 56 72 57
REMARK SMILES IDX 39 58 23 59 24 60 32 61 25 62 31 63 33 64 30 65 26 66 27 67
REMARK SMILES IDX 28 68 29 69 55 70 56 71 64 72 57 73 63 74 65 75 62 76 58 77
REMARK SMILES IDX 59 78 60 79 61 80 40 81 41 82 49 83 42 84 48 85 50 86 47 87
REMARK SMILES IDX 43 88 44 89 45 90 46 91
REMARK H PARENT 78 20 84 22 70 44 38 55
REMARK Flexibility Score: inf
ROOT
ATOM      1  C   UNL A   1      31.645  30.251  25.658  1.00  0.00     0.274 C 
ENDROOT
BRANCH   1   2
ATOM      2  O   UNL A   1      31.440  28.839  25.812  1.00  0.00    -0.462 OA
BRANCH   2   3
ATOM      3  C   UNL A   1      31.679  28.082  24.705  1.00  0.00     0.312 C 
ATOM      4  O   UNL A   1      31.655  28.504  23.555  1.00  0.00    -0.252 OA
BRANCH   3   5
ATOM      5  C   UNL A   1      32.023  26.643  25.073  1.00  0.00     0.139 C 
BRANCH   5   6
ATOM      6  C   UNL A   1      33.417  26.246  24.499  1.00  0.00     0.019 C 
BRANCH   6   7
ATOM      7  C   UNL A   1      34.396  25.566  25.467  1.00  0.00     0.001 C 
BRANCH   7   8
ATOM      8  C   UNL A   1      34.932  24.213  25.009  1.00  0.00    -0.003 C 
ATOM      9  C   UNL A   1      36.204  23.801  25.733  1.00  0.00     0.004 C 
ENDBRANCH   7   8
ENDBRANCH   6   7
ENDBRANCH   5   6
BRANCH   5  10
ATOM     10  C   UNL A   1      30.872  25.641  24.679  1.00  0.00     0.140 C 
ATOM     11  C   UNL A   1      29.859  25.440  25.821  1.00  0.00     0.270 C 
ATOM     12  C   UNL A   1      31.233  24.176  24.606  1.00  0.00     0.030 A 
ATOM     13  O   UNL A   1      30.518  24.556  26.741  1.00  0.00    -0.490 OA
ATOM     14  C   UNL A   1      31.086  23.652  25.887  1.00  0.00     0.129 A 
ATOM     15  C   UNL A   1      31.588  23.327  23.576  1.00  0.00     0.014 A 
ATOM     16  C   UNL A   1      31.426  22.368  26.236  1.00  0.00     0.093 A 
ATOM     17  C   UNL A   1      31.841  21.975  23.883  1.00  0.00     0.047 A 
ATOM     18  C   UNL A   1      31.788  21.520  25.209  1.00  0.00     0.119 A 
BRANCH  10  19
ATOM     19  O   UNL A   1      30.205  26.093  23.505  1.00  0.00    -0.381 OA
ATOM     20  H   UNL A   1      30.704  25.814  22.721  1.00  0.00     0.212 HD
ENDBRANCH  10  19
BRANCH  18  21
ATOM     21  O   UNL A   1      32.058  20.225  25.542  1.00  0.00    -0.508 OA
ATOM     22  H   UNL A   1      32.765  20.029  26.123  1.00  0.00     0.293 HD
ENDBRANCH  18  21
ENDBRANCH   5  10
ENDBRANCH   3   5
ENDBRANCH   2   3
ENDBRANCH   1   2
BRANCH   1  23
ATOM     23  C   UNL A   1      32.189  30.829  26.969  1.00  0.00     0.275 C 
BRANCH  23  24
ATOM     24  O   UNL A   1      33.630  30.909  26.933  1.00  0.00    -0.458 OA
BRANCH  24  25
ATOM     25  C   UNL A   1      34.205  31.862  27.715  1.00  0.00     0.338 C 
ATOM     26  O   UNL A   1      33.707  32.927  28.047  1.00  0.00    -0.246 OA
BRANCH  25  27
ATOM     27  C   UNL A   1      35.482  31.342  28.266  1.00  0.00     0.060 A 
ATOM     28  C   UNL A   1      35.555  29.967  28.519  1.00  0.00     0.016 A 
ATOM     29  C   UNL A   1      36.627  32.137  28.400  1.00  0.00     0.016 A 
ATOM     30  C   UNL A   1      36.791  29.365  28.753  1.00  0.00     0.010 A 
ATOM     31  C   UNL A   1      37.859  31.539  28.713  1.00  0.00     0.010 A 
ATOM     32  C   UNL A   1      37.953  30.145  28.860  1.00  0.00    -0.014 A 
BRANCH  32  33
ATOM     33  C   UNL A   1      39.178  29.493  29.390  1.00  0.00     0.031 A 
ATOM     34  C   UNL A   1      39.662  29.973  30.730  1.00  0.00     0.074 A 
ATOM     35  C   UNL A   1      39.777  28.450  28.782  1.00  0.00     0.049 A 
ATOM     36  N   UNL A   1      40.646  29.539  31.469  1.00  0.00    -0.248 NA
ATOM     37  C   UNL A   1      38.892  31.075  31.332  1.00  0.00     0.031 C 
ATOM     38  C   UNL A   1      39.334  27.820  27.539  1.00  0.00     0.029 A 
ATOM     39  N   UNL A   1      40.881  27.715  29.150  1.00  0.00    -0.354 N 
ATOM     40  C   UNL A   1      40.589  30.289  32.639  1.00  0.00     0.074 A 
ATOM     41  C   UNL A   1      39.485  31.212  32.502  1.00  0.00     0.031 C 
ATOM     42  C   UNL A   1      40.156  26.792  27.252  1.00  0.00     0.029 A 
ATOM     43  C   UNL A   1      41.210  26.711  28.265  1.00  0.00     0.049 A 
ATOM     44  H   UNL A   1      41.392  27.891  29.973  1.00  0.00     0.167 HD
ATOM     45  C   UNL A   1      41.393  30.230  33.727  1.00  0.00     0.034 A 
ATOM     46  C   UNL A   1      42.252  25.849  28.270  1.00  0.00     0.034 A 
ATOM     47  C   UNL A   1      42.561  29.394  33.802  1.00  0.00     0.049 A 
ATOM     48  C   UNL A   1      43.252  25.933  29.410  1.00  0.00     0.074 A 
ATOM     49  C   UNL A   1      43.536  29.355  34.780  1.00  0.00     0.029 A 
ATOM     50  N   UNL A   1      42.929  28.470  32.832  1.00  0.00    -0.354 N 
ATOM     51  N   UNL A   1      43.218  26.683  30.489  1.00  0.00    -0.248 NA
ATOM     52  C   UNL A   1      44.432  25.058  29.329  1.00  0.00     0.031 C 
ATOM     53  C   UNL A   1      44.529  28.459  34.368  1.00  0.00     0.029 A 
ATOM     54  C   UNL A   1      44.133  27.877  33.173  1.00  0.00     0.049 A 
ATOM     55  H   UNL A   1      42.410  28.267  32.020  1.00  0.00     0.167 HD
ATOM     56  C   UNL A   1      44.357  26.351  31.224  1.00  0.00     0.074 A 
ATOM     57  C   UNL A   1      45.044  25.319  30.476  1.00  0.00     0.031 C 
ATOM     58  C   UNL A   1      44.800  26.850  32.407  1.00  0.00     0.034 A 
BRANCH  45  59
ATOM     59  C   UNL A   1      41.078  31.202  34.833  1.00  0.00     0.023 A 
ATOM     60  C   UNL A   1      40.005  30.983  35.718  1.00  0.00     0.031 A 
ATOM     61  C   UNL A   1      41.763  32.426  34.911  1.00  0.00     0.131 A 
ATOM     62  C   UNL A   1      39.590  32.013  36.576  1.00  0.00     0.055 A 
ATOM     63  C   UNL A   1      41.396  33.414  35.825  1.00  0.00     0.041 A 
ATOM     64  F   UNL A   1      42.766  32.703  34.064  1.00  0.00    -0.206 F 
ATOM     65  C   UNL A   1      40.292  33.219  36.651  1.00  0.00     0.022 A 
BRANCH  62  66
ATOM     66  S   UNL A   1      38.013  31.828  37.456  1.00  0.00     0.124 S 
ATOM     67  O   UNL A   1      38.406  32.129  38.830  1.00  0.00    -0.237 OA
ATOM     68  O   UNL A   1      37.167  32.819  36.800  1.00  0.00    -0.237 OA
ATOM     69  O   UNL A   1      37.647  30.434  37.211  1.00  0.00    -0.744 OA
ENDBRANCH  62  66
ENDBRANCH  45  59
BRANCH  46  70
ATOM     70  C   UNL A   1      42.481  24.884  27.145  1.00  0.00     0.023 A 
ATOM     71  C   UNL A   1      41.982  23.568  27.183  1.00  0.00     0.031 A 
ATOM     72  C   UNL A   1      43.309  25.231  26.060  1.00  0.00     0.131 A 
ATOM     73  C   UNL A   1      42.357  22.641  26.192  1.00  0.00     0.055 A 
ATOM     74  C   UNL A   1      43.631  24.323  25.047  1.00  0.00     0.041 A 
ATOM     75  F   UNL A   1      43.834  26.464  25.972  1.00  0.00    -0.206 F 
ATOM     76  C   UNL A   1      43.167  23.014  25.118  1.00  0.00     0.022 A 
BRANCH  73  77
ATOM     77  S   UNL A   1      41.860  20.904  26.376  1.00  0.00     0.124 S 
ATOM     78  O   UNL A   1      40.425  20.976  26.123  1.00  0.00    -0.237 OA
ATOM     79  O   UNL A   1      42.662  20.249  25.349  1.00  0.00    -0.237 OA
ATOM     80  O   UNL A   1      42.236  20.586  27.752  1.00  0.00    -0.744 OA
ENDBRANCH  73  77
ENDBRANCH  46  70
BRANCH  58  81
ATOM     81  C   UNL A   1      46.060  26.255  32.985  1.00  0.00     0.023 A 
ATOM     82  C   UNL A   1      46.042  25.084  33.763  1.00  0.00     0.031 A 
ATOM     83  C   UNL A   1      47.304  26.861  32.733  1.00  0.00     0.131 A 
ATOM     84  C   UNL A   1      47.237  24.583  34.300  1.00  0.00     0.055 A 
ATOM     85  C   UNL A   1      48.496  26.326  33.221  1.00  0.00     0.041 A 
ATOM     86  F   UNL A   1      47.380  27.981  31.995  1.00  0.00    -0.206 F 
ATOM     87  C   UNL A   1      48.467  25.186  34.018  1.00  0.00     0.022 A 
BRANCH  84  88
ATOM     88  S   UNL A   1      47.160  23.173  35.439  1.00  0.00     0.124 S 
ATOM     89  O   UNL A   1      46.057  22.395  34.886  1.00  0.00    -0.237 OA
ATOM     90  O   UNL A   1      48.488  22.585  35.299  1.00  0.00    -0.237 OA
ATOM     91  O   UNL A   1      46.893  23.794  36.736  1.00  0.00    -0.744 OA
ENDBRANCH  84  88
ENDBRANCH  58  81
ENDBRANCH  32  33
ENDBRANCH  25  27
ENDBRANCH  24  25
ENDBRANCH  23  24
ENDBRANCH   1  23
TORSDOF 20
ENDMDL
