MODEL 1
REMARK VINA RESULT:     -13.6      0.000      0.000
REMARK SMILES O=C(OCCOC(=O)[C@H]1CCCCN1c1cc(-c2ccccc2)nc(-c2cccc(Cl)c2)n1)c1ccc(-c2c3nc(c(-c4cc(S(=O)(=O)[O-])ccc4F)c4ccc([nH]4)c(-c4cc(S(=O)(=O)[O-])ccc4F)c4nc(c(-c5cc(S(=O)(=O)[O-])ccc5F)c5ccc2[nH]5)C=C4)C=C3)cc1
REMARK SMILES IDX 4 1 3 2 2 3 1 4 34 5 35 6 96 7 36 8 95 9 37 10 38 11 39 12
REMARK SMILES IDX 89 13 40 14 94 15 88 16 90 17 41 18 93 19 87 20 86 21 42 23
REMARK SMILES IDX 74 24 54 25 73 26 55 27 58 28 72 29 91 30 56 31 57 32 71 34
REMARK SMILES IDX 92 35 59 36 43 37 44 38 52 39 45 40 51 41 53 42 50 43 46 44
REMARK SMILES IDX 47 45 48 46 49 47 75 48 76 49 84 50 77 51 83 52 85 53 82 54
REMARK SMILES IDX 78 55 79 56 80 57 81 58 60 59 61 60 69 61 62 62 68 63 70 64
REMARK SMILES IDX 67 65 63 66 64 67 65 68 66 69 5 70 6 71 7 72 8 73 9 74 10 75
REMARK SMILES IDX 14 76 11 77 13 78 12 79 15 80 16 81 33 82 17 83 25 84 24 85
REMARK SMILES IDX 18 86 19 87 23 88 20 89 22 90 21 91 26 92 27 93 32 94 28 95
REMARK SMILES IDX 30 96 29 97 31 98
REMARK H PARENT 90 22 58 33
REMARK Flexibility Score: inf
ROOT
ATOM      1  C   UNL A   1      35.963  23.456  26.054  1.00  0.00     0.275 C 
ENDROOT
BRANCH   1   2
ATOM      2  O   UNL A   1      37.413  23.629  25.995  1.00  0.00    -0.458 OA
BRANCH   2   3
ATOM      3  C   UNL A   1      38.353  22.614  25.916  1.00  0.00     0.338 C 
ATOM      4  O   UNL A   1      38.046  21.485  25.559  1.00  0.00    -0.246 OA
BRANCH   3   5
ATOM      5  C   UNL A   1      39.633  22.835  26.685  1.00  0.00     0.060 A 
ATOM      6  C   UNL A   1      40.487  21.438  26.810  1.00  0.00     0.016 A 
ATOM      7  C   UNL A   1      40.449  24.370  26.548  1.00  0.00     0.016 A 
ATOM      8  C   UNL A   1      42.221  21.449  26.689  1.00  0.00     0.010 A 
ATOM      9  C   UNL A   1      42.188  24.570  26.490  1.00  0.00     0.010 A 
ATOM     10  C   UNL A   1      43.233  23.118  26.581  1.00  0.00    -0.014 A 
BRANCH  10  11
ATOM     11  C   UNL A   1      44.596  23.737  27.401  1.00  0.00     0.031 A 
ATOM     12  C   UNL A   1      45.812  24.468  26.729  1.00  0.00     0.074 A 
ATOM     13  C   UNL A   1      44.661  23.762  28.745  1.00  0.00     0.049 A 
ATOM     14  N   UNL A   1      46.653  25.321  27.294  1.00  0.00    -0.248 NA
ATOM     15  C   UNL A   1      46.161  24.236  25.318  1.00  0.00     0.031 C 
ATOM     16  C   UNL A   1      43.787  22.951  29.517  1.00  0.00     0.029 A 
ATOM     17  N   UNL A   1      45.312  24.515  29.695  1.00  0.00    -0.354 N 
ATOM     18  C   UNL A   1      47.565  25.719  26.311  1.00  0.00     0.074 A 
ATOM     19  C   UNL A   1      47.164  25.069  25.096  1.00  0.00     0.031 C 
ATOM     20  C   UNL A   1      43.660  23.450  30.749  1.00  0.00     0.029 A 
ATOM     21  C   UNL A   1      44.693  24.452  30.940  1.00  0.00     0.049 A 
ATOM     22  H   UNL A   1      46.125  25.040  29.513  1.00  0.00     0.167 HD
ATOM     23  C   UNL A   1      48.690  26.477  26.396  1.00  0.00     0.034 A 
ATOM     24  C   UNL A   1      44.929  25.072  32.118  1.00  0.00     0.034 A 
ATOM     25  C   UNL A   1      49.227  26.989  27.630  1.00  0.00     0.049 A 
ATOM     26  C   UNL A   1      46.177  25.903  32.192  1.00  0.00     0.074 A 
ATOM     27  C   UNL A   1      50.415  27.674  27.831  1.00  0.00     0.029 A 
ATOM     28  N   UNL A   1      48.653  26.818  28.880  1.00  0.00    -0.354 N 
ATOM     29  N   UNL A   1      46.969  26.271  31.213  1.00  0.00    -0.248 NA
ATOM     30  C   UNL A   1      46.620  26.319  33.526  1.00  0.00     0.031 C 
ATOM     31  C   UNL A   1      50.604  27.829  29.207  1.00  0.00     0.029 A 
ATOM     32  C   UNL A   1      49.484  27.340  29.858  1.00  0.00     0.049 A 
ATOM     33  H   UNL A   1      47.783  26.389  29.048  1.00  0.00     0.167 HD
ATOM     34  C   UNL A   1      48.042  26.905  31.825  1.00  0.00     0.074 A 
ATOM     35  C   UNL A   1      47.745  26.956  33.242  1.00  0.00     0.031 C 
ATOM     36  C   UNL A   1      49.192  27.356  31.269  1.00  0.00     0.034 A 
BRANCH  23  37
ATOM     37  C   UNL A   1      49.514  26.668  25.134  1.00  0.00     0.023 A 
ATOM     38  C   UNL A   1      49.050  27.410  24.033  1.00  0.00     0.031 A 
ATOM     39  C   UNL A   1      50.795  26.090  25.043  1.00  0.00     0.131 A 
ATOM     40  C   UNL A   1      49.853  27.530  22.883  1.00  0.00     0.055 A 
ATOM     41  C   UNL A   1      51.611  26.264  23.923  1.00  0.00     0.041 A 
ATOM     42  F   UNL A   1      51.277  25.341  26.048  1.00  0.00    -0.206 F 
ATOM     43  C   UNL A   1      51.138  26.984  22.831  1.00  0.00     0.022 A 
BRANCH  40  44
ATOM     44  S   UNL A   1      49.161  28.326  21.403  1.00  0.00     0.124 S 
ATOM     45  O   UNL A   1      50.063  29.462  21.229  1.00  0.00    -0.237 OA
ATOM     46  O   UNL A   1      49.262  27.272  20.400  1.00  0.00    -0.237 OA
ATOM     47  O   UNL A   1      47.800  28.675  21.803  1.00  0.00    -0.744 OA
ENDBRANCH  40  44
ENDBRANCH  23  37
BRANCH  24  48
ATOM     48  C   UNL A   1      44.102  24.808  33.350  1.00  0.00     0.023 A 
ATOM     49  C   UNL A   1      43.250  25.784  33.903  1.00  0.00     0.031 A 
ATOM     50  C   UNL A   1      44.215  23.593  34.058  1.00  0.00     0.131 A 
ATOM     51  C   UNL A   1      42.581  25.533  35.118  1.00  0.00     0.055 A 
ATOM     52  C   UNL A   1      43.457  23.305  35.192  1.00  0.00     0.041 A 
ATOM     53  F   UNL A   1      45.081  22.647  33.659  1.00  0.00    -0.206 F 
ATOM     54  C   UNL A   1      42.646  24.287  35.741  1.00  0.00     0.022 A 
BRANCH  51  55
ATOM     55  S   UNL A   1      41.771  26.912  35.984  1.00  0.00     0.124 S 
ATOM     56  O   UNL A   1      41.164  27.641  34.875  1.00  0.00    -0.237 OA
ATOM     57  O   UNL A   1      40.852  26.214  36.876  1.00  0.00    -0.237 OA
ATOM     58  O   UNL A   1      42.880  27.596  36.645  1.00  0.00    -0.744 OA
ENDBRANCH  51  55
ENDBRANCH  24  48
BRANCH  36  59
ATOM     59  C   UNL A   1      50.204  27.943  32.211  1.00  0.00     0.023 A 
ATOM     60  C   UNL A   1      50.197  29.313  32.527  1.00  0.00     0.031 A 
ATOM     61  C   UNL A   1      51.213  27.136  32.761  1.00  0.00     0.131 A 
ATOM     62  C   UNL A   1      51.228  29.851  33.307  1.00  0.00     0.055 A 
ATOM     63  C   UNL A   1      52.193  27.664  33.600  1.00  0.00     0.041 A 
ATOM     64  F   UNL A   1      51.266  25.824  32.484  1.00  0.00    -0.206 F 
ATOM     65  C   UNL A   1      52.215  29.031  33.862  1.00  0.00     0.022 A 
BRANCH  62  66
ATOM     66  S   UNL A   1      51.334  31.652  33.478  1.00  0.00     0.124 S 
ATOM     67  O   UNL A   1      50.336  31.916  34.509  1.00  0.00    -0.237 OA
ATOM     68  O   UNL A   1      52.725  31.849  33.872  1.00  0.00    -0.237 OA
ATOM     69  O   UNL A   1      50.992  32.141  32.144  1.00  0.00    -0.744 OA
ENDBRANCH  62  66
ENDBRANCH  36  59
ENDBRANCH  10  11
ENDBRANCH   3   5
ENDBRANCH   2   3
ENDBRANCH   1   2
BRANCH   1  70
ATOM     70  C   UNL A   1      35.095  24.491  25.225  1.00  0.00     0.274 C 
BRANCH  70  71
ATOM     71  O   UNL A   1      34.697  24.138  23.862  1.00  0.00    -0.461 OA
BRANCH  71  72
ATOM     72  C   UNL A   1      33.874  24.982  23.162  1.00  0.00     0.328 C 
ATOM     73  O   UNL A   1      34.188  25.404  22.050  1.00  0.00    -0.250 OA
BRANCH  72  74
ATOM     74  C   UNL A   1      32.400  25.134  23.766  1.00  0.00     0.193 C 
ATOM     75  C   UNL A   1      31.495  23.554  23.365  1.00  0.00     0.037 C 
ATOM     76  N   UNL A   1      32.246  25.682  25.360  1.00  0.00    -0.343 N 
ATOM     77  C   UNL A   1      31.191  22.012  24.914  1.00  0.00     0.005 C 
ATOM     78  C   UNL A   1      31.911  24.697  26.839  1.00  0.00     0.119 C 
ATOM     79  C   UNL A   1      31.460  22.795  26.750  1.00  0.00     0.022 C 
BRANCH  76  80
ATOM     80  C   UNL A   1      32.046  27.077  25.301  1.00  0.00     0.134 A 
ATOM     81  C   UNL A   1      31.157  27.659  24.439  1.00  0.00     0.076 A 
ATOM     82  N   UNL A   1      32.713  27.860  26.192  1.00  0.00    -0.211 NA
ATOM     83  C   UNL A   1      31.010  29.045  24.529  1.00  0.00     0.076 A 
ATOM     84  C   UNL A   1      32.644  29.203  26.096  1.00  0.00     0.162 A 
ATOM     85  N   UNL A   1      31.770  29.839  25.318  1.00  0.00    -0.228 NA
BRANCH  83  86
ATOM     86  C   UNL A   1      29.943  29.739  23.806  1.00  0.00     0.000 A 
ATOM     87  C   UNL A   1      29.210  29.104  22.795  1.00  0.00     0.010 A 
ATOM     88  C   UNL A   1      29.627  31.071  24.127  1.00  0.00     0.010 A 
ATOM     89  C   UNL A   1      28.149  29.760  22.165  1.00  0.00     0.001 A 
ATOM     90  C   UNL A   1      28.573  31.731  23.494  1.00  0.00     0.001 A 
ATOM     91  C   UNL A   1      27.825  31.067  22.523  1.00  0.00     0.000 A 
ENDBRANCH  83  86
BRANCH  84  92
ATOM     92  C   UNL A   1      33.653  30.013  26.818  1.00  0.00     0.021 A 
ATOM     93  C   UNL A   1      33.371  31.323  27.261  1.00  0.00     0.012 A 
ATOM     94  C   UNL A   1      34.923  29.504  27.132  1.00  0.00     0.032 A 
ATOM     95  C   UNL A   1      34.304  32.101  27.960  1.00  0.00     0.002 A 
ATOM     96  C   UNL A   1      35.862  30.284  27.824  1.00  0.00     0.041 A 
ATOM     97  C   UNL A   1      35.560  31.580  28.237  1.00  0.00     0.020 A 
ATOM     98  Cl  UNL A   1      37.421  29.638  28.172  1.00  0.00    -0.084 Cl
ENDBRANCH  84  92
ENDBRANCH  76  80
ENDBRANCH  72  74
ENDBRANCH  71  72
ENDBRANCH  70  71
ENDBRANCH   1  70
TORSDOF 17
ENDMDL
MODEL 2
REMARK VINA RESULT:     -13.0      5.360      8.494
REMARK SMILES O=C(OCCOC(=O)[C@H]1CCCCN1c1cc(-c2ccccc2)nc(-c2cccc(Cl)c2)n1)c1ccc(-c2c3nc(c(-c4cc(S(=O)(=O)[O-])ccc4F)c4ccc([nH]4)c(-c4cc(S(=O)(=O)[O-])ccc4F)c4nc(c(-c5cc(S(=O)(=O)[O-])ccc5F)c5ccc2[nH]5)C=C4)C=C3)cc1
REMARK SMILES IDX 4 1 3 2 2 3 1 4 34 5 35 6 96 7 36 8 95 9 37 10 38 11 39 12
REMARK SMILES IDX 89 13 40 14 94 15 88 16 90 17 41 18 93 19 87 20 86 21 42 23
REMARK SMILES IDX 74 24 54 25 73 26 55 27 58 28 72 29 91 30 56 31 57 32 71 34
REMARK SMILES IDX 92 35 59 36 43 37 44 38 52 39 45 40 51 41 53 42 50 43 46 44
REMARK SMILES IDX 47 45 48 46 49 47 75 48 76 49 84 50 77 51 83 52 85 53 82 54
REMARK SMILES IDX 78 55 79 56 80 57 81 58 60 59 61 60 69 61 62 62 68 63 70 64
REMARK SMILES IDX 67 65 63 66 64 67 65 68 66 69 5 70 6 71 7 72 8 73 9 74 10 75
REMARK SMILES IDX 14 76 11 77 13 78 12 79 15 80 16 81 33 82 17 83 25 84 24 85
REMARK SMILES IDX 18 86 19 87 23 88 20 89 22 90 21 91 26 92 27 93 32 94 28 95
REMARK SMILES IDX 30 96 29 97 31 98
REMARK H PARENT 90 22 58 33
REMARK Flexibility Score: inf
ROOT
ATOM      1  C   UNL A   1      37.588  21.821  24.617  1.00  0.00     0.275 C 
ENDROOT
BRANCH   1   2
ATOM      2  O   UNL A   1      38.274  22.388  25.778  1.00  0.00    -0.458 OA
BRANCH   2   3
ATOM      3  C   UNL A   1      39.532  22.031  26.235  1.00  0.00     0.338 C 
ATOM      4  O   UNL A   1      39.936  20.879  26.163  1.00  0.00    -0.246 OA
BRANCH   3   5
ATOM      5  C   UNL A   1      40.185  22.994  27.198  1.00  0.00     0.060 A 
ATOM      6  C   UNL A   1      41.688  23.405  26.682  1.00  0.00     0.016 A 
ATOM      7  C   UNL A   1      39.188  24.144  28.051  1.00  0.00     0.016 A 
ATOM      8  C   UNL A   1      42.273  25.031  26.871  1.00  0.00     0.010 A 
ATOM      9  C   UNL A   1      39.652  25.798  28.395  1.00  0.00     0.010 A 
ATOM     10  C   UNL A   1      41.256  26.382  27.853  1.00  0.00    -0.014 A 
BRANCH  10  11
ATOM     11  C   UNL A   1      41.641  27.496  29.087  1.00  0.00     0.031 A 
ATOM     12  C   UNL A   1      40.801  28.768  29.464  1.00  0.00     0.074 A 
ATOM     13  C   UNL A   1      42.658  27.280  29.942  1.00  0.00     0.049 A 
ATOM     14  N   UNL A   1      40.784  29.409  30.623  1.00  0.00    -0.248 NA
ATOM     15  C   UNL A   1      39.912  29.416  28.486  1.00  0.00     0.031 C 
ATOM     16  C   UNL A   1      43.664  26.327  29.629  1.00  0.00     0.029 A 
ATOM     17  N   UNL A   1      42.976  27.663  31.224  1.00  0.00    -0.354 N 
ATOM     18  C   UNL A   1      39.884  30.472  30.496  1.00  0.00     0.074 A 
ATOM     19  C   UNL A   1      39.326  30.380  29.178  1.00  0.00     0.031 C 
ATOM     20  C   UNL A   1      44.271  25.913  30.743  1.00  0.00     0.029 A 
ATOM     21  C   UNL A   1      43.895  26.807  31.823  1.00  0.00     0.049 A 
ATOM     22  H   UNL A   1      42.595  28.456  31.668  1.00  0.00     0.167 HD
ATOM     23  C   UNL A   1      39.593  31.496  31.342  1.00  0.00     0.034 A 
ATOM     24  C   UNL A   1      44.425  26.748  33.066  1.00  0.00     0.034 A 
ATOM     25  C   UNL A   1      40.269  31.727  32.592  1.00  0.00     0.049 A 
ATOM     26  C   UNL A   1      44.094  27.889  33.983  1.00  0.00     0.074 A 
ATOM     27  C   UNL A   1      40.121  32.795  33.464  1.00  0.00     0.029 A 
ATOM     28  N   UNL A   1      41.266  30.922  33.119  1.00  0.00    -0.354 N 
ATOM     29  N   UNL A   1      43.203  28.838  33.814  1.00  0.00    -0.248 NA
ATOM     30  C   UNL A   1      44.896  28.016  35.203  1.00  0.00     0.031 C 
ATOM     31  C   UNL A   1      41.092  32.683  34.462  1.00  0.00     0.029 A 
ATOM     32  C   UNL A   1      41.773  31.492  34.276  1.00  0.00     0.049 A 
ATOM     33  H   UNL A   1      41.569  30.070  32.730  1.00  0.00     0.167 HD
ATOM     34  C   UNL A   1      43.387  29.711  34.877  1.00  0.00     0.074 A 
ATOM     35  C   UNL A   1      44.401  29.125  35.729  1.00  0.00     0.031 C 
ATOM     36  C   UNL A   1      42.806  30.915  35.098  1.00  0.00     0.034 A 
BRANCH  23  37
ATOM     37  C   UNL A   1      38.603  32.546  30.869  1.00  0.00     0.023 A 
ATOM     38  C   UNL A   1      37.268  32.581  31.310  1.00  0.00     0.031 A 
ATOM     39  C   UNL A   1      39.017  33.535  29.955  1.00  0.00     0.131 A 
ATOM     40  C   UNL A   1      36.393  33.567  30.817  1.00  0.00     0.055 A 
ATOM     41  C   UNL A   1      38.160  34.547  29.516  1.00  0.00     0.041 A 
ATOM     42  F   UNL A   1      40.270  33.533  29.470  1.00  0.00    -0.206 F 
ATOM     43  C   UNL A   1      36.837  34.563  29.943  1.00  0.00     0.022 A 
BRANCH  40  44
ATOM     44  S   UNL A   1      34.630  33.478  31.248  1.00  0.00     0.124 S 
ATOM     45  O   UNL A   1      34.447  32.043  31.450  1.00  0.00    -0.237 OA
ATOM     46  O   UNL A   1      34.554  34.306  32.446  1.00  0.00    -0.237 OA
ATOM     47  O   UNL A   1      33.959  34.025  30.070  1.00  0.00    -0.744 OA
ENDBRANCH  40  44
ENDBRANCH  23  37
BRANCH  24  48
ATOM     48  C   UNL A   1      45.439  25.707  33.464  1.00  0.00     0.023 A 
ATOM     49  C   UNL A   1      45.061  24.463  34.007  1.00  0.00     0.031 A 
ATOM     50  C   UNL A   1      46.823  25.970  33.389  1.00  0.00     0.131 A 
ATOM     51  C   UNL A   1      46.044  23.565  34.469  1.00  0.00     0.055 A 
ATOM     52  C   UNL A   1      47.791  25.029  33.732  1.00  0.00     0.041 A 
ATOM     53  F   UNL A   1      47.270  27.168  32.978  1.00  0.00    -0.206 F 
ATOM     54  C   UNL A   1      47.404  23.821  34.294  1.00  0.00     0.022 A 
BRANCH  51  55
ATOM     55  S   UNL A   1      45.537  22.136  35.471  1.00  0.00     0.124 S 
ATOM     56  O   UNL A   1      44.154  21.951  35.044  1.00  0.00    -0.237 OA
ATOM     57  O   UNL A   1      46.484  21.112  35.046  1.00  0.00    -0.237 OA
ATOM     58  O   UNL A   1      45.705  22.607  36.845  1.00  0.00    -0.744 OA
ENDBRANCH  51  55
ENDBRANCH  24  48
BRANCH  36  59
ATOM     59  C   UNL A   1      43.265  31.665  36.316  1.00  0.00     0.023 A 
ATOM     60  C   UNL A   1      42.517  31.648  37.506  1.00  0.00     0.031 A 
ATOM     61  C   UNL A   1      44.435  32.440  36.273  1.00  0.00     0.131 A 
ATOM     62  C   UNL A   1      42.906  32.457  38.582  1.00  0.00     0.055 A 
ATOM     63  C   UNL A   1      44.858  33.184  37.373  1.00  0.00     0.041 A 
ATOM     64  F   UNL A   1      45.179  32.492  35.157  1.00  0.00    -0.206 F 
ATOM     65  C   UNL A   1      44.082  33.209  38.529  1.00  0.00     0.022 A 
BRANCH  62  66
ATOM     66  S   UNL A   1      41.784  32.613  39.996  1.00  0.00     0.124 S 
ATOM     67  O   UNL A   1      42.286  31.577  40.894  1.00  0.00    -0.237 OA
ATOM     68  O   UNL A   1      42.007  33.990  40.424  1.00  0.00    -0.237 OA
ATOM     69  O   UNL A   1      40.468  32.348  39.419  1.00  0.00    -0.744 OA
ENDBRANCH  62  66
ENDBRANCH  36  59
ENDBRANCH  10  11
ENDBRANCH   3   5
ENDBRANCH   2   3
ENDBRANCH   1   2
BRANCH   1  70
ATOM     70  C   UNL A   1      36.048  22.166  24.471  1.00  0.00     0.274 C 
BRANCH  70  71
ATOM     71  O   UNL A   1      35.670  23.480  23.951  1.00  0.00    -0.461 OA
BRANCH  71  72
ATOM     72  C   UNL A   1      34.989  24.353  24.761  1.00  0.00     0.328 C 
ATOM     73  O   UNL A   1      35.572  25.023  25.612  1.00  0.00    -0.250 OA
BRANCH  72  74
ATOM     74  C   UNL A   1      33.475  24.627  24.325  1.00  0.00     0.193 C 
ATOM     75  C   UNL A   1      32.962  23.190  23.252  1.00  0.00     0.037 C 
ATOM     76  N   UNL A   1      32.369  25.075  25.527  1.00  0.00    -0.343 N 
ATOM     77  C   UNL A   1      31.680  21.586  24.064  1.00  0.00     0.005 C 
ATOM     78  C   UNL A   1      31.132  24.032  26.333  1.00  0.00     0.119 C 
ATOM     79  C   UNL A   1      30.759  22.203  25.745  1.00  0.00     0.022 C 
BRANCH  76  80
ATOM     80  C   UNL A   1      32.311  26.484  25.530  1.00  0.00     0.134 A 
ATOM     81  C   UNL A   1      33.091  27.253  26.351  1.00  0.00     0.076 A 
ATOM     82  N   UNL A   1      31.499  27.096  24.626  1.00  0.00    -0.211 NA
ATOM     83  C   UNL A   1      32.980  28.637  26.207  1.00  0.00     0.076 A 
ATOM     84  C   UNL A   1      31.322  28.432  24.671  1.00  0.00     0.162 A 
ATOM     85  N   UNL A   1      32.077  29.247  25.406  1.00  0.00    -0.228 NA
BRANCH  83  86
ATOM     86  C   UNL A   1      33.913  29.543  26.880  1.00  0.00     0.000 A 
ATOM     87  C   UNL A   1      35.212  29.140  27.214  1.00  0.00     0.010 A 
ATOM     88  C   UNL A   1      33.514  30.853  27.200  1.00  0.00     0.010 A 
ATOM     89  C   UNL A   1      36.110  30.041  27.793  1.00  0.00     0.001 A 
ATOM     90  C   UNL A   1      34.406  31.752  27.785  1.00  0.00     0.001 A 
ATOM     91  C   UNL A   1      35.710  31.348  28.067  1.00  0.00     0.000 A 
ENDBRANCH  83  86
BRANCH  84  92
ATOM     92  C   UNL A   1      30.172  29.014  23.941  1.00  0.00     0.021 A 
ATOM     93  C   UNL A   1      29.209  28.199  23.306  1.00  0.00     0.012 A 
ATOM     94  C   UNL A   1      29.961  30.400  23.877  1.00  0.00     0.032 A 
ATOM     95  C   UNL A   1      28.105  28.727  22.624  1.00  0.00     0.002 A 
ATOM     96  C   UNL A   1      28.860  30.932  23.187  1.00  0.00     0.041 A 
ATOM     97  C   UNL A   1      27.933  30.103  22.558  1.00  0.00     0.020 A 
ATOM     98  Cl  UNL A   1      28.644  32.639  23.107  1.00  0.00    -0.084 Cl
ENDBRANCH  84  92
ENDBRANCH  76  80
ENDBRANCH  72  74
ENDBRANCH  71  72
ENDBRANCH  70  71
ENDBRANCH   1  70
TORSDOF 17
ENDMDL
MODEL 3
REMARK VINA RESULT:     -12.8      9.688     15.683
REMARK SMILES O=C(OCCOC(=O)[C@H]1CCCCN1c1cc(-c2ccccc2)nc(-c2cccc(Cl)c2)n1)c1ccc(-c2c3nc(c(-c4cc(S(=O)(=O)[O-])ccc4F)c4ccc([nH]4)c(-c4cc(S(=O)(=O)[O-])ccc4F)c4nc(c(-c5cc(S(=O)(=O)[O-])ccc5F)c5ccc2[nH]5)C=C4)C=C3)cc1
REMARK SMILES IDX 4 1 3 2 2 3 1 4 34 5 35 6 96 7 36 8 95 9 37 10 38 11 39 12
REMARK SMILES IDX 89 13 40 14 94 15 88 16 90 17 41 18 93 19 87 20 86 21 42 23
REMARK SMILES IDX 74 24 54 25 73 26 55 27 58 28 72 29 91 30 56 31 57 32 71 34
REMARK SMILES IDX 92 35 59 36 43 37 44 38 52 39 45 40 51 41 53 42 50 43 46 44
REMARK SMILES IDX 47 45 48 46 49 47 75 48 76 49 84 50 77 51 83 52 85 53 82 54
REMARK SMILES IDX 78 55 79 56 80 57 81 58 60 59 61 60 69 61 62 62 68 63 70 64
REMARK SMILES IDX 67 65 63 66 64 67 65 68 66 69 5 70 6 71 7 72 8 73 9 74 10 75
REMARK SMILES IDX 14 76 11 77 13 78 12 79 15 80 16 81 33 82 17 83 25 84 24 85
REMARK SMILES IDX 18 86 19 87 23 88 20 89 22 90 21 91 26 92 27 93 32 94 28 95
REMARK SMILES IDX 30 96 29 97 31 98
REMARK H PARENT 90 22 58 33
REMARK Flexibility Score: inf
ROOT
ATOM      1  C   UNL A   1      48.186  39.181  27.941  1.00  0.00     0.275 C 
ENDROOT
BRANCH   1   2
ATOM      2  O   UNL A   1      47.468  37.937  27.669  1.00  0.00    -0.458 OA
BRANCH   2   3
ATOM      3  C   UNL A   1      47.782  37.013  26.686  1.00  0.00     0.338 C 
ATOM      4  O   UNL A   1      48.082  37.362  25.552  1.00  0.00    -0.246 OA
BRANCH   3   5
ATOM      5  C   UNL A   1      47.322  35.596  26.936  1.00  0.00     0.060 A 
ATOM      6  C   UNL A   1      48.030  34.983  28.284  1.00  0.00     0.016 A 
ATOM      7  C   UNL A   1      45.695  35.144  26.497  1.00  0.00     0.016 A 
ATOM      8  C   UNL A   1      47.131  33.962  29.367  1.00  0.00     0.010 A 
ATOM      9  C   UNL A   1      44.677  34.068  27.431  1.00  0.00     0.010 A 
ATOM     10  C   UNL A   1      45.320  33.359  28.945  1.00  0.00    -0.014 A 
BRANCH  10  11
ATOM     11  C   UNL A   1      44.537  31.842  28.963  1.00  0.00     0.031 A 
ATOM     12  C   UNL A   1      43.062  31.581  29.432  1.00  0.00     0.074 A 
ATOM     13  C   UNL A   1      45.109  30.746  28.430  1.00  0.00     0.049 A 
ATOM     14  N   UNL A   1      42.272  30.575  29.088  1.00  0.00    -0.248 NA
ATOM     15  C   UNL A   1      42.388  32.485  30.378  1.00  0.00     0.031 C 
ATOM     16  C   UNL A   1      46.506  30.722  28.175  1.00  0.00     0.029 A 
ATOM     17  N   UNL A   1      44.669  29.561  27.888  1.00  0.00    -0.354 N 
ATOM     18  C   UNL A   1      41.051  30.763  29.742  1.00  0.00     0.074 A 
ATOM     19  C   UNL A   1      41.161  31.997  30.467  1.00  0.00     0.031 C 
ATOM     20  C   UNL A   1      46.789  29.808  27.243  1.00  0.00     0.029 A 
ATOM     21  C   UNL A   1      45.619  28.970  27.060  1.00  0.00     0.049 A 
ATOM     22  H   UNL A   1      43.781  29.174  28.066  1.00  0.00     0.167 HD
ATOM     23  C   UNL A   1      39.955  29.963  29.827  1.00  0.00     0.034 A 
ATOM     24  C   UNL A   1      45.600  27.868  26.276  1.00  0.00     0.034 A 
ATOM     25  C   UNL A   1      39.879  28.637  29.271  1.00  0.00     0.049 A 
ATOM     26  C   UNL A   1      44.382  26.997  26.386  1.00  0.00     0.074 A 
ATOM     27  C   UNL A   1      38.856  27.710  29.397  1.00  0.00     0.029 A 
ATOM     28  N   UNL A   1      40.884  28.019  28.544  1.00  0.00    -0.354 N 
ATOM     29  N   UNL A   1      43.247  27.257  26.990  1.00  0.00    -0.248 NA
ATOM     30  C   UNL A   1      44.470  25.656  25.801  1.00  0.00     0.031 C 
ATOM     31  C   UNL A   1      39.283  26.506  28.831  1.00  0.00     0.029 A 
ATOM     32  C   UNL A   1      40.526  26.712  28.256  1.00  0.00     0.049 A 
ATOM     33  H   UNL A   1      41.728  28.447  28.271  1.00  0.00     0.167 HD
ATOM     34  C   UNL A   1      42.511  26.082  26.915  1.00  0.00     0.074 A 
ATOM     35  C   UNL A   1      43.289  25.151  26.123  1.00  0.00     0.031 C 
ATOM     36  C   UNL A   1      41.323  25.785  27.495  1.00  0.00     0.034 A 
BRANCH  23  37
ATOM     37  C   UNL A   1      38.798  30.434  30.691  1.00  0.00     0.023 A 
ATOM     38  C   UNL A   1      37.676  31.094  30.158  1.00  0.00     0.031 A 
ATOM     39  C   UNL A   1      38.828  30.210  32.081  1.00  0.00     0.131 A 
ATOM     40  C   UNL A   1      36.646  31.527  31.015  1.00  0.00     0.055 A 
ATOM     41  C   UNL A   1      37.776  30.588  32.918  1.00  0.00     0.041 A 
ATOM     42  F   UNL A   1      39.889  29.617  32.653  1.00  0.00    -0.206 F 
ATOM     43  C   UNL A   1      36.678  31.256  32.386  1.00  0.00     0.022 A 
BRANCH  40  44
ATOM     44  S   UNL A   1      35.302  32.544  30.337  1.00  0.00     0.124 S 
ATOM     45  O   UNL A   1      34.371  32.591  31.462  1.00  0.00    -0.237 OA
ATOM     46  O   UNL A   1      35.981  33.794  30.018  1.00  0.00    -0.237 OA
ATOM     47  O   UNL A   1      34.836  31.776  29.184  1.00  0.00    -0.744 OA
ENDBRANCH  40  44
ENDBRANCH  23  37
BRANCH  24  48
ATOM     48  C   UNL A   1      46.797  27.425  25.474  1.00  0.00     0.023 A 
ATOM     49  C   UNL A   1      47.059  27.924  24.183  1.00  0.00     0.031 A 
ATOM     50  C   UNL A   1      47.663  26.420  25.952  1.00  0.00     0.131 A 
ATOM     51  C   UNL A   1      48.126  27.400  23.426  1.00  0.00     0.055 A 
ATOM     52  C   UNL A   1      48.788  25.994  25.248  1.00  0.00     0.041 A 
ATOM     53  F   UNL A   1      47.428  25.817  27.129  1.00  0.00    -0.206 F 
ATOM     54  C   UNL A   1      49.016  26.472  23.966  1.00  0.00     0.022 A 
BRANCH  51  55
ATOM     55  S   UNL A   1      48.236  27.802  21.656  1.00  0.00     0.124 S 
ATOM     56  O   UNL A   1      46.914  28.362  21.397  1.00  0.00    -0.237 OA
ATOM     57  O   UNL A   1      49.350  28.742  21.625  1.00  0.00    -0.237 OA
ATOM     58  O   UNL A   1      48.497  26.508  21.030  1.00  0.00    -0.744 OA
ENDBRANCH  51  55
ENDBRANCH  24  48
BRANCH  36  59
ATOM     59  C   UNL A   1      40.806  24.390  27.281  1.00  0.00     0.023 A 
ATOM     60  C   UNL A   1      39.690  24.145  26.464  1.00  0.00     0.031 A 
ATOM     61  C   UNL A   1      41.405  23.304  27.939  1.00  0.00     0.131 A 
ATOM     62  C   UNL A   1      39.157  22.852  26.386  1.00  0.00     0.055 A 
ATOM     63  C   UNL A   1      40.916  22.006  27.797  1.00  0.00     0.041 A 
ATOM     64  F   UNL A   1      42.469  23.489  28.735  1.00  0.00    -0.206 F 
ATOM     65  C   UNL A   1      39.775  21.777  27.032  1.00  0.00     0.022 A 
BRANCH  62  66
ATOM     66  S   UNL A   1      37.573  22.618  25.537  1.00  0.00     0.124 S 
ATOM     67  O   UNL A   1      37.154  23.995  25.297  1.00  0.00    -0.237 OA
ATOM     68  O   UNL A   1      37.960  21.853  24.356  1.00  0.00    -0.237 OA
ATOM     69  O   UNL A   1      36.768  21.886  26.514  1.00  0.00    -0.744 OA
ENDBRANCH  62  66
ENDBRANCH  36  59
ENDBRANCH  10  11
ENDBRANCH   3   5
ENDBRANCH   2   3
ENDBRANCH   1   2
BRANCH   1  70
ATOM     70  C   UNL A   1      47.517  40.513  27.403  1.00  0.00     0.274 C 
BRANCH  70  71
ATOM     71  O   UNL A   1      46.554  41.208  28.257  1.00  0.00    -0.461 OA
BRANCH  71  72
ATOM     72  C   UNL A   1      45.221  40.908  28.150  1.00  0.00     0.328 C 
ATOM     73  O   UNL A   1      44.433  41.163  29.060  1.00  0.00    -0.250 OA
BRANCH  72  74
ATOM     74  C   UNL A   1      44.747  40.478  26.684  1.00  0.00     0.193 C 
ATOM     75  C   UNL A   1      44.355  38.656  26.765  1.00  0.00     0.037 C 
ATOM     76  N   UNL A   1      43.593  41.442  25.905  1.00  0.00    -0.343 N 
ATOM     77  C   UNL A   1      42.261  37.964  26.860  1.00  0.00     0.005 C 
ATOM     78  C   UNL A   1      41.823  41.119  25.728  1.00  0.00     0.119 C 
ATOM     79  C   UNL A   1      41.008  39.424  26.269  1.00  0.00     0.022 C 
BRANCH  76  80
ATOM     80  C   UNL A   1      44.297  42.351  25.089  1.00  0.00     0.134 A 
ATOM     81  C   UNL A   1      45.256  43.196  25.581  1.00  0.00     0.076 A 
ATOM     82  N   UNL A   1      44.060  42.329  23.749  1.00  0.00    -0.211 NA
ATOM     83  C   UNL A   1      45.921  43.999  24.653  1.00  0.00     0.076 A 
ATOM     84  C   UNL A   1      44.620  43.257  22.948  1.00  0.00     0.162 A 
ATOM     85  N   UNL A   1      45.593  44.077  23.343  1.00  0.00    -0.228 NA
BRANCH  83  86
ATOM     86  C   UNL A   1      47.099  44.779  25.038  1.00  0.00     0.000 A 
ATOM     87  C   UNL A   1      48.168  44.974  24.154  1.00  0.00     0.010 A 
ATOM     88  C   UNL A   1      47.171  45.361  26.317  1.00  0.00     0.010 A 
ATOM     89  C   UNL A   1      49.251  45.780  24.514  1.00  0.00     0.001 A 
ATOM     90  C   UNL A   1      48.256  46.159  26.681  1.00  0.00     0.001 A 
ATOM     91  C   UNL A   1      49.288  46.380  25.772  1.00  0.00     0.000 A 
ENDBRANCH  83  86
BRANCH  84  92
ATOM     92  C   UNL A   1      44.063  43.441  21.587  1.00  0.00     0.021 A 
ATOM     93  C   UNL A   1      42.982  42.662  21.119  1.00  0.00     0.012 A 
ATOM     94  C   UNL A   1      44.553  44.423  20.713  1.00  0.00     0.032 A 
ATOM     95  C   UNL A   1      42.429  42.829  19.843  1.00  0.00     0.002 A 
ATOM     96  C   UNL A   1      44.006  44.586  19.431  1.00  0.00     0.041 A 
ATOM     97  C   UNL A   1      42.948  43.793  18.991  1.00  0.00     0.020 A 
ATOM     98  Cl  UNL A   1      44.648  45.785  18.373  1.00  0.00    -0.084 Cl
ENDBRANCH  84  92
ENDBRANCH  76  80
ENDBRANCH  72  74
ENDBRANCH  71  72
ENDBRANCH  70  71
ENDBRANCH   1  70
TORSDOF 17
ENDMDL
