MODEL 1
REMARK VINA RESULT:     -15.3      0.000      0.000
REMARK SMILES O=C(OCCOC(=O)c1ccc(-c2c3nc(c(-c4cc(S(=O)(=O)[O-])ccc4F)c4ccc([nH]4)c(-c4cc(S(=O)(=O)[O-])ccc4F)c4nc(c(-c5cc(S(=O)(=O)[O-])ccc5F)c5ccc2[nH]5)C=C4)C=C3)cc1)C1=Cc2cc(Cl)cc(-c3ccc(Cl)cc3)c2O[C@@H]1C(F)(F)F
REMARK SMILES IDX 5 1 4 2 3 3 2 4 1 5 72 6 73 7 89 8 74 9 88 10 75 11 87 12
REMARK SMILES IDX 76 13 79 14 77 15 78 16 90 17 91 18 92 19 93 20 80 21 81 22
REMARK SMILES IDX 86 23 82 24 85 25 83 26 84 27 6 28 7 29 8 30 9 31 10 32
REMARK SMILES IDX 71 33 11 34 70 35 12 36 13 37 14 38 64 39 15 40 69 41 63 42
REMARK SMILES IDX 65 43 16 44 68 45 62 46 61 47 17 49 49 50 29 51 48 52 30 53
REMARK SMILES IDX 33 54 47 55 66 56 31 57 32 58 46 60 67 61 34 62 18 63 19 64
REMARK SMILES IDX 27 65 20 66 26 67 28 68 25 69 21 70 22 71 23 72 24 73 50 74
REMARK SMILES IDX 51 75 59 76 52 77 58 78 60 79 57 80 53 81 54 82 55 83 56 84
REMARK SMILES IDX 35 85 36 86 44 87 37 88 43 89 45 90 42 91 38 92 39 93 40 94
REMARK SMILES IDX 41 95
REMARK H PARENT 65 48 33 59
REMARK Flexibility Score: inf
ROOT
ATOM      1  C   UNL A   1      32.147  29.557  27.252  1.00  0.00     0.275 C 
ENDROOT
BRANCH   1   2
ATOM      2  C   UNL A   1      31.762  27.554  26.485  1.00  0.00     0.275 C 
BRANCH   2   3
ATOM      3  O   UNL A   1      32.812  26.432  26.280  1.00  0.00    -0.459 OA
BRANCH   3   4
ATOM      4  C   UNL A   1      32.275  25.210  26.205  1.00  0.00     0.338 C 
ATOM      5  O   UNL A   1      31.769  24.530  27.058  1.00  0.00    -0.246 OA
BRANCH   4   6
ATOM      6  C   UNL A   1      32.805  24.912  24.897  1.00  0.00     0.087 C 
ATOM      7  C   UNL A   1      34.253  24.704  24.930  1.00  0.00     0.027 C 
ATOM      8  C   UNL A   1      31.489  23.578  24.438  1.00  0.00     0.316 C 
ATOM      9  C   UNL A   1      35.019  23.084  24.744  1.00  0.00     0.019 A 
ATOM     10  O   UNL A   1      32.285  21.819  24.285  1.00  0.00    -0.475 OA
ATOM     11  C   UNL A   1      36.349  23.013  25.060  1.00  0.00     0.032 A 
ATOM     12  C   UNL A   1      34.089  21.621  24.524  1.00  0.00     0.135 A 
ATOM     13  C   UNL A   1      36.846  21.718  25.198  1.00  0.00     0.042 A 
ATOM     14  C   UNL A   1      34.668  20.386  24.709  1.00  0.00     0.026 A 
ATOM     15  Cl  UNL A   1      38.502  21.558  25.685  1.00  0.00    -0.084 Cl
ATOM     16  C   UNL A   1      36.066  20.506  25.034  1.00  0.00     0.033 A 
BRANCH   8  17
ATOM     17  C   UNL A   1      30.667  24.531  23.468  1.00  0.00     0.430 C 
ATOM     18  F   UNL A   1      31.437  25.055  22.509  1.00  0.00    -0.167 F 
ATOM     19  F   UNL A   1      29.767  23.764  22.773  1.00  0.00    -0.167 F 
ATOM     20  F   UNL A   1      29.873  25.457  24.031  1.00  0.00    -0.167 F 
ENDBRANCH   8  17
BRANCH  14  21
ATOM     21  C   UNL A   1      34.101  19.045  24.722  1.00  0.00    -0.015 A 
ATOM     22  C   UNL A   1      32.914  18.809  25.448  1.00  0.00     0.010 A 
ATOM     23  C   UNL A   1      34.826  17.943  24.257  1.00  0.00     0.010 A 
ATOM     24  C   UNL A   1      32.476  17.510  25.719  1.00  0.00     0.021 A 
ATOM     25  C   UNL A   1      34.389  16.639  24.529  1.00  0.00     0.021 A 
ATOM     26  C   UNL A   1      33.222  16.430  25.262  1.00  0.00     0.041 A 
ATOM     27  Cl  UNL A   1      32.715  14.829  25.640  1.00  0.00    -0.084 Cl
ENDBRANCH  14  21
ENDBRANCH   4   6
ENDBRANCH   3   4
ENDBRANCH   2   3
ENDBRANCH   1   2
BRANCH   1  28
ATOM     28  O   UNL A   1      33.585  30.453  27.001  1.00  0.00    -0.458 OA
BRANCH  28  29
ATOM     29  C   UNL A   1      34.570  31.170  27.634  1.00  0.00     0.338 C 
ATOM     30  O   UNL A   1      34.525  32.279  28.128  1.00  0.00    -0.246 OA
BRANCH  29  31
ATOM     31  C   UNL A   1      35.635  30.161  27.946  1.00  0.00     0.060 A 
ATOM     32  C   UNL A   1      36.784  30.110  27.136  1.00  0.00     0.016 A 
ATOM     33  C   UNL A   1      35.656  29.572  29.213  1.00  0.00     0.016 A 
ATOM     34  C   UNL A   1      38.000  29.647  27.675  1.00  0.00     0.010 A 
ATOM     35  C   UNL A   1      36.868  29.119  29.747  1.00  0.00     0.010 A 
ATOM     36  C   UNL A   1      38.061  29.197  29.003  1.00  0.00    -0.014 A 
BRANCH  36  37
ATOM     37  C   UNL A   1      39.270  28.487  29.504  1.00  0.00     0.031 A 
ATOM     38  C   UNL A   1      39.827  29.039  30.785  1.00  0.00     0.074 A 
ATOM     39  C   UNL A   1      39.881  27.460  28.871  1.00  0.00     0.049 A 
ATOM     40  N   UNL A   1      40.870  28.674  31.480  1.00  0.00    -0.248 NA
ATOM     41  C   UNL A   1      39.107  30.200  31.338  1.00  0.00     0.031 C 
ATOM     42  C   UNL A   1      39.456  26.845  27.612  1.00  0.00     0.029 A 
ATOM     43  N   UNL A   1      41.012  26.747  29.212  1.00  0.00    -0.354 N 
ATOM     44  C   UNL A   1      40.915  29.555  32.552  1.00  0.00     0.074 A 
ATOM     45  C   UNL A   1      39.869  30.530  32.359  1.00  0.00     0.031 C 
ATOM     46  C   UNL A   1      40.307  25.847  27.296  1.00  0.00     0.029 A 
ATOM     47  C   UNL A   1      41.348  25.749  28.319  1.00  0.00     0.049 A 
ATOM     48  H   UNL A   1      41.535  26.934  30.024  1.00  0.00     0.167 HD
ATOM     49  C   UNL A   1      41.728  29.536  33.633  1.00  0.00     0.034 A 
ATOM     50  C   UNL A   1      42.372  24.864  28.345  1.00  0.00     0.034 A 
ATOM     51  C   UNL A   1      42.794  28.590  33.787  1.00  0.00     0.049 A 
ATOM     52  C   UNL A   1      43.332  24.912  29.523  1.00  0.00     0.074 A 
ATOM     53  C   UNL A   1      43.704  28.474  34.819  1.00  0.00     0.029 A 
ATOM     54  N   UNL A   1      43.105  27.603  32.858  1.00  0.00    -0.354 N 
ATOM     55  N   UNL A   1      43.324  25.708  30.572  1.00  0.00    -0.248 NA
ATOM     56  C   UNL A   1      44.428  23.930  29.533  1.00  0.00     0.031 C 
ATOM     57  C   UNL A   1      44.611  27.464  34.480  1.00  0.00     0.029 A 
ATOM     58  C   UNL A   1      44.210  26.889  33.282  1.00  0.00     0.049 A 
ATOM     59  H   UNL A   1      42.612  27.438  32.023  1.00  0.00     0.167 HD
ATOM     60  C   UNL A   1      44.372  25.279  31.388  1.00  0.00     0.074 A 
ATOM     61  C   UNL A   1      44.986  24.155  30.712  1.00  0.00     0.031 C 
ATOM     62  C   UNL A   1      44.787  25.759  32.590  1.00  0.00     0.034 A 
BRANCH  49  63
ATOM     63  C   UNL A   1      41.491  30.612  34.661  1.00  0.00     0.023 A 
ATOM     64  C   UNL A   1      40.365  30.575  35.509  1.00  0.00     0.031 A 
ATOM     65  C   UNL A   1      42.305  31.755  34.695  1.00  0.00     0.131 A 
ATOM     66  C   UNL A   1      40.019  31.708  36.258  1.00  0.00     0.055 A 
ATOM     67  C   UNL A   1      42.012  32.838  35.526  1.00  0.00     0.041 A 
ATOM     68  F   UNL A   1      43.368  31.861  33.883  1.00  0.00    -0.206 F 
ATOM     69  C   UNL A   1      40.850  32.828  36.295  1.00  0.00     0.022 A 
BRANCH  66  70
ATOM     70  S   UNL A   1      38.368  31.775  37.009  1.00  0.00     0.124 S 
ATOM     71  O   UNL A   1      38.673  32.294  38.341  1.00  0.00    -0.237 OA
ATOM     72  O   UNL A   1      37.649  32.680  36.120  1.00  0.00    -0.237 OA
ATOM     73  O   UNL A   1      37.921  30.383  36.978  1.00  0.00    -0.744 OA
ENDBRANCH  66  70
ENDBRANCH  49  63
BRANCH  50  74
ATOM     74  C   UNL A   1      42.581  23.844  27.261  1.00  0.00     0.023 A 
ATOM     75  C   UNL A   1      42.019  22.554  27.349  1.00  0.00     0.031 A 
ATOM     76  C   UNL A   1      43.442  24.098  26.178  1.00  0.00     0.131 A 
ATOM     77  C   UNL A   1      42.372  21.557  26.419  1.00  0.00     0.055 A 
ATOM     78  C   UNL A   1      43.746  23.119  25.223  1.00  0.00     0.041 A 
ATOM     79  F   UNL A   1      44.023  25.299  26.040  1.00  0.00    -0.206 F 
ATOM     80  C   UNL A   1      43.222  21.836  25.349  1.00  0.00     0.022 A 
BRANCH  77  81
ATOM     81  S   UNL A   1      41.792  19.855  26.689  1.00  0.00     0.124 S 
ATOM     82  O   UNL A   1      41.254  19.514  25.377  1.00  0.00    -0.237 OA
ATOM     83  O   UNL A   1      43.023  19.173  27.077  1.00  0.00    -0.237 OA
ATOM     84  O   UNL A   1      40.799  19.996  27.753  1.00  0.00    -0.744 OA
ENDBRANCH  77  81
ENDBRANCH  50  74
BRANCH  62  85
ATOM     85  C   UNL A   1      45.903  25.019  33.289  1.00  0.00     0.023 A 
ATOM     86  C   UNL A   1      45.670  23.871  34.063  1.00  0.00     0.031 A 
ATOM     87  C   UNL A   1      47.230  25.470  33.155  1.00  0.00     0.131 A 
ATOM     88  C   UNL A   1      46.739  23.249  34.724  1.00  0.00     0.055 A 
ATOM     89  C   UNL A   1      48.297  24.803  33.754  1.00  0.00     0.041 A 
ATOM     90  F   UNL A   1      47.511  26.563  32.427  1.00  0.00    -0.206 F 
ATOM     91  C   UNL A   1      48.053  23.694  34.556  1.00  0.00     0.022 A 
BRANCH  88  92
ATOM     92  S   UNL A   1      46.375  21.917  35.900  1.00  0.00     0.124 S 
ATOM     93  O   UNL A   1      45.942  20.841  35.015  1.00  0.00    -0.237 OA
ATOM     94  O   UNL A   1      47.664  21.722  36.557  1.00  0.00    -0.237 OA
ATOM     95  O   UNL A   1      45.328  22.485  36.748  1.00  0.00    -0.744 OA
ENDBRANCH  88  92
ENDBRANCH  62  85
ENDBRANCH  36  37
ENDBRANCH  29  31
ENDBRANCH  28  29
ENDBRANCH   1  28
TORSDOF 16
ENDMDL
MODEL 2
REMARK VINA RESULT:     -14.9      5.403     10.602
REMARK SMILES O=C(OCCOC(=O)c1ccc(-c2c3nc(c(-c4cc(S(=O)(=O)[O-])ccc4F)c4ccc([nH]4)c(-c4cc(S(=O)(=O)[O-])ccc4F)c4nc(c(-c5cc(S(=O)(=O)[O-])ccc5F)c5ccc2[nH]5)C=C4)C=C3)cc1)C1=Cc2cc(Cl)cc(-c3ccc(Cl)cc3)c2O[C@@H]1C(F)(F)F
REMARK SMILES IDX 5 1 4 2 3 3 2 4 1 5 72 6 73 7 89 8 74 9 88 10 75 11 87 12
REMARK SMILES IDX 76 13 79 14 77 15 78 16 90 17 91 18 92 19 93 20 80 21 81 22
REMARK SMILES IDX 86 23 82 24 85 25 83 26 84 27 6 28 7 29 8 30 9 31 10 32
REMARK SMILES IDX 71 33 11 34 70 35 12 36 13 37 14 38 64 39 15 40 69 41 63 42
REMARK SMILES IDX 65 43 16 44 68 45 62 46 61 47 17 49 49 50 29 51 48 52 30 53
REMARK SMILES IDX 33 54 47 55 66 56 31 57 32 58 46 60 67 61 34 62 18 63 19 64
REMARK SMILES IDX 27 65 20 66 26 67 28 68 25 69 21 70 22 71 23 72 24 73 50 74
REMARK SMILES IDX 51 75 59 76 52 77 58 78 60 79 57 80 53 81 54 82 55 83 56 84
REMARK SMILES IDX 35 85 36 86 44 87 37 88 43 89 45 90 42 91 38 92 39 93 40 94
REMARK SMILES IDX 41 95
REMARK H PARENT 65 48 33 59
REMARK Flexibility Score: inf
ROOT
ATOM      1  C   UNL A   1      36.505  21.474  24.752  1.00  0.00     0.275 C 
ENDROOT
BRANCH   1   2
ATOM      2  C   UNL A   1      35.504  23.068  23.653  1.00  0.00     0.275 C 
BRANCH   2   3
ATOM      3  O   UNL A   1      34.907  24.364  24.257  1.00  0.00    -0.459 OA
BRANCH   3   4
ATOM      4  C   UNL A   1      33.990  24.942  23.473  1.00  0.00     0.338 C 
ATOM      5  O   UNL A   1      34.104  25.451  22.390  1.00  0.00    -0.246 OA
BRANCH   4   6
ATOM      6  C   UNL A   1      32.974  25.021  24.494  1.00  0.00     0.087 C 
ATOM      7  C   UNL A   1      33.295  26.025  25.507  1.00  0.00     0.027 C 
ATOM      8  C   UNL A   1      31.471  25.086  23.285  1.00  0.00     0.316 C 
ATOM      9  C   UNL A   1      32.435  27.602  25.639  1.00  0.00     0.019 A 
ATOM     10  O   UNL A   1      30.564  26.795  23.373  1.00  0.00    -0.475 OA
ATOM     11  C   UNL A   1      33.018  28.535  26.454  1.00  0.00     0.032 A 
ATOM     12  C   UNL A   1      31.151  28.070  24.549  1.00  0.00     0.135 A 
ATOM     13  C   UNL A   1      32.516  29.827  26.313  1.00  0.00     0.042 A 
ATOM     14  C   UNL A   1      30.743  29.382  24.465  1.00  0.00     0.026 A 
ATOM     15  Cl  UNL A   1      33.271  31.072  27.253  1.00  0.00    -0.084 Cl
ATOM     16  C   UNL A   1      31.464  30.214  25.393  1.00  0.00     0.033 A 
BRANCH   8  17
ATOM     17  C   UNL A   1      31.048  23.572  23.518  1.00  0.00     0.430 C 
ATOM     18  F   UNL A   1      30.677  23.344  24.782  1.00  0.00    -0.167 F 
ATOM     19  F   UNL A   1      29.903  23.331  22.801  1.00  0.00    -0.167 F 
ATOM     20  F   UNL A   1      31.873  22.618  23.059  1.00  0.00    -0.167 F 
ENDBRANCH   8  17
BRANCH  14  21
ATOM     21  C   UNL A   1      29.812  30.048  23.566  1.00  0.00    -0.015 A 
ATOM     22  C   UNL A   1      29.817  29.707  22.196  1.00  0.00     0.010 A 
ATOM     23  C   UNL A   1      29.102  31.186  23.965  1.00  0.00     0.010 A 
ATOM     24  C   UNL A   1      29.149  30.490  21.252  1.00  0.00     0.021 A 
ATOM     25  C   UNL A   1      28.433  31.973  23.018  1.00  0.00     0.021 A 
ATOM     26  C   UNL A   1      28.465  31.626  21.668  1.00  0.00     0.041 A 
ATOM     27  Cl  UNL A   1      27.686  32.623  20.501  1.00  0.00    -0.084 Cl
ENDBRANCH  14  21
ENDBRANCH   4   6
ENDBRANCH   3   4
ENDBRANCH   2   3
ENDBRANCH   1   2
BRANCH   1  28
ATOM     28  O   UNL A   1      38.193  21.369  25.024  1.00  0.00    -0.458 OA
BRANCH  28  29
ATOM     29  C   UNL A   1      39.148  21.041  25.953  1.00  0.00     0.338 C 
ATOM     30  O   UNL A   1      39.850  20.052  26.025  1.00  0.00    -0.246 OA
BRANCH  29  31
ATOM     31  C   UNL A   1      39.440  22.325  26.670  1.00  0.00     0.060 A 
ATOM     32  C   UNL A   1      40.509  22.368  27.582  1.00  0.00     0.016 A 
ATOM     33  C   UNL A   1      38.918  23.516  26.159  1.00  0.00     0.016 A 
ATOM     34  C   UNL A   1      41.175  23.587  27.823  1.00  0.00     0.010 A 
ATOM     35  C   UNL A   1      39.586  24.723  26.395  1.00  0.00     0.010 A 
ATOM     36  C   UNL A   1      40.749  24.764  27.188  1.00  0.00    -0.014 A 
BRANCH  36  37
ATOM     37  C   UNL A   1      41.285  26.086  27.615  1.00  0.00     0.031 A 
ATOM     38  C   UNL A   1      42.707  26.341  27.202  1.00  0.00     0.074 A 
ATOM     39  C   UNL A   1      40.607  26.993  28.353  1.00  0.00     0.049 A 
ATOM     40  N   UNL A   1      43.479  27.370  27.421  1.00  0.00    -0.248 NA
ATOM     41  C   UNL A   1      43.355  25.246  26.458  1.00  0.00     0.031 C 
ATOM     42  C   UNL A   1      39.232  26.859  28.837  1.00  0.00     0.029 A 
ATOM     43  N   UNL A   1      40.999  28.225  28.834  1.00  0.00    -0.354 N 
ATOM     44  C   UNL A   1      44.692  27.044  26.830  1.00  0.00     0.074 A 
ATOM     45  C   UNL A   1      44.588  25.690  26.342  1.00  0.00     0.031 C 
ATOM     46  C   UNL A   1      38.896  27.966  29.533  1.00  0.00     0.029 A 
ATOM     47  C   UNL A   1      40.030  28.890  29.559  1.00  0.00     0.049 A 
ATOM     48  H   UNL A   1      41.895  28.600  28.672  1.00  0.00     0.167 HD
ATOM     49  C   UNL A   1      45.791  27.815  26.663  1.00  0.00     0.034 A 
ATOM     50  C   UNL A   1      40.067  30.104  30.158  1.00  0.00     0.034 A 
ATOM     51  C   UNL A   1      45.896  29.142  27.196  1.00  0.00     0.049 A 
ATOM     52  C   UNL A   1      41.342  30.924  30.038  1.00  0.00     0.074 A 
ATOM     53  C   UNL A   1      46.958  30.021  27.121  1.00  0.00     0.029 A 
ATOM     54  N   UNL A   1      44.898  29.773  27.930  1.00  0.00    -0.354 N 
ATOM     55  N   UNL A   1      42.464  30.633  29.414  1.00  0.00    -0.248 NA
ATOM     56  C   UNL A   1      41.349  32.244  30.687  1.00  0.00     0.031 C 
ATOM     57  C   UNL A   1      46.629  31.156  27.871  1.00  0.00     0.029 A 
ATOM     58  C   UNL A   1      45.329  31.023  28.334  1.00  0.00     0.049 A 
ATOM     59  H   UNL A   1      44.015  29.387  28.131  1.00  0.00     0.167 HD
ATOM     60  C   UNL A   1      43.279  31.757  29.544  1.00  0.00     0.074 A 
ATOM     61  C   UNL A   1      42.520  32.730  30.303  1.00  0.00     0.031 C 
ATOM     62  C   UNL A   1      44.537  31.976  29.076  1.00  0.00     0.034 A 
BRANCH  49  63
ATOM     63  C   UNL A   1      46.942  27.181  25.926  1.00  0.00     0.023 A 
ATOM     64  C   UNL A   1      47.918  26.428  26.609  1.00  0.00     0.031 A 
ATOM     65  C   UNL A   1      47.151  27.452  24.565  1.00  0.00     0.131 A 
ATOM     66  C   UNL A   1      49.112  26.083  25.960  1.00  0.00     0.055 A 
ATOM     67  C   UNL A   1      48.295  27.011  23.898  1.00  0.00     0.041 A 
ATOM     68  F   UNL A   1      46.273  28.196  23.874  1.00  0.00    -0.206 F 
ATOM     69  C   UNL A   1      49.295  26.344  24.602  1.00  0.00     0.022 A 
BRANCH  66  70
ATOM     70  S   UNL A   1      50.500  25.484  26.966  1.00  0.00     0.124 S 
ATOM     71  O   UNL A   1      49.851  24.454  27.776  1.00  0.00    -0.237 OA
ATOM     72  O   UNL A   1      51.441  25.007  25.960  1.00  0.00    -0.237 OA
ATOM     73  O   UNL A   1      50.924  26.672  27.706  1.00  0.00    -0.744 OA
ENDBRANCH  66  70
ENDBRANCH  49  63
BRANCH  50  74
ATOM     74  C   UNL A   1      38.898  30.660  30.921  1.00  0.00     0.023 A 
ATOM     75  C   UNL A   1      37.849  31.338  30.266  1.00  0.00     0.031 A 
ATOM     76  C   UNL A   1      38.864  30.630  32.327  1.00  0.00     0.131 A 
ATOM     77  C   UNL A   1      36.858  32.006  31.009  1.00  0.00     0.055 A 
ATOM     78  C   UNL A   1      37.845  31.249  33.061  1.00  0.00     0.041 A 
ATOM     79  F   UNL A   1      39.837  30.014  33.016  1.00  0.00    -0.206 F 
ATOM     80  C   UNL A   1      36.843  31.956  32.403  1.00  0.00     0.022 A 
BRANCH  77  81
ATOM     81  S   UNL A   1      35.647  33.042  30.132  1.00  0.00     0.124 S 
ATOM     82  O   UNL A   1      34.403  32.329  30.394  1.00  0.00    -0.237 OA
ATOM     83  O   UNL A   1      35.805  34.328  30.804  1.00  0.00    -0.237 OA
ATOM     84  O   UNL A   1      36.107  33.006  28.745  1.00  0.00    -0.744 OA
ENDBRANCH  77  81
ENDBRANCH  50  74
BRANCH  62  85
ATOM     85  C   UNL A   1      45.134  33.346  29.296  1.00  0.00     0.023 A 
ATOM     86  C   UNL A   1      45.018  34.375  28.347  1.00  0.00     0.031 A 
ATOM     87  C   UNL A   1      45.817  33.625  30.495  1.00  0.00     0.131 A 
ATOM     88  C   UNL A   1      45.630  35.614  28.586  1.00  0.00     0.055 A 
ATOM     89  C   UNL A   1      46.358  34.882  30.759  1.00  0.00     0.041 A 
ATOM     90  F   UNL A   1      45.958  32.678  31.438  1.00  0.00    -0.206 F 
ATOM     91  C   UNL A   1      46.279  35.881  29.794  1.00  0.00     0.022 A 
BRANCH  88  92
ATOM     92  S   UNL A   1      45.665  36.837  27.248  1.00  0.00     0.124 S 
ATOM     93  O   UNL A   1      46.061  36.024  26.103  1.00  0.00    -0.237 OA
ATOM     94  O   UNL A   1      44.289  37.325  27.237  1.00  0.00    -0.237 OA
ATOM     95  O   UNL A   1      46.662  37.808  27.696  1.00  0.00    -0.744 OA
ENDBRANCH  88  92
ENDBRANCH  62  85
ENDBRANCH  36  37
ENDBRANCH  29  31
ENDBRANCH  28  29
ENDBRANCH   1  28
TORSDOF 16
ENDMDL
MODEL 3
REMARK VINA RESULT:     -14.7      5.497     10.958
REMARK SMILES O=C(OCCOC(=O)c1ccc(-c2c3nc(c(-c4cc(S(=O)(=O)[O-])ccc4F)c4ccc([nH]4)c(-c4cc(S(=O)(=O)[O-])ccc4F)c4nc(c(-c5cc(S(=O)(=O)[O-])ccc5F)c5ccc2[nH]5)C=C4)C=C3)cc1)C1=Cc2cc(Cl)cc(-c3ccc(Cl)cc3)c2O[C@@H]1C(F)(F)F
REMARK SMILES IDX 5 1 4 2 3 3 2 4 1 5 72 6 73 7 89 8 74 9 88 10 75 11 87 12
REMARK SMILES IDX 76 13 79 14 77 15 78 16 90 17 91 18 92 19 93 20 80 21 81 22
REMARK SMILES IDX 86 23 82 24 85 25 83 26 84 27 6 28 7 29 8 30 9 31 10 32
REMARK SMILES IDX 71 33 11 34 70 35 12 36 13 37 14 38 64 39 15 40 69 41 63 42
REMARK SMILES IDX 65 43 16 44 68 45 62 46 61 47 17 49 49 50 29 51 48 52 30 53
REMARK SMILES IDX 33 54 47 55 66 56 31 57 32 58 46 60 67 61 34 62 18 63 19 64
REMARK SMILES IDX 27 65 20 66 26 67 28 68 25 69 21 70 22 71 23 72 24 73 50 74
REMARK SMILES IDX 51 75 59 76 52 77 58 78 60 79 57 80 53 81 54 82 55 83 56 84
REMARK SMILES IDX 35 85 36 86 44 87 37 88 43 89 45 90 42 91 38 92 39 93 40 94
REMARK SMILES IDX 41 95
REMARK H PARENT 65 48 33 59
REMARK Flexibility Score: inf
ROOT
ATOM      1  C   UNL A   1      37.227  21.775  24.650  1.00  0.00     0.275 C 
ENDROOT
BRANCH   1   2
ATOM      2  C   UNL A   1      35.619  22.920  23.727  1.00  0.00     0.275 C 
BRANCH   2   3
ATOM      3  O   UNL A   1      35.079  24.292  24.204  1.00  0.00    -0.459 OA
BRANCH   3   4
ATOM      4  C   UNL A   1      34.094  24.771  23.436  1.00  0.00     0.338 C 
ATOM      5  O   UNL A   1      34.124  25.213  22.319  1.00  0.00    -0.246 OA
BRANCH   4   6
ATOM      6  C   UNL A   1      33.128  24.865  24.504  1.00  0.00     0.087 C 
ATOM      7  C   UNL A   1      33.521  25.852  25.510  1.00  0.00     0.027 C 
ATOM      8  C   UNL A   1      31.573  24.978  23.367  1.00  0.00     0.316 C 
ATOM      9  C   UNL A   1      32.708  27.449  25.694  1.00  0.00     0.019 A 
ATOM     10  O   UNL A   1      30.714  26.708  23.511  1.00  0.00    -0.475 OA
ATOM     11  C   UNL A   1      33.351  28.359  26.488  1.00  0.00     0.032 A 
ATOM     12  C   UNL A   1      31.386  27.957  24.668  1.00  0.00     0.135 A 
ATOM     13  C   UNL A   1      32.874  29.664  26.381  1.00  0.00     0.042 A 
ATOM     14  C   UNL A   1      31.007  29.279  24.614  1.00  0.00     0.026 A 
ATOM     15  Cl  UNL A   1      33.704  30.881  27.295  1.00  0.00    -0.084 Cl
ATOM     16  C   UNL A   1      31.791  30.086  25.515  1.00  0.00     0.033 A 
BRANCH   8  17
ATOM     17  C   UNL A   1      31.123  23.473  23.607  1.00  0.00     0.430 C 
ATOM     18  F   UNL A   1      30.726  23.264  24.867  1.00  0.00    -0.167 F 
ATOM     19  F   UNL A   1      29.989  23.241  22.871  1.00  0.00    -0.167 F 
ATOM     20  F   UNL A   1      31.943  22.502  23.175  1.00  0.00    -0.167 F 
ENDBRANCH   8  17
BRANCH  14  21
ATOM     21  C   UNL A   1      30.053  29.976  23.765  1.00  0.00    -0.015 A 
ATOM     22  C   UNL A   1      29.928  29.592  22.413  1.00  0.00     0.010 A 
ATOM     23  C   UNL A   1      29.450  31.171  24.174  1.00  0.00     0.010 A 
ATOM     24  C   UNL A   1      29.238  30.386  21.494  1.00  0.00     0.021 A 
ATOM     25  C   UNL A   1      28.760  31.970  23.253  1.00  0.00     0.021 A 
ATOM     26  C   UNL A   1      28.662  31.578  21.919  1.00  0.00     0.041 A 
ATOM     27  Cl  UNL A   1      27.859  32.586  20.778  1.00  0.00    -0.084 Cl
ENDBRANCH  14  21
ENDBRANCH   4   6
ENDBRANCH   3   4
ENDBRANCH   2   3
ENDBRANCH   1   2
BRANCH   1  28
ATOM     28  O   UNL A   1      38.619  22.443  25.391  1.00  0.00    -0.458 OA
BRANCH  28  29
ATOM     29  C   UNL A   1      39.284  22.577  26.584  1.00  0.00     0.338 C 
ATOM     30  O   UNL A   1      40.029  21.800  27.146  1.00  0.00    -0.246 OA
BRANCH  29  31
ATOM     31  C   UNL A   1      39.220  24.043  26.894  1.00  0.00     0.060 A 
ATOM     32  C   UNL A   1      38.952  24.449  28.214  1.00  0.00     0.016 A 
ATOM     33  C   UNL A   1      39.786  24.948  25.993  1.00  0.00     0.016 A 
ATOM     34  C   UNL A   1      39.435  25.690  28.675  1.00  0.00     0.010 A 
ATOM     35  C   UNL A   1      40.269  26.177  26.457  1.00  0.00     0.010 A 
ATOM     36  C   UNL A   1      40.143  26.540  27.812  1.00  0.00    -0.014 A 
BRANCH  36  37
ATOM     37  C   UNL A   1      40.443  27.943  28.214  1.00  0.00     0.031 A 
ATOM     38  C   UNL A   1      41.882  28.340  28.047  1.00  0.00     0.074 A 
ATOM     39  C   UNL A   1      39.544  28.806  28.734  1.00  0.00     0.049 A 
ATOM     40  N   UNL A   1      42.484  29.466  28.314  1.00  0.00    -0.248 NA
ATOM     41  C   UNL A   1      42.774  27.285  27.531  1.00  0.00     0.031 C 
ATOM     42  C   UNL A   1      38.124  28.539  28.968  1.00  0.00     0.029 A 
ATOM     43  N   UNL A   1      39.703  30.106  29.170  1.00  0.00    -0.354 N 
ATOM     44  C   UNL A   1      43.816  29.252  27.984  1.00  0.00     0.074 A 
ATOM     45  C   UNL A   1      43.952  27.867  27.605  1.00  0.00     0.031 C 
ATOM     46  C   UNL A   1      37.545  29.640  29.493  1.00  0.00     0.029 A 
ATOM     47  C   UNL A   1      38.548  30.694  29.647  1.00  0.00     0.049 A 
ATOM     48  H   UNL A   1      40.568  30.574  29.143  1.00  0.00     0.167 HD
ATOM     49  C   UNL A   1      44.837  30.137  27.955  1.00  0.00     0.034 A 
ATOM     50  C   UNL A   1      38.340  31.939  30.135  1.00  0.00     0.034 A 
ATOM     51  C   UNL A   1      44.697  31.500  28.381  1.00  0.00     0.049 A 
ATOM     52  C   UNL A   1      39.520  32.898  30.180  1.00  0.00     0.074 A 
ATOM     53  C   UNL A   1      45.653  32.494  28.426  1.00  0.00     0.029 A 
ATOM     54  N   UNL A   1      43.515  32.051  28.863  1.00  0.00    -0.354 N 
ATOM     55  N   UNL A   1      40.765  32.705  29.798  1.00  0.00    -0.248 NA
ATOM     56  C   UNL A   1      39.262  34.249  30.702  1.00  0.00     0.031 C 
ATOM     57  C   UNL A   1      45.069  33.626  29.003  1.00  0.00     0.029 A 
ATOM     58  C   UNL A   1      43.725  33.367  29.231  1.00  0.00     0.049 A 
ATOM     59  H   UNL A   1      42.657  31.575  28.933  1.00  0.00     0.167 HD
ATOM     60  C   UNL A   1      41.416  33.926  29.978  1.00  0.00     0.074 A 
ATOM     61  C   UNL A   1      40.426  34.847  30.498  1.00  0.00     0.031 C 
ATOM     62  C   UNL A   1      42.709  34.265  29.730  1.00  0.00     0.034 A 
BRANCH  49  63
ATOM     63  C   UNL A   1      46.169  29.601  27.498  1.00  0.00     0.023 A 
ATOM     64  C   UNL A   1      46.346  29.108  26.190  1.00  0.00     0.031 A 
ATOM     65  C   UNL A   1      47.223  29.440  28.412  1.00  0.00     0.131 A 
ATOM     66  C   UNL A   1      47.495  28.372  25.872  1.00  0.00     0.055 A 
ATOM     67  C   UNL A   1      48.409  28.798  28.054  1.00  0.00     0.041 A 
ATOM     68  F   UNL A   1      47.096  29.856  29.681  1.00  0.00    -0.206 F 
ATOM     69  C   UNL A   1      48.541  28.237  26.786  1.00  0.00     0.022 A 
BRANCH  66  70
ATOM     70  S   UNL A   1      47.508  27.415  24.328  1.00  0.00     0.124 S 
ATOM     71  O   UNL A   1      48.777  26.700  24.438  1.00  0.00    -0.237 OA
ATOM     72  O   UNL A   1      46.304  26.602  24.447  1.00  0.00    -0.237 OA
ATOM     73  O   UNL A   1      47.468  28.443  23.289  1.00  0.00    -0.744 OA
ENDBRANCH  66  70
ENDBRANCH  49  63
BRANCH  50  74
ATOM     74  C   UNL A   1      36.994  32.399  30.620  1.00  0.00     0.023 A 
ATOM     75  C   UNL A   1      36.107  33.095  29.774  1.00  0.00     0.031 A 
ATOM     76  C   UNL A   1      36.618  32.256  31.968  1.00  0.00     0.131 A 
ATOM     77  C   UNL A   1      34.932  33.673  30.293  1.00  0.00     0.055 A 
ATOM     78  C   UNL A   1      35.421  32.785  32.468  1.00  0.00     0.041 A 
ATOM     79  F   UNL A   1      37.421  31.617  32.833  1.00  0.00    -0.206 F 
ATOM     80  C   UNL A   1      34.578  33.511  31.632  1.00  0.00     0.022 A 
BRANCH  77  81
ATOM     81  S   UNL A   1      33.925  34.738  29.217  1.00  0.00     0.124 S 
ATOM     82  O   UNL A   1      33.139  33.757  28.479  1.00  0.00    -0.237 OA
ATOM     83  O   UNL A   1      33.195  35.547  30.188  1.00  0.00    -0.237 OA
ATOM     84  O   UNL A   1      34.918  35.464  28.427  1.00  0.00    -0.744 OA
ENDBRANCH  77  81
ENDBRANCH  50  74
BRANCH  62  85
ATOM     85  C   UNL A   1      43.103  35.708  29.936  1.00  0.00     0.023 A 
ATOM     86  C   UNL A   1      42.879  36.692  28.961  1.00  0.00     0.031 A 
ATOM     87  C   UNL A   1      43.700  36.101  31.149  1.00  0.00     0.131 A 
ATOM     88  C   UNL A   1      43.306  38.008  29.190  1.00  0.00     0.055 A 
ATOM     89  C   UNL A   1      44.053  37.426  31.400  1.00  0.00     0.041 A 
ATOM     90  F   UNL A   1      43.938  35.201  32.118  1.00  0.00    -0.206 F 
ATOM     91  C   UNL A   1      43.870  38.386  30.411  1.00  0.00     0.022 A 
BRANCH  88  92
ATOM     92  S   UNL A   1      43.217  39.199  27.824  1.00  0.00     0.124 S 
ATOM     93  O   UNL A   1      41.782  39.439  27.723  1.00  0.00    -0.237 OA
ATOM     94  O   UNL A   1      44.015  40.312  28.330  1.00  0.00    -0.237 OA
ATOM     95  O   UNL A   1      43.808  38.476  26.699  1.00  0.00    -0.744 OA
ENDBRANCH  88  92
ENDBRANCH  62  85
ENDBRANCH  36  37
ENDBRANCH  29  31
ENDBRANCH  28  29
ENDBRANCH   1  28
TORSDOF 16
ENDMDL
