MODEL 1
REMARK VINA RESULT:     -10.3      0.000      0.000
REMARK SMILES CC[C@@H](C)SCc1cc(F)cc(/C=C/C(=O)OCCOC(=O)c2ccc(-c3c4nc(c(-c5cc(S(=O)(=O)[O-])ccc5F)c5ccc([nH]5)c(-c5cc(S(=O)(=O)[O-])ccc5F)c5nc(c(-c6cc(S(=O)(=O)[O-])ccc6F)c6ccc3[nH]6)C=C5)C=C4)cc2)c1
REMARK SMILES IDX 18 1 17 2 15 3 16 4 14 5 13 6 12 7 7 8 8 9 86 10 9 11 10 12
REMARK SMILES IDX 11 13 6 14 5 15 3 16 4 17 2 18 1 19 19 20 20 21 21 22 22 23
REMARK SMILES IDX 23 24 24 25 85 26 25 27 84 28 26 29 27 30 28 31 78 32 29 33
REMARK SMILES IDX 83 34 77 35 79 36 30 37 82 38 76 39 75 40 31 42 63 43 43 44
REMARK SMILES IDX 62 45 44 46 47 47 61 48 80 49 45 50 46 51 60 53 81 54 48 55
REMARK SMILES IDX 32 56 33 57 41 58 34 59 40 60 42 61 39 62 35 63 36 64 37 65
REMARK SMILES IDX 38 66 64 67 65 68 73 69 66 70 72 71 74 72 71 73 67 74 68 75
REMARK SMILES IDX 69 76 70 77 49 78 50 79 58 80 51 81 57 82 59 83 56 84 52 85
REMARK SMILES IDX 53 86 54 87 55 88
REMARK H PARENT 79 41 47 52
REMARK Flexibility Score: inf
ROOT
ATOM      1  C   UNL A   1      32.425  31.451  27.148  1.00  0.00     0.275 C 
ENDROOT
BRANCH   1   2
ATOM      2  O   UNL A   1      33.845  31.265  27.291  1.00  0.00    -0.459 OA
BRANCH   2   3
ATOM      3  C   UNL A   1      34.292  30.001  27.096  1.00  0.00     0.330 C 
ATOM      4  O   UNL A   1      35.385  29.563  27.420  1.00  0.00    -0.247 OA
BRANCH   3   5
ATOM      5  C   UNL A   1      33.306  29.165  26.387  1.00  0.00     0.094 C 
ATOM      6  C   UNL A   1      32.873  27.963  26.799  1.00  0.00     0.016 C 
BRANCH   6   7
ATOM      7  C   UNL A   1      31.838  27.258  26.038  1.00  0.00    -0.022 A 
ATOM      8  C   UNL A   1      30.501  27.233  23.995  1.00  0.00    -0.035 A 
ATOM      9  C   UNL A   1      30.178  25.895  24.248  1.00  0.00     0.043 A 
ATOM     10  C   UNL A   1      31.263  27.918  24.947  1.00  0.00     0.013 A 
ATOM     11  C   UNL A   1      30.645  25.271  25.402  1.00  0.00     0.124 A 
ATOM     12  F   UNL A   1      30.312  23.996  25.637  1.00  0.00    -0.207 F 
ATOM     13  C   UNL A   1      31.488  25.932  26.289  1.00  0.00     0.047 A 
BRANCH   8  14
ATOM     14  C   UNL A   1      30.078  27.910  22.718  1.00  0.00     0.105 C 
BRANCH  14  15
ATOM     15  S   UNL A   1      29.912  29.729  22.858  1.00  0.00    -0.154 SA
BRANCH  15  16
ATOM     16  C   UNL A   1      28.164  30.028  23.401  1.00  0.00     0.043 C 
ATOM     17  C   UNL A   1      27.212  28.914  22.957  1.00  0.00     0.019 C 
BRANCH  16  18
ATOM     18  C   UNL A   1      27.664  31.461  23.153  1.00  0.00     0.011 C 
ATOM     19  C   UNL A   1      28.252  32.121  21.911  1.00  0.00     0.005 C 
ENDBRANCH  16  18
ENDBRANCH  15  16
ENDBRANCH  14  15
ENDBRANCH   8  14
ENDBRANCH   6   7
ENDBRANCH   3   5
ENDBRANCH   2   3
ENDBRANCH   1   2
BRANCH   1  20
ATOM     20  C   UNL A   1      32.065  32.936  27.202  1.00  0.00     0.275 C 
BRANCH  20  21
ATOM     21  O   UNL A   1      33.236  33.764  27.322  1.00  0.00    -0.458 OA
BRANCH  21  22
ATOM     22  C   UNL A   1      33.296  34.503  28.458  1.00  0.00     0.338 C 
ATOM     23  O   UNL A   1      32.528  35.387  28.797  1.00  0.00    -0.246 OA
BRANCH  22  24
ATOM     24  C   UNL A   1      34.379  34.002  29.322  1.00  0.00     0.060 A 
ATOM     25  C   UNL A   1      35.690  34.375  29.015  1.00  0.00     0.016 A 
ATOM     26  C   UNL A   1      34.121  33.120  30.374  1.00  0.00     0.016 A 
ATOM     27  C   UNL A   1      36.752  33.864  29.755  1.00  0.00     0.010 A 
ATOM     28  C   UNL A   1      35.190  32.602  31.114  1.00  0.00     0.010 A 
ATOM     29  C   UNL A   1      36.511  32.962  30.801  1.00  0.00    -0.014 A 
BRANCH  29  30
ATOM     30  C   UNL A   1      37.661  32.359  31.517  1.00  0.00     0.031 A 
ATOM     31  C   UNL A   1      38.424  31.230  30.887  1.00  0.00     0.074 A 
ATOM     32  C   UNL A   1      38.049  32.866  32.703  1.00  0.00     0.049 A 
ATOM     33  N   UNL A   1      39.444  30.559  31.355  1.00  0.00    -0.248 NA
ATOM     34  C   UNL A   1      37.983  30.802  29.550  1.00  0.00     0.031 C 
ATOM     35  C   UNL A   1      37.419  33.997  33.382  1.00  0.00     0.029 A 
ATOM     36  N   UNL A   1      39.077  32.505  33.535  1.00  0.00    -0.354 N 
ATOM     37  C   UNL A   1      39.769  29.629  30.376  1.00  0.00     0.074 A 
ATOM     38  C   UNL A   1      38.820  29.805  29.297  1.00  0.00     0.031 C 
ATOM     39  C   UNL A   1      38.086  34.250  34.520  1.00  0.00     0.029 A 
ATOM     40  C   UNL A   1      39.162  33.274  34.671  1.00  0.00     0.049 A 
ATOM     41  H   UNL A   1      39.697  31.766  33.338  1.00  0.00     0.167 HD
ATOM     42  C   UNL A   1      40.771  28.718  30.376  1.00  0.00     0.034 A 
ATOM     43  C   UNL A   1      40.000  33.190  35.725  1.00  0.00     0.034 A 
ATOM     44  C   UNL A   1      41.711  28.553  31.456  1.00  0.00     0.049 A 
ATOM     45  C   UNL A   1      41.052  32.114  35.741  1.00  0.00     0.074 A 
ATOM     46  C   UNL A   1      42.762  27.657  31.554  1.00  0.00     0.029 A 
ATOM     47  N   UNL A   1      41.712  29.296  32.629  1.00  0.00    -0.354 N 
ATOM     48  N   UNL A   1      41.316  31.208  34.829  1.00  0.00    -0.248 NA
ATOM     49  C   UNL A   1      41.911  32.040  36.930  1.00  0.00     0.031 C 
ATOM     50  C   UNL A   1      43.362  27.821  32.807  1.00  0.00     0.029 A 
ATOM     51  C   UNL A   1      42.727  28.861  33.466  1.00  0.00     0.049 A 
ATOM     52  H   UNL A   1      41.084  30.026  32.836  1.00  0.00     0.167 HD
ATOM     53  C   UNL A   1      42.381  30.466  35.328  1.00  0.00     0.074 A 
ATOM     54  C   UNL A   1      42.714  31.030  36.620  1.00  0.00     0.031 C 
ATOM     55  C   UNL A   1      43.031  29.419  34.762  1.00  0.00     0.034 A 
BRANCH  42  56
ATOM     56  C   UNL A   1      40.874  27.797  29.190  1.00  0.00     0.023 A 
ATOM     57  C   UNL A   1      41.801  28.019  28.159  1.00  0.00     0.031 A 
ATOM     58  C   UNL A   1      40.036  26.670  29.099  1.00  0.00     0.131 A 
ATOM     59  C   UNL A   1      41.841  27.149  27.058  1.00  0.00     0.055 A 
ATOM     60  C   UNL A   1      40.122  25.775  28.032  1.00  0.00     0.041 A 
ATOM     61  F   UNL A   1      39.121  26.422  30.050  1.00  0.00    -0.206 F 
ATOM     62  C   UNL A   1      41.023  26.017  27.000  1.00  0.00     0.022 A 
BRANCH  59  63
ATOM     63  S   UNL A   1      42.924  27.555  25.662  1.00  0.00     0.124 S 
ATOM     64  O   UNL A   1      42.323  28.793  25.173  1.00  0.00    -0.237 OA
ATOM     65  O   UNL A   1      44.230  27.687  26.299  1.00  0.00    -0.237 OA
ATOM     66  O   UNL A   1      42.781  26.406  24.771  1.00  0.00    -0.744 OA
ENDBRANCH  59  63
ENDBRANCH  42  56
BRANCH  43  67
ATOM     67  C   UNL A   1      39.846  34.128  36.869  1.00  0.00     0.023 A 
ATOM     68  C   UNL A   1      39.214  33.730  38.056  1.00  0.00     0.031 A 
ATOM     69  C   UNL A   1      40.342  35.441  36.787  1.00  0.00     0.131 A 
ATOM     70  C   UNL A   1      39.080  34.645  39.114  1.00  0.00     0.055 A 
ATOM     71  C   UNL A   1      40.239  36.336  37.853  1.00  0.00     0.041 A 
ATOM     72  F   UNL A   1      40.959  35.865  35.672  1.00  0.00    -0.206 F 
ATOM     73  C   UNL A   1      39.600  35.939  39.025  1.00  0.00     0.022 A 
BRANCH  70  74
ATOM     74  S   UNL A   1      38.197  34.128  40.611  1.00  0.00     0.124 S 
ATOM     75  O   UNL A   1      39.161  33.221  41.226  1.00  0.00    -0.237 OA
ATOM     76  O   UNL A   1      37.981  35.398  41.295  1.00  0.00    -0.237 OA
ATOM     77  O   UNL A   1      36.988  33.492  40.090  1.00  0.00    -0.744 OA
ENDBRANCH  70  74
ENDBRANCH  43  67
BRANCH  55  78
ATOM     78  C   UNL A   1      44.184  28.824  35.525  1.00  0.00     0.023 A 
ATOM     79  C   UNL A   1      43.995  27.775  36.439  1.00  0.00     0.031 A 
ATOM     80  C   UNL A   1      45.492  29.284  35.294  1.00  0.00     0.131 A 
ATOM     81  C   UNL A   1      45.101  27.231  37.109  1.00  0.00     0.055 A 
ATOM     82  C   UNL A   1      46.592  28.711  35.933  1.00  0.00     0.041 A 
ATOM     83  F   UNL A   1      45.721  30.281  34.425  1.00  0.00    -0.206 F 
ATOM     84  C   UNL A   1      46.399  27.681  36.850  1.00  0.00     0.022 A 
BRANCH  81  85
ATOM     85  S   UNL A   1      44.824  25.928  38.341  1.00  0.00     0.124 S 
ATOM     86  O   UNL A   1      43.907  25.037  37.636  1.00  0.00    -0.237 OA
ATOM     87  O   UNL A   1      46.170  25.411  38.565  1.00  0.00    -0.237 OA
ATOM     88  O   UNL A   1      44.244  26.645  39.475  1.00  0.00    -0.744 OA
ENDBRANCH  81  85
ENDBRANCH  55  78
ENDBRANCH  29  30
ENDBRANCH  22  24
ENDBRANCH  21  22
ENDBRANCH  20  21
ENDBRANCH   1  20
TORSDOF 19
ENDMDL
MODEL 2
REMARK VINA RESULT:     -10.3      1.535      7.835
REMARK SMILES CC[C@@H](C)SCc1cc(F)cc(/C=C/C(=O)OCCOC(=O)c2ccc(-c3c4nc(c(-c5cc(S(=O)(=O)[O-])ccc5F)c5ccc([nH]5)c(-c5cc(S(=O)(=O)[O-])ccc5F)c5nc(c(-c6cc(S(=O)(=O)[O-])ccc6F)c6ccc3[nH]6)C=C5)C=C4)cc2)c1
REMARK SMILES IDX 18 1 17 2 15 3 16 4 14 5 13 6 12 7 7 8 8 9 86 10 9 11 10 12
REMARK SMILES IDX 11 13 6 14 5 15 3 16 4 17 2 18 1 19 19 20 20 21 21 22 22 23
REMARK SMILES IDX 23 24 24 25 85 26 25 27 84 28 26 29 27 30 28 31 78 32 29 33
REMARK SMILES IDX 83 34 77 35 79 36 30 37 82 38 76 39 75 40 31 42 63 43 43 44
REMARK SMILES IDX 62 45 44 46 47 47 61 48 80 49 45 50 46 51 60 53 81 54 48 55
REMARK SMILES IDX 32 56 33 57 41 58 34 59 40 60 42 61 39 62 35 63 36 64 37 65
REMARK SMILES IDX 38 66 64 67 65 68 73 69 66 70 72 71 74 72 71 73 67 74 68 75
REMARK SMILES IDX 69 76 70 77 49 78 50 79 58 80 51 81 57 82 59 83 56 84 52 85
REMARK SMILES IDX 53 86 54 87 55 88
REMARK H PARENT 79 41 47 52
REMARK Flexibility Score: inf
ROOT
ATOM      1  C   UNL A   1      32.305  31.497  27.028  1.00  0.00     0.275 C 
ENDROOT
BRANCH   1   2
ATOM      2  O   UNL A   1      33.703  31.232  27.239  1.00  0.00    -0.459 OA
BRANCH   2   3
ATOM      3  C   UNL A   1      34.074  29.933  27.141  1.00  0.00     0.330 C 
ATOM      4  O   UNL A   1      34.919  29.369  27.818  1.00  0.00    -0.247 OA
BRANCH   3   5
ATOM      5  C   UNL A   1      33.358  29.230  26.060  1.00  0.00     0.094 C 
ATOM      6  C   UNL A   1      33.139  27.907  26.011  1.00  0.00     0.016 C 
BRANCH   6   7
ATOM      7  C   UNL A   1      32.353  27.335  24.913  1.00  0.00    -0.022 A 
ATOM      8  C   UNL A   1      30.471  27.669  23.393  1.00  0.00    -0.035 A 
ATOM      9  C   UNL A   1      30.964  26.633  22.591  1.00  0.00     0.043 A 
ATOM     10  C   UNL A   1      31.136  27.945  24.593  1.00  0.00     0.013 A 
ATOM     11  C   UNL A   1      32.106  25.935  22.976  1.00  0.00     0.124 A 
ATOM     12  F   UNL A   1      32.554  24.935  22.206  1.00  0.00    -0.207 F 
ATOM     13  C   UNL A   1      32.818  26.289  24.117  1.00  0.00     0.047 A 
BRANCH   8  14
ATOM     14  C   UNL A   1      29.285  28.491  22.964  1.00  0.00     0.105 C 
BRANCH  14  15
ATOM     15  S   UNL A   1      29.729  30.032  22.077  1.00  0.00    -0.154 SA
BRANCH  15  16
ATOM     16  C   UNL A   1      28.745  31.375  22.894  1.00  0.00     0.043 C 
ATOM     17  C   UNL A   1      27.497  30.842  23.603  1.00  0.00     0.019 C 
BRANCH  16  18
ATOM     18  C   UNL A   1      28.525  32.617  22.015  1.00  0.00     0.011 C 
ATOM     19  C   UNL A   1      27.920  32.316  20.650  1.00  0.00     0.005 C 
ENDBRANCH  16  18
ENDBRANCH  15  16
ENDBRANCH  14  15
ENDBRANCH   8  14
ENDBRANCH   6   7
ENDBRANCH   3   5
ENDBRANCH   2   3
ENDBRANCH   1   2
BRANCH   1  20
ATOM     20  C   UNL A   1      31.999  32.983  27.218  1.00  0.00     0.275 C 
BRANCH  20  21
ATOM     21  O   UNL A   1      33.203  33.761  27.342  1.00  0.00    -0.458 OA
BRANCH  21  22
ATOM     22  C   UNL A   1      33.337  34.419  28.521  1.00  0.00     0.338 C 
ATOM     23  O   UNL A   1      32.621  35.308  28.948  1.00  0.00    -0.246 OA
BRANCH  22  24
ATOM     24  C   UNL A   1      34.429  33.816  29.306  1.00  0.00     0.060 A 
ATOM     25  C   UNL A   1      35.740  34.181  28.996  1.00  0.00     0.016 A 
ATOM     26  C   UNL A   1      34.174  32.851  30.283  1.00  0.00     0.016 A 
ATOM     27  C   UNL A   1      36.808  33.581  29.657  1.00  0.00     0.010 A 
ATOM     28  C   UNL A   1      35.247  32.242  30.944  1.00  0.00     0.010 A 
ATOM     29  C   UNL A   1      36.569  32.595  30.625  1.00  0.00    -0.014 A 
BRANCH  29  30
ATOM     30  C   UNL A   1      37.720  31.903  31.253  1.00  0.00     0.031 A 
ATOM     31  C   UNL A   1      38.122  32.248  32.659  1.00  0.00     0.074 A 
ATOM     32  C   UNL A   1      38.362  30.929  30.582  1.00  0.00     0.049 A 
ATOM     33  N   UNL A   1      39.104  31.772  33.378  1.00  0.00    -0.248 NA
ATOM     34  C   UNL A   1      37.307  33.261  33.347  1.00  0.00     0.031 C 
ATOM     35  C   UNL A   1      38.023  30.471  29.235  1.00  0.00     0.029 A 
ATOM     36  N   UNL A   1      39.421  30.139  30.947  1.00  0.00    -0.354 N 
ATOM     37  C   UNL A   1      39.030  32.423  34.602  1.00  0.00     0.074 A 
ATOM     38  C   UNL A   1      37.920  33.349  34.519  1.00  0.00     0.031 C 
ATOM     39  C   UNL A   1      38.847  29.467  28.894  1.00  0.00     0.029 A 
ATOM     40  C   UNL A   1      39.798  29.239  29.979  1.00  0.00     0.049 A 
ATOM     41  H   UNL A   1      39.870  30.208  31.821  1.00  0.00     0.167 HD
ATOM     42  C   UNL A   1      39.812  32.258  35.696  1.00  0.00     0.034 A 
ATOM     43  C   UNL A   1      40.808  28.345  29.960  1.00  0.00     0.034 A 
ATOM     44  C   UNL A   1      40.914  31.331  35.767  1.00  0.00     0.049 A 
ATOM     45  C   UNL A   1      41.716  28.240  31.155  1.00  0.00     0.074 A 
ATOM     46  C   UNL A   1      41.769  31.090  36.829  1.00  0.00     0.029 A 
ATOM     47  N   UNL A   1      41.317  30.496  34.734  1.00  0.00    -0.354 N 
ATOM     48  N   UNL A   1      41.665  28.899  32.289  1.00  0.00    -0.248 NA
ATOM     49  C   UNL A   1      42.826  27.280  31.067  1.00  0.00     0.031 C 
ATOM     50  C   UNL A   1      42.721  30.151  36.419  1.00  0.00     0.029 A 
ATOM     51  C   UNL A   1      42.424  29.759  35.124  1.00  0.00     0.049 A 
ATOM     52  H   UNL A   1      40.881  30.435  33.853  1.00  0.00     0.167 HD
ATOM     53  C   UNL A   1      42.724  28.424  33.053  1.00  0.00     0.074 A 
ATOM     54  C   UNL A   1      43.398  27.420  32.256  1.00  0.00     0.031 C 
ATOM     55  C   UNL A   1      43.099  28.779  34.308  1.00  0.00     0.034 A 
BRANCH  42  56
ATOM     56  C   UNL A   1      39.533  33.132  36.889  1.00  0.00     0.023 A 
ATOM     57  C   UNL A   1      40.206  34.348  37.089  1.00  0.00     0.031 A 
ATOM     58  C   UNL A   1      38.568  32.743  37.836  1.00  0.00     0.131 A 
ATOM     59  C   UNL A   1      39.933  35.116  38.231  1.00  0.00     0.055 A 
ATOM     60  C   UNL A   1      38.258  33.540  38.939  1.00  0.00     0.041 A 
ATOM     61  F   UNL A   1      37.910  31.580  37.702  1.00  0.00    -0.206 F 
ATOM     62  C   UNL A   1      38.948  34.730  39.145  1.00  0.00     0.022 A 
BRANCH  59  63
ATOM     63  S   UNL A   1      40.935  36.593  38.552  1.00  0.00     0.124 S 
ATOM     64  O   UNL A   1      41.676  36.723  37.300  1.00  0.00    -0.237 OA
ATOM     65  O   UNL A   1      39.926  37.614  38.806  1.00  0.00    -0.237 OA
ATOM     66  O   UNL A   1      41.742  36.215  39.710  1.00  0.00    -0.744 OA
ENDBRANCH  59  63
ENDBRANCH  42  56
BRANCH  43  67
ATOM     67  C   UNL A   1      41.035  27.511  28.749  1.00  0.00     0.023 A 
ATOM     68  C   UNL A   1      42.040  27.831  27.824  1.00  0.00     0.031 A 
ATOM     69  C   UNL A   1      40.247  26.372  28.509  1.00  0.00     0.131 A 
ATOM     70  C   UNL A   1      42.221  27.024  26.688  1.00  0.00     0.055 A 
ATOM     71  C   UNL A   1      40.454  25.554  27.397  1.00  0.00     0.041 A 
ATOM     72  F   UNL A   1      39.276  26.025  29.370  1.00  0.00    -0.206 F 
ATOM     73  C   UNL A   1      41.444  25.882  26.476  1.00  0.00     0.022 A 
BRANCH  70  74
ATOM     74  S   UNL A   1      43.480  27.498  25.472  1.00  0.00     0.124 S 
ATOM     75  O   UNL A   1      44.121  28.629  26.133  1.00  0.00    -0.237 OA
ATOM     76  O   UNL A   1      44.276  26.280  25.363  1.00  0.00    -0.237 OA
ATOM     77  O   UNL A   1      42.696  27.833  24.284  1.00  0.00    -0.744 OA
ENDBRANCH  70  74
ENDBRANCH  43  67
BRANCH  55  78
ATOM     78  C   UNL A   1      44.280  28.064  34.907  1.00  0.00     0.023 A 
ATOM     79  C   UNL A   1      44.142  26.808  35.520  1.00  0.00     0.031 A 
ATOM     80  C   UNL A   1      45.563  28.630  34.820  1.00  0.00     0.131 A 
ATOM     81  C   UNL A   1      45.273  26.163  36.042  1.00  0.00     0.055 A 
ATOM     82  C   UNL A   1      46.690  27.965  35.305  1.00  0.00     0.041 A 
ATOM     83  F   UNL A   1      45.743  29.826  34.239  1.00  0.00    -0.206 F 
ATOM     84  C   UNL A   1      46.548  26.726  35.924  1.00  0.00     0.022 A 
BRANCH  81  85
ATOM     85  S   UNL A   1      45.061  24.576  36.895  1.00  0.00     0.124 S 
ATOM     86  O   UNL A   1      44.233  24.955  38.036  1.00  0.00    -0.237 OA
ATOM     87  O   UNL A   1      44.411  23.753  35.881  1.00  0.00    -0.237 OA
ATOM     88  O   UNL A   1      46.429  24.179  37.226  1.00  0.00    -0.744 OA
ENDBRANCH  81  85
ENDBRANCH  55  78
ENDBRANCH  29  30
ENDBRANCH  22  24
ENDBRANCH  21  22
ENDBRANCH  20  21
ENDBRANCH   1  20
TORSDOF 19
ENDMDL
MODEL 3
REMARK VINA RESULT:     -10.3      5.665      9.003
REMARK SMILES CC[C@@H](C)SCc1cc(F)cc(/C=C/C(=O)OCCOC(=O)c2ccc(-c3c4nc(c(-c5cc(S(=O)(=O)[O-])ccc5F)c5ccc([nH]5)c(-c5cc(S(=O)(=O)[O-])ccc5F)c5nc(c(-c6cc(S(=O)(=O)[O-])ccc6F)c6ccc3[nH]6)C=C5)C=C4)cc2)c1
REMARK SMILES IDX 18 1 17 2 15 3 16 4 14 5 13 6 12 7 7 8 8 9 86 10 9 11 10 12
REMARK SMILES IDX 11 13 6 14 5 15 3 16 4 17 2 18 1 19 19 20 20 21 21 22 22 23
REMARK SMILES IDX 23 24 24 25 85 26 25 27 84 28 26 29 27 30 28 31 78 32 29 33
REMARK SMILES IDX 83 34 77 35 79 36 30 37 82 38 76 39 75 40 31 42 63 43 43 44
REMARK SMILES IDX 62 45 44 46 47 47 61 48 80 49 45 50 46 51 60 53 81 54 48 55
REMARK SMILES IDX 32 56 33 57 41 58 34 59 40 60 42 61 39 62 35 63 36 64 37 65
REMARK SMILES IDX 38 66 64 67 65 68 73 69 66 70 72 71 74 72 71 73 67 74 68 75
REMARK SMILES IDX 69 76 70 77 49 78 50 79 58 80 51 81 57 82 59 83 56 84 52 85
REMARK SMILES IDX 53 86 54 87 55 88
REMARK H PARENT 79 41 47 52
REMARK Flexibility Score: inf
ROOT
ATOM      1  C   UNL A   1      35.968  20.269  24.689  1.00  0.00     0.275 C 
ENDROOT
BRANCH   1   2
ATOM      2  O   UNL A   1      35.298  18.998  24.623  1.00  0.00    -0.459 OA
BRANCH   2   3
ATOM      3  C   UNL A   1      33.945  19.047  24.665  1.00  0.00     0.330 C 
ATOM      4  O   UNL A   1      33.177  18.177  24.282  1.00  0.00    -0.247 OA
BRANCH   3   5
ATOM      5  C   UNL A   1      33.451  20.325  25.208  1.00  0.00     0.094 C 
ATOM      6  C   UNL A   1      32.270  20.889  24.908  1.00  0.00     0.016 C 
BRANCH   6   7
ATOM      7  C   UNL A   1      31.864  22.133  25.567  1.00  0.00    -0.022 A 
ATOM      8  C   UNL A   1      32.270  24.533  25.771  1.00  0.00    -0.035 A 
ATOM      9  C   UNL A   1      31.024  24.669  26.394  1.00  0.00     0.043 A 
ATOM     10  C   UNL A   1      32.705  23.244  25.442  1.00  0.00     0.013 A 
ATOM     11  C   UNL A   1      30.239  23.544  26.636  1.00  0.00     0.124 A 
ATOM     12  F   UNL A   1      29.057  23.690  27.249  1.00  0.00    -0.207 F 
ATOM     13  C   UNL A   1      30.636  22.282  26.210  1.00  0.00     0.047 A 
BRANCH   8  14
ATOM     14  C   UNL A   1      33.105  25.737  25.425  1.00  0.00     0.105 C 
BRANCH  14  15
ATOM     15  S   UNL A   1      32.183  27.056  24.548  1.00  0.00    -0.154 SA
BRANCH  15  16
ATOM     16  C   UNL A   1      32.174  28.506  25.704  1.00  0.00     0.043 C 
ATOM     17  C   UNL A   1      31.829  28.111  27.143  1.00  0.00     0.019 C 
BRANCH  16  18
ATOM     18  C   UNL A   1      31.430  29.738  25.162  1.00  0.00     0.011 C 
ATOM     19  C   UNL A   1      30.524  29.446  23.972  1.00  0.00     0.005 C 
ENDBRANCH  16  18
ENDBRANCH  15  16
ENDBRANCH  14  15
ENDBRANCH   8  14
ENDBRANCH   6   7
ENDBRANCH   3   5
ENDBRANCH   2   3
ENDBRANCH   1   2
BRANCH   1  20
ATOM     20  C   UNL A   1      37.456  20.083  24.988  1.00  0.00     0.275 C 
BRANCH  20  21
ATOM     21  O   UNL A   1      38.002  21.212  25.693  1.00  0.00    -0.458 OA
BRANCH  21  22
ATOM     22  C   UNL A   1      39.272  21.043  26.141  1.00  0.00     0.338 C 
ATOM     23  O   UNL A   1      39.943  20.027  26.072  1.00  0.00    -0.246 OA
BRANCH  22  24
ATOM     24  C   UNL A   1      39.803  22.327  26.631  1.00  0.00     0.060 A 
ATOM     25  C   UNL A   1      39.236  23.504  26.135  1.00  0.00     0.016 A 
ATOM     26  C   UNL A   1      40.888  22.378  27.508  1.00  0.00     0.016 A 
ATOM     27  C   UNL A   1      39.755  24.740  26.509  1.00  0.00     0.010 A 
ATOM     28  C   UNL A   1      41.414  23.621  27.879  1.00  0.00     0.010 A 
ATOM     29  C   UNL A   1      40.858  24.807  27.372  1.00  0.00    -0.014 A 
BRANCH  29  30
ATOM     30  C   UNL A   1      41.452  26.129  27.687  1.00  0.00     0.031 A 
ATOM     31  C   UNL A   1      42.825  26.468  27.181  1.00  0.00     0.074 A 
ATOM     32  C   UNL A   1      40.736  27.038  28.374  1.00  0.00     0.049 A 
ATOM     33  N   UNL A   1      43.526  27.558  27.360  1.00  0.00    -0.248 NA
ATOM     34  C   UNL A   1      43.497  25.447  26.363  1.00  0.00     0.031 C 
ATOM     35  C   UNL A   1      39.372  26.839  28.864  1.00  0.00     0.029 A 
ATOM     36  N   UNL A   1      41.049  28.315  28.763  1.00  0.00    -0.354 N 
ATOM     37  C   UNL A   1      44.720  27.357  26.680  1.00  0.00     0.074 A 
ATOM     38  C   UNL A   1      44.660  26.030  26.106  1.00  0.00     0.031 C 
ATOM     39  C   UNL A   1      38.959  27.962  29.473  1.00  0.00     0.029 A 
ATOM     40  C   UNL A   1      40.041  28.943  29.454  1.00  0.00     0.049 A 
ATOM     41  H   UNL A   1      41.914  28.742  28.565  1.00  0.00     0.167 HD
ATOM     42  C   UNL A   1      45.766  28.207  26.543  1.00  0.00     0.034 A 
ATOM     43  C   UNL A   1      40.000  30.165  30.025  1.00  0.00     0.034 A 
ATOM     44  C   UNL A   1      45.813  29.528  27.118  1.00  0.00     0.049 A 
ATOM     45  C   UNL A   1      41.207  31.058  29.931  1.00  0.00     0.074 A 
ATOM     46  C   UNL A   1      46.829  30.466  27.038  1.00  0.00     0.029 A 
ATOM     47  N   UNL A   1      44.805  30.097  27.884  1.00  0.00    -0.354 N 
ATOM     48  N   UNL A   1      42.351  30.836  29.326  1.00  0.00    -0.248 NA
ATOM     49  C   UNL A   1      41.126  32.361  30.605  1.00  0.00     0.031 C 
ATOM     50  C   UNL A   1      46.458  31.578  27.801  1.00  0.00     0.029 A 
ATOM     51  C   UNL A   1      45.185  31.362  28.305  1.00  0.00     0.049 A 
ATOM     52  H   UNL A   1      43.945  29.667  28.096  1.00  0.00     0.167 HD
ATOM     53  C   UNL A   1      43.119  31.976  29.534  1.00  0.00     0.074 A 
ATOM     54  C   UNL A   1      42.310  32.888  30.318  1.00  0.00     0.031 C 
ATOM     55  C   UNL A   1      44.377  32.248  29.106  1.00  0.00     0.034 A 
BRANCH  42  56
ATOM     56  C   UNL A   1      46.966  27.716  25.778  1.00  0.00     0.023 A 
ATOM     57  C   UNL A   1      47.133  27.988  24.410  1.00  0.00     0.031 A 
ATOM     58  C   UNL A   1      47.962  26.972  26.434  1.00  0.00     0.131 A 
ATOM     59  C   UNL A   1      48.254  27.485  23.731  1.00  0.00     0.055 A 
ATOM     60  C   UNL A   1      49.104  26.525  25.767  1.00  0.00     0.041 A 
ATOM     61  F   UNL A   1      47.841  26.668  27.736  1.00  0.00    -0.206 F 
ATOM     62  C   UNL A   1      49.251  26.774  24.406  1.00  0.00     0.022 A 
BRANCH  59  63
ATOM     63  S   UNL A   1      48.359  27.704  21.935  1.00  0.00     0.124 S 
ATOM     64  O   UNL A   1      47.020  28.195  21.619  1.00  0.00    -0.237 OA
ATOM     65  O   UNL A   1      49.442  28.670  21.794  1.00  0.00    -0.237 OA
ATOM     66  O   UNL A   1      48.656  26.361  21.441  1.00  0.00    -0.744 OA
ENDBRANCH  59  63
ENDBRANCH  42  56
BRANCH  43  67
ATOM     67  C   UNL A   1      38.786  30.593  30.770  1.00  0.00     0.023 A 
ATOM     68  C   UNL A   1      37.744  31.279  30.129  1.00  0.00     0.031 A 
ATOM     69  C   UNL A   1      38.653  30.311  32.141  1.00  0.00     0.131 A 
ATOM     70  C   UNL A   1      36.615  31.675  30.866  1.00  0.00     0.055 A 
ATOM     71  C   UNL A   1      37.515  30.675  32.861  1.00  0.00     0.041 A 
ATOM     72  F   UNL A   1      39.624  29.653  32.795  1.00  0.00    -0.206 F 
ATOM     73  C   UNL A   1      36.489  31.366  32.223  1.00  0.00     0.022 A 
BRANCH  70  74
ATOM     74  S   UNL A   1      35.314  32.622  30.030  1.00  0.00     0.124 S 
ATOM     75  O   UNL A   1      35.038  31.785  28.868  1.00  0.00    -0.237 OA
ATOM     76  O   UNL A   1      34.269  32.673  31.048  1.00  0.00    -0.237 OA
ATOM     77  O   UNL A   1      35.958  33.901  29.739  1.00  0.00    -0.744 OA
ENDBRANCH  70  74
ENDBRANCH  43  67
BRANCH  55  78
ATOM     78  C   UNL A   1      44.952  33.594  29.455  1.00  0.00     0.023 A 
ATOM     79  C   UNL A   1      44.678  34.732  28.680  1.00  0.00     0.031 A 
ATOM     80  C   UNL A   1      45.744  33.743  30.606  1.00  0.00     0.131 A 
ATOM     81  C   UNL A   1      45.213  35.974  29.056  1.00  0.00     0.055 A 
ATOM     82  C   UNL A   1      46.240  34.987  30.998  1.00  0.00     0.041 A 
ATOM     83  F   UNL A   1      46.029  32.684  31.381  1.00  0.00    -0.206 F 
ATOM     84  C   UNL A   1      45.978  36.111  30.218  1.00  0.00     0.022 A 
BRANCH  81  85
ATOM     85  S   UNL A   1      44.907  37.416  27.999  1.00  0.00     0.124 S 
ATOM     86  O   UNL A   1      44.320  36.800  26.812  1.00  0.00    -0.237 OA
ATOM     87  O   UNL A   1      44.005  38.222  28.812  1.00  0.00    -0.237 OA
ATOM     88  O   UNL A   1      46.239  37.987  27.805  1.00  0.00    -0.744 OA
ENDBRANCH  81  85
ENDBRANCH  55  78
ENDBRANCH  29  30
ENDBRANCH  22  24
ENDBRANCH  21  22
ENDBRANCH  20  21
ENDBRANCH   1  20
TORSDOF 19
ENDMDL
