MODEL 1
REMARK VINA RESULT:     -11.0      0.000      0.000
REMARK SMILES CC[NH2+][C@@]1(C(=O)OCCOC(=O)c2ccc(-c3c4nc(c(-c5cc(S(=O)(=O)[O-])ccc5F)c5ccc([nH]5)c(-c5cc(S(=O)(=O)[O-])ccc5F)c5nc(c(-c6cc(S(=O)(=O)[O-])ccc6F)c6ccc3[nH]6)C=C5)C=C4)cc2)CC[C@@H](Oc2cccc(OC)c2)C1
REMARK SMILES IDX 8 1 7 2 5 3 6 4 4 5 76 6 88 7 77 8 78 9 3 10 2 13 1 14 79 15
REMARK SMILES IDX 80 16 81 17 87 18 82 19 84 20 83 21 85 22 86 23 9 24 10 25
REMARK SMILES IDX 11 26 12 27 13 28 14 29 75 30 15 31 74 32 16 33 17 34 18 35
REMARK SMILES IDX 68 36 19 37 73 38 67 39 69 40 20 41 72 42 66 43 65 44 21 46
REMARK SMILES IDX 53 47 33 48 52 49 34 50 37 51 51 52 70 53 35 54 36 55 50 57
REMARK SMILES IDX 71 58 38 59 22 60 23 61 31 62 24 63 30 64 32 65 29 66 25 67
REMARK SMILES IDX 26 68 27 69 28 70 54 71 55 72 63 73 56 74 62 75 64 76 61 77
REMARK SMILES IDX 57 78 58 79 59 80 60 81 39 82 40 83 48 84 41 85 47 86 49 87
REMARK SMILES IDX 46 88 42 89 43 90 44 91 45 92
REMARK H PARENT 3 11 3 12 69 45 37 56
REMARK Flexibility Score: inf
ROOT
ATOM      1  C   UNL A   1      35.691  21.412  24.615  1.00  0.00     0.274 C 
ENDROOT
BRANCH   1   2
ATOM      2  O   UNL A   1      34.471  21.403  25.380  1.00  0.00    -0.457 OA
BRANCH   2   3
ATOM      3  C   UNL A   1      33.324  21.717  24.707  1.00  0.00     0.368 C 
ATOM      4  O   UNL A   1      32.698  20.903  24.039  1.00  0.00    -0.245 OA
BRANCH   3   5
ATOM      5  C   UNL A   1      32.966  23.240  24.832  1.00  0.00     0.198 C 
ATOM      6  C   UNL A   1      33.345  23.760  26.225  1.00  0.00     0.085 C 
ATOM      7  C   UNL A   1      31.440  23.490  24.750  1.00  0.00     0.126 C 
ATOM      8  C   UNL A   1      32.156  23.400  27.106  1.00  0.00     0.052 C 
ATOM      9  C   UNL A   1      30.933  23.566  26.197  1.00  0.00     0.180 C 
BRANCH   5  10
ATOM     10  N   UNL A   1      33.608  24.007  23.731  1.00  0.00    -0.332 N 
ATOM     11  H   UNL A   1      34.271  24.659  24.150  1.00  0.00     0.347 HD
ATOM     12  H   UNL A   1      34.033  23.306  23.123  1.00  0.00     0.347 HD
BRANCH  10  13
ATOM     13  C   UNL A   1      32.709  24.778  22.868  1.00  0.00     0.257 C 
ATOM     14  C   UNL A   1      33.327  26.148  22.622  1.00  0.00     0.071 C 
ENDBRANCH  10  13
ENDBRANCH   5  10
BRANCH   9  15
ATOM     15  O   UNL A   1      30.084  24.688  26.502  1.00  0.00    -0.490 OA
BRANCH  15  16
ATOM     16  C   UNL A   1      30.247  25.820  25.752  1.00  0.00     0.123 A 
ATOM     17  C   UNL A   1      29.538  25.954  24.560  1.00  0.00     0.047 A 
ATOM     18  C   UNL A   1      31.228  26.754  26.089  1.00  0.00     0.092 A 
ATOM     19  C   UNL A   1      29.746  27.070  23.751  1.00  0.00     0.008 A 
ATOM     20  C   UNL A   1      31.404  27.899  25.312  1.00  0.00     0.122 A 
ATOM     21  C   UNL A   1      30.667  28.046  24.136  1.00  0.00     0.046 A 
BRANCH  20  22
ATOM     22  O   UNL A   1      32.278  28.915  25.584  1.00  0.00    -0.497 OA
ATOM     23  C   UNL A   1      32.133  29.550  26.852  1.00  0.00     0.278 C 
ENDBRANCH  20  22
ENDBRANCH  15  16
ENDBRANCH   9  15
ENDBRANCH   3   5
ENDBRANCH   2   3
ENDBRANCH   1   2
BRANCH   1  24
ATOM     24  C   UNL A   1      36.794  20.676  25.377  1.00  0.00     0.275 C 
BRANCH  24  25
ATOM     25  O   UNL A   1      38.081  21.258  25.094  1.00  0.00    -0.458 OA
BRANCH  25  26
ATOM     26  C   UNL A   1      39.062  20.955  25.981  1.00  0.00     0.338 C 
ATOM     27  O   UNL A   1      39.501  19.848  26.242  1.00  0.00    -0.246 OA
BRANCH  26  28
ATOM     28  C   UNL A   1      39.649  22.196  26.512  1.00  0.00     0.060 A 
ATOM     29  C   UNL A   1      39.104  23.402  26.072  1.00  0.00     0.016 A 
ATOM     30  C   UNL A   1      40.758  22.191  27.360  1.00  0.00     0.016 A 
ATOM     31  C   UNL A   1      39.646  24.613  26.493  1.00  0.00     0.010 A 
ATOM     32  C   UNL A   1      41.317  23.412  27.770  1.00  0.00     0.010 A 
ATOM     33  C   UNL A   1      40.764  24.630  27.335  1.00  0.00    -0.014 A 
BRANCH  33  34
ATOM     34  C   UNL A   1      41.373  25.939  27.681  1.00  0.00     0.031 A 
ATOM     35  C   UNL A   1      42.733  26.290  27.146  1.00  0.00     0.074 A 
ATOM     36  C   UNL A   1      40.668  26.847  28.383  1.00  0.00     0.049 A 
ATOM     37  N   UNL A   1      43.422  27.393  27.292  1.00  0.00    -0.248 NA
ATOM     38  C   UNL A   1      43.400  25.265  26.330  1.00  0.00     0.031 C 
ATOM     39  C   UNL A   1      39.315  26.641  28.900  1.00  0.00     0.029 A 
ATOM     40  N   UNL A   1      40.979  28.129  28.760  1.00  0.00    -0.354 N 
ATOM     41  C   UNL A   1      44.599  27.204  26.577  1.00  0.00     0.074 A 
ATOM     42  C   UNL A   1      44.542  25.865  26.024  1.00  0.00     0.031 C 
ATOM     43  C   UNL A   1      38.905  27.766  29.510  1.00  0.00     0.029 A 
ATOM     44  C   UNL A   1      39.978  28.757  29.466  1.00  0.00     0.049 A 
ATOM     45  H   UNL A   1      41.837  28.560  28.546  1.00  0.00     0.167 HD
ATOM     46  C   UNL A   1      45.628  28.067  26.392  1.00  0.00     0.034 A 
ATOM     47  C   UNL A   1      39.940  29.984  30.026  1.00  0.00     0.034 A 
ATOM     48  C   UNL A   1      45.692  29.387  26.973  1.00  0.00     0.049 A 
ATOM     49  C   UNL A   1      41.142  30.888  29.881  1.00  0.00     0.074 A 
ATOM     50  C   UNL A   1      46.716  30.315  26.899  1.00  0.00     0.029 A 
ATOM     51  N   UNL A   1      44.689  29.966  27.739  1.00  0.00    -0.354 N 
ATOM     52  N   UNL A   1      42.264  30.679  29.230  1.00  0.00    -0.248 NA
ATOM     53  C   UNL A   1      41.067  32.196  30.545  1.00  0.00     0.031 C 
ATOM     54  C   UNL A   1      46.355  31.434  27.661  1.00  0.00     0.029 A 
ATOM     55  C   UNL A   1      45.077  31.231  28.158  1.00  0.00     0.049 A 
ATOM     56  H   UNL A   1      43.827  29.542  27.953  1.00  0.00     0.167 HD
ATOM     57  C   UNL A   1      43.015  31.840  29.393  1.00  0.00     0.074 A 
ATOM     58  C   UNL A   1      42.208  32.755  30.172  1.00  0.00     0.031 C 
ATOM     59  C   UNL A   1      44.265  32.126  28.945  1.00  0.00     0.034 A 
BRANCH  46  60
ATOM     60  C   UNL A   1      46.792  27.579  25.570  1.00  0.00     0.023 A 
ATOM     61  C   UNL A   1      46.973  27.989  24.237  1.00  0.00     0.031 A 
ATOM     62  C   UNL A   1      47.719  26.674  26.116  1.00  0.00     0.131 A 
ATOM     63  C   UNL A   1      48.025  27.453  23.478  1.00  0.00     0.055 A 
ATOM     64  C   UNL A   1      48.801  26.194  25.376  1.00  0.00     0.041 A 
ATOM     65  F   UNL A   1      47.581  26.233  27.376  1.00  0.00    -0.206 F 
ATOM     66  C   UNL A   1      48.953  26.575  24.046  1.00  0.00     0.022 A 
BRANCH  63  67
ATOM     67  S   UNL A   1      48.104  27.834  21.707  1.00  0.00     0.124 S 
ATOM     68  O   UNL A   1      46.798  28.452  21.481  1.00  0.00    -0.237 OA
ATOM     69  O   UNL A   1      49.254  28.725  21.626  1.00  0.00    -0.237 OA
ATOM     70  O   UNL A   1      48.283  26.525  21.083  1.00  0.00    -0.744 OA
ENDBRANCH  63  67
ENDBRANCH  46  60
BRANCH  47  71
ATOM     71  C   UNL A   1      38.759  30.429  30.823  1.00  0.00     0.023 A 
ATOM     72  C   UNL A   1      37.656  31.044  30.207  1.00  0.00     0.031 A 
ATOM     73  C   UNL A   1      38.763  30.338  32.226  1.00  0.00     0.131 A 
ATOM     74  C   UNL A   1      36.637  31.604  30.995  1.00  0.00     0.055 A 
ATOM     75  C   UNL A   1      37.717  30.842  33.002  1.00  0.00     0.041 A 
ATOM     76  F   UNL A   1      39.794  29.766  32.868  1.00  0.00    -0.206 F 
ATOM     77  C   UNL A   1      36.655  31.497  32.387  1.00  0.00     0.022 A 
BRANCH  74  78
ATOM     78  S   UNL A   1      35.351  32.590  30.179  1.00  0.00     0.124 S 
ATOM     79  O   UNL A   1      34.363  32.731  31.242  1.00  0.00    -0.237 OA
ATOM     80  O   UNL A   1      36.082  33.799  29.817  1.00  0.00    -0.237 OA
ATOM     81  O   UNL A   1      34.942  31.750  29.054  1.00  0.00    -0.744 OA
ENDBRANCH  74  78
ENDBRANCH  47  71
BRANCH  59  82
ATOM     82  C   UNL A   1      44.805  33.498  29.269  1.00  0.00     0.023 A 
ATOM     83  C   UNL A   1      44.667  34.575  28.376  1.00  0.00     0.031 A 
ATOM     84  C   UNL A   1      45.506  33.719  30.469  1.00  0.00     0.131 A 
ATOM     85  C   UNL A   1      45.277  35.804  28.662  1.00  0.00     0.055 A 
ATOM     86  C   UNL A   1      46.063  34.962  30.774  1.00  0.00     0.041 A 
ATOM     87  F   UNL A   1      45.670  32.727  31.358  1.00  0.00    -0.206 F 
ATOM     88  C   UNL A   1      45.964  36.009  29.861  1.00  0.00     0.022 A 
BRANCH  85  89
ATOM     89  S   UNL A   1      45.253  37.104  27.396  1.00  0.00     0.124 S 
ATOM     90  O   UNL A   1      46.098  36.532  26.353  1.00  0.00    -0.237 OA
ATOM     91  O   UNL A   1      43.831  37.204  27.080  1.00  0.00    -0.237 OA
ATOM     92  O   UNL A   1      45.816  38.265  28.084  1.00  0.00    -0.744 OA
ENDBRANCH  85  89
ENDBRANCH  59  82
ENDBRANCH  33  34
ENDBRANCH  26  28
ENDBRANCH  25  26
ENDBRANCH  24  25
ENDBRANCH   1  24
TORSDOF 19
ENDMDL
MODEL 2
REMARK VINA RESULT:     -10.9      4.954     10.217
REMARK SMILES CC[NH2+][C@@]1(C(=O)OCCOC(=O)c2ccc(-c3c4nc(c(-c5cc(S(=O)(=O)[O-])ccc5F)c5ccc([nH]5)c(-c5cc(S(=O)(=O)[O-])ccc5F)c5nc(c(-c6cc(S(=O)(=O)[O-])ccc6F)c6ccc3[nH]6)C=C5)C=C4)cc2)CC[C@@H](Oc2cccc(OC)c2)C1
REMARK SMILES IDX 8 1 7 2 5 3 6 4 4 5 76 6 88 7 77 8 78 9 3 10 2 13 1 14 79 15
REMARK SMILES IDX 80 16 81 17 87 18 82 19 84 20 83 21 85 22 86 23 9 24 10 25
REMARK SMILES IDX 11 26 12 27 13 28 14 29 75 30 15 31 74 32 16 33 17 34 18 35
REMARK SMILES IDX 68 36 19 37 73 38 67 39 69 40 20 41 72 42 66 43 65 44 21 46
REMARK SMILES IDX 53 47 33 48 52 49 34 50 37 51 51 52 70 53 35 54 36 55 50 57
REMARK SMILES IDX 71 58 38 59 22 60 23 61 31 62 24 63 30 64 32 65 29 66 25 67
REMARK SMILES IDX 26 68 27 69 28 70 54 71 55 72 63 73 56 74 62 75 64 76 61 77
REMARK SMILES IDX 57 78 58 79 59 80 60 81 39 82 40 83 48 84 41 85 47 86 49 87
REMARK SMILES IDX 46 88 42 89 43 90 44 91 45 92
REMARK H PARENT 3 11 3 12 69 45 37 56
REMARK Flexibility Score: inf
ROOT
ATOM      1  C   UNL A   1      31.427  29.666  24.851  1.00  0.00     0.274 C 
ENDROOT
BRANCH   1   2
ATOM      2  O   UNL A   1      30.967  28.310  25.008  1.00  0.00    -0.457 OA
BRANCH   2   3
ATOM      3  C   UNL A   1      30.992  27.523  23.891  1.00  0.00     0.368 C 
ATOM      4  O   UNL A   1      30.452  27.840  22.838  1.00  0.00    -0.245 OA
BRANCH   3   5
ATOM      5  C   UNL A   1      31.715  26.154  24.151  1.00  0.00     0.198 C 
ATOM      6  C   UNL A   1      33.237  26.349  24.139  1.00  0.00     0.085 C 
ATOM      7  C   UNL A   1      31.467  25.137  23.010  1.00  0.00     0.126 C 
ATOM      8  C   UNL A   1      33.621  26.282  22.667  1.00  0.00     0.052 C 
ATOM      9  C   UNL A   1      32.671  25.243  22.063  1.00  0.00     0.180 C 
BRANCH   5  10
ATOM     10  N   UNL A   1      31.216  25.545  25.413  1.00  0.00    -0.332 N 
ATOM     11  H   UNL A   1      30.995  26.303  26.058  1.00  0.00     0.347 HD
ATOM     12  H   UNL A   1      30.415  24.975  25.142  1.00  0.00     0.347 HD
BRANCH  10  13
ATOM     13  C   UNL A   1      32.132  24.630  26.098  1.00  0.00     0.257 C 
ATOM     14  C   UNL A   1      31.358  23.386  26.514  1.00  0.00     0.071 C 
ENDBRANCH  10  13
ENDBRANCH   5  10
BRANCH   9  15
ATOM     15  O   UNL A   1      33.278  23.995  21.684  1.00  0.00    -0.490 OA
BRANCH  15  16
ATOM     16  C   UNL A   1      33.569  23.110  22.686  1.00  0.00     0.123 A 
ATOM     17  C   UNL A   1      34.835  23.133  23.267  1.00  0.00     0.047 A 
ATOM     18  C   UNL A   1      32.670  22.093  23.012  1.00  0.00     0.092 A 
ATOM     19  C   UNL A   1      35.169  22.192  24.240  1.00  0.00     0.008 A 
ATOM     20  C   UNL A   1      32.977  21.182  24.023  1.00  0.00     0.122 A 
ATOM     21  C   UNL A   1      34.235  21.229  24.625  1.00  0.00     0.046 A 
BRANCH  20  22
ATOM     22  O   UNL A   1      32.148  20.195  24.479  1.00  0.00    -0.497 OA
ATOM     23  C   UNL A   1      32.769  19.128  25.193  1.00  0.00     0.278 C 
ENDBRANCH  20  22
ENDBRANCH  15  16
ENDBRANCH   9  15
ENDBRANCH   3   5
ENDBRANCH   2   3
ENDBRANCH   1   2
BRANCH   1  24
ATOM     24  C   UNL A   1      32.776  29.845  25.549  1.00  0.00     0.275 C 
BRANCH  24  25
ATOM     25  O   UNL A   1      32.589  30.266  26.914  1.00  0.00    -0.458 OA
BRANCH  25  26
ATOM     26  C   UNL A   1      33.211  31.423  27.254  1.00  0.00     0.338 C 
ATOM     27  O   UNL A   1      32.733  32.544  27.245  1.00  0.00    -0.246 OA
BRANCH  26  28
ATOM     28  C   UNL A   1      34.551  31.127  27.786  1.00  0.00     0.060 A 
ATOM     29  C   UNL A   1      34.806  29.815  28.187  1.00  0.00     0.016 A 
ATOM     30  C   UNL A   1      35.516  32.119  27.965  1.00  0.00     0.016 A 
ATOM     31  C   UNL A   1      36.034  29.479  28.749  1.00  0.00     0.010 A 
ATOM     32  C   UNL A   1      36.749  31.784  28.549  1.00  0.00     0.010 A 
ATOM     33  C   UNL A   1      37.012  30.461  28.947  1.00  0.00    -0.014 A 
BRANCH  33  34
ATOM     34  C   UNL A   1      38.269  30.082  29.640  1.00  0.00     0.031 A 
ATOM     35  C   UNL A   1      38.555  30.627  31.011  1.00  0.00     0.074 A 
ATOM     36  C   UNL A   1      39.097  29.175  29.087  1.00  0.00     0.049 A 
ATOM     37  N   UNL A   1      39.568  30.389  31.803  1.00  0.00    -0.248 NA
ATOM     38  C   UNL A   1      37.560  31.557  31.566  1.00  0.00     0.031 C 
ATOM     39  C   UNL A   1      38.891  28.532  27.789  1.00  0.00     0.029 A 
ATOM     40  N   UNL A   1      40.261  28.620  29.554  1.00  0.00    -0.354 N 
ATOM     41  C   UNL A   1      39.331  31.127  32.956  1.00  0.00     0.074 A 
ATOM     42  C   UNL A   1      38.091  31.847  32.746  1.00  0.00     0.031 C 
ATOM     43  C   UNL A   1      39.886  27.654  27.574  1.00  0.00     0.029 A 
ATOM     44  C   UNL A   1      40.822  27.702  28.695  1.00  0.00     0.049 A 
ATOM     45  H   UNL A   1      40.659  28.856  30.423  1.00  0.00     0.167 HD
ATOM     46  C   UNL A   1      40.074  31.193  34.089  1.00  0.00     0.034 A 
ATOM     47  C   UNL A   1      41.967  26.996  28.795  1.00  0.00     0.034 A 
ATOM     48  C   UNL A   1      41.325  30.499  34.279  1.00  0.00     0.049 A 
ATOM     49  C   UNL A   1      42.820  27.164  30.030  1.00  0.00     0.074 A 
ATOM     50  C   UNL A   1      42.185  30.548  35.363  1.00  0.00     0.029 A 
ATOM     51  N   UNL A   1      41.897  29.629  33.361  1.00  0.00    -0.354 N 
ATOM     52  N   UNL A   1      42.599  27.894  31.099  1.00  0.00    -0.248 NA
ATOM     53  C   UNL A   1      44.078  26.405  30.072  1.00  0.00     0.031 C 
ATOM     54  C   UNL A   1      43.300  29.749  35.079  1.00  0.00     0.029 A 
ATOM     55  C   UNL A   1      43.106  29.150  33.845  1.00  0.00     0.049 A 
ATOM     56  H   UNL A   1      41.503  29.387  32.492  1.00  0.00     0.167 HD
ATOM     57  C   UNL A   1      43.681  27.664  31.945  1.00  0.00     0.074 A 
ATOM     58  C   UNL A   1      44.534  26.704  31.278  1.00  0.00     0.031 C 
ATOM     59  C   UNL A   1      43.952  28.202  33.162  1.00  0.00     0.034 A 
BRANCH  46  60
ATOM     60  C   UNL A   1      39.571  32.096  35.186  1.00  0.00     0.023 A 
ATOM     61  C   UNL A   1      38.866  31.588  36.291  1.00  0.00     0.031 A 
ATOM     62  C   UNL A   1      39.777  33.485  35.114  1.00  0.00     0.131 A 
ATOM     63  C   UNL A   1      38.346  32.467  37.253  1.00  0.00     0.055 A 
ATOM     64  C   UNL A   1      39.313  34.349  36.108  1.00  0.00     0.041 A 
ATOM     65  F   UNL A   1      40.423  34.026  34.070  1.00  0.00    -0.206 F 
ATOM     66  C   UNL A   1      38.584  33.843  37.180  1.00  0.00     0.022 A 
BRANCH  63  67
ATOM     67  S   UNL A   1      37.262  31.802  38.546  1.00  0.00     0.124 S 
ATOM     68  O   UNL A   1      38.098  31.952  39.736  1.00  0.00    -0.237 OA
ATOM     69  O   UNL A   1      36.101  32.679  38.467  1.00  0.00    -0.237 OA
ATOM     70  O   UNL A   1      37.033  30.422  38.123  1.00  0.00    -0.744 OA
ENDBRANCH  63  67
ENDBRANCH  46  60
BRANCH  47  71
ATOM     71  C   UNL A   1      42.419  26.104  27.687  1.00  0.00     0.023 A 
ATOM     72  C   UNL A   1      41.926  24.795  27.560  1.00  0.00     0.031 A 
ATOM     73  C   UNL A   1      43.429  26.515  26.800  1.00  0.00     0.131 A 
ATOM     74  C   UNL A   1      42.491  23.923  26.615  1.00  0.00     0.055 A 
ATOM     75  C   UNL A   1      43.944  25.663  25.821  1.00  0.00     0.041 A 
ATOM     76  F   UNL A   1      43.942  27.754  26.880  1.00  0.00    -0.206 F 
ATOM     77  C   UNL A   1      43.488  24.352  25.737  1.00  0.00     0.022 A 
BRANCH  74  78
ATOM     78  S   UNL A   1      41.993  22.178  26.636  1.00  0.00     0.124 S 
ATOM     79  O   UNL A   1      40.539  22.283  26.644  1.00  0.00    -0.237 OA
ATOM     80  O   UNL A   1      42.593  21.678  25.404  1.00  0.00    -0.237 OA
ATOM     81  O   UNL A   1      42.588  21.669  27.870  1.00  0.00    -0.744 OA
ENDBRANCH  74  78
ENDBRANCH  47  71
BRANCH  59  82
ATOM     82  C   UNL A   1      45.210  27.728  33.849  1.00  0.00     0.023 A 
ATOM     83  C   UNL A   1      45.194  26.655  34.758  1.00  0.00     0.031 A 
ATOM     84  C   UNL A   1      46.432  28.386  33.623  1.00  0.00     0.131 A 
ATOM     85  C   UNL A   1      46.359  26.315  35.459  1.00  0.00     0.055 A 
ATOM     86  C   UNL A   1      47.602  28.005  34.283  1.00  0.00     0.041 A 
ATOM     87  F   UNL A   1      46.506  29.416  32.766  1.00  0.00    -0.206 F 
ATOM     88  C   UNL A   1      47.567  26.975  35.219  1.00  0.00     0.022 A 
BRANCH  85  89
ATOM     89  S   UNL A   1      46.253  25.066  36.772  1.00  0.00     0.124 S 
ATOM     90  O   UNL A   1      47.472  24.294  36.559  1.00  0.00    -0.237 OA
ATOM     91  O   UNL A   1      46.220  25.887  37.979  1.00  0.00    -0.237 OA
ATOM     92  O   UNL A   1      45.010  24.357  36.472  1.00  0.00    -0.744 OA
ENDBRANCH  85  89
ENDBRANCH  59  82
ENDBRANCH  33  34
ENDBRANCH  26  28
ENDBRANCH  25  26
ENDBRANCH  24  25
ENDBRANCH   1  24
TORSDOF 19
ENDMDL
MODEL 3
REMARK VINA RESULT:     -10.7      1.992      2.463
REMARK SMILES CC[NH2+][C@@]1(C(=O)OCCOC(=O)c2ccc(-c3c4nc(c(-c5cc(S(=O)(=O)[O-])ccc5F)c5ccc([nH]5)c(-c5cc(S(=O)(=O)[O-])ccc5F)c5nc(c(-c6cc(S(=O)(=O)[O-])ccc6F)c6ccc3[nH]6)C=C5)C=C4)cc2)CC[C@@H](Oc2cccc(OC)c2)C1
REMARK SMILES IDX 8 1 7 2 5 3 6 4 4 5 76 6 88 7 77 8 78 9 3 10 2 13 1 14 79 15
REMARK SMILES IDX 80 16 81 17 87 18 82 19 84 20 83 21 85 22 86 23 9 24 10 25
REMARK SMILES IDX 11 26 12 27 13 28 14 29 75 30 15 31 74 32 16 33 17 34 18 35
REMARK SMILES IDX 68 36 19 37 73 38 67 39 69 40 20 41 72 42 66 43 65 44 21 46
REMARK SMILES IDX 53 47 33 48 52 49 34 50 37 51 51 52 70 53 35 54 36 55 50 57
REMARK SMILES IDX 71 58 38 59 22 60 23 61 31 62 24 63 30 64 32 65 29 66 25 67
REMARK SMILES IDX 26 68 27 69 28 70 54 71 55 72 63 73 56 74 62 75 64 76 61 77
REMARK SMILES IDX 57 78 58 79 59 80 60 81 39 82 40 83 48 84 41 85 47 86 49 87
REMARK SMILES IDX 46 88 42 89 43 90 44 91 45 92
REMARK H PARENT 3 11 3 12 69 45 37 56
REMARK Flexibility Score: inf
ROOT
ATOM      1  C   UNL A   1      36.119  20.695  25.033  1.00  0.00     0.274 C 
ENDROOT
BRANCH   1   2
ATOM      2  O   UNL A   1      35.663  21.957  25.557  1.00  0.00    -0.457 OA
BRANCH   2   3
ATOM      3  C   UNL A   1      34.497  21.938  26.270  1.00  0.00     0.368 C 
ATOM      4  O   UNL A   1      34.406  21.447  27.389  1.00  0.00    -0.245 OA
BRANCH   3   5
ATOM      5  C   UNL A   1      33.298  22.539  25.455  1.00  0.00     0.198 C 
ATOM      6  C   UNL A   1      33.652  23.946  24.953  1.00  0.00     0.085 C 
ATOM      7  C   UNL A   1      32.048  22.771  26.340  1.00  0.00     0.126 C 
ATOM      8  C   UNL A   1      33.329  24.865  26.123  1.00  0.00     0.052 C 
ATOM      9  C   UNL A   1      32.091  24.243  26.777  1.00  0.00     0.180 C 
BRANCH   5  10
ATOM     10  N   UNL A   1      32.908  21.612  24.360  1.00  0.00    -0.332 N 
ATOM     11  H   UNL A   1      32.328  22.133  23.703  1.00  0.00     0.347 HD
ATOM     12  H   UNL A   1      33.785  21.270  23.968  1.00  0.00     0.347 HD
BRANCH  10  13
ATOM     13  C   UNL A   1      32.165  20.414  24.758  1.00  0.00     0.257 C 
ATOM     14  C   UNL A   1      32.851  19.193  24.158  1.00  0.00     0.071 C 
ENDBRANCH  10  13
ENDBRANCH   5  10
BRANCH   9  15
ATOM     15  O   UNL A   1      30.866  24.979  26.608  1.00  0.00    -0.490 OA
BRANCH  15  16
ATOM     16  C   UNL A   1      30.944  26.188  25.974  1.00  0.00     0.123 A 
ATOM     17  C   UNL A   1      30.315  26.351  24.741  1.00  0.00     0.047 A 
ATOM     18  C   UNL A   1      31.774  27.195  26.472  1.00  0.00     0.092 A 
ATOM     19  C   UNL A   1      30.444  27.555  24.050  1.00  0.00     0.008 A 
ATOM     20  C   UNL A   1      31.864  28.420  25.813  1.00  0.00     0.122 A 
ATOM     21  C   UNL A   1      31.206  28.591  24.594  1.00  0.00     0.046 A 
BRANCH  20  22
ATOM     22  O   UNL A   1      32.583  29.501  26.244  1.00  0.00    -0.497 OA
ATOM     23  C   UNL A   1      31.841  30.693  26.492  1.00  0.00     0.278 C 
ENDBRANCH  20  22
ENDBRANCH  15  16
ENDBRANCH   9  15
ENDBRANCH   3   5
ENDBRANCH   2   3
ENDBRANCH   1   2
BRANCH   1  24
ATOM     24  C   UNL A   1      37.647  20.652  25.028  1.00  0.00     0.275 C 
BRANCH  24  25
ATOM     25  O   UNL A   1      38.191  21.834  25.646  1.00  0.00    -0.458 OA
BRANCH  25  26
ATOM     26  C   UNL A   1      39.360  21.656  26.310  1.00  0.00     0.338 C 
ATOM     27  O   UNL A   1      40.039  20.645  26.344  1.00  0.00    -0.246 OA
BRANCH  26  28
ATOM     28  C   UNL A   1      39.793  22.934  26.900  1.00  0.00     0.060 A 
ATOM     29  C   UNL A   1      39.263  24.103  26.356  1.00  0.00     0.016 A 
ATOM     30  C   UNL A   1      40.755  22.999  27.909  1.00  0.00     0.016 A 
ATOM     31  C   UNL A   1      39.672  25.346  26.829  1.00  0.00     0.010 A 
ATOM     32  C   UNL A   1      41.182  24.253  28.375  1.00  0.00     0.010 A 
ATOM     33  C   UNL A   1      40.643  25.434  27.834  1.00  0.00    -0.014 A 
BRANCH  33  34
ATOM     34  C   UNL A   1      41.124  26.778  28.242  1.00  0.00     0.031 A 
ATOM     35  C   UNL A   1      42.543  27.179  27.951  1.00  0.00     0.074 A 
ATOM     36  C   UNL A   1      40.265  27.668  28.775  1.00  0.00     0.049 A 
ATOM     37  N   UNL A   1      43.147  28.316  28.184  1.00  0.00    -0.248 NA
ATOM     38  C   UNL A   1      43.389  26.166  27.303  1.00  0.00     0.031 C 
ATOM     39  C   UNL A   1      38.850  27.412  29.045  1.00  0.00     0.029 A 
ATOM     40  N   UNL A   1      40.449  28.972  29.161  1.00  0.00    -0.354 N 
ATOM     41  C   UNL A   1      44.441  28.164  27.701  1.00  0.00     0.074 A 
ATOM     42  C   UNL A   1      44.542  26.811  27.190  1.00  0.00     0.031 C 
ATOM     43  C   UNL A   1      38.290  28.531  29.535  1.00  0.00     0.029 A 
ATOM     44  C   UNL A   1      39.310  29.569  29.654  1.00  0.00     0.049 A 
ATOM     45  H   UNL A   1      41.313  29.437  29.092  1.00  0.00     0.167 HD
ATOM     46  C   UNL A   1      45.450  29.070  27.678  1.00  0.00     0.034 A 
ATOM     47  C   UNL A   1      39.121  30.806  30.158  1.00  0.00     0.034 A 
ATOM     48  C   UNL A   1      45.352  30.405  28.218  1.00  0.00     0.049 A 
ATOM     49  C   UNL A   1      40.290  31.762  30.205  1.00  0.00     0.074 A 
ATOM     50  C   UNL A   1      46.333  31.378  28.301  1.00  0.00     0.029 A 
ATOM     51  N   UNL A   1      44.203  30.955  28.770  1.00  0.00    -0.354 N 
ATOM     52  N   UNL A   1      41.519  31.590  29.774  1.00  0.00    -0.248 NA
ATOM     53  C   UNL A   1      40.041  33.081  30.801  1.00  0.00     0.031 C 
ATOM     54  C   UNL A   1      45.793  32.497  28.948  1.00  0.00     0.029 A 
ATOM     55  C   UNL A   1      44.456  32.246  29.212  1.00  0.00     0.049 A 
ATOM     56  H   UNL A   1      43.335  30.497  28.839  1.00  0.00     0.167 HD
ATOM     57  C   UNL A   1      42.180  32.788  30.033  1.00  0.00     0.074 A 
ATOM     58  C   UNL A   1      41.207  33.683  30.623  1.00  0.00     0.031 C 
ATOM     59  C   UNL A   1      43.478  33.121  29.810  1.00  0.00     0.034 A 
BRANCH  46  60
ATOM     60  C   UNL A   1      46.764  28.617  27.096  1.00  0.00     0.023 A 
ATOM     61  C   UNL A   1      46.922  28.404  25.715  1.00  0.00     0.031 A 
ATOM     62  C   UNL A   1      47.866  28.372  27.934  1.00  0.00     0.131 A 
ATOM     63  C   UNL A   1      48.137  27.908  25.219  1.00  0.00     0.055 A 
ATOM     64  C   UNL A   1      49.093  27.940  27.427  1.00  0.00     0.041 A 
ATOM     65  F   UNL A   1      47.764  28.537  29.262  1.00  0.00    -0.206 F 
ATOM     66  C   UNL A   1      49.231  27.696  26.063  1.00  0.00     0.022 A 
BRANCH  63  67
ATOM     67  S   UNL A   1      48.238  27.440  23.470  1.00  0.00     0.124 S 
ATOM     68  O   UNL A   1      48.047  25.993  23.541  1.00  0.00    -0.237 OA
ATOM     69  O   UNL A   1      47.145  28.200  22.876  1.00  0.00    -0.237 OA
ATOM     70  O   UNL A   1      49.580  27.867  23.079  1.00  0.00    -0.744 OA
ENDBRANCH  63  67
ENDBRANCH  46  60
BRANCH  47  71
ATOM     71  C   UNL A   1      37.797  31.215  30.713  1.00  0.00     0.023 A 
ATOM     72  C   UNL A   1      36.866  31.918  29.931  1.00  0.00     0.031 A 
ATOM     73  C   UNL A   1      37.486  30.997  32.067  1.00  0.00     0.131 A 
ATOM     74  C   UNL A   1      35.703  32.437  30.523  1.00  0.00     0.055 A 
ATOM     75  C   UNL A   1      36.299  31.461  32.637  1.00  0.00     0.041 A 
ATOM     76  F   UNL A   1      38.343  30.337  32.863  1.00  0.00    -0.206 F 
ATOM     77  C   UNL A   1      35.409  32.203  31.869  1.00  0.00     0.022 A 
BRANCH  74  78
ATOM     78  S   UNL A   1      34.642  33.533  29.541  1.00  0.00     0.124 S 
ATOM     79  O   UNL A   1      34.050  32.601  28.589  1.00  0.00    -0.237 OA
ATOM     80  O   UNL A   1      33.743  34.071  30.556  1.00  0.00    -0.237 OA
ATOM     81  O   UNL A   1      35.583  34.495  28.971  1.00  0.00    -0.744 OA
ENDBRANCH  74  78
ENDBRANCH  47  71
BRANCH  59  82
ATOM     82  C   UNL A   1      43.892  34.524  30.183  1.00  0.00     0.023 A 
ATOM     83  C   UNL A   1      44.213  34.871  31.507  1.00  0.00     0.031 A 
ATOM     84  C   UNL A   1      43.923  35.537  29.207  1.00  0.00     0.131 A 
ATOM     85  C   UNL A   1      44.485  36.207  31.835  1.00  0.00     0.055 A 
ATOM     86  C   UNL A   1      44.252  36.855  29.530  1.00  0.00     0.041 A 
ATOM     87  F   UNL A   1      43.626  35.263  27.928  1.00  0.00    -0.206 F 
ATOM     88  C   UNL A   1      44.519  37.199  30.852  1.00  0.00     0.022 A 
BRANCH  85  89
ATOM     89  S   UNL A   1      44.691  36.651  33.582  1.00  0.00     0.124 S 
ATOM     90  O   UNL A   1      45.107  35.384  34.174  1.00  0.00    -0.237 OA
ATOM     91  O   UNL A   1      45.713  37.692  33.519  1.00  0.00    -0.237 OA
ATOM     92  O   UNL A   1      43.361  37.114  33.978  1.00  0.00    -0.744 OA
ENDBRANCH  85  89
ENDBRANCH  59  82
ENDBRANCH  33  34
ENDBRANCH  26  28
ENDBRANCH  25  26
ENDBRANCH  24  25
ENDBRANCH   1  24
TORSDOF 19
ENDMDL
