MODEL 1
REMARK VINA RESULT:     -12.7      0.000      0.000
REMARK SMILES Cc1ccc(C(=O)NC2CC2)cc1NC(=O)[C@@H]1[C@@H](C(=O)OCCOC(=O)c2ccc(-c3c4nc(c(-c5cc(S(=O)(=O)[O-])ccc5F)c5ccc([nH]5)c(-c5cc(S(=O)(=O)[O-])ccc5F)c5nc(c(-c6cc(S(=O)(=O)[O-])ccc6F)c6ccc3[nH]6)C=C5)C=C4)cc2)[C@H]2C=C[C@@H]1C2
REMARK SMILES IDX 22 1 21 2 19 3 20 4 18 5 17 6 93 7 90 8 92 9 94 10 91 11
REMARK SMILES IDX 15 12 14 13 16 15 13 16 1 17 2 18 3 19 4 20 12 21 5 22 6 23
REMARK SMILES IDX 7 24 8 25 9 27 10 28 11 29 23 30 24 31 25 32 26 33 27 34
REMARK SMILES IDX 28 35 89 36 29 37 88 38 30 39 31 40 32 41 82 42 33 43 87 44
REMARK SMILES IDX 81 45 83 46 34 47 86 48 80 49 79 50 35 52 67 53 47 54 66 55
REMARK SMILES IDX 48 56 51 57 65 58 84 59 49 60 50 61 64 63 85 64 52 65 36 66
REMARK SMILES IDX 37 67 45 68 38 69 44 70 46 71 43 72 39 73 40 74 41 75 42 76
REMARK SMILES IDX 68 77 69 78 77 79 70 80 76 81 78 82 75 83 71 84 72 85 73 86
REMARK SMILES IDX 74 87 53 88 54 89 62 90 55 91 61 92 63 93 60 94 56 95 57 96
REMARK SMILES IDX 58 97 59 98
REMARK H PARENT 14 14 8 26 83 51 51 62
REMARK Flexibility Score: inf
ROOT
ATOM      1  C   UNL A   1      35.980  23.136  25.511  1.00  0.00     0.274 C 
ENDROOT
BRANCH   1   2
ATOM      2  O   UNL A   1      35.328  23.253  24.215  1.00  0.00    -0.462 OA
BRANCH   2   3
ATOM      3  C   UNL A   1      34.076  22.677  24.221  1.00  0.00     0.310 C 
ATOM      4  O   UNL A   1      33.888  21.581  24.746  1.00  0.00    -0.252 OA
BRANCH   3   5
ATOM      5  C   UNL A   1      32.992  23.421  23.409  1.00  0.00     0.119 C 
ATOM      6  C   UNL A   1      32.723  25.012  23.454  1.00  0.00     0.100 C 
ATOM      7  C   UNL A   1      31.210  25.068  23.831  1.00  0.00     0.025 C 
ATOM      8  C   UNL A   1      31.626  22.891  23.970  1.00  0.00     0.027 C 
ATOM      9  C   UNL A   1      31.120  24.728  25.290  1.00  0.00    -0.027 C 
ATOM     10  C   UNL A   1      30.650  23.781  23.226  1.00  0.00     0.017 C 
ATOM     11  C   UNL A   1      31.376  23.418  25.381  1.00  0.00    -0.027 C 
BRANCH   6  12
ATOM     12  C   UNL A   1      32.889  25.775  22.134  1.00  0.00     0.228 C 
ATOM     13  N   UNL A   1      32.352  27.015  21.856  1.00  0.00    -0.326 N 
ATOM     14  H   UNL A   1      32.531  27.277  20.923  1.00  0.00     0.169 HD
ATOM     15  O   UNL A   1      33.543  25.257  21.217  1.00  0.00    -0.274 OA
BRANCH  13  16
ATOM     16  C   UNL A   1      31.611  28.027  22.537  1.00  0.00     0.044 A 
ATOM     17  C   UNL A   1      33.474  28.383  24.316  1.00  0.00     0.046 C 
ATOM     18  C   UNL A   1      32.112  28.627  23.722  1.00  0.00    -0.027 A 
ATOM     19  C   UNL A   1      31.310  29.542  24.457  1.00  0.00     0.006 A 
ATOM     20  C   UNL A   1      30.001  29.813  24.089  1.00  0.00     0.014 A 
ATOM     21  C   UNL A   1      30.334  28.410  22.144  1.00  0.00     0.040 A 
ATOM     22  C   UNL A   1      29.501  29.202  22.951  1.00  0.00     0.041 A 
BRANCH  22  23
ATOM     23  C   UNL A   1      28.037  29.265  22.715  1.00  0.00     0.251 C 
ATOM     24  O   UNL A   1      27.308  28.458  23.281  1.00  0.00    -0.269 OA
ATOM     25  N   UNL A   1      27.560  30.184  21.801  1.00  0.00    -0.349 N 
ATOM     26  H   UNL A   1      26.604  30.120  21.577  1.00  0.00     0.164 HD
BRANCH  25  27
ATOM     27  C   UNL A   1      28.297  31.219  21.142  1.00  0.00     0.082 C 
ATOM     28  C   UNL A   1      27.685  32.553  20.739  1.00  0.00     0.027 C 
ATOM     29  C   UNL A   1      28.689  32.488  21.814  1.00  0.00     0.027 C 
ENDBRANCH  25  27
ENDBRANCH  22  23
ENDBRANCH  13  16
ENDBRANCH   6  12
ENDBRANCH   3   5
ENDBRANCH   2   3
ENDBRANCH   1   2
BRANCH   1  30
ATOM     30  C   UNL A   1      37.394  23.733  25.646  1.00  0.00     0.275 C 
BRANCH  30  31
ATOM     31  O   UNL A   1      38.409  22.939  26.289  1.00  0.00    -0.458 OA
BRANCH  31  32
ATOM     32  C   UNL A   1      39.658  23.353  26.618  1.00  0.00     0.338 C 
ATOM     33  O   UNL A   1      40.655  22.795  26.215  1.00  0.00    -0.246 OA
BRANCH  32  34
ATOM     34  C   UNL A   1      39.725  24.625  27.343  1.00  0.00     0.060 A 
ATOM     35  C   UNL A   1      40.294  25.682  26.640  1.00  0.00     0.016 A 
ATOM     36  C   UNL A   1      39.144  24.812  28.593  1.00  0.00     0.016 A 
ATOM     37  C   UNL A   1      40.191  26.971  27.133  1.00  0.00     0.010 A 
ATOM     38  C   UNL A   1      39.164  26.086  29.143  1.00  0.00     0.010 A 
ATOM     39  C   UNL A   1      39.723  27.153  28.423  1.00  0.00    -0.014 A 
BRANCH  39  40
ATOM     40  C   UNL A   1      39.919  28.427  29.089  1.00  0.00     0.031 A 
ATOM     41  C   UNL A   1      38.894  29.508  28.984  1.00  0.00     0.074 A 
ATOM     42  C   UNL A   1      41.120  28.624  29.685  1.00  0.00     0.049 A 
ATOM     43  N   UNL A   1      39.156  30.772  29.019  1.00  0.00    -0.248 NA
ATOM     44  C   UNL A   1      37.480  29.246  28.689  1.00  0.00     0.031 C 
ATOM     45  C   UNL A   1      41.406  29.607  30.709  1.00  0.00     0.029 A 
ATOM     46  N   UNL A   1      42.370  28.028  29.429  1.00  0.00    -0.354 N 
ATOM     47  C   UNL A   1      37.945  31.430  29.151  1.00  0.00     0.074 A 
ATOM     48  C   UNL A   1      36.951  30.476  28.737  1.00  0.00     0.031 C 
ATOM     49  C   UNL A   1      42.736  29.713  30.842  1.00  0.00     0.029 A 
ATOM     50  C   UNL A   1      43.369  28.941  29.774  1.00  0.00     0.049 A 
ATOM     51  H   UNL A   1      42.515  27.124  29.068  1.00  0.00     0.167 HD
ATOM     52  C   UNL A   1      37.883  32.601  29.850  1.00  0.00     0.034 A 
ATOM     53  C   UNL A   1      44.434  29.383  29.034  1.00  0.00     0.034 A 
ATOM     54  C   UNL A   1      39.204  32.946  30.351  1.00  0.00     0.049 A 
ATOM     55  C   UNL A   1      44.370  30.908  28.982  1.00  0.00     0.074 A 
ATOM     56  C   UNL A   1      39.799  32.675  31.572  1.00  0.00     0.029 A 
ATOM     57  N   UNL A   1      40.209  33.352  29.489  1.00  0.00    -0.354 N 
ATOM     58  N   UNL A   1      43.255  31.588  29.065  1.00  0.00    -0.248 NA
ATOM     59  C   UNL A   1      45.537  31.768  28.843  1.00  0.00     0.031 C 
ATOM     60  C   UNL A   1      41.185  32.900  31.437  1.00  0.00     0.029 A 
ATOM     61  C   UNL A   1      41.423  33.330  30.143  1.00  0.00     0.049 A 
ATOM     62  H   UNL A   1      40.075  33.618  28.550  1.00  0.00     0.167 HD
ATOM     63  C   UNL A   1      43.555  32.929  29.170  1.00  0.00     0.074 A 
ATOM     64  C   UNL A   1      44.986  32.990  28.934  1.00  0.00     0.031 C 
ATOM     65  C   UNL A   1      42.617  33.865  29.519  1.00  0.00     0.034 A 
BRANCH  52  66
ATOM     66  C   UNL A   1      36.624  33.181  30.470  1.00  0.00     0.023 A 
ATOM     67  C   UNL A   1      35.739  33.908  29.639  1.00  0.00     0.031 A 
ATOM     68  C   UNL A   1      36.256  33.117  31.825  1.00  0.00     0.131 A 
ATOM     69  C   UNL A   1      34.652  34.631  30.156  1.00  0.00     0.055 A 
ATOM     70  C   UNL A   1      35.176  33.849  32.349  1.00  0.00     0.041 A 
ATOM     71  F   UNL A   1      36.909  32.326  32.689  1.00  0.00    -0.206 F 
ATOM     72  C   UNL A   1      34.380  34.629  31.517  1.00  0.00     0.022 A 
BRANCH  69  73
ATOM     73  S   UNL A   1      33.627  35.598  29.011  1.00  0.00     0.124 S 
ATOM     74  O   UNL A   1      34.559  35.873  27.923  1.00  0.00    -0.237 OA
ATOM     75  O   UNL A   1      32.537  34.675  28.712  1.00  0.00    -0.237 OA
ATOM     76  O   UNL A   1      33.245  36.766  29.805  1.00  0.00    -0.744 OA
ENDBRANCH  69  73
ENDBRANCH  52  66
BRANCH  53  77
ATOM     77  C   UNL A   1      45.160  28.553  28.009  1.00  0.00     0.023 A 
ATOM     78  C   UNL A   1      46.042  27.525  28.429  1.00  0.00     0.031 A 
ATOM     79  C   UNL A   1      44.886  28.611  26.623  1.00  0.00     0.131 A 
ATOM     80  C   UNL A   1      46.460  26.519  27.528  1.00  0.00     0.055 A 
ATOM     81  C   UNL A   1      45.349  27.636  25.719  1.00  0.00     0.041 A 
ATOM     82  F   UNL A   1      44.056  29.535  26.122  1.00  0.00    -0.206 F 
ATOM     83  C   UNL A   1      46.106  26.563  26.176  1.00  0.00     0.022 A 
BRANCH  80  84
ATOM     84  S   UNL A   1      47.202  24.973  28.148  1.00  0.00     0.124 S 
ATOM     85  O   UNL A   1      46.022  24.172  28.454  1.00  0.00    -0.237 OA
ATOM     86  O   UNL A   1      48.010  24.513  27.023  1.00  0.00    -0.237 OA
ATOM     87  O   UNL A   1      47.963  25.442  29.304  1.00  0.00    -0.744 OA
ENDBRANCH  80  84
ENDBRANCH  53  77
BRANCH  65  88
ATOM     88  C   UNL A   1      42.757  35.377  29.513  1.00  0.00     0.023 A 
ATOM     89  C   UNL A   1      43.476  36.088  30.475  1.00  0.00     0.031 A 
ATOM     90  C   UNL A   1      42.203  36.166  28.464  1.00  0.00     0.131 A 
ATOM     91  C   UNL A   1      43.556  37.492  30.431  1.00  0.00     0.055 A 
ATOM     92  C   UNL A   1      42.353  37.550  28.377  1.00  0.00     0.041 A 
ATOM     93  F   UNL A   1      41.496  35.633  27.458  1.00  0.00    -0.206 F 
ATOM     94  C   UNL A   1      43.022  38.228  29.376  1.00  0.00     0.022 A 
BRANCH  91  95
ATOM     95  S   UNL A   1      44.314  38.339  31.837  1.00  0.00     0.124 S 
ATOM     96  O   UNL A   1      45.665  38.589  31.342  1.00  0.00    -0.237 OA
ATOM     97  O   UNL A   1      43.468  39.518  31.987  1.00  0.00    -0.237 OA
ATOM     98  O   UNL A   1      44.220  37.363  32.921  1.00  0.00    -0.744 OA
ENDBRANCH  91  95
ENDBRANCH  65  88
ENDBRANCH  39  40
ENDBRANCH  32  34
ENDBRANCH  31  32
ENDBRANCH  30  31
ENDBRANCH   1  30
TORSDOF 18
ENDMDL
MODEL 2
REMARK VINA RESULT:     -12.6      2.586      3.406
REMARK SMILES Cc1ccc(C(=O)NC2CC2)cc1NC(=O)[C@@H]1[C@@H](C(=O)OCCOC(=O)c2ccc(-c3c4nc(c(-c5cc(S(=O)(=O)[O-])ccc5F)c5ccc([nH]5)c(-c5cc(S(=O)(=O)[O-])ccc5F)c5nc(c(-c6cc(S(=O)(=O)[O-])ccc6F)c6ccc3[nH]6)C=C5)C=C4)cc2)[C@H]2C=C[C@@H]1C2
REMARK SMILES IDX 22 1 21 2 19 3 20 4 18 5 17 6 93 7 90 8 92 9 94 10 91 11
REMARK SMILES IDX 15 12 14 13 16 15 13 16 1 17 2 18 3 19 4 20 12 21 5 22 6 23
REMARK SMILES IDX 7 24 8 25 9 27 10 28 11 29 23 30 24 31 25 32 26 33 27 34
REMARK SMILES IDX 28 35 89 36 29 37 88 38 30 39 31 40 32 41 82 42 33 43 87 44
REMARK SMILES IDX 81 45 83 46 34 47 86 48 80 49 79 50 35 52 67 53 47 54 66 55
REMARK SMILES IDX 48 56 51 57 65 58 84 59 49 60 50 61 64 63 85 64 52 65 36 66
REMARK SMILES IDX 37 67 45 68 38 69 44 70 46 71 43 72 39 73 40 74 41 75 42 76
REMARK SMILES IDX 68 77 69 78 77 79 70 80 76 81 78 82 75 83 71 84 72 85 73 86
REMARK SMILES IDX 74 87 53 88 54 89 62 90 55 91 61 92 63 93 60 94 56 95 57 96
REMARK SMILES IDX 58 97 59 98
REMARK H PARENT 14 14 8 26 83 51 51 62
REMARK Flexibility Score: inf
ROOT
ATOM      1  C   UNL A   1      36.194  24.124  25.738  1.00  0.00     0.274 C 
ENDROOT
BRANCH   1   2
ATOM      2  O   UNL A   1      34.801  23.746  25.549  1.00  0.00    -0.462 OA
BRANCH   2   3
ATOM      3  C   UNL A   1      34.148  24.615  24.702  1.00  0.00     0.310 C 
ATOM      4  O   UNL A   1      34.753  25.530  24.147  1.00  0.00    -0.252 OA
BRANCH   3   5
ATOM      5  C   UNL A   1      32.613  24.450  24.626  1.00  0.00     0.119 C 
ATOM      6  C   UNL A   1      31.730  23.497  25.584  1.00  0.00     0.100 C 
ATOM      7  C   UNL A   1      30.980  22.608  24.544  1.00  0.00     0.025 C 
ATOM      8  C   UNL A   1      32.344  23.775  23.235  1.00  0.00     0.027 C 
ATOM      9  C   UNL A   1      31.986  21.623  24.021  1.00  0.00    -0.027 C 
ATOM     10  C   UNL A   1      30.851  23.523  23.327  1.00  0.00     0.017 C 
ATOM     11  C   UNL A   1      32.813  22.322  23.237  1.00  0.00    -0.027 C 
BRANCH   6  12
ATOM     12  C   UNL A   1      30.662  24.187  26.443  1.00  0.00     0.228 C 
ATOM     13  N   UNL A   1      30.262  25.502  26.314  1.00  0.00    -0.326 N 
ATOM     14  H   UNL A   1      29.615  25.745  27.017  1.00  0.00     0.169 HD
ATOM     15  O   UNL A   1      30.104  23.543  27.343  1.00  0.00    -0.274 OA
BRANCH  13  16
ATOM     16  C   UNL A   1      30.518  26.609  25.451  1.00  0.00     0.044 A 
ATOM     17  C   UNL A   1      28.356  26.200  24.063  1.00  0.00     0.046 C 
ATOM     18  C   UNL A   1      29.655  26.901  24.362  1.00  0.00    -0.027 A 
ATOM     19  C   UNL A   1      29.989  27.930  23.439  1.00  0.00     0.006 A 
ATOM     20  C   UNL A   1      31.191  28.616  23.524  1.00  0.00     0.014 A 
ATOM     21  C   UNL A   1      31.659  27.395  25.562  1.00  0.00     0.040 A 
ATOM     22  C   UNL A   1      32.048  28.308  24.568  1.00  0.00     0.041 A 
BRANCH  22  23
ATOM     23  C   UNL A   1      33.435  28.829  24.505  1.00  0.00     0.251 C 
ATOM     24  O   UNL A   1      34.116  28.589  23.513  1.00  0.00    -0.269 OA
ATOM     25  N   UNL A   1      33.934  29.499  25.604  1.00  0.00    -0.349 N 
ATOM     26  H   UNL A   1      34.891  29.726  25.580  1.00  0.00     0.164 HD
BRANCH  25  27
ATOM     27  C   UNL A   1      33.218  29.902  26.776  1.00  0.00     0.082 C 
ATOM     28  C   UNL A   1      33.572  31.141  27.586  1.00  0.00     0.027 C 
ATOM     29  C   UNL A   1      32.322  31.090  26.810  1.00  0.00     0.027 C 
ENDBRANCH  25  27
ENDBRANCH  22  23
ENDBRANCH  13  16
ENDBRANCH   6  12
ENDBRANCH   3   5
ENDBRANCH   2   3
ENDBRANCH   1   2
BRANCH   1  30
ATOM     30  C   UNL A   1      37.203  22.990  26.000  1.00  0.00     0.275 C 
BRANCH  30  31
ATOM     31  O   UNL A   1      38.600  23.259  25.779  1.00  0.00    -0.458 OA
BRANCH  31  32
ATOM     32  C   UNL A   1      39.563  23.319  26.733  1.00  0.00     0.338 C 
ATOM     33  O   UNL A   1      40.404  22.456  26.862  1.00  0.00    -0.246 OA
BRANCH  32  34
ATOM     34  C   UNL A   1      39.629  24.579  27.478  1.00  0.00     0.060 A 
ATOM     35  C   UNL A   1      40.304  25.614  26.839  1.00  0.00     0.016 A 
ATOM     36  C   UNL A   1      38.955  24.782  28.678  1.00  0.00     0.016 A 
ATOM     37  C   UNL A   1      40.220  26.902  27.338  1.00  0.00     0.010 A 
ATOM     38  C   UNL A   1      38.989  26.048  29.244  1.00  0.00     0.010 A 
ATOM     39  C   UNL A   1      39.655  27.094  28.587  1.00  0.00    -0.014 A 
BRANCH  39  40
ATOM     40  C   UNL A   1      39.854  28.351  29.285  1.00  0.00     0.031 A 
ATOM     41  C   UNL A   1      38.982  29.527  28.999  1.00  0.00     0.074 A 
ATOM     42  C   UNL A   1      40.941  28.434  30.092  1.00  0.00     0.049 A 
ATOM     43  N   UNL A   1      39.360  30.760  29.087  1.00  0.00    -0.248 NA
ATOM     44  C   UNL A   1      37.626  29.406  28.449  1.00  0.00     0.031 C 
ATOM     45  C   UNL A   1      41.132  29.398  31.155  1.00  0.00     0.029 A 
ATOM     46  N   UNL A   1      42.149  27.712  30.065  1.00  0.00    -0.354 N 
ATOM     47  C   UNL A   1      38.218  31.538  28.998  1.00  0.00     0.074 A 
ATOM     48  C   UNL A   1      37.224  30.683  28.405  1.00  0.00     0.031 C 
ATOM     49  C   UNL A   1      42.419  29.371  31.530  1.00  0.00     0.029 A 
ATOM     50  C   UNL A   1      43.156  28.524  30.592  1.00  0.00     0.049 A 
ATOM     51  H   UNL A   1      42.265  26.792  29.733  1.00  0.00     0.167 HD
ATOM     52  C   UNL A   1      38.148  32.719  29.680  1.00  0.00     0.034 A 
ATOM     53  C   UNL A   1      44.377  28.846  30.062  1.00  0.00     0.034 A 
ATOM     54  C   UNL A   1      39.384  32.936  30.416  1.00  0.00     0.049 A 
ATOM     55  C   UNL A   1      44.479  30.369  30.007  1.00  0.00     0.074 A 
ATOM     56  C   UNL A   1      39.715  32.623  31.724  1.00  0.00     0.029 A 
ATOM     57  N   UNL A   1      40.565  33.226  29.755  1.00  0.00    -0.354 N 
ATOM     58  N   UNL A   1      43.442  31.159  29.887  1.00  0.00    -0.248 NA
ATOM     59  C   UNL A   1      45.733  31.105  30.088  1.00  0.00     0.031 C 
ATOM     60  C   UNL A   1      41.118  32.705  31.847  1.00  0.00     0.029 A 
ATOM     61  C   UNL A   1      41.631  33.091  30.620  1.00  0.00     0.049 A 
ATOM     62  H   UNL A   1      40.633  33.491  28.809  1.00  0.00     0.167 HD
ATOM     63  C   UNL A   1      43.852  32.464  30.052  1.00  0.00     0.074 A 
ATOM     64  C   UNL A   1      45.301  32.377  30.082  1.00  0.00     0.031 C 
ATOM     65  C   UNL A   1      42.967  33.495  30.229  1.00  0.00     0.034 A 
BRANCH  52  66
ATOM     66  C   UNL A   1      36.863  33.431  30.062  1.00  0.00     0.023 A 
ATOM     67  C   UNL A   1      36.661  33.772  31.420  1.00  0.00     0.031 A 
ATOM     68  C   UNL A   1      35.800  33.752  29.200  1.00  0.00     0.131 A 
ATOM     69  C   UNL A   1      35.433  34.263  31.893  1.00  0.00     0.055 A 
ATOM     70  C   UNL A   1      34.565  34.233  29.671  1.00  0.00     0.041 A 
ATOM     71  F   UNL A   1      35.922  33.641  27.869  1.00  0.00    -0.206 F 
ATOM     72  C   UNL A   1      34.369  34.470  31.027  1.00  0.00     0.022 A 
BRANCH  69  73
ATOM     73  S   UNL A   1      35.254  34.590  33.670  1.00  0.00     0.124 S 
ATOM     74  O   UNL A   1      34.305  35.699  33.684  1.00  0.00    -0.237 OA
ATOM     75  O   UNL A   1      34.765  33.313  34.175  1.00  0.00    -0.237 OA
ATOM     76  O   UNL A   1      36.612  34.938  34.087  1.00  0.00    -0.744 OA
ENDBRANCH  69  73
ENDBRANCH  52  66
BRANCH  53  77
ATOM     77  C   UNL A   1      45.190  27.933  29.184  1.00  0.00     0.023 A 
ATOM     78  C   UNL A   1      44.797  27.712  27.839  1.00  0.00     0.031 A 
ATOM     79  C   UNL A   1      46.447  27.405  29.560  1.00  0.00     0.131 A 
ATOM     80  C   UNL A   1      45.702  27.159  26.904  1.00  0.00     0.055 A 
ATOM     81  C   UNL A   1      47.324  26.807  28.636  1.00  0.00     0.041 A 
ATOM     82  F   UNL A   1      46.919  27.569  30.802  1.00  0.00    -0.206 F 
ATOM     83  C   UNL A   1      46.969  26.717  27.294  1.00  0.00     0.022 A 
BRANCH  80  84
ATOM     84  S   UNL A   1      45.376  27.292  25.115  1.00  0.00     0.124 S 
ATOM     85  O   UNL A   1      45.677  25.941  24.651  1.00  0.00    -0.237 OA
ATOM     86  O   UNL A   1      43.972  27.686  25.057  1.00  0.00    -0.237 OA
ATOM     87  O   UNL A   1      46.325  28.324  24.706  1.00  0.00    -0.744 OA
ENDBRANCH  80  84
ENDBRANCH  53  77
BRANCH  65  88
ATOM     88  C   UNL A   1      43.258  34.985  30.256  1.00  0.00     0.023 A 
ATOM     89  C   UNL A   1      43.152  35.811  29.136  1.00  0.00     0.031 A 
ATOM     90  C   UNL A   1      43.602  35.647  31.470  1.00  0.00     0.131 A 
ATOM     91  C   UNL A   1      43.454  37.183  29.216  1.00  0.00     0.055 A 
ATOM     92  C   UNL A   1      43.821  37.023  31.563  1.00  0.00     0.041 A 
ATOM     93  F   UNL A   1      43.732  34.998  32.635  1.00  0.00    -0.206 F 
ATOM     94  C   UNL A   1      43.763  37.802  30.425  1.00  0.00     0.022 A 
BRANCH  91  95
ATOM     95  S   UNL A   1      43.507  38.127  27.674  1.00  0.00     0.124 S 
ATOM     96  O   UNL A   1      43.830  39.467  28.155  1.00  0.00    -0.237 OA
ATOM     97  O   UNL A   1      44.563  37.452  26.928  1.00  0.00    -0.237 OA
ATOM     98  O   UNL A   1      42.161  37.971  27.127  1.00  0.00    -0.744 OA
ENDBRANCH  91  95
ENDBRANCH  65  88
ENDBRANCH  39  40
ENDBRANCH  32  34
ENDBRANCH  31  32
ENDBRANCH  30  31
ENDBRANCH   1  30
TORSDOF 18
ENDMDL
MODEL 3
REMARK VINA RESULT:     -12.6      3.680      5.374
REMARK SMILES Cc1ccc(C(=O)NC2CC2)cc1NC(=O)[C@@H]1[C@@H](C(=O)OCCOC(=O)c2ccc(-c3c4nc(c(-c5cc(S(=O)(=O)[O-])ccc5F)c5ccc([nH]5)c(-c5cc(S(=O)(=O)[O-])ccc5F)c5nc(c(-c6cc(S(=O)(=O)[O-])ccc6F)c6ccc3[nH]6)C=C5)C=C4)cc2)[C@H]2C=C[C@@H]1C2
REMARK SMILES IDX 22 1 21 2 19 3 20 4 18 5 17 6 93 7 90 8 92 9 94 10 91 11
REMARK SMILES IDX 15 12 14 13 16 15 13 16 1 17 2 18 3 19 4 20 12 21 5 22 6 23
REMARK SMILES IDX 7 24 8 25 9 27 10 28 11 29 23 30 24 31 25 32 26 33 27 34
REMARK SMILES IDX 28 35 89 36 29 37 88 38 30 39 31 40 32 41 82 42 33 43 87 44
REMARK SMILES IDX 81 45 83 46 34 47 86 48 80 49 79 50 35 52 67 53 47 54 66 55
REMARK SMILES IDX 48 56 51 57 65 58 84 59 49 60 50 61 64 63 85 64 52 65 36 66
REMARK SMILES IDX 37 67 45 68 38 69 44 70 46 71 43 72 39 73 40 74 41 75 42 76
REMARK SMILES IDX 68 77 69 78 77 79 70 80 76 81 78 82 75 83 71 84 72 85 73 86
REMARK SMILES IDX 74 87 53 88 54 89 62 90 55 91 61 92 63 93 60 94 56 95 57 96
REMARK SMILES IDX 58 97 59 98
REMARK H PARENT 14 14 8 26 83 51 51 62
REMARK Flexibility Score: inf
ROOT
ATOM      1  C   UNL A   1      35.523  23.788  23.615  1.00  0.00     0.274 C 
ENDROOT
BRANCH   1   2
ATOM      2  O   UNL A   1      35.333  24.401  24.921  1.00  0.00    -0.462 OA
BRANCH   2   3
ATOM      3  C   UNL A   1      34.047  24.869  25.083  1.00  0.00     0.310 C 
ATOM      4  O   UNL A   1      33.795  26.068  24.990  1.00  0.00    -0.252 OA
BRANCH   3   5
ATOM      5  C   UNL A   1      33.002  23.818  25.525  1.00  0.00     0.119 C 
ATOM      6  C   UNL A   1      32.050  23.941  26.823  1.00  0.00     0.100 C 
ATOM      7  C   UNL A   1      32.382  22.622  27.586  1.00  0.00     0.025 C 
ATOM      8  C   UNL A   1      33.839  22.549  25.911  1.00  0.00     0.027 C 
ATOM      9  C   UNL A   1      33.733  22.818  28.211  1.00  0.00    -0.027 C 
ATOM     10  C   UNL A   1      32.750  21.650  26.465  1.00  0.00     0.017 C 
ATOM     11  C   UNL A   1      34.614  22.781  27.206  1.00  0.00    -0.027 C 
BRANCH   6  12
ATOM     12  C   UNL A   1      30.538  23.948  26.567  1.00  0.00     0.228 C 
ATOM     13  N   UNL A   1      29.902  24.647  25.560  1.00  0.00    -0.326 N 
ATOM     14  H   UNL A   1      28.924  24.558  25.632  1.00  0.00     0.169 HD
ATOM     15  O   UNL A   1      29.797  23.294  27.314  1.00  0.00    -0.274 OA
BRANCH  13  16
ATOM     16  C   UNL A   1      30.261  25.462  24.445  1.00  0.00     0.044 A 
ATOM     17  C   UNL A   1      30.960  23.414  23.002  1.00  0.00     0.046 C 
ATOM     18  C   UNL A   1      30.810  24.889  23.268  1.00  0.00    -0.027 A 
ATOM     19  C   UNL A   1      31.276  25.722  22.215  1.00  0.00     0.006 A 
ATOM     20  C   UNL A   1      31.285  27.103  22.336  1.00  0.00     0.014 A 
ATOM     21  C   UNL A   1      30.188  26.849  24.479  1.00  0.00     0.040 A 
ATOM     22  C   UNL A   1      30.781  27.662  23.498  1.00  0.00     0.041 A 
BRANCH  22  23
ATOM     23  C   UNL A   1      31.042  29.101  23.748  1.00  0.00     0.251 C 
ATOM     24  O   UNL A   1      32.015  29.419  24.425  1.00  0.00    -0.269 OA
ATOM     25  N   UNL A   1      30.132  30.025  23.273  1.00  0.00    -0.349 N 
ATOM     26  H   UNL A   1      30.269  30.957  23.558  1.00  0.00     0.164 HD
BRANCH  25  27
ATOM     27  C   UNL A   1      29.014  29.782  22.415  1.00  0.00     0.082 C 
ATOM     28  C   UNL A   1      27.610  29.502  22.933  1.00  0.00     0.027 C 
ATOM     29  C   UNL A   1      27.907  30.760  22.230  1.00  0.00     0.027 C 
ENDBRANCH  25  27
ENDBRANCH  22  23
ENDBRANCH  13  16
ENDBRANCH   6  12
ENDBRANCH   3   5
ENDBRANCH   2   3
ENDBRANCH   1   2
BRANCH   1  30
ATOM     30  C   UNL A   1      36.519  22.616  23.523  1.00  0.00     0.275 C 
BRANCH  30  31
ATOM     31  O   UNL A   1      36.641  21.738  24.657  1.00  0.00    -0.458 OA
BRANCH  31  32
ATOM     32  C   UNL A   1      37.781  21.145  25.090  1.00  0.00     0.338 C 
ATOM     33  O   UNL A   1      38.119  20.040  24.724  1.00  0.00    -0.246 OA
BRANCH  32  34
ATOM     34  C   UNL A   1      38.668  21.998  25.886  1.00  0.00     0.060 A 
ATOM     35  C   UNL A   1      38.258  23.320  26.021  1.00  0.00     0.016 A 
ATOM     36  C   UNL A   1      39.771  21.504  26.575  1.00  0.00     0.016 A 
ATOM     37  C   UNL A   1      38.884  24.145  26.941  1.00  0.00     0.010 A 
ATOM     38  C   UNL A   1      40.478  22.375  27.392  1.00  0.00     0.010 A 
ATOM     39  C   UNL A   1      40.051  23.703  27.541  1.00  0.00    -0.014 A 
BRANCH  39  40
ATOM     40  C   UNL A   1      40.909  24.646  28.232  1.00  0.00     0.031 A 
ATOM     41  C   UNL A   1      40.441  26.034  28.520  1.00  0.00     0.074 A 
ATOM     42  C   UNL A   1      42.182  24.247  28.474  1.00  0.00     0.049 A 
ATOM     43  N   UNL A   1      41.211  27.069  28.589  1.00  0.00    -0.248 NA
ATOM     44  C   UNL A   1      39.021  26.397  28.620  1.00  0.00     0.031 C 
ATOM     45  C   UNL A   1      43.077  24.824  29.455  1.00  0.00     0.029 A 
ATOM     46  N   UNL A   1      42.972  23.283  27.819  1.00  0.00    -0.354 N 
ATOM     47  C   UNL A   1      40.454  28.099  29.119  1.00  0.00     0.074 A 
ATOM     48  C   UNL A   1      39.085  27.700  28.925  1.00  0.00     0.031 C 
ATOM     49  C   UNL A   1      44.320  24.385  29.210  1.00  0.00     0.029 A 
ATOM     50  C   UNL A   1      44.311  23.656  27.942  1.00  0.00     0.049 A 
ATOM     51  H   UNL A   1      42.636  22.482  27.355  1.00  0.00     0.167 HD
ATOM     52  C   UNL A   1      41.050  29.042  29.906  1.00  0.00     0.034 A 
ATOM     53  C   UNL A   1      45.266  23.794  26.971  1.00  0.00     0.034 A 
ATOM     54  C   UNL A   1      42.469  28.750  30.036  1.00  0.00     0.049 A 
ATOM     55  C   UNL A   1      45.841  25.206  27.072  1.00  0.00     0.074 A 
ATOM     56  C   UNL A   1      43.152  28.036  31.007  1.00  0.00     0.029 A 
ATOM     57  N   UNL A   1      43.328  28.902  28.961  1.00  0.00    -0.354 N 
ATOM     58  N   UNL A   1      45.166  26.230  27.530  1.00  0.00    -0.248 NA
ATOM     59  C   UNL A   1      47.197  25.563  26.680  1.00  0.00     0.031 C 
ATOM     60  C   UNL A   1      44.435  27.736  30.501  1.00  0.00     0.029 A 
ATOM     61  C   UNL A   1      44.533  28.289  29.235  1.00  0.00     0.049 A 
ATOM     62  H   UNL A   1      43.112  29.379  28.127  1.00  0.00     0.167 HD
ATOM     63  C   UNL A   1      46.018  27.304  27.662  1.00  0.00     0.074 A 
ATOM     64  C   UNL A   1      47.248  26.859  27.032  1.00  0.00     0.031 C 
ATOM     65  C   UNL A   1      45.667  28.439  28.345  1.00  0.00     0.034 A 
BRANCH  52  66
ATOM     66  C   UNL A   1      40.328  29.925  30.909  1.00  0.00     0.023 A 
ATOM     67  C   UNL A   1      39.870  31.193  30.481  1.00  0.00     0.031 A 
ATOM     68  C   UNL A   1      40.103  29.633  32.265  1.00  0.00     0.131 A 
ATOM     69  C   UNL A   1      39.358  32.144  31.378  1.00  0.00     0.055 A 
ATOM     70  C   UNL A   1      39.602  30.588  33.170  1.00  0.00     0.041 A 
ATOM     71  F   UNL A   1      40.332  28.410  32.765  1.00  0.00    -0.206 F 
ATOM     72  C   UNL A   1      39.247  31.859  32.731  1.00  0.00     0.022 A 
BRANCH  69  73
ATOM     73  S   UNL A   1      38.875  33.772  30.736  1.00  0.00     0.124 S 
ATOM     74  O   UNL A   1      37.699  33.450  29.933  1.00  0.00    -0.237 OA
ATOM     75  O   UNL A   1      38.635  34.532  31.958  1.00  0.00    -0.237 OA
ATOM     76  O   UNL A   1      40.046  34.194  29.968  1.00  0.00    -0.744 OA
ENDBRANCH  69  73
ENDBRANCH  52  66
BRANCH  53  77
ATOM     77  C   UNL A   1      45.324  22.970  25.712  1.00  0.00     0.023 A 
ATOM     78  C   UNL A   1      45.771  21.625  25.768  1.00  0.00     0.031 A 
ATOM     79  C   UNL A   1      44.787  23.397  24.475  1.00  0.00     0.131 A 
ATOM     80  C   UNL A   1      45.512  20.733  24.702  1.00  0.00     0.055 A 
ATOM     81  C   UNL A   1      44.581  22.517  23.396  1.00  0.00     0.041 A 
ATOM     82  F   UNL A   1      44.325  24.644  24.318  1.00  0.00    -0.206 F 
ATOM     83  C   UNL A   1      44.907  21.171  23.520  1.00  0.00     0.022 A 
BRANCH  80  84
ATOM     84  S   UNL A   1      45.667  18.933  24.946  1.00  0.00     0.124 S 
ATOM     85  O   UNL A   1      45.675  18.440  23.572  1.00  0.00    -0.237 OA
ATOM     86  O   UNL A   1      46.924  18.800  25.677  1.00  0.00    -0.237 OA
ATOM     87  O   UNL A   1      44.466  18.624  25.719  1.00  0.00    -0.744 OA
ENDBRANCH  80  84
ENDBRANCH  53  77
BRANCH  65  88
ATOM     88  C   UNL A   1      46.426  29.752  28.432  1.00  0.00     0.023 A 
ATOM     89  C   UNL A   1      46.033  30.914  27.767  1.00  0.00     0.031 A 
ATOM     90  C   UNL A   1      47.572  29.888  29.268  1.00  0.00     0.131 A 
ATOM     91  C   UNL A   1      46.786  32.098  27.868  1.00  0.00     0.055 A 
ATOM     92  C   UNL A   1      48.269  31.086  29.431  1.00  0.00     0.041 A 
ATOM     93  F   UNL A   1      48.069  28.870  29.983  1.00  0.00    -0.206 F 
ATOM     94  C   UNL A   1      47.887  32.202  28.714  1.00  0.00     0.022 A 
BRANCH  91  95
ATOM     95  S   UNL A   1      46.331  33.482  26.798  1.00  0.00     0.124 S 
ATOM     96  O   UNL A   1      45.567  34.327  27.712  1.00  0.00    -0.237 OA
ATOM     97  O   UNL A   1      47.630  34.006  26.390  1.00  0.00    -0.237 OA
ATOM     98  O   UNL A   1      45.551  32.855  25.733  1.00  0.00    -0.744 OA
ENDBRANCH  91  95
ENDBRANCH  65  88
ENDBRANCH  39  40
ENDBRANCH  32  34
ENDBRANCH  31  32
ENDBRANCH  30  31
ENDBRANCH   1  30
TORSDOF 18
ENDMDL
