MODEL 1
REMARK VINA RESULT:     -12.2      0.000      0.000
REMARK SMILES O=C(OCCOC(=O)c1ccc(-c2c3nc(c(-c4cc(S(=O)(=O)[O-])ccc4F)c4ccc([nH]4)c(-c4cc(S(=O)(=O)[O-])ccc4F)c4nc(c(-c5cc(S(=O)(=O)[O-])ccc5F)c5ccc2[nH]5)C=C4)C=C3)cc1)C1=Cc2cc(S(F)(F)(F)(F)F)ccc2O[C@H]1C(F)(F)F
REMARK SMILES IDX 5 1 4 2 3 3 2 4 1 5 72 6 73 7 87 8 74 9 86 10 75 11 85 12
REMARK SMILES IDX 76 13 84 14 83 15 88 16 89 17 90 18 91 19 77 20 78 21 79 22
REMARK SMILES IDX 80 23 81 24 82 25 6 26 7 27 8 28 9 29 10 30 71 31 11 32
REMARK SMILES IDX 70 33 12 34 13 35 14 36 64 37 15 38 69 39 63 40 65 41 16 42
REMARK SMILES IDX 68 43 62 44 61 45 17 47 49 48 29 49 48 50 30 51 33 52 47 53
REMARK SMILES IDX 66 54 31 55 32 56 46 58 67 59 34 60 18 61 19 62 27 63 20 64
REMARK SMILES IDX 26 65 28 66 25 67 21 68 22 69 23 70 24 71 50 72 51 73 59 74
REMARK SMILES IDX 52 75 58 76 60 77 57 78 53 79 54 80 55 81 56 82 35 83 36 84
REMARK SMILES IDX 44 85 37 86 43 87 45 88 42 89 38 90 39 91 40 92 41 93
REMARK H PARENT 65 46 33 57
REMARK Flexibility Score: inf
ROOT
ATOM      1  C   UNL A   1      37.271  21.514  24.476  1.00  0.00     0.275 C 
ENDROOT
BRANCH   1   2
ATOM      2  C   UNL A   1      36.487  22.682  23.903  1.00  0.00     0.275 C 
BRANCH   2   3
ATOM      3  O   UNL A   1      35.330  22.910  24.694  1.00  0.00    -0.459 OA
BRANCH   3   4
ATOM      4  C   UNL A   1      34.038  22.725  24.132  1.00  0.00     0.338 C 
ATOM      5  O   UNL A   1      33.905  22.597  22.875  1.00  0.00    -0.246 OA
BRANCH   4   6
ATOM      6  C   UNL A   1      32.816  22.682  25.035  1.00  0.00     0.087 C 
ATOM      7  C   UNL A   1      32.319  23.832  25.562  1.00  0.00     0.027 C 
ATOM      8  C   UNL A   1      32.150  21.352  25.347  1.00  0.00     0.316 C 
ATOM      9  C   UNL A   1      32.986  25.162  25.250  1.00  0.00     0.019 A 
ATOM     10  O   UNL A   1      33.306  24.291  23.063  1.00  0.00    -0.475 OA
ATOM     11  C   UNL A   1      33.129  26.156  26.204  1.00  0.00     0.036 A 
ATOM     12  C   UNL A   1      33.314  25.374  23.981  1.00  0.00     0.128 A 
ATOM     13  C   UNL A   1      33.360  27.443  25.662  1.00  0.00     0.107 A 
ATOM     14  C   UNL A   1      33.660  26.631  23.548  1.00  0.00     0.048 A 
ATOM     15  C   UNL A   1      33.765  27.673  24.426  1.00  0.00     0.028 A 
BRANCH   8  16
ATOM     16  C   UNL A   1      32.895  20.233  24.639  1.00  0.00     0.430 C 
ATOM     17  F   UNL A   1      32.700  20.327  23.328  1.00  0.00    -0.167 F 
ATOM     18  F   UNL A   1      34.196  20.330  24.902  1.00  0.00    -0.167 F 
ATOM     19  F   UNL A   1      32.442  19.060  25.073  1.00  0.00    -0.167 F 
ENDBRANCH   8  16
BRANCH  13  20
ATOM     20  S   UNL A   1      33.079  28.871  26.737  1.00  0.00     0.310 S 
ATOM     21  F   UNL A   1      32.494  27.966  27.900  1.00  0.00    -0.094 F 
ATOM     22  F   UNL A   1      31.613  28.970  26.170  1.00  0.00    -0.094 F 
ATOM     23  F   UNL A   1      32.836  30.102  27.657  1.00  0.00    -0.094 F 
ATOM     24  F   UNL A   1      34.501  28.671  27.395  1.00  0.00    -0.094 F 
ATOM     25  F   UNL A   1      33.301  27.553  25.893  1.00  0.00    -0.094 F 
ENDBRANCH  13  20
ENDBRANCH   4   6
ENDBRANCH   3   4
ENDBRANCH   2   3
ENDBRANCH   1   2
BRANCH   1  26
ATOM     26  O   UNL A   1      37.584  21.775  25.836  1.00  0.00    -0.458 OA
BRANCH  26  27
ATOM     27  C   UNL A   1      38.936  21.954  26.233  1.00  0.00     0.338 C 
ATOM     28  O   UNL A   1      39.759  20.990  26.136  1.00  0.00    -0.246 OA
BRANCH  27  29
ATOM     29  C   UNL A   1      39.399  23.297  26.772  1.00  0.00     0.060 A 
ATOM     30  C   UNL A   1      40.244  23.439  27.861  1.00  0.00     0.016 A 
ATOM     31  C   UNL A   1      39.048  24.342  26.031  1.00  0.00     0.016 A 
ATOM     32  C   UNL A   1      40.436  24.781  28.267  1.00  0.00     0.010 A 
ATOM     33  C   UNL A   1      39.388  25.616  26.415  1.00  0.00     0.010 A 
ATOM     34  C   UNL A   1      40.170  25.835  27.516  1.00  0.00    -0.014 A 
BRANCH  34  35
ATOM     35  C   UNL A   1      40.705  27.216  27.857  1.00  0.00     0.031 A 
ATOM     36  C   UNL A   1      42.082  27.383  27.705  1.00  0.00     0.074 A 
ATOM     37  C   UNL A   1      39.868  28.162  28.425  1.00  0.00     0.049 A 
ATOM     38  N   UNL A   1      42.813  28.449  28.030  1.00  0.00    -0.248 NA
ATOM     39  C   UNL A   1      42.977  26.365  27.134  1.00  0.00     0.031 C 
ATOM     40  C   UNL A   1      38.477  28.004  28.574  1.00  0.00     0.029 A 
ATOM     41  N   UNL A   1      40.211  29.394  28.937  1.00  0.00    -0.354 N 
ATOM     42  C   UNL A   1      44.095  28.244  27.717  1.00  0.00     0.074 A 
ATOM     43  C   UNL A   1      44.219  26.898  27.141  1.00  0.00     0.031 C 
ATOM     44  C   UNL A   1      37.989  29.120  29.179  1.00  0.00     0.029 A 
ATOM     45  C   UNL A   1      39.067  29.994  29.416  1.00  0.00     0.049 A 
ATOM     46  H   UNL A   1      41.117  29.779  28.958  1.00  0.00     0.167 HD
ATOM     47  C   UNL A   1      45.163  29.127  27.886  1.00  0.00     0.034 A 
ATOM     48  C   UNL A   1      38.950  31.231  30.030  1.00  0.00     0.034 A 
ATOM     49  C   UNL A   1      45.038  30.382  28.460  1.00  0.00     0.049 A 
ATOM     50  C   UNL A   1      40.029  32.090  30.252  1.00  0.00     0.074 A 
ATOM     51  C   UNL A   1      46.104  31.287  28.632  1.00  0.00     0.029 A 
ATOM     52  N   UNL A   1      43.898  30.971  28.962  1.00  0.00    -0.354 N 
ATOM     53  N   UNL A   1      41.303  31.901  29.903  1.00  0.00    -0.248 NA
ATOM     54  C   UNL A   1      39.923  33.388  30.930  1.00  0.00     0.031 C 
ATOM     55  C   UNL A   1      45.615  32.403  29.235  1.00  0.00     0.029 A 
ATOM     56  C   UNL A   1      44.237  32.213  29.453  1.00  0.00     0.049 A 
ATOM     57  H   UNL A   1      42.998  30.575  28.967  1.00  0.00     0.167 HD
ATOM     58  C   UNL A   1      42.040  32.951  30.266  1.00  0.00     0.074 A 
ATOM     59  C   UNL A   1      41.164  33.920  30.939  1.00  0.00     0.031 C 
ATOM     60  C   UNL A   1      43.407  33.142  30.061  1.00  0.00     0.034 A 
BRANCH  47  61
ATOM     61  C   UNL A   1      46.538  28.686  27.414  1.00  0.00     0.023 A 
ATOM     62  C   UNL A   1      46.863  28.711  26.068  1.00  0.00     0.031 A 
ATOM     63  C   UNL A   1      47.347  28.127  28.307  1.00  0.00     0.131 A 
ATOM     64  C   UNL A   1      47.935  27.857  25.720  1.00  0.00     0.055 A 
ATOM     65  C   UNL A   1      48.455  27.421  27.902  1.00  0.00     0.041 A 
ATOM     66  F   UNL A   1      47.082  28.251  29.605  1.00  0.00    -0.206 F 
ATOM     67  C   UNL A   1      48.801  27.354  26.581  1.00  0.00     0.022 A 
BRANCH  64  68
ATOM     68  S   UNL A   1      48.137  27.424  23.974  1.00  0.00     0.124 S 
ATOM     69  O   UNL A   1      49.528  27.851  23.500  1.00  0.00    -0.237 OA
ATOM     70  O   UNL A   1      47.982  25.912  23.802  1.00  0.00    -0.237 OA
ATOM     71  O   UNL A   1      46.947  28.229  23.047  1.00  0.00    -0.744 OA
ENDBRANCH  64  68
ENDBRANCH  47  61
BRANCH  48  72
ATOM     72  C   UNL A   1      37.572  31.678  30.486  1.00  0.00     0.023 A 
ATOM     73  C   UNL A   1      36.637  32.227  29.624  1.00  0.00     0.031 A 
ATOM     74  C   UNL A   1      37.256  31.370  31.739  1.00  0.00     0.131 A 
ATOM     75  C   UNL A   1      35.463  32.687  30.269  1.00  0.00     0.055 A 
ATOM     76  C   UNL A   1      36.038  31.730  32.262  1.00  0.00     0.041 A 
ATOM     77  F   UNL A   1      38.128  30.708  32.493  1.00  0.00    -0.206 F 
ATOM     78  C   UNL A   1      35.087  32.331  31.483  1.00  0.00     0.022 A 
BRANCH  75  79
ATOM     79  S   UNL A   1      34.404  33.842  29.364  1.00  0.00     0.124 S 
ATOM     80  O   UNL A   1      33.431  34.511  30.336  1.00  0.00    -0.237 OA
ATOM     81  O   UNL A   1      35.270  34.910  28.692  1.00  0.00    -0.237 OA
ATOM     82  O   UNL A   1      33.523  32.991  28.171  1.00  0.00    -0.744 OA
ENDBRANCH  75  79
ENDBRANCH  48  72
BRANCH  60  83
ATOM     83  C   UNL A   1      44.025  34.449  30.532  1.00  0.00     0.023 A 
ATOM     84  C   UNL A   1      44.023  35.597  29.758  1.00  0.00     0.031 A 
ATOM     85  C   UNL A   1      44.512  34.452  31.767  1.00  0.00     0.131 A 
ATOM     86  C   UNL A   1      44.825  36.641  30.278  1.00  0.00     0.055 A 
ATOM     87  C   UNL A   1      45.166  35.555  32.259  1.00  0.00     0.041 A 
ATOM     88  F   UNL A   1      44.364  33.377  32.537  1.00  0.00    -0.206 F 
ATOM     89  C   UNL A   1      45.252  36.706  31.526  1.00  0.00     0.022 A 
BRANCH  86  90
ATOM     90  S   UNL A   1      45.297  37.980  29.154  1.00  0.00     0.124 S 
ATOM     91  O   UNL A   1      44.047  38.759  28.737  1.00  0.00    -0.237 OA
ATOM     92  O   UNL A   1      46.273  38.921  29.863  1.00  0.00    -0.237 OA
ATOM     93  O   UNL A   1      46.047  37.320  27.766  1.00  0.00    -0.744 OA
ENDBRANCH  86  90
ENDBRANCH  60  83
ENDBRANCH  34  35
ENDBRANCH  27  29
ENDBRANCH  26  27
ENDBRANCH   1  26
TORSDOF 16
ENDMDL
MODEL 2
REMARK VINA RESULT:     -12.1      1.149      7.404
REMARK SMILES O=C(OCCOC(=O)c1ccc(-c2c3nc(c(-c4cc(S(=O)(=O)[O-])ccc4F)c4ccc([nH]4)c(-c4cc(S(=O)(=O)[O-])ccc4F)c4nc(c(-c5cc(S(=O)(=O)[O-])ccc5F)c5ccc2[nH]5)C=C4)C=C3)cc1)C1=Cc2cc(S(F)(F)(F)(F)F)ccc2O[C@H]1C(F)(F)F
REMARK SMILES IDX 5 1 4 2 3 3 2 4 1 5 72 6 73 7 87 8 74 9 86 10 75 11 85 12
REMARK SMILES IDX 76 13 84 14 83 15 88 16 89 17 90 18 91 19 77 20 78 21 79 22
REMARK SMILES IDX 80 23 81 24 82 25 6 26 7 27 8 28 9 29 10 30 71 31 11 32
REMARK SMILES IDX 70 33 12 34 13 35 14 36 64 37 15 38 69 39 63 40 65 41 16 42
REMARK SMILES IDX 68 43 62 44 61 45 17 47 49 48 29 49 48 50 30 51 33 52 47 53
REMARK SMILES IDX 66 54 31 55 32 56 46 58 67 59 34 60 18 61 19 62 27 63 20 64
REMARK SMILES IDX 26 65 28 66 25 67 21 68 22 69 23 70 24 71 50 72 51 73 59 74
REMARK SMILES IDX 52 75 58 76 60 77 57 78 53 79 54 80 55 81 56 82 35 83 36 84
REMARK SMILES IDX 44 85 37 86 43 87 45 88 42 89 38 90 39 91 40 92 41 93
REMARK H PARENT 65 46 33 57
REMARK Flexibility Score: inf
ROOT
ATOM      1  C   UNL A   1      36.956  21.427  24.265  1.00  0.00     0.275 C 
ENDROOT
BRANCH   1   2
ATOM      2  C   UNL A   1      36.344  22.754  23.849  1.00  0.00     0.275 C 
BRANCH   2   3
ATOM      3  O   UNL A   1      35.163  22.987  24.602  1.00  0.00    -0.459 OA
BRANCH   3   4
ATOM      4  C   UNL A   1      33.890  22.846  23.987  1.00  0.00     0.338 C 
ATOM      5  O   UNL A   1      33.802  22.756  22.723  1.00  0.00    -0.246 OA
BRANCH   4   6
ATOM      6  C   UNL A   1      32.634  22.804  24.842  1.00  0.00     0.087 C 
ATOM      7  C   UNL A   1      32.146  23.949  25.391  1.00  0.00     0.027 C 
ATOM      8  C   UNL A   1      31.923  21.483  25.083  1.00  0.00     0.316 C 
ATOM      9  C   UNL A   1      32.857  25.270  25.150  1.00  0.00     0.019 A 
ATOM     10  O   UNL A   1      33.238  24.466  22.947  1.00  0.00    -0.475 OA
ATOM     11  C   UNL A   1      32.989  26.228  26.142  1.00  0.00     0.036 A 
ATOM     12  C   UNL A   1      33.238  25.517  23.902  1.00  0.00     0.128 A 
ATOM     13  C   UNL A   1      33.272  27.525  25.655  1.00  0.00     0.107 A 
ATOM     14  C   UNL A   1      33.632  26.778  23.526  1.00  0.00     0.048 A 
ATOM     15  C   UNL A   1      33.729  27.786  24.443  1.00  0.00     0.028 A 
BRANCH   8  16
ATOM     16  C   UNL A   1      32.666  20.369  24.364  1.00  0.00     0.430 C 
ATOM     17  F   UNL A   1      32.522  20.511  23.051  1.00  0.00    -0.167 F 
ATOM     18  F   UNL A   1      33.958  20.424  24.677  1.00  0.00    -0.167 F 
ATOM     19  F   UNL A   1      32.169  19.194  24.741  1.00  0.00    -0.167 F 
ENDBRANCH   8  16
BRANCH  13  20
ATOM     20  S   UNL A   1      32.987  28.923  26.768  1.00  0.00     0.310 S 
ATOM     21  F   UNL A   1      32.334  27.995  27.875  1.00  0.00    -0.094 F 
ATOM     22  F   UNL A   1      31.547  29.081  26.149  1.00  0.00    -0.094 F 
ATOM     23  F   UNL A   1      32.740  30.128  27.720  1.00  0.00    -0.094 F 
ATOM     24  F   UNL A   1      34.376  28.662  27.472  1.00  0.00    -0.094 F 
ATOM     25  F   UNL A   1      33.207  27.629  25.887  1.00  0.00    -0.094 F 
ENDBRANCH  13  20
ENDBRANCH   4   6
ENDBRANCH   3   4
ENDBRANCH   2   3
ENDBRANCH   1   2
BRANCH   1  26
ATOM     26  O   UNL A   1      37.336  21.488  25.632  1.00  0.00    -0.458 OA
BRANCH  26  27
ATOM     27  C   UNL A   1      38.705  21.389  25.994  1.00  0.00     0.338 C 
ATOM     28  O   UNL A   1      39.334  20.300  25.811  1.00  0.00    -0.246 OA
BRANCH  27  29
ATOM     29  C   UNL A   1      39.421  22.585  26.601  1.00  0.00     0.060 A 
ATOM     30  C   UNL A   1      40.521  22.483  27.436  1.00  0.00     0.016 A 
ATOM     31  C   UNL A   1      39.000  23.765  26.157  1.00  0.00     0.016 A 
ATOM     32  C   UNL A   1      40.941  23.717  27.986  1.00  0.00     0.010 A 
ATOM     33  C   UNL A   1      39.550  24.928  26.637  1.00  0.00     0.010 A 
ATOM     34  C   UNL A   1      40.601  24.901  27.512  1.00  0.00    -0.014 A 
BRANCH  34  35
ATOM     35  C   UNL A   1      41.338  26.168  27.917  1.00  0.00     0.031 A 
ATOM     36  C   UNL A   1      40.582  27.104  28.623  1.00  0.00     0.074 A 
ATOM     37  C   UNL A   1      42.624  26.397  27.458  1.00  0.00     0.049 A 
ATOM     38  N   UNL A   1      40.952  28.329  29.002  1.00  0.00    -0.248 NA
ATOM     39  C   UNL A   1      39.204  26.875  29.081  1.00  0.00     0.031 C 
ATOM     40  C   UNL A   1      43.396  25.454  26.752  1.00  0.00     0.029 A 
ATOM     41  N   UNL A   1      43.377  27.543  27.591  1.00  0.00    -0.354 N 
ATOM     42  C   UNL A   1      39.963  28.921  29.676  1.00  0.00     0.074 A 
ATOM     43  C   UNL A   1      38.823  27.997  29.732  1.00  0.00     0.031 C 
ATOM     44  C   UNL A   1      44.592  26.027  26.453  1.00  0.00     0.029 A 
ATOM     45  C   UNL A   1      44.588  27.337  26.969  1.00  0.00     0.049 A 
ATOM     46  H   UNL A   1      43.097  28.368  28.051  1.00  0.00     0.167 HD
ATOM     47  C   UNL A   1      39.970  30.194  30.249  1.00  0.00     0.034 A 
ATOM     48  C   UNL A   1      45.641  28.229  26.845  1.00  0.00     0.034 A 
ATOM     49  C   UNL A   1      41.040  31.070  30.163  1.00  0.00     0.049 A 
ATOM     50  C   UNL A   1      45.625  29.524  27.368  1.00  0.00     0.074 A 
ATOM     51  C   UNL A   1      41.065  32.354  30.740  1.00  0.00     0.029 A 
ATOM     52  N   UNL A   1      42.242  30.873  29.519  1.00  0.00    -0.354 N 
ATOM     53  N   UNL A   1      44.653  30.102  28.076  1.00  0.00    -0.248 NA
ATOM     54  C   UNL A   1      46.722  30.489  27.215  1.00  0.00     0.031 C 
ATOM     55  C   UNL A   1      42.262  32.927  30.442  1.00  0.00     0.029 A 
ATOM     56  C   UNL A   1      43.003  32.010  29.672  1.00  0.00     0.049 A 
ATOM     57  H   UNL A   1      42.511  30.060  29.034  1.00  0.00     0.167 HD
ATOM     58  C   UNL A   1      45.007  31.341  28.419  1.00  0.00     0.074 A 
ATOM     59  C   UNL A   1      46.341  31.611  27.864  1.00  0.00     0.031 C 
ATOM     60  C   UNL A   1      44.274  32.257  29.175  1.00  0.00     0.034 A 
BRANCH  47  61
ATOM     61  C   UNL A   1      38.734  30.644  31.010  1.00  0.00     0.023 A 
ATOM     62  C   UNL A   1      37.649  31.182  30.336  1.00  0.00     0.031 A 
ATOM     63  C   UNL A   1      38.797  30.659  32.336  1.00  0.00     0.131 A 
ATOM     64  C   UNL A   1      36.807  31.979  31.148  1.00  0.00     0.055 A 
ATOM     65  C   UNL A   1      37.862  31.345  33.074  1.00  0.00     0.041 A 
ATOM     66  F   UNL A   1      39.774  30.004  32.956  1.00  0.00    -0.206 F 
ATOM     67  C   UNL A   1      36.796  31.951  32.468  1.00  0.00     0.022 A 
BRANCH  64  68
ATOM     68  S   UNL A   1      35.666  33.114  30.320  1.00  0.00     0.124 S 
ATOM     69  O   UNL A   1      34.903  33.925  31.370  1.00  0.00    -0.237 OA
ATOM     70  O   UNL A   1      36.456  34.064  29.418  1.00  0.00    -0.237 OA
ATOM     71  O   UNL A   1      34.559  32.219  29.374  1.00  0.00    -0.744 OA
ENDBRANCH  64  68
ENDBRANCH  47  61
BRANCH  48  72
ATOM     72  C   UNL A   1      46.884  27.773  26.099  1.00  0.00     0.023 A 
ATOM     73  C   UNL A   1      47.154  28.145  24.792  1.00  0.00     0.031 A 
ATOM     74  C   UNL A   1      47.779  27.115  26.826  1.00  0.00     0.131 A 
ATOM     75  C   UNL A   1      48.297  27.517  24.242  1.00  0.00     0.055 A 
ATOM     76  C   UNL A   1      48.938  26.648  26.255  1.00  0.00     0.041 A 
ATOM     77  F   UNL A   1      47.550  26.906  28.119  1.00  0.00    -0.206 F 
ATOM     78  C   UNL A   1      49.242  26.927  24.951  1.00  0.00     0.022 A 
BRANCH  75  79
ATOM     79  S   UNL A   1      48.477  27.525  22.441  1.00  0.00     0.124 S 
ATOM     80  O   UNL A   1      49.689  28.374  22.052  1.00  0.00    -0.237 OA
ATOM     81  O   UNL A   1      48.676  26.091  21.941  1.00  0.00    -0.237 OA
ATOM     82  O   UNL A   1      47.068  28.184  21.731  1.00  0.00    -0.744 OA
ENDBRANCH  75  79
ENDBRANCH  48  72
BRANCH  60  83
ATOM     83  C   UNL A   1      44.907  33.606  29.473  1.00  0.00     0.023 A 
ATOM     84  C   UNL A   1      44.731  34.709  28.653  1.00  0.00     0.031 A 
ATOM     85  C   UNL A   1      45.587  33.694  30.610  1.00  0.00     0.131 A 
ATOM     86  C   UNL A   1      45.564  35.805  28.983  1.00  0.00     0.055 A 
ATOM     87  C   UNL A   1      46.266  34.843  30.932  1.00  0.00     0.041 A 
ATOM     88  F   UNL A   1      45.610  32.659  31.445  1.00  0.00    -0.206 F 
ATOM     89  C   UNL A   1      46.185  35.954  30.138  1.00  0.00     0.022 A 
BRANCH  86  90
ATOM     90  S   UNL A   1      45.792  37.094  27.731  1.00  0.00     0.124 S 
ATOM     91  O   UNL A   1      44.506  37.915  27.605  1.00  0.00    -0.237 OA
ATOM     92  O   UNL A   1      46.944  38.011  28.147  1.00  0.00    -0.237 OA
ATOM     93  O   UNL A   1      46.156  36.369  26.226  1.00  0.00    -0.744 OA
ENDBRANCH  86  90
ENDBRANCH  60  83
ENDBRANCH  34  35
ENDBRANCH  27  29
ENDBRANCH  26  27
ENDBRANCH   1  26
TORSDOF 16
ENDMDL
MODEL 3
REMARK VINA RESULT:     -12.0      1.285      7.507
REMARK SMILES O=C(OCCOC(=O)c1ccc(-c2c3nc(c(-c4cc(S(=O)(=O)[O-])ccc4F)c4ccc([nH]4)c(-c4cc(S(=O)(=O)[O-])ccc4F)c4nc(c(-c5cc(S(=O)(=O)[O-])ccc5F)c5ccc2[nH]5)C=C4)C=C3)cc1)C1=Cc2cc(S(F)(F)(F)(F)F)ccc2O[C@H]1C(F)(F)F
REMARK SMILES IDX 5 1 4 2 3 3 2 4 1 5 72 6 73 7 87 8 74 9 86 10 75 11 85 12
REMARK SMILES IDX 76 13 84 14 83 15 88 16 89 17 90 18 91 19 77 20 78 21 79 22
REMARK SMILES IDX 80 23 81 24 82 25 6 26 7 27 8 28 9 29 10 30 71 31 11 32
REMARK SMILES IDX 70 33 12 34 13 35 14 36 64 37 15 38 69 39 63 40 65 41 16 42
REMARK SMILES IDX 68 43 62 44 61 45 17 47 49 48 29 49 48 50 30 51 33 52 47 53
REMARK SMILES IDX 66 54 31 55 32 56 46 58 67 59 34 60 18 61 19 62 27 63 20 64
REMARK SMILES IDX 26 65 28 66 25 67 21 68 22 69 23 70 24 71 50 72 51 73 59 74
REMARK SMILES IDX 52 75 58 76 60 77 57 78 53 79 54 80 55 81 56 82 35 83 36 84
REMARK SMILES IDX 44 85 37 86 43 87 45 88 42 89 38 90 39 91 40 92 41 93
REMARK H PARENT 65 46 33 57
REMARK Flexibility Score: inf
ROOT
ATOM      1  C   UNL A   1      37.086  21.494  24.362  1.00  0.00     0.275 C 
ENDROOT
BRANCH   1   2
ATOM      2  C   UNL A   1      36.322  22.753  23.989  1.00  0.00     0.275 C 
BRANCH   2   3
ATOM      3  O   UNL A   1      35.113  22.812  24.732  1.00  0.00    -0.459 OA
BRANCH   3   4
ATOM      4  C   UNL A   1      33.865  22.680  24.069  1.00  0.00     0.338 C 
ATOM      5  O   UNL A   1      33.825  22.588  22.801  1.00  0.00    -0.246 OA
BRANCH   4   6
ATOM      6  C   UNL A   1      32.576  22.647  24.873  1.00  0.00     0.087 C 
ATOM      7  C   UNL A   1      32.063  23.800  25.382  1.00  0.00     0.027 C 
ATOM      8  C   UNL A   1      31.861  21.328  25.110  1.00  0.00     0.316 C 
ATOM      9  C   UNL A   1      32.778  25.120  25.145  1.00  0.00     0.019 A 
ATOM     10  O   UNL A   1      33.248  24.277  22.974  1.00  0.00    -0.475 OA
ATOM     11  C   UNL A   1      32.867  26.095  26.125  1.00  0.00     0.036 A 
ATOM     12  C   UNL A   1      33.207  25.345  23.909  1.00  0.00     0.128 A 
ATOM     13  C   UNL A   1      33.165  27.385  25.626  1.00  0.00     0.107 A 
ATOM     14  C   UNL A   1      33.610  26.601  23.526  1.00  0.00     0.048 A 
ATOM     15  C   UNL A   1      33.668  27.627  24.428  1.00  0.00     0.028 A 
BRANCH   8  16
ATOM     16  C   UNL A   1      32.636  20.204  24.442  1.00  0.00     0.430 C 
ATOM     17  F   UNL A   1      32.519  20.305  23.121  1.00  0.00    -0.167 F 
ATOM     18  F   UNL A   1      33.920  20.289  24.780  1.00  0.00    -0.167 F 
ATOM     19  F   UNL A   1      32.148  19.033  24.843  1.00  0.00    -0.167 F 
ENDBRANCH   8  16
BRANCH  13  20
ATOM     20  S   UNL A   1      32.831  28.802  26.701  1.00  0.00     0.310 S 
ATOM     21  F   UNL A   1      33.366  29.832  25.621  1.00  0.00    -0.094 F 
ATOM     22  F   UNL A   1      34.308  28.702  27.237  1.00  0.00    -0.094 F 
ATOM     23  F   UNL A   1      32.546  30.017  27.628  1.00  0.00    -0.094 F 
ATOM     24  F   UNL A   1      31.402  28.974  26.050  1.00  0.00    -0.094 F 
ATOM     25  F   UNL A   1      33.142  27.642  25.672  1.00  0.00    -0.094 F 
ENDBRANCH  13  20
ENDBRANCH   4   6
ENDBRANCH   3   4
ENDBRANCH   2   3
ENDBRANCH   1   2
BRANCH   1  26
ATOM     26  O   UNL A   1      37.436  21.544  25.738  1.00  0.00    -0.458 OA
BRANCH  26  27
ATOM     27  C   UNL A   1      38.803  21.536  26.124  1.00  0.00     0.338 C 
ATOM     28  O   UNL A   1      39.510  20.497  25.936  1.00  0.00    -0.246 OA
BRANCH  27  29
ATOM     29  C   UNL A   1      39.420  22.770  26.762  1.00  0.00     0.060 A 
ATOM     30  C   UNL A   1      40.536  22.736  27.581  1.00  0.00     0.016 A 
ATOM     31  C   UNL A   1      38.893  23.922  26.362  1.00  0.00     0.016 A 
ATOM     32  C   UNL A   1      40.855  23.983  28.168  1.00  0.00     0.010 A 
ATOM     33  C   UNL A   1      39.347  25.112  26.874  1.00  0.00     0.010 A 
ATOM     34  C   UNL A   1      40.408  25.149  27.737  1.00  0.00    -0.014 A 
BRANCH  34  35
ATOM     35  C   UNL A   1      41.039  26.460  28.175  1.00  0.00     0.031 A 
ATOM     36  C   UNL A   1      40.174  27.369  28.787  1.00  0.00     0.074 A 
ATOM     37  C   UNL A   1      42.348  26.750  27.829  1.00  0.00     0.049 A 
ATOM     38  N   UNL A   1      40.443  28.619  29.168  1.00  0.00    -0.248 NA
ATOM     39  C   UNL A   1      38.773  27.075  29.124  1.00  0.00     0.031 C 
ATOM     40  C   UNL A   1      43.229  25.835  27.220  1.00  0.00     0.029 A 
ATOM     41  N   UNL A   1      43.025  27.936  28.002  1.00  0.00    -0.354 N 
ATOM     42  C   UNL A   1      39.368  29.171  29.735  1.00  0.00     0.074 A 
ATOM     43  C   UNL A   1      38.277  28.188  29.709  1.00  0.00     0.031 C 
ATOM     44  C   UNL A   1      44.416  26.466  27.017  1.00  0.00     0.029 A 
ATOM     45  C   UNL A   1      44.297  27.784  27.498  1.00  0.00     0.049 A 
ATOM     46  H   UNL A   1      42.662  28.754  28.415  1.00  0.00     0.167 HD
ATOM     47  C   UNL A   1      39.256  30.453  30.274  1.00  0.00     0.034 A 
ATOM     48  C   UNL A   1      45.310  28.728  27.448  1.00  0.00     0.034 A 
ATOM     49  C   UNL A   1      40.284  31.384  30.263  1.00  0.00     0.049 A 
ATOM     50  C   UNL A   1      45.180  30.031  27.935  1.00  0.00     0.074 A 
ATOM     51  C   UNL A   1      40.189  32.678  30.809  1.00  0.00     0.029 A 
ATOM     52  N   UNL A   1      41.548  31.238  29.736  1.00  0.00    -0.354 N 
ATOM     53  N   UNL A   1      44.117  30.569  28.537  1.00  0.00    -0.248 NA
ATOM     54  C   UNL A   1      46.234  31.049  27.859  1.00  0.00     0.031 C 
ATOM     55  C   UNL A   1      41.377  33.308  30.607  1.00  0.00     0.029 A 
ATOM     56  C   UNL A   1      42.232  32.418  29.930  1.00  0.00     0.049 A 
ATOM     57  H   UNL A   1      41.901  30.431  29.299  1.00  0.00     0.167 HD
ATOM     58  C   UNL A   1      44.375  31.832  28.881  1.00  0.00     0.074 A 
ATOM     59  C   UNL A   1      45.738  32.162  28.442  1.00  0.00     0.031 C 
ATOM     60  C   UNL A   1      43.529  32.722  29.544  1.00  0.00     0.034 A 
BRANCH  47  61
ATOM     61  C   UNL A   1      37.934  30.852  30.908  1.00  0.00     0.023 A 
ATOM     62  C   UNL A   1      36.909  31.369  30.134  1.00  0.00     0.031 A 
ATOM     63  C   UNL A   1      37.858  30.843  32.234  1.00  0.00     0.131 A 
ATOM     64  C   UNL A   1      35.962  32.125  30.865  1.00  0.00     0.055 A 
ATOM     65  C   UNL A   1      36.830  31.486  32.881  1.00  0.00     0.041 A 
ATOM     66  F   UNL A   1      38.786  30.205  32.943  1.00  0.00    -0.206 F 
ATOM     67  C   UNL A   1      35.815  32.071  32.176  1.00  0.00     0.022 A 
BRANCH  64  68
ATOM     68  S   UNL A   1      34.879  33.241  29.941  1.00  0.00     0.124 S 
ATOM     69  O   UNL A   1      35.728  34.264  29.182  1.00  0.00    -0.237 OA
ATOM     70  O   UNL A   1      34.044  32.433  28.944  1.00  0.00    -0.237 OA
ATOM     71  O   UNL A   1      33.839  34.056  31.026  1.00  0.00    -0.744 OA
ENDBRANCH  64  68
ENDBRANCH  47  61
BRANCH  48  72
ATOM     72  C   UNL A   1      46.638  28.324  26.828  1.00  0.00     0.023 A 
ATOM     73  C   UNL A   1      46.884  28.397  25.467  1.00  0.00     0.031 A 
ATOM     74  C   UNL A   1      47.607  28.039  27.690  1.00  0.00     0.131 A 
ATOM     75  C   UNL A   1      48.137  27.861  25.082  1.00  0.00     0.055 A 
ATOM     76  C   UNL A   1      48.849  27.654  27.243  1.00  0.00     0.041 A 
ATOM     77  F   UNL A   1      47.374  28.125  28.996  1.00  0.00    -0.206 F 
ATOM     78  C   UNL A   1      49.144  27.645  25.908  1.00  0.00     0.022 A 
BRANCH  75  79
ATOM     79  S   UNL A   1      48.375  27.447  23.337  1.00  0.00     0.124 S 
ATOM     80  O   UNL A   1      49.750  27.937  22.878  1.00  0.00    -0.237 OA
ATOM     81  O   UNL A   1      48.287  25.930  23.156  1.00  0.00    -0.237 OA
ATOM     82  O   UNL A   1      47.159  28.202  22.402  1.00  0.00    -0.744 OA
ENDBRANCH  75  79
ENDBRANCH  48  72
BRANCH  60  83
ATOM     83  C   UNL A   1      44.061  34.109  29.865  1.00  0.00     0.023 A 
ATOM     84  C   UNL A   1      44.729  34.398  31.044  1.00  0.00     0.031 A 
ATOM     85  C   UNL A   1      43.912  35.026  28.916  1.00  0.00     0.131 A 
ATOM     86  C   UNL A   1      44.958  35.779  31.249  1.00  0.00     0.055 A 
ATOM     87  C   UNL A   1      44.282  36.329  29.137  1.00  0.00     0.041 A 
ATOM     88  F   UNL A   1      43.399  34.677  27.738  1.00  0.00    -0.206 F 
ATOM     89  C   UNL A   1      44.896  36.698  30.302  1.00  0.00     0.022 A 
BRANCH  86  90
ATOM     90  S   UNL A   1      45.365  36.324  32.927  1.00  0.00     0.124 S 
ATOM     91  O   UNL A   1      46.612  35.583  33.415  1.00  0.00    -0.237 OA
ATOM     92  O   UNL A   1      45.636  37.830  32.923  1.00  0.00    -0.237 OA
ATOM     93  O   UNL A   1      44.054  35.983  33.970  1.00  0.00    -0.744 OA
ENDBRANCH  86  90
ENDBRANCH  60  83
ENDBRANCH  34  35
ENDBRANCH  27  29
ENDBRANCH  26  27
ENDBRANCH   1  26
TORSDOF 16
ENDMDL
