MODEL 1
REMARK VINA RESULT:     -10.8      0.000      0.000
REMARK SMILES C[NH2+][C@](C)(CCSc1ccncc1)C(=O)OCCOC(=O)c1ccc(-c2c3nc(c(-c4cc(S(=O)(=O)[O-])ccc4F)c4ccc([nH]4)c(-c4cc(S(=O)(=O)[O-])ccc4F)c4nc(c(-c5cc(S(=O)(=O)[O-])ccc5F)c5ccc2[nH]5)C=C4)C=C3)cc1
REMARK SMILES IDX 17 1 16 2 14 3 15 4 3 5 4 6 2 7 1 8 5 11 6 12 7 13 8 14 9 15
REMARK SMILES IDX 13 16 10 17 12 18 11 19 18 20 19 21 20 22 21 23 22 24 23 25
REMARK SMILES IDX 84 26 24 27 83 28 25 29 26 30 27 31 77 32 28 33 82 34 76 35
REMARK SMILES IDX 78 36 29 37 81 38 75 39 74 40 30 42 62 43 42 44 61 45 43 46
REMARK SMILES IDX 46 47 60 48 79 49 44 50 45 51 59 53 80 54 47 55 31 56 32 57
REMARK SMILES IDX 40 58 33 59 39 60 41 61 38 62 34 63 35 64 36 65 37 66 63 67
REMARK SMILES IDX 64 68 72 69 65 70 71 71 73 72 70 73 66 74 67 75 68 76 69 77
REMARK SMILES IDX 48 78 49 79 57 80 50 81 56 82 58 83 55 84 51 85 52 86 53 87
REMARK SMILES IDX 54 88
REMARK H PARENT 2 9 2 10 78 41 46 52
REMARK Flexibility Score: inf
ROOT
ATOM      1  C   UNL A   1      33.633  27.990  23.541  1.00  0.00     0.274 C 
ENDROOT
BRANCH   1   2
ATOM      2  O   UNL A   1      33.141  26.687  24.003  1.00  0.00    -0.457 OA
BRANCH   2   3
ATOM      3  C   UNL A   1      32.091  25.922  23.504  1.00  0.00     0.367 C 
ATOM      4  O   UNL A   1      32.006  25.576  22.333  1.00  0.00    -0.245 OA
BRANCH   3   5
ATOM      5  C   UNL A   1      30.918  25.669  24.659  1.00  0.00     0.192 C 
ATOM      6  C   UNL A   1      30.754  26.395  26.036  1.00  0.00     0.092 C 
BRANCH   5   7
ATOM      7  N   UNL A   1      30.951  24.193  24.996  1.00  0.00    -0.335 N 
ATOM      8  C   UNL A   1      30.623  23.919  26.414  1.00  0.00     0.331 C 
ATOM      9  H   UNL A   1      30.274  23.710  24.407  1.00  0.00     0.347 HD
ATOM     10  H   UNL A   1      31.902  23.863  24.833  1.00  0.00     0.347 HD
ENDBRANCH   5   7
BRANCH   5  11
ATOM     11  C   UNL A   1      29.649  26.107  23.926  1.00  0.00     0.092 C 
BRANCH  11  12
ATOM     12  C   UNL A   1      29.623  27.667  23.780  1.00  0.00     0.082 C 
BRANCH  12  13
ATOM     13  S   UNL A   1      28.152  28.705  22.985  1.00  0.00    -0.126 SA
BRANCH  13  14
ATOM     14  C   UNL A   1      28.304  30.363  22.305  1.00  0.00     0.010 A 
ATOM     15  C   UNL A   1      28.295  31.427  23.202  1.00  0.00     0.035 A 
ATOM     16  C   UNL A   1      28.039  30.719  20.977  1.00  0.00     0.035 A 
ATOM     17  C   UNL A   1      28.178  32.736  22.750  1.00  0.00     0.112 A 
ATOM     18  C   UNL A   1      27.932  32.055  20.600  1.00  0.00     0.112 A 
ATOM     19  N   UNL A   1      28.023  33.079  21.460  1.00  0.00    -0.265 NA
ENDBRANCH  13  14
ENDBRANCH  12  13
ENDBRANCH  11  12
ENDBRANCH   5  11
ENDBRANCH   3   5
ENDBRANCH   2   3
ENDBRANCH   1   2
BRANCH   1  20
ATOM     20  C   UNL A   1      32.884  29.221  24.236  1.00  0.00     0.275 C 
BRANCH  20  21
ATOM     21  O   UNL A   1      32.985  29.263  25.701  1.00  0.00    -0.458 OA
BRANCH  21  22
ATOM     22  C   UNL A   1      33.010  30.435  26.403  1.00  0.00     0.338 C 
ATOM     23  O   UNL A   1      32.086  31.250  26.436  1.00  0.00    -0.246 OA
BRANCH  22  24
ATOM     24  C   UNL A   1      34.211  30.502  27.323  1.00  0.00     0.060 A 
ATOM     25  C   UNL A   1      34.714  29.286  27.785  1.00  0.00     0.016 A 
ATOM     26  C   UNL A   1      34.919  31.658  27.678  1.00  0.00     0.016 A 
ATOM     27  C   UNL A   1      36.025  29.177  28.281  1.00  0.00     0.010 A 
ATOM     28  C   UNL A   1      36.158  31.560  28.385  1.00  0.00     0.010 A 
ATOM     29  C   UNL A   1      36.757  30.311  28.643  1.00  0.00    -0.014 A 
BRANCH  29  30
ATOM     30  C   UNL A   1      37.935  30.092  29.556  1.00  0.00     0.031 A 
ATOM     31  C   UNL A   1      39.044  29.205  29.020  1.00  0.00     0.074 A 
ATOM     32  C   UNL A   1      38.148  30.740  30.725  1.00  0.00     0.049 A 
ATOM     33  N   UNL A   1      40.153  28.799  29.583  1.00  0.00    -0.248 NA
ATOM     34  C   UNL A   1      38.888  28.749  27.628  1.00  0.00     0.031 C 
ATOM     35  C   UNL A   1      37.301  31.787  31.295  1.00  0.00     0.029 A 
ATOM     36  N   UNL A   1      39.179  30.625  31.642  1.00  0.00    -0.354 N 
ATOM     37  C   UNL A   1      40.814  28.045  28.616  1.00  0.00     0.074 A 
ATOM     38  C   UNL A   1      40.006  28.082  27.423  1.00  0.00     0.031 C 
ATOM     39  C   UNL A   1      37.832  32.199  32.466  1.00  0.00     0.029 A 
ATOM     40  C   UNL A   1      39.029  31.409  32.770  1.00  0.00     0.049 A 
ATOM     41  H   UNL A   1      39.954  30.035  31.502  1.00  0.00     0.167 HD
ATOM     42  C   UNL A   1      41.969  27.346  28.708  1.00  0.00     0.034 A 
ATOM     43  C   UNL A   1      39.739  31.448  33.926  1.00  0.00     0.034 A 
ATOM     44  C   UNL A   1      42.744  27.249  29.914  1.00  0.00     0.049 A 
ATOM     45  C   UNL A   1      40.925  30.510  34.090  1.00  0.00     0.074 A 
ATOM     46  C   UNL A   1      43.863  26.475  30.163  1.00  0.00     0.029 A 
ATOM     47  N   UNL A   1      42.466  27.940  31.085  1.00  0.00    -0.354 N 
ATOM     48  N   UNL A   1      41.464  29.694  33.211  1.00  0.00    -0.248 NA
ATOM     49  C   UNL A   1      41.582  30.482  35.407  1.00  0.00     0.031 C 
ATOM     50  C   UNL A   1      44.221  26.647  31.504  1.00  0.00     0.029 A 
ATOM     51  C   UNL A   1      43.377  27.591  32.068  1.00  0.00     0.049 A 
ATOM     52  H   UNL A   1      41.732  28.585  31.200  1.00  0.00     0.167 HD
ATOM     53  C   UNL A   1      42.531  29.076  33.865  1.00  0.00     0.074 A 
ATOM     54  C   UNL A   1      42.571  29.623  35.204  1.00  0.00     0.031 C 
ATOM     55  C   UNL A   1      43.400  28.141  33.402  1.00  0.00     0.034 A 
BRANCH  42  56
ATOM     56  C   UNL A   1      42.353  26.519  27.505  1.00  0.00     0.023 A 
ATOM     57  C   UNL A   1      42.142  25.128  27.455  1.00  0.00     0.031 A 
ATOM     58  C   UNL A   1      43.048  27.121  26.442  1.00  0.00     0.131 A 
ATOM     59  C   UNL A   1      42.693  24.379  26.402  1.00  0.00     0.055 A 
ATOM     60  C   UNL A   1      43.519  26.382  25.357  1.00  0.00     0.041 A 
ATOM     61  F   UNL A   1      43.314  28.437  26.460  1.00  0.00    -0.206 F 
ATOM     62  C   UNL A   1      43.358  25.000  25.341  1.00  0.00     0.022 A 
BRANCH  59  63
ATOM     63  S   UNL A   1      42.677  22.568  26.523  1.00  0.00     0.124 S 
ATOM     64  O   UNL A   1      41.996  22.362  27.799  1.00  0.00    -0.237 OA
ATOM     65  O   UNL A   1      41.936  22.178  25.332  1.00  0.00    -0.237 OA
ATOM     66  O   UNL A   1      44.096  22.213  26.520  1.00  0.00    -0.744 OA
ENDBRANCH  59  63
ENDBRANCH  42  56
BRANCH  43  67
ATOM     67  C   UNL A   1      39.302  32.294  35.090  1.00  0.00     0.023 A 
ATOM     68  C   UNL A   1      38.690  31.745  36.235  1.00  0.00     0.031 A 
ATOM     69  C   UNL A   1      39.388  33.698  35.016  1.00  0.00     0.131 A 
ATOM     70  C   UNL A   1      38.165  32.592  37.232  1.00  0.00     0.055 A 
ATOM     71  C   UNL A   1      38.915  34.531  36.033  1.00  0.00     0.041 A 
ATOM     72  F   UNL A   1      39.924  34.290  33.937  1.00  0.00    -0.206 F 
ATOM     73  C   UNL A   1      38.289  33.980  37.145  1.00  0.00     0.022 A 
BRANCH  70  74
ATOM     74  S   UNL A   1      37.229  31.866  38.613  1.00  0.00     0.124 S 
ATOM     75  O   UNL A   1      38.153  32.046  39.726  1.00  0.00    -0.237 OA
ATOM     76  O   UNL A   1      36.028  32.695  38.634  1.00  0.00    -0.237 OA
ATOM     77  O   UNL A   1      37.019  30.482  38.194  1.00  0.00    -0.744 OA
ENDBRANCH  70  74
ENDBRANCH  43  67
BRANCH  55  78
ATOM     78  C   UNL A   1      44.499  27.684  34.331  1.00  0.00     0.023 A 
ATOM     79  C   UNL A   1      44.313  26.632  35.244  1.00  0.00     0.031 A 
ATOM     80  C   UNL A   1      45.761  28.305  34.285  1.00  0.00     0.131 A 
ATOM     81  C   UNL A   1      45.356  26.264  36.108  1.00  0.00     0.055 A 
ATOM     82  C   UNL A   1      46.812  27.898  35.108  1.00  0.00     0.041 A 
ATOM     83  F   UNL A   1      45.995  29.313  33.430  1.00  0.00    -0.206 F 
ATOM     84  C   UNL A   1      46.609  26.878  36.034  1.00  0.00     0.022 A 
BRANCH  81  85
ATOM     85  S   UNL A   1      45.033  25.020  37.388  1.00  0.00     0.124 S 
ATOM     86  O   UNL A   1      46.341  24.887  38.021  1.00  0.00    -0.237 OA
ATOM     87  O   UNL A   1      43.998  25.661  38.193  1.00  0.00    -0.237 OA
ATOM     88  O   UNL A   1      44.590  23.852  36.628  1.00  0.00    -0.744 OA
ENDBRANCH  81  85
ENDBRANCH  55  78
ENDBRANCH  29  30
ENDBRANCH  22  24
ENDBRANCH  21  22
ENDBRANCH  20  21
ENDBRANCH   1  20
TORSDOF 19
ENDMDL
MODEL 2
REMARK VINA RESULT:     -10.5      1.896      3.763
REMARK SMILES C[NH2+][C@](C)(CCSc1ccncc1)C(=O)OCCOC(=O)c1ccc(-c2c3nc(c(-c4cc(S(=O)(=O)[O-])ccc4F)c4ccc([nH]4)c(-c4cc(S(=O)(=O)[O-])ccc4F)c4nc(c(-c5cc(S(=O)(=O)[O-])ccc5F)c5ccc2[nH]5)C=C4)C=C3)cc1
REMARK SMILES IDX 17 1 16 2 14 3 15 4 3 5 4 6 2 7 1 8 5 11 6 12 7 13 8 14 9 15
REMARK SMILES IDX 13 16 10 17 12 18 11 19 18 20 19 21 20 22 21 23 22 24 23 25
REMARK SMILES IDX 84 26 24 27 83 28 25 29 26 30 27 31 77 32 28 33 82 34 76 35
REMARK SMILES IDX 78 36 29 37 81 38 75 39 74 40 30 42 62 43 42 44 61 45 43 46
REMARK SMILES IDX 46 47 60 48 79 49 44 50 45 51 59 53 80 54 47 55 31 56 32 57
REMARK SMILES IDX 40 58 33 59 39 60 41 61 38 62 34 63 35 64 36 65 37 66 63 67
REMARK SMILES IDX 64 68 72 69 65 70 71 71 73 72 70 73 66 74 67 75 68 76 69 77
REMARK SMILES IDX 48 78 49 79 57 80 50 81 56 82 58 83 55 84 51 85 52 86 53 87
REMARK SMILES IDX 54 88
REMARK H PARENT 2 9 2 10 78 41 46 52
REMARK Flexibility Score: inf
ROOT
ATOM      1  C   UNL A   1      32.493  28.444  23.715  1.00  0.00     0.274 C 
ENDROOT
BRANCH   1   2
ATOM      2  O   UNL A   1      32.243  27.118  24.292  1.00  0.00    -0.457 OA
BRANCH   2   3
ATOM      3  C   UNL A   1      31.296  26.743  25.241  1.00  0.00     0.367 C 
ATOM      4  O   UNL A   1      31.236  27.228  26.363  1.00  0.00    -0.245 OA
BRANCH   3   5
ATOM      5  C   UNL A   1      30.365  25.471  24.703  1.00  0.00     0.192 C 
ATOM      6  C   UNL A   1      30.548  24.633  23.393  1.00  0.00     0.092 C 
BRANCH   5   7
ATOM      7  N   UNL A   1      28.935  25.970  24.652  1.00  0.00    -0.335 N 
ATOM      8  C   UNL A   1      28.736  27.045  23.654  1.00  0.00     0.331 C 
ATOM      9  H   UNL A   1      28.327  25.188  24.412  1.00  0.00     0.347 HD
ATOM     10  H   UNL A   1      28.714  26.358  25.568  1.00  0.00     0.347 HD
ENDBRANCH   5   7
BRANCH   5  11
ATOM     11  C   UNL A   1      30.612  24.415  25.782  1.00  0.00     0.092 C 
BRANCH  11  12
ATOM     12  C   UNL A   1      31.889  23.577  25.431  1.00  0.00     0.082 C 
BRANCH  12  13
ATOM     13  S   UNL A   1      33.675  23.856  26.210  1.00  0.00    -0.126 SA
BRANCH  13  14
ATOM     14  C   UNL A   1      35.199  23.130  25.591  1.00  0.00     0.010 A 
ATOM     15  C   UNL A   1      35.635  23.533  24.333  1.00  0.00     0.035 A 
ATOM     16  C   UNL A   1      35.771  21.937  26.051  1.00  0.00     0.035 A 
ATOM     17  C   UNL A   1      36.668  22.858  23.689  1.00  0.00     0.112 A 
ATOM     18  C   UNL A   1      36.801  21.317  25.348  1.00  0.00     0.112 A 
ATOM     19  N   UNL A   1      37.282  21.770  24.183  1.00  0.00    -0.265 NA
ENDBRANCH  13  14
ENDBRANCH  12  13
ENDBRANCH  11  12
ENDBRANCH   5  11
ENDBRANCH   3   5
ENDBRANCH   2   3
ENDBRANCH   1   2
BRANCH   1  20
ATOM     20  C   UNL A   1      32.157  29.637  24.727  1.00  0.00     0.275 C 
BRANCH  20  21
ATOM     21  O   UNL A   1      33.057  29.743  25.883  1.00  0.00    -0.458 OA
BRANCH  21  22
ATOM     22  C   UNL A   1      33.098  30.850  26.684  1.00  0.00     0.338 C 
ATOM     23  O   UNL A   1      32.164  31.641  26.830  1.00  0.00    -0.246 OA
BRANCH  22  24
ATOM     24  C   UNL A   1      34.339  30.859  27.551  1.00  0.00     0.060 A 
ATOM     25  C   UNL A   1      34.728  29.636  28.099  1.00  0.00     0.016 A 
ATOM     26  C   UNL A   1      35.182  31.954  27.779  1.00  0.00     0.016 A 
ATOM     27  C   UNL A   1      36.042  29.425  28.555  1.00  0.00     0.010 A 
ATOM     28  C   UNL A   1      36.434  31.778  28.448  1.00  0.00     0.010 A 
ATOM     29  C   UNL A   1      36.907  30.496  28.791  1.00  0.00    -0.014 A 
BRANCH  29  30
ATOM     30  C   UNL A   1      38.094  30.224  29.677  1.00  0.00     0.031 A 
ATOM     31  C   UNL A   1      39.180  29.340  29.091  1.00  0.00     0.074 A 
ATOM     32  C   UNL A   1      38.335  30.825  30.866  1.00  0.00     0.049 A 
ATOM     33  N   UNL A   1      40.290  28.895  29.622  1.00  0.00    -0.248 NA
ATOM     34  C   UNL A   1      38.995  28.938  27.686  1.00  0.00     0.031 C 
ATOM     35  C   UNL A   1      37.515  31.864  31.487  1.00  0.00     0.029 A 
ATOM     36  N   UNL A   1      39.378  30.660  31.762  1.00  0.00    -0.354 N 
ATOM     37  C   UNL A   1      40.923  28.167  28.617  1.00  0.00     0.074 A 
ATOM     38  C   UNL A   1      40.098  28.260  27.439  1.00  0.00     0.031 C 
ATOM     39  C   UNL A   1      38.071  32.223  32.663  1.00  0.00     0.029 A 
ATOM     40  C   UNL A   1      39.258  31.404  32.919  1.00  0.00     0.049 A 
ATOM     41  H   UNL A   1      40.140  30.062  31.588  1.00  0.00     0.167 HD
ATOM     42  C   UNL A   1      42.068  27.445  28.666  1.00  0.00     0.034 A 
ATOM     43  C   UNL A   1      39.987  31.387  34.065  1.00  0.00     0.034 A 
ATOM     44  C   UNL A   1      42.859  27.291  29.855  1.00  0.00     0.049 A 
ATOM     45  C   UNL A   1      41.158  30.425  34.176  1.00  0.00     0.074 A 
ATOM     46  C   UNL A   1      43.967  26.489  30.058  1.00  0.00     0.029 A 
ATOM     47  N   UNL A   1      42.610  27.943  31.055  1.00  0.00    -0.354 N 
ATOM     48  N   UNL A   1      41.670  29.633  33.260  1.00  0.00    -0.248 NA
ATOM     49  C   UNL A   1      41.835  30.337  35.481  1.00  0.00     0.031 C 
ATOM     50  C   UNL A   1      44.349  26.606  31.399  1.00  0.00     0.029 A 
ATOM     51  C   UNL A   1      43.529  27.542  32.010  1.00  0.00     0.049 A 
ATOM     52  H   UNL A   1      41.889  28.595  31.205  1.00  0.00     0.167 HD
ATOM     53  C   UNL A   1      42.736  28.974  33.873  1.00  0.00     0.074 A 
ATOM     54  C   UNL A   1      42.806  29.470  35.231  1.00  0.00     0.031 C 
ATOM     55  C   UNL A   1      43.582  28.042  33.362  1.00  0.00     0.034 A 
BRANCH  42  56
ATOM     56  C   UNL A   1      42.419  26.657  27.428  1.00  0.00     0.023 A 
ATOM     57  C   UNL A   1      42.032  25.314  27.261  1.00  0.00     0.031 A 
ATOM     58  C   UNL A   1      43.255  27.230  26.454  1.00  0.00     0.131 A 
ATOM     59  C   UNL A   1      42.550  24.570  26.187  1.00  0.00     0.055 A 
ATOM     60  C   UNL A   1      43.697  26.509  25.345  1.00  0.00     0.041 A 
ATOM     61  F   UNL A   1      43.690  28.494  26.587  1.00  0.00    -0.206 F 
ATOM     62  C   UNL A   1      43.358  25.166  25.216  1.00  0.00     0.022 A 
BRANCH  59  63
ATOM     63  S   UNL A   1      42.289  22.774  26.169  1.00  0.00     0.124 S 
ATOM     64  O   UNL A   1      43.046  22.353  27.346  1.00  0.00    -0.237 OA
ATOM     65  O   UNL A   1      40.841  22.663  26.266  1.00  0.00    -0.237 OA
ATOM     66  O   UNL A   1      42.864  22.358  24.889  1.00  0.00    -0.744 OA
ENDBRANCH  59  63
ENDBRANCH  42  56
BRANCH  43  67
ATOM     67  C   UNL A   1      39.582  32.197  35.266  1.00  0.00     0.023 A 
ATOM     68  C   UNL A   1      38.836  31.650  36.330  1.00  0.00     0.031 A 
ATOM     69  C   UNL A   1      39.841  33.581  35.307  1.00  0.00     0.131 A 
ATOM     70  C   UNL A   1      38.354  32.483  37.360  1.00  0.00     0.055 A 
ATOM     71  C   UNL A   1      39.408  34.393  36.359  1.00  0.00     0.041 A 
ATOM     72  F   UNL A   1      40.513  34.176  34.308  1.00  0.00    -0.206 F 
ATOM     73  C   UNL A   1      38.650  33.847  37.388  1.00  0.00     0.022 A 
BRANCH  70  74
ATOM     74  S   UNL A   1      37.251  31.784  38.626  1.00  0.00     0.124 S 
ATOM     75  O   UNL A   1      38.059  31.920  39.832  1.00  0.00    -0.237 OA
ATOM     76  O   UNL A   1      36.086  32.658  38.530  1.00  0.00    -0.237 OA
ATOM     77  O   UNL A   1      37.034  30.412  38.172  1.00  0.00    -0.744 OA
ENDBRANCH  70  74
ENDBRANCH  43  67
BRANCH  55  78
ATOM     78  C   UNL A   1      44.686  27.533  34.258  1.00  0.00     0.023 A 
ATOM     79  C   UNL A   1      44.584  26.313  34.946  1.00  0.00     0.031 A 
ATOM     80  C   UNL A   1      45.871  28.279  34.405  1.00  0.00     0.131 A 
ATOM     81  C   UNL A   1      45.626  25.897  35.790  1.00  0.00     0.055 A 
ATOM     82  C   UNL A   1      46.926  27.834  35.201  1.00  0.00     0.041 A 
ATOM     83  F   UNL A   1      46.024  29.450  33.767  1.00  0.00    -0.206 F 
ATOM     84  C   UNL A   1      46.804  26.641  35.908  1.00  0.00     0.022 A 
BRANCH  81  85
ATOM     85  S   UNL A   1      45.394  24.406  36.796  1.00  0.00     0.124 S 
ATOM     86  O   UNL A   1      45.180  24.966  38.126  1.00  0.00    -0.237 OA
ATOM     87  O   UNL A   1      44.230  23.784  36.171  1.00  0.00    -0.237 OA
ATOM     88  O   UNL A   1      46.650  23.677  36.624  1.00  0.00    -0.744 OA
ENDBRANCH  81  85
ENDBRANCH  55  78
ENDBRANCH  29  30
ENDBRANCH  22  24
ENDBRANCH  21  22
ENDBRANCH  20  21
ENDBRANCH   1  20
TORSDOF 19
ENDMDL
MODEL 3
REMARK VINA RESULT:     -10.5      2.761      4.791
REMARK SMILES C[NH2+][C@](C)(CCSc1ccncc1)C(=O)OCCOC(=O)c1ccc(-c2c3nc(c(-c4cc(S(=O)(=O)[O-])ccc4F)c4ccc([nH]4)c(-c4cc(S(=O)(=O)[O-])ccc4F)c4nc(c(-c5cc(S(=O)(=O)[O-])ccc5F)c5ccc2[nH]5)C=C4)C=C3)cc1
REMARK SMILES IDX 17 1 16 2 14 3 15 4 3 5 4 6 2 7 1 8 5 11 6 12 7 13 8 14 9 15
REMARK SMILES IDX 13 16 10 17 12 18 11 19 18 20 19 21 20 22 21 23 22 24 23 25
REMARK SMILES IDX 84 26 24 27 83 28 25 29 26 30 27 31 77 32 28 33 82 34 76 35
REMARK SMILES IDX 78 36 29 37 81 38 75 39 74 40 30 42 62 43 42 44 61 45 43 46
REMARK SMILES IDX 46 47 60 48 79 49 44 50 45 51 59 53 80 54 47 55 31 56 32 57
REMARK SMILES IDX 40 58 33 59 39 60 41 61 38 62 34 63 35 64 36 65 37 66 63 67
REMARK SMILES IDX 64 68 72 69 65 70 71 71 73 72 70 73 66 74 67 75 68 76 69 77
REMARK SMILES IDX 48 78 49 79 57 80 50 81 56 82 58 83 55 84 51 85 52 86 53 87
REMARK SMILES IDX 54 88
REMARK H PARENT 2 9 2 10 78 41 46 52
REMARK Flexibility Score: inf
ROOT
ATOM      1  C   UNL A   1      32.224  28.048  23.518  1.00  0.00     0.274 C 
ENDROOT
BRANCH   1   2
ATOM      2  O   UNL A   1      33.003  26.850  23.851  1.00  0.00    -0.457 OA
BRANCH   2   3
ATOM      3  C   UNL A   1      32.635  25.757  24.630  1.00  0.00     0.367 C 
ATOM      4  O   UNL A   1      32.376  25.836  25.824  1.00  0.00    -0.245 OA
BRANCH   3   5
ATOM      5  C   UNL A   1      32.731  24.335  23.769  1.00  0.00     0.192 C 
ATOM      6  C   UNL A   1      33.884  23.860  22.822  1.00  0.00     0.092 C 
BRANCH   5   7
ATOM      7  N   UNL A   1      31.474  24.250  22.928  1.00  0.00    -0.335 N 
ATOM      8  C   UNL A   1      30.288  24.823  23.604  1.00  0.00     0.331 C 
ATOM      9  H   UNL A   1      31.630  24.760  22.059  1.00  0.00     0.347 HD
ATOM     10  H   UNL A   1      31.284  23.263  22.761  1.00  0.00     0.347 HD
ENDBRANCH   5   7
BRANCH   5  11
ATOM     11  C   UNL A   1      32.798  23.290  24.885  1.00  0.00     0.092 C 
BRANCH  11  12
ATOM     12  C   UNL A   1      33.452  21.971  24.347  1.00  0.00     0.082 C 
BRANCH  12  13
ATOM     13  S   UNL A   1      32.482  20.300  23.969  1.00  0.00    -0.126 SA
BRANCH  13  14
ATOM     14  C   UNL A   1      33.082  18.648  24.348  1.00  0.00     0.010 A 
ATOM     15  C   UNL A   1      33.515  17.864  23.283  1.00  0.00     0.035 A 
ATOM     16  C   UNL A   1      32.798  17.934  25.519  1.00  0.00     0.035 A 
ATOM     17  C   UNL A   1      33.775  16.509  23.459  1.00  0.00     0.112 A 
ATOM     18  C   UNL A   1      33.084  16.574  25.618  1.00  0.00     0.112 A 
ATOM     19  N   UNL A   1      33.594  15.848  24.614  1.00  0.00    -0.265 NA
ENDBRANCH  13  14
ENDBRANCH  12  13
ENDBRANCH  11  12
ENDBRANCH   5  11
ENDBRANCH   3   5
ENDBRANCH   2   3
ENDBRANCH   1   2
BRANCH   1  20
ATOM     20  C   UNL A   1      31.826  28.910  24.806  1.00  0.00     0.275 C 
BRANCH  20  21
ATOM     21  O   UNL A   1      32.955  29.318  25.653  1.00  0.00    -0.458 OA
BRANCH  21  22
ATOM     22  C   UNL A   1      32.943  30.470  26.389  1.00  0.00     0.338 C 
ATOM     23  O   UNL A   1      31.988  31.247  26.456  1.00  0.00    -0.246 OA
BRANCH  22  24
ATOM     24  C   UNL A   1      34.151  30.557  27.298  1.00  0.00     0.060 A 
ATOM     25  C   UNL A   1      34.647  29.352  27.796  1.00  0.00     0.016 A 
ATOM     26  C   UNL A   1      34.871  31.718  27.610  1.00  0.00     0.016 A 
ATOM     27  C   UNL A   1      35.962  29.250  28.286  1.00  0.00     0.010 A 
ATOM     28  C   UNL A   1      36.114  31.633  28.311  1.00  0.00     0.010 A 
ATOM     29  C   UNL A   1      36.705  30.389  28.605  1.00  0.00    -0.014 A 
BRANCH  29  30
ATOM     30  C   UNL A   1      37.887  30.191  29.517  1.00  0.00     0.031 A 
ATOM     31  C   UNL A   1      39.015  29.330  28.976  1.00  0.00     0.074 A 
ATOM     32  C   UNL A   1      38.088  30.837  30.689  1.00  0.00     0.049 A 
ATOM     33  N   UNL A   1      40.132  28.944  29.538  1.00  0.00    -0.248 NA
ATOM     34  C   UNL A   1      38.867  28.876  27.583  1.00  0.00     0.031 C 
ATOM     35  C   UNL A   1      37.219  31.864  31.264  1.00  0.00     0.029 A 
ATOM     36  N   UNL A   1      39.121  30.741  31.605  1.00  0.00    -0.354 N 
ATOM     37  C   UNL A   1      40.808  28.209  28.566  1.00  0.00     0.074 A 
ATOM     38  C   UNL A   1      39.999  28.234  27.374  1.00  0.00     0.031 C 
ATOM     39  C   UNL A   1      37.743  32.282  32.436  1.00  0.00     0.029 A 
ATOM     40  C   UNL A   1      38.956  31.516  32.736  1.00  0.00     0.049 A 
ATOM     41  H   UNL A   1      39.909  30.167  31.462  1.00  0.00     0.167 HD
ATOM     42  C   UNL A   1      41.978  27.533  28.655  1.00  0.00     0.034 A 
ATOM     43  C   UNL A   1      39.666  31.564  33.891  1.00  0.00     0.034 A 
ATOM     44  C   UNL A   1      42.756  27.447  29.860  1.00  0.00     0.049 A 
ATOM     45  C   UNL A   1      40.871  30.651  34.051  1.00  0.00     0.074 A 
ATOM     46  C   UNL A   1      43.890  26.695  30.105  1.00  0.00     0.029 A 
ATOM     47  N   UNL A   1      42.464  28.127  31.034  1.00  0.00    -0.354 N 
ATOM     48  N   UNL A   1      41.427  29.851  33.169  1.00  0.00    -0.248 NA
ATOM     49  C   UNL A   1      41.530  30.631  35.368  1.00  0.00     0.031 C 
ATOM     50  C   UNL A   1      44.246  26.869  31.446  1.00  0.00     0.029 A 
ATOM     51  C   UNL A   1      43.382  27.792  32.015  1.00  0.00     0.049 A 
ATOM     52  H   UNL A   1      41.716  28.756  31.152  1.00  0.00     0.167 HD
ATOM     53  C   UNL A   1      42.506  29.252  33.819  1.00  0.00     0.074 A 
ATOM     54  C   UNL A   1      42.537  29.794  35.160  1.00  0.00     0.031 C 
ATOM     55  C   UNL A   1      43.395  28.337  33.351  1.00  0.00     0.034 A 
BRANCH  42  56
ATOM     56  C   UNL A   1      42.378  26.719  27.448  1.00  0.00     0.023 A 
ATOM     57  C   UNL A   1      42.014  25.368  27.303  1.00  0.00     0.031 A 
ATOM     58  C   UNL A   1      43.237  27.280  26.487  1.00  0.00     0.131 A 
ATOM     59  C   UNL A   1      42.574  24.605  26.264  1.00  0.00     0.055 A 
ATOM     60  C   UNL A   1      43.723  26.538  25.411  1.00  0.00     0.041 A 
ATOM     61  F   UNL A   1      43.651  28.553  26.601  1.00  0.00    -0.206 F 
ATOM     62  C   UNL A   1      43.406  25.188  25.304  1.00  0.00     0.022 A 
BRANCH  59  63
ATOM     63  S   UNL A   1      42.338  22.806  26.283  1.00  0.00     0.124 S 
ATOM     64  O   UNL A   1      43.040  22.427  27.508  1.00  0.00    -0.237 OA
ATOM     65  O   UNL A   1      40.887  22.677  26.311  1.00  0.00    -0.237 OA
ATOM     66  O   UNL A   1      42.981  22.363  25.046  1.00  0.00    -0.744 OA
ENDBRANCH  59  63
ENDBRANCH  42  56
BRANCH  43  67
ATOM     67  C   UNL A   1      39.212  32.396  35.060  1.00  0.00     0.023 A 
ATOM     68  C   UNL A   1      39.691  33.701  35.291  1.00  0.00     0.031 A 
ATOM     69  C   UNL A   1      38.368  31.838  36.040  1.00  0.00     0.131 A 
ATOM     70  C   UNL A   1      39.351  34.382  36.478  1.00  0.00     0.055 A 
ATOM     71  C   UNL A   1      37.989  32.538  37.188  1.00  0.00     0.041 A 
ATOM     72  F   UNL A   1      37.906  30.584  35.904  1.00  0.00    -0.206 F 
ATOM     73  C   UNL A   1      38.490  33.814  37.418  1.00  0.00     0.022 A 
BRANCH  70  74
ATOM     74  S   UNL A   1      40.119  35.992  36.831  1.00  0.00     0.124 S 
ATOM     75  O   UNL A   1      39.342  36.448  37.977  1.00  0.00    -0.237 OA
ATOM     76  O   UNL A   1      41.503  35.616  37.100  1.00  0.00    -0.237 OA
ATOM     77  O   UNL A   1      39.913  36.748  35.597  1.00  0.00    -0.744 OA
ENDBRANCH  70  74
ENDBRANCH  43  67
BRANCH  55  78
ATOM     78  C   UNL A   1      44.503  27.900  34.278  1.00  0.00     0.023 A 
ATOM     79  C   UNL A   1      44.376  26.776  35.112  1.00  0.00     0.031 A 
ATOM     80  C   UNL A   1      45.716  28.613  34.309  1.00  0.00     0.131 A 
ATOM     81  C   UNL A   1      45.425  26.427  35.979  1.00  0.00     0.055 A 
ATOM     82  C   UNL A   1      46.776  28.228  35.131  1.00  0.00     0.041 A 
ATOM     83  F   UNL A   1      45.893  29.692  33.530  1.00  0.00    -0.206 F 
ATOM     84  C   UNL A   1      46.630  27.135  35.980  1.00  0.00     0.022 A 
BRANCH  81  85
ATOM     85  S   UNL A   1      45.167  25.078  37.163  1.00  0.00     0.124 S 
ATOM     86  O   UNL A   1      46.505  24.900  37.718  1.00  0.00    -0.237 OA
ATOM     87  O   UNL A   1      44.171  25.641  38.069  1.00  0.00    -0.237 OA
ATOM     88  O   UNL A   1      44.690  23.975  36.329  1.00  0.00    -0.744 OA
ENDBRANCH  81  85
ENDBRANCH  55  78
ENDBRANCH  29  30
ENDBRANCH  22  24
ENDBRANCH  21  22
ENDBRANCH  20  21
ENDBRANCH   1  20
TORSDOF 19
ENDMDL
