MODEL 1
REMARK VINA RESULT:     -12.0      0.000      0.000
REMARK SMILES CC(C)[N@@H+](C)Cc1cc2c(cc1Cl)C=C(C(=O)OCCOC(=O)c1ccc(-c3c4nc(c(-c5cc(S(=O)(=O)[O-])ccc5F)c5ccc([nH]5)c(-c5cc(S(=O)(=O)[O-])ccc5F)c5nc(c(-c6cc(S(=O)(=O)[O-])ccc6F)c6ccc3[nH]6)C=C5)C=C4)cc1)[C@@H](C(F)(F)F)O2
REMARK SMILES IDX 19 1 18 2 16 3 17 4 15 5 7 6 8 7 12 8 9 9 11 10 13 11 10 12
REMARK SMILES IDX 92 13 14 14 87 15 6 16 4 17 5 18 2 20 1 21 3 22 88 23 89 24
REMARK SMILES IDX 90 25 91 26 20 27 21 28 22 29 23 30 24 31 25 32 86 33 26 34
REMARK SMILES IDX 85 35 27 36 28 37 29 38 79 39 30 40 84 41 78 42 80 43 31 44
REMARK SMILES IDX 83 45 77 46 76 47 32 49 64 50 44 51 63 52 45 53 48 54 62 55
REMARK SMILES IDX 81 56 46 57 47 58 61 60 82 61 49 62 33 63 34 64 42 65 35 66
REMARK SMILES IDX 41 67 43 68 40 69 36 70 37 71 38 72 39 73 65 74 66 75 74 76
REMARK SMILES IDX 67 77 73 78 75 79 72 80 68 81 69 82 70 83 71 84 50 85 51 86
REMARK SMILES IDX 59 87 52 88 58 89 60 90 57 91 53 92 54 93 55 94 56 95
REMARK H PARENT 4 19 80 48 48 59
REMARK Flexibility Score: inf
ROOT
ATOM      1  C   UNL A   1      35.273  21.427  24.665  1.00  0.00     0.275 C 
ENDROOT
BRANCH   1   2
ATOM      2  O   UNL A   1      35.388  22.866  24.731  1.00  0.00    -0.459 OA
BRANCH   2   3
ATOM      3  C   UNL A   1      34.641  23.454  25.691  1.00  0.00     0.338 C 
ATOM      4  O   UNL A   1      34.604  23.149  26.873  1.00  0.00    -0.246 OA
BRANCH   3   5
ATOM      5  C   UNL A   1      33.828  24.548  25.134  1.00  0.00     0.087 C 
ATOM      6  C   UNL A   1      31.200  28.806  24.612  1.00  0.00     0.029 A 
ATOM      7  C   UNL A   1      31.157  27.530  24.011  1.00  0.00     0.058 A 
ATOM      8  C   UNL A   1      32.113  29.010  25.660  1.00  0.00     0.050 A 
ATOM      9  C   UNL A   1      32.069  26.536  24.348  1.00  0.00     0.128 A 
ATOM     10  C   UNL A   1      33.028  28.014  26.000  1.00  0.00     0.033 A 
ATOM     11  Cl  UNL A   1      32.171  30.464  26.589  1.00  0.00    -0.084 Cl
ATOM     12  C   UNL A   1      33.016  26.788  25.329  1.00  0.00     0.019 A 
ATOM     13  O   UNL A   1      31.990  25.363  23.652  1.00  0.00    -0.475 OA
ATOM     14  C   UNL A   1      33.957  25.755  25.693  1.00  0.00     0.027 C 
ATOM     15  C   UNL A   1      32.788  24.229  24.102  1.00  0.00     0.316 C 
BRANCH   6  16
ATOM     16  C   UNL A   1      30.292  29.901  24.093  1.00  0.00     0.300 C 
BRANCH  16  17
ATOM     17  N   UNL A   1      29.496  29.601  22.890  1.00  0.00    -0.332 N 
ATOM     18  C   UNL A   1      30.173  29.854  21.627  1.00  0.00     0.333 C 
ATOM     19  H   UNL A   1      29.431  28.589  22.998  1.00  0.00     0.348 HD
BRANCH  17  20
ATOM     20  C   UNL A   1      28.073  29.988  22.866  1.00  0.00     0.177 C 
ATOM     21  C   UNL A   1      27.149  28.785  23.080  1.00  0.00     0.075 C 
ATOM     22  C   UNL A   1      27.653  31.147  23.779  1.00  0.00     0.075 C 
ENDBRANCH  17  20
ENDBRANCH  16  17
ENDBRANCH   6  16
BRANCH  15  23
ATOM     23  C   UNL A   1      31.839  23.117  24.569  1.00  0.00     0.430 C 
ATOM     24  F   UNL A   1      31.641  23.175  25.910  1.00  0.00    -0.167 F 
ATOM     25  F   UNL A   1      30.614  23.233  23.999  1.00  0.00    -0.167 F 
ATOM     26  F   UNL A   1      32.307  21.883  24.283  1.00  0.00    -0.167 F 
ENDBRANCH  15  23
ENDBRANCH   3   5
ENDBRANCH   2   3
ENDBRANCH   1   2
BRANCH   1  27
ATOM     27  C   UNL A   1      36.540  20.736  25.170  1.00  0.00     0.275 C 
BRANCH  27  28
ATOM     28  O   UNL A   1      37.681  21.601  25.039  1.00  0.00    -0.458 OA
BRANCH  28  29
ATOM     29  C   UNL A   1      38.763  21.240  25.766  1.00  0.00     0.338 C 
ATOM     30  O   UNL A   1      39.272  20.136  25.834  1.00  0.00    -0.246 OA
BRANCH  29  31
ATOM     31  C   UNL A   1      39.325  22.424  26.432  1.00  0.00     0.060 A 
ATOM     32  C   UNL A   1      40.434  22.326  27.264  1.00  0.00     0.016 A 
ATOM     33  C   UNL A   1      38.820  23.672  26.089  1.00  0.00     0.016 A 
ATOM     34  C   UNL A   1      41.021  23.499  27.756  1.00  0.00     0.010 A 
ATOM     35  C   UNL A   1      39.508  24.828  26.433  1.00  0.00     0.010 A 
ATOM     36  C   UNL A   1      40.593  24.767  27.312  1.00  0.00    -0.014 A 
BRANCH  36  37
ATOM     37  C   UNL A   1      41.246  26.032  27.760  1.00  0.00     0.031 A 
ATOM     38  C   UNL A   1      42.673  26.342  27.362  1.00  0.00     0.074 A 
ATOM     39  C   UNL A   1      40.584  26.874  28.581  1.00  0.00     0.049 A 
ATOM     40  N   UNL A   1      43.422  27.359  27.703  1.00  0.00    -0.248 NA
ATOM     41  C   UNL A   1      43.369  25.360  26.511  1.00  0.00     0.031 C 
ATOM     42  C   UNL A   1      39.241  26.642  29.116  1.00  0.00     0.029 A 
ATOM     43  N   UNL A   1      40.940  28.092  29.109  1.00  0.00    -0.354 N 
ATOM     44  C   UNL A   1      44.672  27.121  27.137  1.00  0.00     0.074 A 
ATOM     45  C   UNL A   1      44.609  25.826  26.505  1.00  0.00     0.031 C 
ATOM     46  C   UNL A   1      38.862  27.708  29.835  1.00  0.00     0.029 A 
ATOM     47  C   UNL A   1      39.952  28.678  29.869  1.00  0.00     0.049 A 
ATOM     48  H   UNL A   1      41.821  28.507  28.958  1.00  0.00     0.167 HD
ATOM     49  C   UNL A   1      45.758  27.928  27.102  1.00  0.00     0.034 A 
ATOM     50  C   UNL A   1      39.920  29.863  30.516  1.00  0.00     0.034 A 
ATOM     51  C   UNL A   1      45.777  29.249  27.670  1.00  0.00     0.049 A 
ATOM     52  C   UNL A   1      41.119  30.773  30.419  1.00  0.00     0.074 A 
ATOM     53  C   UNL A   1      46.789  30.189  27.605  1.00  0.00     0.029 A 
ATOM     54  N   UNL A   1      44.738  29.824  28.387  1.00  0.00    -0.354 N 
ATOM     55  N   UNL A   1      42.252  30.574  29.786  1.00  0.00    -0.248 NA
ATOM     56  C   UNL A   1      41.041  32.070  31.107  1.00  0.00     0.031 C 
ATOM     57  C   UNL A   1      46.387  31.308  28.333  1.00  0.00     0.029 A 
ATOM     58  C   UNL A   1      45.094  31.100  28.787  1.00  0.00     0.049 A 
ATOM     59  H   UNL A   1      43.876  29.390  28.582  1.00  0.00     0.167 HD
ATOM     60  C   UNL A   1      43.008  31.727  29.977  1.00  0.00     0.074 A 
ATOM     61  C   UNL A   1      42.197  32.628  30.768  1.00  0.00     0.031 C 
ATOM     62  C   UNL A   1      44.261  32.006  29.542  1.00  0.00     0.034 A 
BRANCH  49  63
ATOM     63  C   UNL A   1      46.999  27.461  26.377  1.00  0.00     0.023 A 
ATOM     64  C   UNL A   1      47.206  27.810  25.028  1.00  0.00     0.031 A 
ATOM     65  C   UNL A   1      47.898  26.554  26.968  1.00  0.00     0.131 A 
ATOM     66  C   UNL A   1      48.258  27.229  24.309  1.00  0.00     0.055 A 
ATOM     67  C   UNL A   1      48.976  26.019  26.263  1.00  0.00     0.041 A 
ATOM     68  F   UNL A   1      47.744  26.176  28.248  1.00  0.00    -0.206 F 
ATOM     69  C   UNL A   1      49.151  26.344  24.922  1.00  0.00     0.022 A 
BRANCH  66  70
ATOM     70  S   UNL A   1      48.465  27.530  22.532  1.00  0.00     0.124 S 
ATOM     71  O   UNL A   1      47.247  28.270  22.209  1.00  0.00    -0.237 OA
ATOM     72  O   UNL A   1      49.697  28.313  22.498  1.00  0.00    -0.237 OA
ATOM     73  O   UNL A   1      48.550  26.192  21.956  1.00  0.00    -0.744 OA
ENDBRANCH  66  70
ENDBRANCH  49  63
BRANCH  50  74
ATOM     74  C   UNL A   1      38.667  30.271  31.222  1.00  0.00     0.023 A 
ATOM     75  C   UNL A   1      37.614  30.902  30.533  1.00  0.00     0.031 A 
ATOM     76  C   UNL A   1      38.564  30.158  32.619  1.00  0.00     0.131 A 
ATOM     77  C   UNL A   1      36.548  31.463  31.249  1.00  0.00     0.055 A 
ATOM     78  C   UNL A   1      37.462  30.650  33.321  1.00  0.00     0.041 A 
ATOM     79  F   UNL A   1      39.549  29.581  33.325  1.00  0.00    -0.206 F 
ATOM     80  C   UNL A   1      36.456  31.325  32.638  1.00  0.00     0.022 A 
BRANCH  77  81
ATOM     81  S   UNL A   1      35.325  32.521  30.425  1.00  0.00     0.124 S 
ATOM     82  O   UNL A   1      36.102  33.723  30.143  1.00  0.00    -0.237 OA
ATOM     83  O   UNL A   1      34.968  31.713  29.261  1.00  0.00    -0.237 OA
ATOM     84  O   UNL A   1      34.269  32.669  31.422  1.00  0.00    -0.744 OA
ENDBRANCH  77  81
ENDBRANCH  50  74
BRANCH  62  85
ATOM     85  C   UNL A   1      44.872  33.347  29.870  1.00  0.00     0.023 A 
ATOM     86  C   UNL A   1      44.702  34.424  28.977  1.00  0.00     0.031 A 
ATOM     87  C   UNL A   1      45.787  33.490  30.924  1.00  0.00     0.131 A 
ATOM     88  C   UNL A   1      45.490  35.572  29.115  1.00  0.00     0.055 A 
ATOM     89  C   UNL A   1      46.532  34.660  31.089  1.00  0.00     0.041 A 
ATOM     90  F   UNL A   1      45.992  32.486  31.791  1.00  0.00    -0.206 F 
ATOM     91  C   UNL A   1      46.401  35.698  30.169  1.00  0.00     0.022 A 
BRANCH  88  92
ATOM     92  S   UNL A   1      45.450  36.887  27.865  1.00  0.00     0.124 S 
ATOM     93  O   UNL A   1      44.432  37.785  28.406  1.00  0.00    -0.237 OA
ATOM     94  O   UNL A   1      46.818  37.394  27.911  1.00  0.00    -0.237 OA
ATOM     95  O   UNL A   1      45.076  36.195  26.637  1.00  0.00    -0.744 OA
ENDBRANCH  88  92
ENDBRANCH  62  85
ENDBRANCH  36  37
ENDBRANCH  29  31
ENDBRANCH  28  29
ENDBRANCH  27  28
ENDBRANCH   1  27
TORSDOF 18
ENDMDL
MODEL 2
REMARK VINA RESULT:     -12.0      5.176     10.194
REMARK SMILES CC(C)[N@@H+](C)Cc1cc2c(cc1Cl)C=C(C(=O)OCCOC(=O)c1ccc(-c3c4nc(c(-c5cc(S(=O)(=O)[O-])ccc5F)c5ccc([nH]5)c(-c5cc(S(=O)(=O)[O-])ccc5F)c5nc(c(-c6cc(S(=O)(=O)[O-])ccc6F)c6ccc3[nH]6)C=C5)C=C4)cc1)[C@@H](C(F)(F)F)O2
REMARK SMILES IDX 19 1 18 2 16 3 17 4 15 5 7 6 8 7 12 8 9 9 11 10 13 11 10 12
REMARK SMILES IDX 92 13 14 14 87 15 6 16 4 17 5 18 2 20 1 21 3 22 88 23 89 24
REMARK SMILES IDX 90 25 91 26 20 27 21 28 22 29 23 30 24 31 25 32 86 33 26 34
REMARK SMILES IDX 85 35 27 36 28 37 29 38 79 39 30 40 84 41 78 42 80 43 31 44
REMARK SMILES IDX 83 45 77 46 76 47 32 49 64 50 44 51 63 52 45 53 48 54 62 55
REMARK SMILES IDX 81 56 46 57 47 58 61 60 82 61 49 62 33 63 34 64 42 65 35 66
REMARK SMILES IDX 41 67 43 68 40 69 36 70 37 71 38 72 39 73 65 74 66 75 74 76
REMARK SMILES IDX 67 77 73 78 75 79 72 80 68 81 69 82 70 83 71 84 50 85 51 86
REMARK SMILES IDX 59 87 52 88 58 89 60 90 57 91 53 92 54 93 55 94 56 95
REMARK H PARENT 4 19 80 48 48 59
REMARK Flexibility Score: inf
ROOT
ATOM      1  C   UNL A   1      31.913  28.332  26.912  1.00  0.00     0.275 C 
ENDROOT
BRANCH   1   2
ATOM      2  O   UNL A   1      31.440  27.573  25.777  1.00  0.00    -0.459 OA
BRANCH   2   3
ATOM      3  C   UNL A   1      32.408  27.122  24.949  1.00  0.00     0.338 C 
ATOM      4  O   UNL A   1      33.102  27.799  24.206  1.00  0.00    -0.246 OA
BRANCH   3   5
ATOM      5  C   UNL A   1      32.537  25.658  25.032  1.00  0.00     0.087 C 
ATOM      6  C   UNL A   1      34.290  20.954  24.690  1.00  0.00     0.029 A 
ATOM      7  C   UNL A   1      33.007  21.541  24.679  1.00  0.00     0.058 A 
ATOM      8  C   UNL A   1      35.404  21.809  24.734  1.00  0.00     0.050 A 
ATOM      9  C   UNL A   1      32.832  22.912  24.835  1.00  0.00     0.128 A 
ATOM     10  C   UNL A   1      35.232  23.184  24.891  1.00  0.00     0.033 A 
ATOM     11  Cl  UNL A   1      37.030  21.244  24.597  1.00  0.00    -0.084 Cl
ATOM     12  C   UNL A   1      33.946  23.728  24.961  1.00  0.00     0.019 A 
ATOM     13  O   UNL A   1      31.545  23.369  24.889  1.00  0.00    -0.475 OA
ATOM     14  C   UNL A   1      33.772  25.154  25.111  1.00  0.00     0.027 C 
ATOM     15  C   UNL A   1      31.314  24.808  24.853  1.00  0.00     0.316 C 
BRANCH   6  16
ATOM     16  C   UNL A   1      34.416  19.446  24.680  1.00  0.00     0.300 C 
BRANCH  16  17
ATOM     17  N   UNL A   1      33.165  18.667  24.645  1.00  0.00    -0.332 N 
ATOM     18  C   UNL A   1      32.725  18.154  25.934  1.00  0.00     0.333 C 
ATOM     19  H   UNL A   1      32.524  19.417  24.387  1.00  0.00     0.348 HD
BRANCH  17  20
ATOM     20  C   UNL A   1      32.956  17.708  23.544  1.00  0.00     0.177 C 
ATOM     21  C   UNL A   1      32.313  18.372  22.322  1.00  0.00     0.075 C 
ATOM     22  C   UNL A   1      34.166  16.868  23.116  1.00  0.00     0.075 C 
ENDBRANCH  17  20
ENDBRANCH  16  17
ENDBRANCH   6  16
BRANCH  15  23
ATOM     23  C   UNL A   1      30.562  25.150  23.559  1.00  0.00     0.430 C 
ATOM     24  F   UNL A   1      31.416  25.583  22.598  1.00  0.00    -0.167 F 
ATOM     25  F   UNL A   1      29.931  24.066  23.046  1.00  0.00    -0.167 F 
ATOM     26  F   UNL A   1      29.635  26.116  23.740  1.00  0.00    -0.167 F 
ENDBRANCH  15  23
ENDBRANCH   3   5
ENDBRANCH   2   3
ENDBRANCH   1   2
BRANCH   1  27
ATOM     27  C   UNL A   1      31.726  29.835  26.702  1.00  0.00     0.275 C 
BRANCH  27  28
ATOM     28  O   UNL A   1      32.961  30.452  26.300  1.00  0.00    -0.458 OA
BRANCH  28  29
ATOM     29  C   UNL A   1      33.374  31.475  27.081  1.00  0.00     0.338 C 
ATOM     30  O   UNL A   1      32.757  32.489  27.358  1.00  0.00    -0.246 OA
BRANCH  29  31
ATOM     31  C   UNL A   1      34.692  31.160  27.649  1.00  0.00     0.060 A 
ATOM     32  C   UNL A   1      35.606  32.162  27.952  1.00  0.00     0.016 A 
ATOM     33  C   UNL A   1      34.948  29.847  28.025  1.00  0.00     0.016 A 
ATOM     34  C   UNL A   1      36.786  31.824  28.628  1.00  0.00     0.010 A 
ATOM     35  C   UNL A   1      36.028  29.548  28.845  1.00  0.00     0.010 A 
ATOM     36  C   UNL A   1      36.993  30.519  29.123  1.00  0.00    -0.014 A 
BRANCH  36  37
ATOM     37  C   UNL A   1      38.205  30.147  29.909  1.00  0.00     0.031 A 
ATOM     38  C   UNL A   1      38.408  30.687  31.308  1.00  0.00     0.074 A 
ATOM     39  C   UNL A   1      39.159  29.376  29.347  1.00  0.00     0.049 A 
ATOM     40  N   UNL A   1      39.422  30.521  32.118  1.00  0.00    -0.248 NA
ATOM     41  C   UNL A   1      37.361  31.571  31.854  1.00  0.00     0.031 C 
ATOM     42  C   UNL A   1      39.129  28.873  27.972  1.00  0.00     0.029 A 
ATOM     43  N   UNL A   1      40.336  28.877  29.851  1.00  0.00    -0.354 N 
ATOM     44  C   UNL A   1      39.147  31.297  33.241  1.00  0.00     0.074 A 
ATOM     45  C   UNL A   1      37.917  32.002  32.975  1.00  0.00     0.031 C 
ATOM     46  C   UNL A   1      40.194  28.085  27.767  1.00  0.00     0.029 A 
ATOM     47  C   UNL A   1      41.021  28.071  28.969  1.00  0.00     0.049 A 
ATOM     48  H   UNL A   1      40.660  29.078  30.760  1.00  0.00     0.167 HD
ATOM     49  C   UNL A   1      39.828  31.376  34.408  1.00  0.00     0.034 A 
ATOM     50  C   UNL A   1      42.179  27.391  29.110  1.00  0.00     0.034 A 
ATOM     51  C   UNL A   1      41.011  30.606  34.685  1.00  0.00     0.049 A 
ATOM     52  C   UNL A   1      42.896  27.448  30.437  1.00  0.00     0.074 A 
ATOM     53  C   UNL A   1      41.723  30.535  35.868  1.00  0.00     0.029 A 
ATOM     54  N   UNL A   1      41.643  29.763  33.782  1.00  0.00    -0.354 N 
ATOM     55  N   UNL A   1      42.560  28.103  31.523  1.00  0.00    -0.248 NA
ATOM     56  C   UNL A   1      44.137  26.671  30.568  1.00  0.00     0.031 C 
ATOM     57  C   UNL A   1      42.819  29.698  35.663  1.00  0.00     0.029 A 
ATOM     58  C   UNL A   1      42.748  29.183  34.378  1.00  0.00     0.049 A 
ATOM     59  H   UNL A   1      41.349  29.601  32.856  1.00  0.00     0.167 HD
ATOM     60  C   UNL A   1      43.530  27.797  32.473  1.00  0.00     0.074 A 
ATOM     61  C   UNL A   1      44.456  26.882  31.840  1.00  0.00     0.031 C 
ATOM     62  C   UNL A   1      43.643  28.240  33.749  1.00  0.00     0.034 A 
BRANCH  49  63
ATOM     63  C   UNL A   1      39.299  32.265  35.511  1.00  0.00     0.023 A 
ATOM     64  C   UNL A   1      39.749  33.594  35.627  1.00  0.00     0.031 A 
ATOM     65  C   UNL A   1      38.468  31.759  36.528  1.00  0.00     0.131 A 
ATOM     66  C   UNL A   1      39.398  34.355  36.750  1.00  0.00     0.055 A 
ATOM     67  C   UNL A   1      38.078  32.538  37.617  1.00  0.00     0.041 A 
ATOM     68  F   UNL A   1      38.018  30.494  36.475  1.00  0.00    -0.206 F 
ATOM     69  C   UNL A   1      38.557  33.838  37.739  1.00  0.00     0.022 A 
BRANCH  66  70
ATOM     70  S   UNL A   1      40.083  36.014  37.015  1.00  0.00     0.124 S 
ATOM     71  O   UNL A   1      39.799  36.664  35.737  1.00  0.00    -0.237 OA
ATOM     72  O   UNL A   1      39.292  36.492  38.146  1.00  0.00    -0.237 OA
ATOM     73  O   UNL A   1      41.496  35.773  37.288  1.00  0.00    -0.744 OA
ENDBRANCH  66  70
ENDBRANCH  49  63
BRANCH  50  74
ATOM     74  C   UNL A   1      42.659  26.533  27.984  1.00  0.00     0.023 A 
ATOM     75  C   UNL A   1      42.301  25.174  27.899  1.00  0.00     0.031 A 
ATOM     76  C   UNL A   1      43.590  27.027  27.054  1.00  0.00     0.131 A 
ATOM     77  C   UNL A   1      42.929  24.343  26.961  1.00  0.00     0.055 A 
ATOM     78  C   UNL A   1      44.156  26.212  26.071  1.00  0.00     0.041 A 
ATOM     79  F   UNL A   1      43.978  28.310  27.103  1.00  0.00    -0.206 F 
ATOM     80  C   UNL A   1      43.841  24.858  26.034  1.00  0.00     0.022 A 
BRANCH  77  81
ATOM     81  S   UNL A   1      42.702  22.543  27.010  1.00  0.00     0.124 S 
ATOM     82  O   UNL A   1      41.455  22.372  26.274  1.00  0.00    -0.237 OA
ATOM     83  O   UNL A   1      43.907  22.073  26.328  1.00  0.00    -0.237 OA
ATOM     84  O   UNL A   1      42.642  22.242  28.436  1.00  0.00    -0.744 OA
ENDBRANCH  77  81
ENDBRANCH  50  74
BRANCH  62  85
ATOM     85  C   UNL A   1      44.791  27.751  34.599  1.00  0.00     0.023 A 
ATOM     86  C   UNL A   1      44.640  26.569  35.352  1.00  0.00     0.031 A 
ATOM     87  C   UNL A   1      45.917  28.553  34.833  1.00  0.00     0.131 A 
ATOM     88  C   UNL A   1      45.567  26.261  36.355  1.00  0.00     0.055 A 
ATOM     89  C   UNL A   1      46.869  28.213  35.796  1.00  0.00     0.041 A 
ATOM     90  F   UNL A   1      46.096  29.694  34.149  1.00  0.00    -0.206 F 
ATOM     91  C   UNL A   1      46.684  27.074  36.577  1.00  0.00     0.022 A 
BRANCH  88  92
ATOM     92  S   UNL A   1      45.293  24.866  37.482  1.00  0.00     0.124 S 
ATOM     93  O   UNL A   1      46.660  24.501  37.847  1.00  0.00    -0.237 OA
ATOM     94  O   UNL A   1      44.507  25.482  38.546  1.00  0.00    -0.237 OA
ATOM     95  O   UNL A   1      44.587  23.885  36.665  1.00  0.00    -0.744 OA
ENDBRANCH  88  92
ENDBRANCH  62  85
ENDBRANCH  36  37
ENDBRANCH  29  31
ENDBRANCH  28  29
ENDBRANCH  27  28
ENDBRANCH   1  27
TORSDOF 18
ENDMDL
MODEL 3
REMARK VINA RESULT:     -12.0      5.061     10.123
REMARK SMILES CC(C)[N@@H+](C)Cc1cc2c(cc1Cl)C=C(C(=O)OCCOC(=O)c1ccc(-c3c4nc(c(-c5cc(S(=O)(=O)[O-])ccc5F)c5ccc([nH]5)c(-c5cc(S(=O)(=O)[O-])ccc5F)c5nc(c(-c6cc(S(=O)(=O)[O-])ccc6F)c6ccc3[nH]6)C=C5)C=C4)cc1)[C@@H](C(F)(F)F)O2
REMARK SMILES IDX 19 1 18 2 16 3 17 4 15 5 7 6 8 7 12 8 9 9 11 10 13 11 10 12
REMARK SMILES IDX 92 13 14 14 87 15 6 16 4 17 5 18 2 20 1 21 3 22 88 23 89 24
REMARK SMILES IDX 90 25 91 26 20 27 21 28 22 29 23 30 24 31 25 32 86 33 26 34
REMARK SMILES IDX 85 35 27 36 28 37 29 38 79 39 30 40 84 41 78 42 80 43 31 44
REMARK SMILES IDX 83 45 77 46 76 47 32 49 64 50 44 51 63 52 45 53 48 54 62 55
REMARK SMILES IDX 81 56 46 57 47 58 61 60 82 61 49 62 33 63 34 64 42 65 35 66
REMARK SMILES IDX 41 67 43 68 40 69 36 70 37 71 38 72 39 73 65 74 66 75 74 76
REMARK SMILES IDX 67 77 73 78 75 79 72 80 68 81 69 82 70 83 71 84 50 85 51 86
REMARK SMILES IDX 59 87 52 88 58 89 60 90 57 91 53 92 54 93 55 94 56 95
REMARK H PARENT 4 19 80 48 48 59
REMARK Flexibility Score: inf
ROOT
ATOM      1  C   UNL A   1      31.623  28.939  25.448  1.00  0.00     0.275 C 
ENDROOT
BRANCH   1   2
ATOM      2  O   UNL A   1      32.471  27.812  25.761  1.00  0.00    -0.459 OA
BRANCH   2   3
ATOM      3  C   UNL A   1      33.027  27.202  24.691  1.00  0.00     0.338 C 
ATOM      4  O   UNL A   1      33.441  27.745  23.679  1.00  0.00    -0.246 OA
BRANCH   3   5
ATOM      5  C   UNL A   1      33.073  25.743  24.877  1.00  0.00     0.087 C 
ATOM      6  C   UNL A   1      34.540  20.930  24.844  1.00  0.00     0.029 A 
ATOM      7  C   UNL A   1      33.293  21.591  24.816  1.00  0.00     0.058 A 
ATOM      8  C   UNL A   1      35.703  21.717  24.804  1.00  0.00     0.050 A 
ATOM      9  C   UNL A   1      33.203  22.977  24.875  1.00  0.00     0.128 A 
ATOM     10  C   UNL A   1      35.615  23.108  24.863  1.00  0.00     0.033 A 
ATOM     11  Cl  UNL A   1      37.289  21.048  24.676  1.00  0.00    -0.084 Cl
ATOM     12  C   UNL A   1      34.365  23.732  24.919  1.00  0.00     0.019 A 
ATOM     13  O   UNL A   1      31.946  23.513  24.921  1.00  0.00    -0.475 OA
ATOM     14  C   UNL A   1      34.278  25.172  24.969  1.00  0.00     0.027 C 
ATOM     15  C   UNL A   1      31.799  24.957  24.785  1.00  0.00     0.316 C 
BRANCH   6  16
ATOM     16  C   UNL A   1      34.577  19.420  24.941  1.00  0.00     0.300 C 
BRANCH  16  17
ATOM     17  N   UNL A   1      33.400  18.685  24.446  1.00  0.00    -0.332 N 
ATOM     18  C   UNL A   1      32.656  17.960  25.466  1.00  0.00     0.333 C 
ATOM     19  H   UNL A   1      32.827  19.482  24.168  1.00  0.00     0.348 HD
BRANCH  17  20
ATOM     20  C   UNL A   1      33.509  17.941  23.178  1.00  0.00     0.177 C 
ATOM     21  C   UNL A   1      33.922  16.483  23.403  1.00  0.00     0.075 C 
ATOM     22  C   UNL A   1      32.307  18.010  22.227  1.00  0.00     0.075 C 
ENDBRANCH  17  20
ENDBRANCH  16  17
ENDBRANCH   6  16
BRANCH  15  23
ATOM     23  C   UNL A   1      31.037  25.250  23.485  1.00  0.00     0.430 C 
ATOM     24  F   UNL A   1      30.361  26.423  23.569  1.00  0.00    -0.167 F 
ATOM     25  F   UNL A   1      31.878  25.371  22.429  1.00  0.00    -0.167 F 
ATOM     26  F   UNL A   1      30.138  24.287  23.184  1.00  0.00    -0.167 F 
ENDBRANCH  15  23
ENDBRANCH   3   5
ENDBRANCH   2   3
ENDBRANCH   1   2
BRANCH   1  27
ATOM     27  C   UNL A   1      32.322  30.269  25.736  1.00  0.00     0.275 C 
BRANCH  27  28
ATOM     28  O   UNL A   1      32.775  30.323  27.099  1.00  0.00    -0.458 OA
BRANCH  28  29
ATOM     29  C   UNL A   1      33.478  31.430  27.428  1.00  0.00     0.338 C 
ATOM     30  O   UNL A   1      33.073  32.579  27.464  1.00  0.00    -0.246 OA
BRANCH  29  31
ATOM     31  C   UNL A   1      34.837  31.047  27.835  1.00  0.00     0.060 A 
ATOM     32  C   UNL A   1      35.826  32.002  28.041  1.00  0.00     0.016 A 
ATOM     33  C   UNL A   1      35.073  29.719  28.166  1.00  0.00     0.016 A 
ATOM     34  C   UNL A   1      37.059  31.602  28.571  1.00  0.00     0.010 A 
ATOM     35  C   UNL A   1      36.226  29.359  28.853  1.00  0.00     0.010 A 
ATOM     36  C   UNL A   1      37.260  30.281  29.026  1.00  0.00    -0.014 A 
BRANCH  36  37
ATOM     37  C   UNL A   1      38.537  29.842  29.662  1.00  0.00     0.031 A 
ATOM     38  C   UNL A   1      38.937  30.373  31.022  1.00  0.00     0.074 A 
ATOM     39  C   UNL A   1      39.371  29.018  28.995  1.00  0.00     0.049 A 
ATOM     40  N   UNL A   1      40.032  30.151  31.704  1.00  0.00    -0.248 NA
ATOM     41  C   UNL A   1      38.016  31.315  31.683  1.00  0.00     0.031 C 
ATOM     42  C   UNL A   1      39.146  28.516  27.638  1.00  0.00     0.029 A 
ATOM     43  N   UNL A   1      40.571  28.456  29.357  1.00  0.00    -0.354 N 
ATOM     44  C   UNL A   1      39.939  30.943  32.846  1.00  0.00     0.074 A 
ATOM     45  C   UNL A   1      38.727  31.716  32.725  1.00  0.00     0.031 C 
ATOM     46  C   UNL A   1      40.133  27.670  27.312  1.00  0.00     0.029 A 
ATOM     47  C   UNL A   1      41.098  27.611  28.405  1.00  0.00     0.049 A 
ATOM     48  H   UNL A   1      41.014  28.639  30.218  1.00  0.00     0.167 HD
ATOM     49  C   UNL A   1      40.761  30.986  33.921  1.00  0.00     0.034 A 
ATOM     50  C   UNL A   1      42.225  26.867  28.410  1.00  0.00     0.034 A 
ATOM     51  C   UNL A   1      41.923  30.151  34.059  1.00  0.00     0.049 A 
ATOM     52  C   UNL A   1      43.100  26.886  29.639  1.00  0.00     0.074 A 
ATOM     53  C   UNL A   1      42.769  30.042  35.147  1.00  0.00     0.029 A 
ATOM     54  N   UNL A   1      42.393  29.273  33.093  1.00  0.00    -0.354 N 
ATOM     55  N   UNL A   1      42.935  27.560  30.753  1.00  0.00    -0.248 NA
ATOM     56  C   UNL A   1      44.302  26.041  29.626  1.00  0.00     0.031 C 
ATOM     57  C   UNL A   1      43.784  29.145  34.818  1.00  0.00     0.029 A 
ATOM     58  C   UNL A   1      43.529  28.633  33.555  1.00  0.00     0.049 A 
ATOM     59  H   UNL A   1      41.980  29.127  32.211  1.00  0.00     0.167 HD
ATOM     60  C   UNL A   1      43.995  27.202  31.581  1.00  0.00     0.074 A 
ATOM     61  C   UNL A   1      44.785  26.235  30.848  1.00  0.00     0.031 C 
ATOM     62  C   UNL A   1      44.288  27.640  32.830  1.00  0.00     0.034 A 
BRANCH  49  63
ATOM     63  C   UNL A   1      40.419  31.905  35.072  1.00  0.00     0.023 A 
ATOM     64  C   UNL A   1      39.445  31.525  36.015  1.00  0.00     0.031 A 
ATOM     65  C   UNL A   1      40.944  33.208  35.153  1.00  0.00     0.131 A 
ATOM     66  C   UNL A   1      39.001  32.449  36.971  1.00  0.00     0.055 A 
ATOM     67  C   UNL A   1      40.537  34.106  36.140  1.00  0.00     0.041 A 
ATOM     68  F   UNL A   1      41.867  33.628  34.273  1.00  0.00    -0.206 F 
ATOM     69  C   UNL A   1      39.549  33.733  37.045  1.00  0.00     0.022 A 
BRANCH  66  70
ATOM     70  S   UNL A   1      37.639  32.053  38.102  1.00  0.00     0.124 S 
ATOM     71  O   UNL A   1      38.278  32.205  39.407  1.00  0.00    -0.237 OA
ATOM     72  O   UNL A   1      36.656  33.080  37.767  1.00  0.00    -0.237 OA
ATOM     73  O   UNL A   1      37.272  30.686  37.747  1.00  0.00    -0.744 OA
ENDBRANCH  66  70
ENDBRANCH  49  63
BRANCH  50  74
ATOM     74  C   UNL A   1      42.516  25.982  27.241  1.00  0.00     0.023 A 
ATOM     75  C   UNL A   1      42.057  24.651  27.202  1.00  0.00     0.031 A 
ATOM     76  C   UNL A   1      43.370  26.413  26.212  1.00  0.00     0.131 A 
ATOM     77  C   UNL A   1      42.518  23.783  26.203  1.00  0.00     0.055 A 
ATOM     78  C   UNL A   1      43.765  25.565  25.175  1.00  0.00     0.041 A 
ATOM     79  F   UNL A   1      43.850  27.666  26.212  1.00  0.00    -0.206 F 
ATOM     80  C   UNL A   1      43.355  24.236  25.179  1.00  0.00     0.022 A 
BRANCH  77  81
ATOM     81  S   UNL A   1      42.173  22.002  26.285  1.00  0.00     0.124 S 
ATOM     82  O   UNL A   1      40.737  21.958  26.035  1.00  0.00    -0.237 OA
ATOM     83  O   UNL A   1      43.017  21.486  25.209  1.00  0.00    -0.237 OA
ATOM     84  O   UNL A   1      42.594  21.631  27.632  1.00  0.00    -0.744 OA
ENDBRANCH  77  81
ENDBRANCH  50  74
BRANCH  62  85
ATOM     85  C   UNL A   1      45.501  27.088  33.538  1.00  0.00     0.023 A 
ATOM     86  C   UNL A   1      45.386  25.897  34.283  1.00  0.00     0.031 A 
ATOM     87  C   UNL A   1      46.678  27.842  33.659  1.00  0.00     0.131 A 
ATOM     88  C   UNL A   1      46.405  25.532  35.171  1.00  0.00     0.055 A 
ATOM     89  C   UNL A   1      47.715  27.444  34.505  1.00  0.00     0.041 A 
ATOM     90  F   UNL A   1      46.826  28.990  32.980  1.00  0.00    -0.206 F 
ATOM     91  C   UNL A   1      47.571  26.296  35.282  1.00  0.00     0.022 A 
BRANCH  88  92
ATOM     92  S   UNL A   1      46.201  24.124  36.297  1.00  0.00     0.124 S 
ATOM     93  O   UNL A   1      47.177  24.429  37.340  1.00  0.00    -0.237 OA
ATOM     94  O   UNL A   1      44.802  24.252  36.695  1.00  0.00    -0.237 OA
ATOM     95  O   UNL A   1      46.517  22.964  35.472  1.00  0.00    -0.744 OA
ENDBRANCH  88  92
ENDBRANCH  62  85
ENDBRANCH  36  37
ENDBRANCH  29  31
ENDBRANCH  28  29
ENDBRANCH  27  28
ENDBRANCH   1  27
TORSDOF 18
ENDMDL
