MODEL 1
REMARK VINA RESULT:     -11.9      0.000      0.000
REMARK SMILES COc1cccc(C(=O)Nc2cccc(C(=O)OCCOC(=O)c3ccc(-c4c5nc(c(-c6cc(S(=O)(=O)[O-])ccc6F)c6ccc([nH]6)c(-c6cc(S(=O)(=O)[O-])ccc6F)c6nc(c(-c7cc(S(=O)(=O)[O-])ccc7F)c7ccc4[nH]7)C=C6)C=C5)cc3)c2C)c1
REMARK SMILES IDX 19 1 18 2 16 3 17 4 15 5 11 6 12 7 87 8 13 9 88 10 14 11
REMARK SMILES IDX 10 12 8 13 9 14 7 16 3 17 4 18 89 19 5 20 6 21 2 22 1 23
REMARK SMILES IDX 20 24 21 25 22 26 23 27 24 28 25 29 86 30 26 31 85 32 27 33
REMARK SMILES IDX 28 34 29 35 79 36 30 37 84 38 78 39 80 40 31 41 83 42 77 43
REMARK SMILES IDX 76 44 32 46 64 47 44 48 63 49 45 50 48 51 62 52 81 53 46 54
REMARK SMILES IDX 47 55 61 57 82 58 49 59 33 60 34 61 42 62 35 63 41 64 43 65
REMARK SMILES IDX 40 66 36 67 37 68 38 69 39 70 65 71 66 72 74 73 67 74 73 75
REMARK SMILES IDX 75 76 72 77 68 78 69 79 70 80 71 81 50 82 51 83 59 84 52 85
REMARK SMILES IDX 58 86 60 87 57 88 53 89 54 90 55 91 56 92
REMARK H PARENT 10 15 80 45 48 56
REMARK Flexibility Score: inf
ROOT
ATOM      1  C   UNL A   1      35.148  21.098  25.494  1.00  0.00     0.275 C 
ENDROOT
BRANCH   1   2
ATOM      2  O   UNL A   1      34.199  21.171  24.412  1.00  0.00    -0.458 OA
BRANCH   2   3
ATOM      3  C   UNL A   1      33.920  22.423  23.982  1.00  0.00     0.338 C 
ATOM      4  O   UNL A   1      34.119  22.844  22.855  1.00  0.00    -0.246 OA
BRANCH   3   5
ATOM      5  C   UNL A   1      33.315  23.287  25.031  1.00  0.00     0.065 A 
ATOM      6  C   UNL A   1      33.171  25.408  26.148  1.00  0.00     0.045 A 
ATOM      7  C   UNL A   1      31.848  25.140  26.525  1.00  0.00     0.026 A 
ATOM      8  C   UNL A   1      33.971  24.419  25.542  1.00  0.00    -0.013 A 
ATOM      9  C   UNL A   1      31.236  23.973  26.107  1.00  0.00     0.003 A 
ATOM     10  C   UNL A   1      35.468  24.548  25.465  1.00  0.00     0.047 C 
ATOM     11  C   UNL A   1      31.951  23.090  25.309  1.00  0.00     0.016 A 
BRANCH   6  12
ATOM     12  N   UNL A   1      33.554  26.751  26.277  1.00  0.00    -0.322 N 
ATOM     13  C   UNL A   1      33.241  27.837  25.484  1.00  0.00     0.255 C 
ATOM     14  O   UNL A   1      33.743  28.928  25.760  1.00  0.00    -0.269 OA
ATOM     15  H   UNL A   1      34.134  26.948  27.048  1.00  0.00     0.170 HD
BRANCH  13  16
ATOM     16  C   UNL A   1      32.294  27.764  24.328  1.00  0.00     0.043 A 
ATOM     17  C   UNL A   1      30.139  28.069  23.247  1.00  0.00     0.119 A 
ATOM     18  C   UNL A   1      30.613  27.356  22.141  1.00  0.00     0.046 A 
ATOM     19  C   UNL A   1      31.000  28.319  24.319  1.00  0.00     0.060 A 
ATOM     20  C   UNL A   1      31.926  26.896  22.095  1.00  0.00     0.005 A 
ATOM     21  C   UNL A   1      32.762  27.093  23.189  1.00  0.00     0.014 A 
BRANCH  17  22
ATOM     22  O   UNL A   1      28.822  28.410  23.143  1.00  0.00    -0.497 OA
ATOM     23  C   UNL A   1      28.451  29.557  22.392  1.00  0.00     0.278 C 
ENDBRANCH  17  22
ENDBRANCH  13  16
ENDBRANCH   6  12
ENDBRANCH   3   5
ENDBRANCH   2   3
ENDBRANCH   1   2
BRANCH   1  24
ATOM     24  C   UNL A   1      36.510  20.612  24.997  1.00  0.00     0.275 C 
BRANCH  24  25
ATOM     25  O   UNL A   1      37.502  21.650  25.110  1.00  0.00    -0.458 OA
BRANCH  25  26
ATOM     26  C   UNL A   1      38.635  21.283  25.748  1.00  0.00     0.338 C 
ATOM     27  O   UNL A   1      39.175  20.186  25.725  1.00  0.00    -0.246 OA
BRANCH  26  28
ATOM     28  C   UNL A   1      39.211  22.426  26.465  1.00  0.00     0.060 A 
ATOM     29  C   UNL A   1      38.784  23.708  26.139  1.00  0.00     0.016 A 
ATOM     30  C   UNL A   1      40.302  22.251  27.312  1.00  0.00     0.016 A 
ATOM     31  C   UNL A   1      39.531  24.816  26.518  1.00  0.00     0.010 A 
ATOM     32  C   UNL A   1      40.957  23.377  27.823  1.00  0.00     0.010 A 
ATOM     33  C   UNL A   1      40.606  24.673  27.399  1.00  0.00    -0.014 A 
BRANCH  33  34
ATOM     34  C   UNL A   1      41.367  25.866  27.867  1.00  0.00     0.031 A 
ATOM     35  C   UNL A   1      40.672  26.923  28.684  1.00  0.00     0.074 A 
ATOM     36  C   UNL A   1      42.670  26.013  27.550  1.00  0.00     0.049 A 
ATOM     37  N   UNL A   1      41.049  28.146  28.952  1.00  0.00    -0.248 NA
ATOM     38  C   UNL A   1      39.367  26.558  29.257  1.00  0.00     0.031 C 
ATOM     39  C   UNL A   1      43.491  25.031  26.835  1.00  0.00     0.029 A 
ATOM     40  N   UNL A   1      43.539  27.053  27.780  1.00  0.00    -0.354 N 
ATOM     41  C   UNL A   1      40.002  28.719  29.666  1.00  0.00     0.074 A 
ATOM     42  C   UNL A   1      38.970  27.710  29.780  1.00  0.00     0.031 C 
ATOM     43  C   UNL A   1      44.739  25.499  26.709  1.00  0.00     0.029 A 
ATOM     44  C   UNL A   1      44.780  26.864  27.213  1.00  0.00     0.049 A 
ATOM     45  H   UNL A   1      43.298  27.854  28.298  1.00  0.00     0.167 HD
ATOM     46  C   UNL A   1      39.914  29.977  30.169  1.00  0.00     0.034 A 
ATOM     47  C   UNL A   1      45.811  27.714  27.042  1.00  0.00     0.034 A 
ATOM     48  C   UNL A   1      40.977  30.948  30.068  1.00  0.00     0.049 A 
ATOM     49  C   UNL A   1      45.661  29.131  27.528  1.00  0.00     0.074 A 
ATOM     50  C   UNL A   1      41.008  32.246  30.548  1.00  0.00     0.029 A 
ATOM     51  N   UNL A   1      42.201  30.727  29.447  1.00  0.00    -0.354 N 
ATOM     52  N   UNL A   1      44.639  29.689  28.135  1.00  0.00    -0.248 NA
ATOM     53  C   UNL A   1      46.792  30.036  27.292  1.00  0.00     0.031 C 
ATOM     54  C   UNL A   1      42.215  32.831  30.152  1.00  0.00     0.029 A 
ATOM     55  C   UNL A   1      42.979  31.873  29.505  1.00  0.00     0.049 A 
ATOM     56  H   UNL A   1      42.476  29.879  29.028  1.00  0.00     0.167 HD
ATOM     57  C   UNL A   1      45.018  31.004  28.380  1.00  0.00     0.074 A 
ATOM     58  C   UNL A   1      46.365  31.151  27.865  1.00  0.00     0.031 C 
ATOM     59  C   UNL A   1      44.320  32.000  28.983  1.00  0.00     0.034 A 
BRANCH  46  60
ATOM     60  C   UNL A   1      38.606  30.389  30.805  1.00  0.00     0.023 A 
ATOM     61  C   UNL A   1      37.574  30.999  30.073  1.00  0.00     0.031 A 
ATOM     62  C   UNL A   1      38.402  30.190  32.183  1.00  0.00     0.131 A 
ATOM     63  C   UNL A   1      36.423  31.458  30.733  1.00  0.00     0.055 A 
ATOM     64  C   UNL A   1      37.218  30.570  32.818  1.00  0.00     0.041 A 
ATOM     65  F   UNL A   1      39.359  29.634  32.943  1.00  0.00    -0.206 F 
ATOM     66  C   UNL A   1      36.226  31.223  32.096  1.00  0.00     0.022 A 
BRANCH  63  67
ATOM     67  S   UNL A   1      35.255  32.501  29.816  1.00  0.00     0.124 S 
ATOM     68  O   UNL A   1      36.139  33.538  29.288  1.00  0.00    -0.237 OA
ATOM     69  O   UNL A   1      34.704  31.572  28.836  1.00  0.00    -0.237 OA
ATOM     70  O   UNL A   1      34.319  32.953  30.843  1.00  0.00    -0.744 OA
ENDBRANCH  63  67
ENDBRANCH  46  60
BRANCH  47  71
ATOM     71  C   UNL A   1      47.036  27.277  26.309  1.00  0.00     0.023 A 
ATOM     72  C   UNL A   1      47.256  27.658  24.978  1.00  0.00     0.031 A 
ATOM     73  C   UNL A   1      47.993  26.445  26.921  1.00  0.00     0.131 A 
ATOM     74  C   UNL A   1      48.381  27.177  24.289  1.00  0.00     0.055 A 
ATOM     75  C   UNL A   1      49.144  26.024  26.254  1.00  0.00     0.041 A 
ATOM     76  F   UNL A   1      47.834  26.044  28.193  1.00  0.00    -0.206 F 
ATOM     77  C   UNL A   1      49.336  26.379  24.924  1.00  0.00     0.022 A 
BRANCH  74  78
ATOM     78  S   UNL A   1      48.530  27.534  22.519  1.00  0.00     0.124 S 
ATOM     79  O   UNL A   1      49.756  28.324  22.478  1.00  0.00    -0.237 OA
ATOM     80  O   UNL A   1      48.611  26.195  21.946  1.00  0.00    -0.237 OA
ATOM     81  O   UNL A   1      47.304  28.268  22.215  1.00  0.00    -0.744 OA
ENDBRANCH  74  78
ENDBRANCH  47  71
BRANCH  59  82
ATOM     82  C   UNL A   1      45.031  33.315  29.176  1.00  0.00     0.023 A 
ATOM     83  C   UNL A   1      45.032  34.312  28.185  1.00  0.00     0.031 A 
ATOM     84  C   UNL A   1      45.710  33.573  30.379  1.00  0.00     0.131 A 
ATOM     85  C   UNL A   1      45.739  35.505  28.400  1.00  0.00     0.055 A 
ATOM     86  C   UNL A   1      46.358  34.785  30.612  1.00  0.00     0.041 A 
ATOM     87  F   UNL A   1      45.744  32.652  31.356  1.00  0.00    -0.206 F 
ATOM     88  C   UNL A   1      46.384  35.756  29.615  1.00  0.00     0.022 A 
BRANCH  85  89
ATOM     89  S   UNL A   1      45.871  36.697  27.040  1.00  0.00     0.124 S 
ATOM     90  O   UNL A   1      47.039  37.478  27.434  1.00  0.00    -0.237 OA
ATOM     91  O   UNL A   1      46.046  35.830  25.879  1.00  0.00    -0.237 OA
ATOM     92  O   UNL A   1      44.599  37.415  27.088  1.00  0.00    -0.744 OA
ENDBRANCH  85  89
ENDBRANCH  59  82
ENDBRANCH  33  34
ENDBRANCH  26  28
ENDBRANCH  25  26
ENDBRANCH  24  25
ENDBRANCH   1  24
TORSDOF 17
ENDMDL
MODEL 2
REMARK VINA RESULT:     -11.6      1.788      2.199
REMARK SMILES COc1cccc(C(=O)Nc2cccc(C(=O)OCCOC(=O)c3ccc(-c4c5nc(c(-c6cc(S(=O)(=O)[O-])ccc6F)c6ccc([nH]6)c(-c6cc(S(=O)(=O)[O-])ccc6F)c6nc(c(-c7cc(S(=O)(=O)[O-])ccc7F)c7ccc4[nH]7)C=C6)C=C5)cc3)c2C)c1
REMARK SMILES IDX 19 1 18 2 16 3 17 4 15 5 11 6 12 7 87 8 13 9 88 10 14 11
REMARK SMILES IDX 10 12 8 13 9 14 7 16 3 17 4 18 89 19 5 20 6 21 2 22 1 23
REMARK SMILES IDX 20 24 21 25 22 26 23 27 24 28 25 29 86 30 26 31 85 32 27 33
REMARK SMILES IDX 28 34 29 35 79 36 30 37 84 38 78 39 80 40 31 41 83 42 77 43
REMARK SMILES IDX 76 44 32 46 64 47 44 48 63 49 45 50 48 51 62 52 81 53 46 54
REMARK SMILES IDX 47 55 61 57 82 58 49 59 33 60 34 61 42 62 35 63 41 64 43 65
REMARK SMILES IDX 40 66 36 67 37 68 38 69 39 70 65 71 66 72 74 73 67 74 73 75
REMARK SMILES IDX 75 76 72 77 68 78 69 79 70 80 71 81 50 82 51 83 59 84 52 85
REMARK SMILES IDX 58 86 60 87 57 88 53 89 54 90 55 91 56 92
REMARK H PARENT 10 15 80 45 48 56
REMARK Flexibility Score: inf
ROOT
ATOM      1  C   UNL A   1      35.874  21.244  24.669  1.00  0.00     0.275 C 
ENDROOT
BRANCH   1   2
ATOM      2  O   UNL A   1      34.800  21.096  25.617  1.00  0.00    -0.458 OA
BRANCH   2   3
ATOM      3  C   UNL A   1      34.314  22.256  26.115  1.00  0.00     0.338 C 
ATOM      4  O   UNL A   1      34.685  22.794  27.144  1.00  0.00    -0.246 OA
BRANCH   3   5
ATOM      5  C   UNL A   1      33.250  22.862  25.269  1.00  0.00     0.065 A 
ATOM      6  C   UNL A   1      32.546  23.812  23.179  1.00  0.00     0.045 A 
ATOM      7  C   UNL A   1      31.221  23.431  23.432  1.00  0.00     0.026 A 
ATOM      8  C   UNL A   1      33.544  23.680  24.165  1.00  0.00    -0.013 A 
ATOM      9  C   UNL A   1      30.916  22.716  24.575  1.00  0.00     0.003 A 
ATOM     10  C   UNL A   1      34.860  24.401  24.062  1.00  0.00     0.047 C 
ATOM     11  C   UNL A   1      31.942  22.379  25.448  1.00  0.00     0.016 A 
BRANCH   6  12
ATOM     12  N   UNL A   1      32.807  24.168  21.848  1.00  0.00    -0.322 N 
ATOM     13  C   UNL A   1      32.779  25.410  21.245  1.00  0.00     0.255 C 
ATOM     14  O   UNL A   1      32.991  25.477  20.032  1.00  0.00    -0.269 OA
ATOM     15  H   UNL A   1      33.045  23.419  21.255  1.00  0.00     0.170 HD
BRANCH  13  16
ATOM     16  C   UNL A   1      32.539  26.682  21.994  1.00  0.00     0.043 A 
ATOM     17  C   UNL A   1      31.156  28.494  22.837  1.00  0.00     0.119 A 
ATOM     18  C   UNL A   1      32.314  29.163  23.245  1.00  0.00     0.046 A 
ATOM     19  C   UNL A   1      31.268  27.226  22.258  1.00  0.00     0.060 A 
ATOM     20  C   UNL A   1      33.570  28.585  23.086  1.00  0.00     0.005 A 
ATOM     21  C   UNL A   1      33.683  27.350  22.455  1.00  0.00     0.014 A 
BRANCH  17  22
ATOM     22  O   UNL A   1      30.017  29.220  23.031  1.00  0.00    -0.497 OA
ATOM     23  C   UNL A   1      29.559  30.093  22.008  1.00  0.00     0.278 C 
ENDBRANCH  17  22
ENDBRANCH  13  16
ENDBRANCH   6  12
ENDBRANCH   3   5
ENDBRANCH   2   3
ENDBRANCH   1   2
BRANCH   1  24
ATOM     24  C   UNL A   1      37.191  20.724  25.245  1.00  0.00     0.275 C 
BRANCH  24  25
ATOM     25  O   UNL A   1      38.179  21.770  25.304  1.00  0.00    -0.458 OA
BRANCH  25  26
ATOM     26  C   UNL A   1      39.252  21.493  26.077  1.00  0.00     0.338 C 
ATOM     27  O   UNL A   1      39.831  20.421  26.183  1.00  0.00    -0.246 OA
BRANCH  26  28
ATOM     28  C   UNL A   1      39.707  22.702  26.773  1.00  0.00     0.060 A 
ATOM     29  C   UNL A   1      39.254  23.940  26.333  1.00  0.00     0.016 A 
ATOM     30  C   UNL A   1      40.721  22.629  27.723  1.00  0.00     0.016 A 
ATOM     31  C   UNL A   1      39.912  25.104  26.710  1.00  0.00     0.010 A 
ATOM     32  C   UNL A   1      41.274  23.814  28.223  1.00  0.00     0.010 A 
ATOM     33  C   UNL A   1      40.906  25.065  27.691  1.00  0.00    -0.014 A 
BRANCH  33  34
ATOM     34  C   UNL A   1      41.566  26.319  28.152  1.00  0.00     0.031 A 
ATOM     35  C   UNL A   1      40.769  27.347  28.913  1.00  0.00     0.074 A 
ATOM     36  C   UNL A   1      42.867  26.548  27.879  1.00  0.00     0.049 A 
ATOM     37  N   UNL A   1      41.052  28.600  29.160  1.00  0.00    -0.248 NA
ATOM     38  C   UNL A   1      39.472  26.908  29.448  1.00  0.00     0.031 C 
ATOM     39  C   UNL A   1      43.779  25.607  27.222  1.00  0.00     0.029 A 
ATOM     40  N   UNL A   1      43.654  27.650  28.111  1.00  0.00    -0.354 N 
ATOM     41  C   UNL A   1      39.942  29.117  29.819  1.00  0.00     0.074 A 
ATOM     42  C   UNL A   1      38.978  28.042  29.923  1.00  0.00     0.031 C 
ATOM     43  C   UNL A   1      44.997  26.156  27.129  1.00  0.00     0.029 A 
ATOM     44  C   UNL A   1      44.926  27.533  27.596  1.00  0.00     0.049 A 
ATOM     45  H   UNL A   1      43.339  28.447  28.597  1.00  0.00     0.167 HD
ATOM     46  C   UNL A   1      39.750  30.378  30.282  1.00  0.00     0.034 A 
ATOM     47  C   UNL A   1      45.903  28.448  27.438  1.00  0.00     0.034 A 
ATOM     48  C   UNL A   1      40.748  31.418  30.193  1.00  0.00     0.049 A 
ATOM     49  C   UNL A   1      45.638  29.862  27.878  1.00  0.00     0.074 A 
ATOM     50  C   UNL A   1      40.672  32.727  30.636  1.00  0.00     0.029 A 
ATOM     51  N   UNL A   1      42.006  31.265  29.623  1.00  0.00    -0.354 N 
ATOM     52  N   UNL A   1      44.558  30.364  28.431  1.00  0.00    -0.248 NA
ATOM     53  C   UNL A   1      46.713  30.837  27.658  1.00  0.00     0.031 C 
ATOM     54  C   UNL A   1      41.851  33.383  30.268  1.00  0.00     0.029 A 
ATOM     55  C   UNL A   1      42.702  32.463  29.677  1.00  0.00     0.049 A 
ATOM     56  H   UNL A   1      42.354  30.428  29.238  1.00  0.00     0.167 HD
ATOM     57  C   UNL A   1      44.837  31.709  28.653  1.00  0.00     0.074 A 
ATOM     58  C   UNL A   1      46.189  31.934  28.183  1.00  0.00     0.031 C 
ATOM     59  C   UNL A   1      44.051  32.669  29.201  1.00  0.00     0.034 A 
BRANCH  46  60
ATOM     60  C   UNL A   1      38.393  30.716  30.858  1.00  0.00     0.023 A 
ATOM     61  C   UNL A   1      37.382  31.322  30.094  1.00  0.00     0.031 A 
ATOM     62  C   UNL A   1      38.119  30.448  32.212  1.00  0.00     0.131 A 
ATOM     63  C   UNL A   1      36.179  31.710  30.705  1.00  0.00     0.055 A 
ATOM     64  C   UNL A   1      36.888  30.757  32.793  1.00  0.00     0.041 A 
ATOM     65  F   UNL A   1      39.052  29.892  33.002  1.00  0.00    -0.206 F 
ATOM     66  C   UNL A   1      35.914  31.407  32.042  1.00  0.00     0.022 A 
BRANCH  63  67
ATOM     67  S   UNL A   1      35.027  32.751  29.767  1.00  0.00     0.124 S 
ATOM     68  O   UNL A   1      35.929  33.754  29.204  1.00  0.00    -0.237 OA
ATOM     69  O   UNL A   1      34.449  31.807  28.817  1.00  0.00    -0.237 OA
ATOM     70  O   UNL A   1      34.108  33.252  30.788  1.00  0.00    -0.744 OA
ENDBRANCH  63  67
ENDBRANCH  46  60
BRANCH  47  71
ATOM     71  C   UNL A   1      47.181  28.077  26.763  1.00  0.00     0.023 A 
ATOM     72  C   UNL A   1      47.282  28.063  25.365  1.00  0.00     0.031 A 
ATOM     73  C   UNL A   1      48.316  27.702  27.508  1.00  0.00     0.131 A 
ATOM     74  C   UNL A   1      48.475  27.645  24.754  1.00  0.00     0.055 A 
ATOM     75  C   UNL A   1      49.521  27.351  26.897  1.00  0.00     0.041 A 
ATOM     76  F   UNL A   1      48.277  27.692  28.850  1.00  0.00    -0.206 F 
ATOM     77  C   UNL A   1      49.601  27.308  25.509  1.00  0.00     0.022 A 
BRANCH  74  78
ATOM     78  S   UNL A   1      48.505  27.457  22.951  1.00  0.00     0.124 S 
ATOM     79  O   UNL A   1      47.308  28.193  22.557  1.00  0.00    -0.237 OA
ATOM     80  O   UNL A   1      49.780  28.074  22.604  1.00  0.00    -0.237 OA
ATOM     81  O   UNL A   1      48.440  26.011  22.759  1.00  0.00    -0.744 OA
ENDBRANCH  74  78
ENDBRANCH  47  71
BRANCH  59  82
ATOM     82  C   UNL A   1      44.662  34.035  29.382  1.00  0.00     0.023 A 
ATOM     83  C   UNL A   1      45.376  34.382  30.541  1.00  0.00     0.031 A 
ATOM     84  C   UNL A   1      44.531  34.999  28.368  1.00  0.00     0.131 A 
ATOM     85  C   UNL A   1      45.895  35.679  30.676  1.00  0.00     0.055 A 
ATOM     86  C   UNL A   1      45.102  36.266  28.480  1.00  0.00     0.041 A 
ATOM     87  F   UNL A   1      43.854  34.720  27.242  1.00  0.00    -0.206 F 
ATOM     88  C   UNL A   1      45.780  36.616  29.645  1.00  0.00     0.022 A 
BRANCH  85  89
ATOM     89  S   UNL A   1      46.657  36.154  32.251  1.00  0.00     0.124 S 
ATOM     90  O   UNL A   1      45.550  35.983  33.187  1.00  0.00    -0.237 OA
ATOM     91  O   UNL A   1      47.749  35.193  32.374  1.00  0.00    -0.237 OA
ATOM     92  O   UNL A   1      47.073  37.537  32.027  1.00  0.00    -0.744 OA
ENDBRANCH  85  89
ENDBRANCH  59  82
ENDBRANCH  33  34
ENDBRANCH  26  28
ENDBRANCH  25  26
ENDBRANCH  24  25
ENDBRANCH   1  24
TORSDOF 17
ENDMDL
MODEL 3
REMARK VINA RESULT:     -11.5      1.314      7.742
REMARK SMILES COc1cccc(C(=O)Nc2cccc(C(=O)OCCOC(=O)c3ccc(-c4c5nc(c(-c6cc(S(=O)(=O)[O-])ccc6F)c6ccc([nH]6)c(-c6cc(S(=O)(=O)[O-])ccc6F)c6nc(c(-c7cc(S(=O)(=O)[O-])ccc7F)c7ccc4[nH]7)C=C6)C=C5)cc3)c2C)c1
REMARK SMILES IDX 19 1 18 2 16 3 17 4 15 5 11 6 12 7 87 8 13 9 88 10 14 11
REMARK SMILES IDX 10 12 8 13 9 14 7 16 3 17 4 18 89 19 5 20 6 21 2 22 1 23
REMARK SMILES IDX 20 24 21 25 22 26 23 27 24 28 25 29 86 30 26 31 85 32 27 33
REMARK SMILES IDX 28 34 29 35 79 36 30 37 84 38 78 39 80 40 31 41 83 42 77 43
REMARK SMILES IDX 76 44 32 46 64 47 44 48 63 49 45 50 48 51 62 52 81 53 46 54
REMARK SMILES IDX 47 55 61 57 82 58 49 59 33 60 34 61 42 62 35 63 41 64 43 65
REMARK SMILES IDX 40 66 36 67 37 68 38 69 39 70 65 71 66 72 74 73 67 74 73 75
REMARK SMILES IDX 75 76 72 77 68 78 69 79 70 80 71 81 50 82 51 83 59 84 52 85
REMARK SMILES IDX 58 86 60 87 57 88 53 89 54 90 55 91 56 92
REMARK H PARENT 10 15 80 45 48 56
REMARK Flexibility Score: inf
ROOT
ATOM      1  C   UNL A   1      36.068  21.058  25.381  1.00  0.00     0.275 C 
ENDROOT
BRANCH   1   2
ATOM      2  O   UNL A   1      35.899  22.054  24.353  1.00  0.00    -0.458 OA
BRANCH   2   3
ATOM      3  C   UNL A   1      35.191  23.144  24.726  1.00  0.00     0.338 C 
ATOM      4  O   UNL A   1      35.620  24.073  25.389  1.00  0.00    -0.246 OA
BRANCH   3   5
ATOM      5  C   UNL A   1      33.785  23.132  24.237  1.00  0.00     0.065 A 
ATOM      6  C   UNL A   1      31.442  23.470  24.640  1.00  0.00     0.045 A 
ATOM      7  C   UNL A   1      31.227  23.726  23.279  1.00  0.00     0.026 A 
ATOM      8  C   UNL A   1      32.689  23.009  25.107  1.00  0.00    -0.013 A 
ATOM      9  C   UNL A   1      32.297  23.743  22.404  1.00  0.00     0.003 A 
ATOM     10  C   UNL A   1      32.845  22.385  26.467  1.00  0.00     0.047 C 
ATOM     11  C   UNL A   1      33.573  23.514  22.901  1.00  0.00     0.016 A 
BRANCH   6  12
ATOM     12  N   UNL A   1      30.390  23.860  25.481  1.00  0.00    -0.322 N 
ATOM     13  C   UNL A   1      30.153  25.075  26.093  1.00  0.00     0.255 C 
ATOM     14  O   UNL A   1      29.181  25.173  26.844  1.00  0.00    -0.269 OA
ATOM     15  H   UNL A   1      29.720  23.162  25.663  1.00  0.00     0.170 HD
BRANCH  13  16
ATOM     16  C   UNL A   1      30.996  26.289  25.861  1.00  0.00     0.043 A 
ATOM     17  C   UNL A   1      32.577  28.010  26.529  1.00  0.00     0.119 A 
ATOM     18  C   UNL A   1      32.333  28.676  25.324  1.00  0.00     0.046 A 
ATOM     19  C   UNL A   1      31.947  26.786  26.773  1.00  0.00     0.060 A 
ATOM     20  C   UNL A   1      31.476  28.137  24.368  1.00  0.00     0.005 A 
ATOM     21  C   UNL A   1      30.803  26.950  24.640  1.00  0.00     0.014 A 
BRANCH  17  22
ATOM     22  O   UNL A   1      33.409  28.697  27.364  1.00  0.00    -0.497 OA
ATOM     23  C   UNL A   1      34.712  29.049  26.921  1.00  0.00     0.278 C 
ENDBRANCH  17  22
ENDBRANCH  13  16
ENDBRANCH   6  12
ENDBRANCH   3   5
ENDBRANCH   2   3
ENDBRANCH   1   2
BRANCH   1  24
ATOM     24  C   UNL A   1      37.296  20.190  25.108  1.00  0.00     0.275 C 
BRANCH  24  25
ATOM     25  O   UNL A   1      38.491  20.990  25.045  1.00  0.00    -0.458 OA
BRANCH  25  26
ATOM     26  C   UNL A   1      39.309  20.874  26.114  1.00  0.00     0.338 C 
ATOM     27  O   UNL A   1      39.735  19.840  26.610  1.00  0.00    -0.246 OA
BRANCH  26  28
ATOM     28  C   UNL A   1      39.697  22.199  26.609  1.00  0.00     0.060 A 
ATOM     29  C   UNL A   1      38.982  23.311  26.181  1.00  0.00     0.016 A 
ATOM     30  C   UNL A   1      40.875  22.365  27.331  1.00  0.00     0.016 A 
ATOM     31  C   UNL A   1      39.512  24.587  26.326  1.00  0.00     0.010 A 
ATOM     32  C   UNL A   1      41.324  23.659  27.616  1.00  0.00     0.010 A 
ATOM     33  C   UNL A   1      40.671  24.787  27.080  1.00  0.00    -0.014 A 
BRANCH  33  34
ATOM     34  C   UNL A   1      41.206  26.160  27.300  1.00  0.00     0.031 A 
ATOM     35  C   UNL A   1      42.565  26.528  26.765  1.00  0.00     0.074 A 
ATOM     36  C   UNL A   1      40.489  27.071  27.991  1.00  0.00     0.049 A 
ATOM     37  N   UNL A   1      43.330  27.543  27.070  1.00  0.00    -0.248 NA
ATOM     38  C   UNL A   1      43.146  25.617  25.767  1.00  0.00     0.031 C 
ATOM     39  C   UNL A   1      39.127  26.878  28.497  1.00  0.00     0.029 A 
ATOM     40  N   UNL A   1      40.807  28.344  28.398  1.00  0.00    -0.354 N 
ATOM     41  C   UNL A   1      44.509  27.359  26.355  1.00  0.00     0.074 A 
ATOM     42  C   UNL A   1      44.359  26.128  25.608  1.00  0.00     0.031 C 
ATOM     43  C   UNL A   1      38.720  27.993  29.118  1.00  0.00     0.029 A 
ATOM     44  C   UNL A   1      39.831  28.931  29.173  1.00  0.00     0.049 A 
ATOM     45  H   UNL A   1      41.650  28.793  28.159  1.00  0.00     0.167 HD
ATOM     46  C   UNL A   1      45.615  28.146  26.337  1.00  0.00     0.034 A 
ATOM     47  C   UNL A   1      39.850  30.057  29.913  1.00  0.00     0.034 A 
ATOM     48  C   UNL A   1      45.718  29.388  27.067  1.00  0.00     0.049 A 
ATOM     49  C   UNL A   1      41.115  30.870  29.950  1.00  0.00     0.074 A 
ATOM     50  C   UNL A   1      46.780  30.274  27.117  1.00  0.00     0.029 A 
ATOM     51  N   UNL A   1      44.720  29.921  27.874  1.00  0.00    -0.354 N 
ATOM     52  N   UNL A   1      42.253  30.651  29.333  1.00  0.00    -0.248 NA
ATOM     53  C   UNL A   1      41.107  32.069  30.795  1.00  0.00     0.031 C 
ATOM     54  C   UNL A   1      46.454  31.300  28.010  1.00  0.00     0.029 A 
ATOM     55  C   UNL A   1      45.154  31.106  28.448  1.00  0.00     0.049 A 
ATOM     56  H   UNL A   1      43.833  29.517  28.016  1.00  0.00     0.167 HD
ATOM     57  C   UNL A   1      43.087  31.704  29.692  1.00  0.00     0.074 A 
ATOM     58  C   UNL A   1      42.317  32.561  30.571  1.00  0.00     0.031 C 
ATOM     59  C   UNL A   1      44.370  31.946  29.324  1.00  0.00     0.034 A 
BRANCH  46  60
ATOM     60  C   UNL A   1      46.816  27.652  25.563  1.00  0.00     0.023 A 
ATOM     61  C   UNL A   1      47.072  28.048  24.240  1.00  0.00     0.031 A 
ATOM     62  C   UNL A   1      47.708  26.741  26.158  1.00  0.00     0.131 A 
ATOM     63  C   UNL A   1      48.143  27.478  23.532  1.00  0.00     0.055 A 
ATOM     64  C   UNL A   1      48.822  26.244  25.478  1.00  0.00     0.041 A 
ATOM     65  F   UNL A   1      47.505  26.305  27.412  1.00  0.00    -0.206 F 
ATOM     66  C   UNL A   1      49.035  26.599  24.151  1.00  0.00     0.022 A 
BRANCH  63  67
ATOM     67  S   UNL A   1      48.263  27.783  21.748  1.00  0.00     0.124 S 
ATOM     68  O   UNL A   1      48.595  26.452  21.244  1.00  0.00    -0.237 OA
ATOM     69  O   UNL A   1      46.930  28.275  21.421  1.00  0.00    -0.237 OA
ATOM     70  O   UNL A   1      49.337  28.769  21.640  1.00  0.00    -0.744 OA
ENDBRANCH  63  67
ENDBRANCH  46  60
BRANCH  47  71
ATOM     71  C   UNL A   1      38.667  30.433  30.742  1.00  0.00     0.023 A 
ATOM     72  C   UNL A   1      37.600  31.157  30.192  1.00  0.00     0.031 A 
ATOM     73  C   UNL A   1      38.599  30.099  32.109  1.00  0.00     0.131 A 
ATOM     74  C   UNL A   1      36.531  31.558  31.010  1.00  0.00     0.055 A 
ATOM     75  C   UNL A   1      37.504  30.442  32.902  1.00  0.00     0.041 A 
ATOM     76  F   UNL A   1      39.594  29.410  32.691  1.00  0.00    -0.206 F 
ATOM     77  C   UNL A   1      36.467  31.189  32.356  1.00  0.00     0.022 A 
BRANCH  74  78
ATOM     78  S   UNL A   1      35.268  32.653  30.309  1.00  0.00     0.124 S 
ATOM     79  O   UNL A   1      36.065  33.811  29.918  1.00  0.00    -0.237 OA
ATOM     80  O   UNL A   1      34.736  31.843  29.219  1.00  0.00    -0.237 OA
ATOM     81  O   UNL A   1      34.352  32.874  31.425  1.00  0.00    -0.744 OA
ENDBRANCH  74  78
ENDBRANCH  47  71
BRANCH  59  82
ATOM     82  C   UNL A   1      44.996  33.225  29.821  1.00  0.00     0.023 A 
ATOM     83  C   UNL A   1      44.788  34.455  29.174  1.00  0.00     0.031 A 
ATOM     84  C   UNL A   1      45.808  33.206  30.968  1.00  0.00     0.131 A 
ATOM     85  C   UNL A   1      45.423  35.610  29.656  1.00  0.00     0.055 A 
ATOM     86  C   UNL A   1      46.386  34.367  31.479  1.00  0.00     0.041 A 
ATOM     87  F   UNL A   1      46.043  32.055  31.620  1.00  0.00    -0.206 F 
ATOM     88  C   UNL A   1      46.203  35.578  30.815  1.00  0.00     0.022 A 
BRANCH  85  89
ATOM     89  S   UNL A   1      45.280  37.145  28.703  1.00  0.00     0.124 S 
ATOM     90  O   UNL A   1      45.634  38.154  29.697  1.00  0.00    -0.237 OA
ATOM     91  O   UNL A   1      46.247  36.940  27.630  1.00  0.00    -0.237 OA
ATOM     92  O   UNL A   1      43.881  37.157  28.278  1.00  0.00    -0.744 OA
ENDBRANCH  85  89
ENDBRANCH  59  82
ENDBRANCH  33  34
ENDBRANCH  26  28
ENDBRANCH  25  26
ENDBRANCH  24  25
ENDBRANCH   1  24
TORSDOF 17
ENDMDL
