MODEL 1
REMARK VINA RESULT:     -12.5      0.000      0.000
REMARK SMILES Cc1cc(Cl)c2c(c1)C=C(C(=O)OCCOC(=O)c1ccc(-c3c4nc(c(-c5cc(S(=O)(=O)[O-])ccc5F)c5ccc([nH]5)c(-c5cc(S(=O)(=O)[O-])ccc5F)c5nc(c(-c6cc(S(=O)(=O)[O-])ccc6F)c6ccc3[nH]6)C=C5)C=C4)cc1)[C@@H](C(F)(F)F)O2
REMARK SMILES IDX 15 1 14 2 13 3 11 4 12 5 10 6 1 7 2 8 3 9 8 10 4 11 7 12
REMARK SMILES IDX 5 13 6 14 9 15 87 16 82 17 83 18 84 19 85 20 86 21 16 22
REMARK SMILES IDX 17 23 18 24 19 25 20 26 81 27 21 28 80 29 22 30 23 31 24 32
REMARK SMILES IDX 74 33 25 34 79 35 73 36 75 37 26 38 78 39 72 40 71 41 27 43
REMARK SMILES IDX 59 44 39 45 58 46 40 47 43 48 57 49 76 50 41 51 42 52 56 54
REMARK SMILES IDX 77 55 44 56 28 57 29 58 37 59 30 60 36 61 38 62 35 63 31 64
REMARK SMILES IDX 32 65 33 66 34 67 60 68 61 69 69 70 62 71 68 72 70 73 67 74
REMARK SMILES IDX 63 75 64 76 65 77 66 78 45 79 46 80 54 81 47 82 53 83 55 84
REMARK SMILES IDX 52 85 48 86 49 87 50 88 51 89
REMARK H PARENT 75 42 43 53
REMARK Flexibility Score: inf
ROOT
ATOM      1  C   UNL A   1      36.379  20.613  25.026  1.00  0.00     0.275 C 
ENDROOT
BRANCH   1   2
ATOM      2  C   UNL A   1      34.993  21.194  24.753  1.00  0.00     0.275 C 
BRANCH   2   3
ATOM      3  O   UNL A   1      34.999  22.635  24.837  1.00  0.00    -0.459 OA
BRANCH   3   4
ATOM      4  C   UNL A   1      34.897  23.284  23.655  1.00  0.00     0.338 C 
ATOM      5  O   UNL A   1      35.460  22.988  22.613  1.00  0.00    -0.246 OA
BRANCH   4   6
ATOM      6  C   UNL A   1      33.988  24.439  23.769  1.00  0.00     0.087 C 
ATOM      7  C   UNL A   1      32.931  29.351  27.337  1.00  0.00     0.044 C 
ATOM      8  C   UNL A   1      32.647  28.353  26.252  1.00  0.00    -0.049 A 
ATOM      9  C   UNL A   1      31.454  28.404  25.523  1.00  0.00     0.028 A 
ATOM     10  C   UNL A   1      33.591  27.376  25.928  1.00  0.00     0.015 A 
ATOM     11  C   UNL A   1      31.205  27.477  24.502  1.00  0.00     0.084 A 
ATOM     12  C   UNL A   1      33.331  26.436  24.920  1.00  0.00     0.019 A 
ATOM     13  Cl  UNL A   1      29.704  27.582  23.650  1.00  0.00    -0.080 Cl
ATOM     14  C   UNL A   1      32.139  26.480  24.197  1.00  0.00     0.146 A 
ATOM     15  C   UNL A   1      34.294  25.384  24.662  1.00  0.00     0.027 C 
ATOM     16  O   UNL A   1      31.857  25.597  23.187  1.00  0.00    -0.474 OA
ATOM     17  C   UNL A   1      32.697  24.424  23.007  1.00  0.00     0.316 C 
BRANCH  17  18
ATOM     18  C   UNL A   1      31.874  23.165  23.326  1.00  0.00     0.430 C 
ATOM     19  F   UNL A   1      32.333  22.087  22.646  1.00  0.00    -0.167 F 
ATOM     20  F   UNL A   1      31.950  22.843  24.642  1.00  0.00    -0.167 F 
ATOM     21  F   UNL A   1      30.566  23.313  23.022  1.00  0.00    -0.167 F 
ENDBRANCH  17  18
ENDBRANCH   4   6
ENDBRANCH   3   4
ENDBRANCH   2   3
ENDBRANCH   1   2
BRANCH   1  22
ATOM     22  O   UNL A   1      37.355  21.667  25.108  1.00  0.00    -0.458 OA
BRANCH  22  23
ATOM     23  C   UNL A   1      38.516  21.329  25.717  1.00  0.00     0.338 C 
ATOM     24  O   UNL A   1      39.092  20.256  25.660  1.00  0.00    -0.246 OA
BRANCH  23  25
ATOM     25  C   UNL A   1      39.069  22.488  26.433  1.00  0.00     0.060 A 
ATOM     26  C   UNL A   1      38.582  23.753  26.127  1.00  0.00     0.016 A 
ATOM     27  C   UNL A   1      40.191  22.352  27.246  1.00  0.00     0.016 A 
ATOM     28  C   UNL A   1      39.315  24.882  26.476  1.00  0.00     0.010 A 
ATOM     29  C   UNL A   1      40.832  23.498  27.734  1.00  0.00     0.010 A 
ATOM     30  C   UNL A   1      40.439  24.780  27.308  1.00  0.00    -0.014 A 
BRANCH  30  31
ATOM     31  C   UNL A   1      41.207  26.004  27.694  1.00  0.00     0.031 A 
ATOM     32  C   UNL A   1      40.582  27.046  28.593  1.00  0.00     0.074 A 
ATOM     33  C   UNL A   1      42.482  26.172  27.279  1.00  0.00     0.049 A 
ATOM     34  N   UNL A   1      41.009  28.248  28.885  1.00  0.00    -0.248 NA
ATOM     35  C   UNL A   1      39.305  26.698  29.235  1.00  0.00     0.031 C 
ATOM     36  C   UNL A   1      43.243  25.220  26.465  1.00  0.00     0.029 A 
ATOM     37  N   UNL A   1      43.377  27.190  27.503  1.00  0.00    -0.354 N 
ATOM     38  C   UNL A   1      40.031  28.817  29.697  1.00  0.00     0.074 A 
ATOM     39  C   UNL A   1      38.982  27.832  29.839  1.00  0.00     0.031 C 
ATOM     40  C   UNL A   1      44.501  25.659  26.324  1.00  0.00     0.029 A 
ATOM     41  C   UNL A   1      44.607  26.983  26.921  1.00  0.00     0.049 A 
ATOM     42  H   UNL A   1      43.159  27.992  28.029  1.00  0.00     0.167 HD
ATOM     43  C   UNL A   1      40.016  30.044  30.273  1.00  0.00     0.034 A 
ATOM     44  C   UNL A   1      45.689  27.781  26.824  1.00  0.00     0.034 A 
ATOM     45  C   UNL A   1      41.095  30.994  30.170  1.00  0.00     0.049 A 
ATOM     46  C   UNL A   1      45.617  29.169  27.398  1.00  0.00     0.074 A 
ATOM     47  C   UNL A   1      41.180  32.264  30.717  1.00  0.00     0.029 A 
ATOM     48  N   UNL A   1      42.286  30.775  29.491  1.00  0.00    -0.354 N 
ATOM     49  N   UNL A   1      44.640  29.729  28.070  1.00  0.00    -0.248 NA
ATOM     50  C   UNL A   1      46.775  30.042  27.170  1.00  0.00     0.031 C 
ATOM     51  C   UNL A   1      42.396  32.831  30.322  1.00  0.00     0.029 A 
ATOM     52  C   UNL A   1      43.099  31.893  29.584  1.00  0.00     0.049 A 
ATOM     53  H   UNL A   1      42.519  29.945  29.013  1.00  0.00     0.167 HD
ATOM     54  C   UNL A   1      45.068  31.022  28.350  1.00  0.00     0.074 A 
ATOM     55  C   UNL A   1      46.397  31.152  27.789  1.00  0.00     0.031 C 
ATOM     56  C   UNL A   1      44.414  32.013  29.006  1.00  0.00     0.034 A 
BRANCH  43  57
ATOM     57  C   UNL A   1      38.778  30.453  31.033  1.00  0.00     0.023 A 
ATOM     58  C   UNL A   1      37.713  31.123  30.411  1.00  0.00     0.031 A 
ATOM     59  C   UNL A   1      38.657  30.141  32.400  1.00  0.00     0.131 A 
ATOM     60  C   UNL A   1      36.590  31.499  31.165  1.00  0.00     0.055 A 
ATOM     61  C   UNL A   1      37.510  30.460  33.128  1.00  0.00     0.041 A 
ATOM     62  F   UNL A   1      39.651  29.516  33.048  1.00  0.00    -0.206 F 
ATOM     63  C   UNL A   1      36.471  31.150  32.514  1.00  0.00     0.022 A 
BRANCH  60  64
ATOM     64  S   UNL A   1      35.318  32.525  30.379  1.00  0.00     0.124 S 
ATOM     65  O   UNL A   1      34.312  32.605  31.435  1.00  0.00    -0.237 OA
ATOM     66  O   UNL A   1      36.039  33.759  30.090  1.00  0.00    -0.237 OA
ATOM     67  O   UNL A   1      34.924  31.744  29.208  1.00  0.00    -0.744 OA
ENDBRANCH  60  64
ENDBRANCH  43  57
BRANCH  44  68
ATOM     68  C   UNL A   1      46.900  27.314  26.092  1.00  0.00     0.023 A 
ATOM     69  C   UNL A   1      47.115  27.669  24.752  1.00  0.00     0.031 A 
ATOM     70  C   UNL A   1      47.867  26.511  26.727  1.00  0.00     0.131 A 
ATOM     71  C   UNL A   1      48.265  27.215  24.086  1.00  0.00     0.055 A 
ATOM     72  C   UNL A   1      49.032  26.103  26.075  1.00  0.00     0.041 A 
ATOM     73  F   UNL A   1      47.709  26.142  28.008  1.00  0.00    -0.206 F 
ATOM     74  C   UNL A   1      49.232  26.452  24.744  1.00  0.00     0.022 A 
BRANCH  71  75
ATOM     75  S   UNL A   1      48.465  27.611  22.327  1.00  0.00     0.124 S 
ATOM     76  O   UNL A   1      47.261  28.389  22.061  1.00  0.00    -0.237 OA
ATOM     77  O   UNL A   1      49.723  28.352  22.324  1.00  0.00    -0.237 OA
ATOM     78  O   UNL A   1      48.517  26.299  21.688  1.00  0.00    -0.744 OA
ENDBRANCH  71  75
ENDBRANCH  44  68
BRANCH  56  79
ATOM     79  C   UNL A   1      45.136  33.322  29.169  1.00  0.00     0.023 A 
ATOM     80  C   UNL A   1      44.972  34.364  28.241  1.00  0.00     0.031 A 
ATOM     81  C   UNL A   1      45.964  33.543  30.283  1.00  0.00     0.131 A 
ATOM     82  C   UNL A   1      45.649  35.577  28.430  1.00  0.00     0.055 A 
ATOM     83  C   UNL A   1      46.598  34.768  30.490  1.00  0.00     0.041 A 
ATOM     84  F   UNL A   1      46.151  32.579  31.196  1.00  0.00    -0.206 F 
ATOM     85  C   UNL A   1      46.446  35.791  29.559  1.00  0.00     0.022 A 
BRANCH  82  86
ATOM     86  S   UNL A   1      45.502  36.863  27.161  1.00  0.00     0.124 S 
ATOM     87  O   UNL A   1      44.110  36.719  26.746  1.00  0.00    -0.237 OA
ATOM     88  O   UNL A   1      45.822  38.078  27.905  1.00  0.00    -0.237 OA
ATOM     89  O   UNL A   1      46.492  36.472  26.160  1.00  0.00    -0.744 OA
ENDBRANCH  82  86
ENDBRANCH  56  79
ENDBRANCH  30  31
ENDBRANCH  23  25
ENDBRANCH  22  23
ENDBRANCH   1  22
TORSDOF 15
ENDMDL
MODEL 2
REMARK VINA RESULT:     -12.4      5.010      9.988
REMARK SMILES Cc1cc(Cl)c2c(c1)C=C(C(=O)OCCOC(=O)c1ccc(-c3c4nc(c(-c5cc(S(=O)(=O)[O-])ccc5F)c5ccc([nH]5)c(-c5cc(S(=O)(=O)[O-])ccc5F)c5nc(c(-c6cc(S(=O)(=O)[O-])ccc6F)c6ccc3[nH]6)C=C5)C=C4)cc1)[C@@H](C(F)(F)F)O2
REMARK SMILES IDX 15 1 14 2 13 3 11 4 12 5 10 6 1 7 2 8 3 9 8 10 4 11 7 12
REMARK SMILES IDX 5 13 6 14 9 15 87 16 82 17 83 18 84 19 85 20 86 21 16 22
REMARK SMILES IDX 17 23 18 24 19 25 20 26 81 27 21 28 80 29 22 30 23 31 24 32
REMARK SMILES IDX 74 33 25 34 79 35 73 36 75 37 26 38 78 39 72 40 71 41 27 43
REMARK SMILES IDX 59 44 39 45 58 46 40 47 43 48 57 49 76 50 41 51 42 52 56 54
REMARK SMILES IDX 77 55 44 56 28 57 29 58 37 59 30 60 36 61 38 62 35 63 31 64
REMARK SMILES IDX 32 65 33 66 34 67 60 68 61 69 69 70 62 71 68 72 70 73 67 74
REMARK SMILES IDX 63 75 64 76 65 77 66 78 45 79 46 80 54 81 47 82 53 83 55 84
REMARK SMILES IDX 52 85 48 86 49 87 50 88 51 89
REMARK H PARENT 75 42 43 53
REMARK Flexibility Score: inf
ROOT
ATOM      1  C   UNL A   1      32.061  30.095  25.387  1.00  0.00     0.275 C 
ENDROOT
BRANCH   1   2
ATOM      2  C   UNL A   1      31.577  28.700  24.992  1.00  0.00     0.275 C 
BRANCH   2   3
ATOM      3  O   UNL A   1      32.426  27.672  25.545  1.00  0.00    -0.459 OA
BRANCH   3   4
ATOM      4  C   UNL A   1      31.802  26.769  26.336  1.00  0.00     0.338 C 
ATOM      5  O   UNL A   1      30.987  27.012  27.211  1.00  0.00    -0.246 OA
BRANCH   4   6
ATOM      6  C   UNL A   1      32.233  25.399  26.006  1.00  0.00     0.087 C 
ATOM      7  C   UNL A   1      37.354  22.072  25.179  1.00  0.00     0.044 C 
ATOM      8  C   UNL A   1      35.880  22.358  25.149  1.00  0.00    -0.049 A 
ATOM      9  C   UNL A   1      34.977  21.427  24.625  1.00  0.00     0.028 A 
ATOM     10  C   UNL A   1      35.383  23.551  25.680  1.00  0.00     0.015 A 
ATOM     11  C   UNL A   1      33.603  21.698  24.615  1.00  0.00     0.084 A 
ATOM     12  C   UNL A   1      34.008  23.829  25.650  1.00  0.00     0.019 A 
ATOM     13  Cl  UNL A   1      32.541  20.513  23.938  1.00  0.00    -0.080 Cl
ATOM     14  C   UNL A   1      33.108  22.905  25.121  1.00  0.00     0.146 A 
ATOM     15  C   UNL A   1      33.531  25.109  26.133  1.00  0.00     0.027 C 
ATOM     16  O   UNL A   1      31.755  23.126  25.096  1.00  0.00    -0.474 OA
ATOM     17  C   UNL A   1      31.241  24.453  25.400  1.00  0.00     0.316 C 
BRANCH  17  18
ATOM     18  C   UNL A   1      30.606  25.046  24.132  1.00  0.00     0.430 C 
ATOM     19  F   UNL A   1      30.080  24.079  23.342  1.00  0.00    -0.167 F 
ATOM     20  F   UNL A   1      29.585  25.886  24.435  1.00  0.00    -0.167 F 
ATOM     21  F   UNL A   1      31.494  25.741  23.387  1.00  0.00    -0.167 F 
ENDBRANCH  17  18
ENDBRANCH   4   6
ENDBRANCH   3   4
ENDBRANCH   2   3
ENDBRANCH   1   2
BRANCH   1  22
ATOM     22  O   UNL A   1      32.447  30.116  26.773  1.00  0.00    -0.458 OA
BRANCH  22  23
ATOM     23  C   UNL A   1      33.047  31.257  27.185  1.00  0.00     0.338 C 
ATOM     24  O   UNL A   1      32.545  32.364  27.269  1.00  0.00    -0.246 OA
BRANCH  23  25
ATOM     25  C   UNL A   1      34.427  30.979  27.610  1.00  0.00     0.060 A 
ATOM     26  C   UNL A   1      34.799  29.660  27.842  1.00  0.00     0.016 A 
ATOM     27  C   UNL A   1      35.282  32.017  27.972  1.00  0.00     0.016 A 
ATOM     28  C   UNL A   1      35.934  29.381  28.596  1.00  0.00     0.010 A 
ATOM     29  C   UNL A   1      36.506  31.720  28.585  1.00  0.00     0.010 A 
ATOM     30  C   UNL A   1      36.824  30.401  28.960  1.00  0.00    -0.014 A 
BRANCH  30  31
ATOM     31  C   UNL A   1      38.051  30.086  29.753  1.00  0.00     0.031 A 
ATOM     32  C   UNL A   1      39.144  29.225  29.160  1.00  0.00     0.074 A 
ATOM     33  C   UNL A   1      38.219  30.600  30.991  1.00  0.00     0.049 A 
ATOM     34  N   UNL A   1      40.185  28.691  29.746  1.00  0.00    -0.248 NA
ATOM     35  C   UNL A   1      39.046  28.913  27.725  1.00  0.00     0.031 C 
ATOM     36  C   UNL A   1      37.284  31.503  31.670  1.00  0.00     0.029 A 
ATOM     37  N   UNL A   1      39.244  30.461  31.895  1.00  0.00    -0.354 N 
ATOM     38  C   UNL A   1      40.832  27.939  28.770  1.00  0.00     0.074 A 
ATOM     39  C   UNL A   1      40.057  28.074  27.556  1.00  0.00     0.031 C 
ATOM     40  C   UNL A   1      37.810  31.893  32.838  1.00  0.00     0.029 A 
ATOM     41  C   UNL A   1      39.056  31.172  33.059  1.00  0.00     0.049 A 
ATOM     42  H   UNL A   1      40.038  29.905  31.727  1.00  0.00     0.167 HD
ATOM     43  C   UNL A   1      41.969  27.209  28.877  1.00  0.00     0.034 A 
ATOM     44  C   UNL A   1      39.767  31.207  34.203  1.00  0.00     0.034 A 
ATOM     45  C   UNL A   1      42.763  27.129  30.078  1.00  0.00     0.049 A 
ATOM     46  C   UNL A   1      40.977  30.324  34.328  1.00  0.00     0.074 A 
ATOM     47  C   UNL A   1      43.932  26.418  30.292  1.00  0.00     0.029 A 
ATOM     48  N   UNL A   1      42.481  27.794  31.264  1.00  0.00    -0.354 N 
ATOM     49  N   UNL A   1      41.514  29.535  33.428  1.00  0.00    -0.248 NA
ATOM     50  C   UNL A   1      41.655  30.308  35.631  1.00  0.00     0.031 C 
ATOM     51  C   UNL A   1      44.326  26.610  31.620  1.00  0.00     0.029 A 
ATOM     52  C   UNL A   1      43.439  27.491  32.218  1.00  0.00     0.049 A 
ATOM     53  H   UNL A   1      41.713  28.394  31.406  1.00  0.00     0.167 HD
ATOM     54  C   UNL A   1      42.597  28.930  34.056  1.00  0.00     0.074 A 
ATOM     55  C   UNL A   1      42.649  29.460  35.403  1.00  0.00     0.031 C 
ATOM     56  C   UNL A   1      43.467  28.014  33.561  1.00  0.00     0.034 A 
BRANCH  43  57
ATOM     57  C   UNL A   1      42.407  26.400  27.681  1.00  0.00     0.023 A 
ATOM     58  C   UNL A   1      42.046  25.053  27.522  1.00  0.00     0.031 A 
ATOM     59  C   UNL A   1      43.178  27.002  26.669  1.00  0.00     0.131 A 
ATOM     60  C   UNL A   1      42.493  24.339  26.400  1.00  0.00     0.055 A 
ATOM     61  C   UNL A   1      43.565  26.305  25.525  1.00  0.00     0.041 A 
ATOM     62  F   UNL A   1      43.565  28.283  26.777  1.00  0.00    -0.206 F 
ATOM     63  C   UNL A   1      43.229  24.962  25.388  1.00  0.00     0.022 A 
BRANCH  60  64
ATOM     64  S   UNL A   1      42.169  22.556  26.317  1.00  0.00     0.124 S 
ATOM     65  O   UNL A   1      40.716  22.515  26.473  1.00  0.00    -0.237 OA
ATOM     66  O   UNL A   1      42.679  22.201  24.998  1.00  0.00    -0.237 OA
ATOM     67  O   UNL A   1      42.927  22.018  27.445  1.00  0.00    -0.744 OA
ENDBRANCH  60  64
ENDBRANCH  43  57
BRANCH  44  68
ATOM     68  C   UNL A   1      39.309  32.050  35.343  1.00  0.00     0.023 A 
ATOM     69  C   UNL A   1      39.778  33.363  35.503  1.00  0.00     0.031 A 
ATOM     70  C   UNL A   1      38.386  31.559  36.285  1.00  0.00     0.131 A 
ATOM     71  C   UNL A   1      39.330  34.136  36.586  1.00  0.00     0.055 A 
ATOM     72  C   UNL A   1      37.907  32.348  37.332  1.00  0.00     0.041 A 
ATOM     73  F   UNL A   1      37.906  30.309  36.178  1.00  0.00    -0.206 F 
ATOM     74  C   UNL A   1      38.384  33.644  37.489  1.00  0.00     0.022 A 
BRANCH  71  75
ATOM     75  S   UNL A   1      40.028  35.794  36.819  1.00  0.00     0.124 S 
ATOM     76  O   UNL A   1      39.652  36.451  35.573  1.00  0.00    -0.237 OA
ATOM     77  O   UNL A   1      39.335  36.250  38.020  1.00  0.00    -0.237 OA
ATOM     78  O   UNL A   1      41.457  35.541  36.986  1.00  0.00    -0.744 OA
ENDBRANCH  71  75
ENDBRANCH  44  68
BRANCH  56  79
ATOM     79  C   UNL A   1      44.560  27.538  34.478  1.00  0.00     0.023 A 
ATOM     80  C   UNL A   1      44.420  26.357  35.225  1.00  0.00     0.031 A 
ATOM     81  C   UNL A   1      45.767  28.251  34.574  1.00  0.00     0.131 A 
ATOM     82  C   UNL A   1      45.464  25.934  36.059  1.00  0.00     0.055 A 
ATOM     83  C   UNL A   1      46.821  27.801  35.369  1.00  0.00     0.041 A 
ATOM     84  F   UNL A   1      45.948  29.384  33.878  1.00  0.00    -0.206 F 
ATOM     85  C   UNL A   1      46.670  26.639  36.122  1.00  0.00     0.022 A 
BRANCH  82  86
ATOM     86  S   UNL A   1      45.214  24.465  37.092  1.00  0.00     0.124 S 
ATOM     87  O   UNL A   1      44.581  25.036  38.277  1.00  0.00    -0.237 OA
ATOM     88  O   UNL A   1      44.359  23.631  36.253  1.00  0.00    -0.237 OA
ATOM     89  O   UNL A   1      46.567  23.956  37.297  1.00  0.00    -0.744 OA
ENDBRANCH  82  86
ENDBRANCH  56  79
ENDBRANCH  30  31
ENDBRANCH  23  25
ENDBRANCH  22  23
ENDBRANCH   1  22
TORSDOF 15
ENDMDL
MODEL 3
REMARK VINA RESULT:     -12.3      1.647      1.992
REMARK SMILES Cc1cc(Cl)c2c(c1)C=C(C(=O)OCCOC(=O)c1ccc(-c3c4nc(c(-c5cc(S(=O)(=O)[O-])ccc5F)c5ccc([nH]5)c(-c5cc(S(=O)(=O)[O-])ccc5F)c5nc(c(-c6cc(S(=O)(=O)[O-])ccc6F)c6ccc3[nH]6)C=C5)C=C4)cc1)[C@@H](C(F)(F)F)O2
REMARK SMILES IDX 15 1 14 2 13 3 11 4 12 5 10 6 1 7 2 8 3 9 8 10 4 11 7 12
REMARK SMILES IDX 5 13 6 14 9 15 87 16 82 17 83 18 84 19 85 20 86 21 16 22
REMARK SMILES IDX 17 23 18 24 19 25 20 26 81 27 21 28 80 29 22 30 23 31 24 32
REMARK SMILES IDX 74 33 25 34 79 35 73 36 75 37 26 38 78 39 72 40 71 41 27 43
REMARK SMILES IDX 59 44 39 45 58 46 40 47 43 48 57 49 76 50 41 51 42 52 56 54
REMARK SMILES IDX 77 55 44 56 28 57 29 58 37 59 30 60 36 61 38 62 35 63 31 64
REMARK SMILES IDX 32 65 33 66 34 67 60 68 61 69 69 70 62 71 68 72 70 73 67 74
REMARK SMILES IDX 63 75 64 76 65 77 66 78 45 79 46 80 54 81 47 82 53 83 55 84
REMARK SMILES IDX 52 85 48 86 49 87 50 88 51 89
REMARK H PARENT 75 42 43 53
REMARK Flexibility Score: inf
ROOT
ATOM      1  C   UNL A   1      36.511  20.294  25.005  1.00  0.00     0.275 C 
ENDROOT
BRANCH   1   2
ATOM      2  C   UNL A   1      35.068  20.797  25.029  1.00  0.00     0.275 C 
BRANCH   2   3
ATOM      3  O   UNL A   1      35.003  22.224  24.816  1.00  0.00    -0.459 OA
BRANCH   3   4
ATOM      4  C   UNL A   1      33.856  22.817  25.220  1.00  0.00     0.338 C 
ATOM      5  O   UNL A   1      32.917  22.275  25.781  1.00  0.00    -0.246 OA
BRANCH   4   6
ATOM      6  C   UNL A   1      33.868  24.254  24.895  1.00  0.00     0.087 C 
ATOM      7  C   UNL A   1      32.240  29.703  27.269  1.00  0.00     0.044 C 
ATOM      8  C   UNL A   1      32.708  28.750  26.207  1.00  0.00    -0.049 A 
ATOM      9  C   UNL A   1      32.940  29.188  24.899  1.00  0.00     0.028 A 
ATOM     10  C   UNL A   1      32.954  27.411  26.520  1.00  0.00     0.015 A 
ATOM     11  C   UNL A   1      33.391  28.295  23.919  1.00  0.00     0.084 A 
ATOM     12  C   UNL A   1      33.386  26.513  25.532  1.00  0.00     0.019 A 
ATOM     13  Cl  UNL A   1      33.643  28.896  22.317  1.00  0.00    -0.080 Cl
ATOM     14  C   UNL A   1      33.611  26.947  24.226  1.00  0.00     0.146 A 
ATOM     15  C   UNL A   1      33.554  25.114  25.868  1.00  0.00     0.027 C 
ATOM     16  O   UNL A   1      34.057  26.109  23.238  1.00  0.00    -0.474 OA
ATOM     17  C   UNL A   1      34.071  24.673  23.470  1.00  0.00     0.316 C 
BRANCH  17  18
ATOM     18  C   UNL A   1      33.045  24.006  22.540  1.00  0.00     0.430 C 
ATOM     19  F   UNL A   1      32.806  24.761  21.441  1.00  0.00    -0.167 F 
ATOM     20  F   UNL A   1      33.493  22.808  22.086  1.00  0.00    -0.167 F 
ATOM     21  F   UNL A   1      31.859  23.788  23.150  1.00  0.00    -0.167 F 
ENDBRANCH  17  18
ENDBRANCH   4   6
ENDBRANCH   3   4
ENDBRANCH   2   3
ENDBRANCH   1   2
BRANCH   1  22
ATOM     22  O   UNL A   1      37.426  21.396  25.142  1.00  0.00    -0.458 OA
BRANCH  22  23
ATOM     23  C   UNL A   1      38.619  21.086  25.701  1.00  0.00     0.338 C 
ATOM     24  O   UNL A   1      39.227  20.034  25.603  1.00  0.00    -0.246 OA
BRANCH  23  25
ATOM     25  C   UNL A   1      39.160  22.250  26.418  1.00  0.00     0.060 A 
ATOM     26  C   UNL A   1      38.653  23.509  26.121  1.00  0.00     0.016 A 
ATOM     27  C   UNL A   1      40.292  22.127  27.221  1.00  0.00     0.016 A 
ATOM     28  C   UNL A   1      39.371  24.647  26.470  1.00  0.00     0.010 A 
ATOM     29  C   UNL A   1      40.920  23.281  27.709  1.00  0.00     0.010 A 
ATOM     30  C   UNL A   1      40.504  24.559  27.292  1.00  0.00    -0.014 A 
BRANCH  30  31
ATOM     31  C   UNL A   1      41.256  25.792  27.677  1.00  0.00     0.031 A 
ATOM     32  C   UNL A   1      40.600  26.851  28.533  1.00  0.00     0.074 A 
ATOM     33  C   UNL A   1      42.544  25.955  27.301  1.00  0.00     0.049 A 
ATOM     34  N   UNL A   1      41.016  28.060  28.814  1.00  0.00    -0.248 NA
ATOM     35  C   UNL A   1      39.303  26.513  29.140  1.00  0.00     0.031 C 
ATOM     36  C   UNL A   1      43.333  24.988  26.532  1.00  0.00     0.029 A 
ATOM     37  N   UNL A   1      43.429  26.980  27.532  1.00  0.00    -0.354 N 
ATOM     38  C   UNL A   1      40.011  28.643  29.581  1.00  0.00     0.074 A 
ATOM     39  C   UNL A   1      38.958  27.660  29.709  1.00  0.00     0.031 C 
ATOM     40  C   UNL A   1      44.594  25.427  26.423  1.00  0.00     0.029 A 
ATOM     41  C   UNL A   1      44.678  26.763  26.996  1.00  0.00     0.049 A 
ATOM     42  H   UNL A   1      43.192  27.792  28.034  1.00  0.00     0.167 HD
ATOM     43  C   UNL A   1      39.974  29.882  30.130  1.00  0.00     0.034 A 
ATOM     44  C   UNL A   1      45.761  27.562  26.917  1.00  0.00     0.034 A 
ATOM     45  C   UNL A   1      41.054  30.832  30.043  1.00  0.00     0.049 A 
ATOM     46  C   UNL A   1      45.668  28.962  27.459  1.00  0.00     0.074 A 
ATOM     47  C   UNL A   1      41.119  32.114  30.566  1.00  0.00     0.029 A 
ATOM     48  N   UNL A   1      42.267  30.602  29.408  1.00  0.00    -0.354 N 
ATOM     49  N   UNL A   1      44.668  29.533  28.088  1.00  0.00    -0.248 NA
ATOM     50  C   UNL A   1      46.831  29.833  27.251  1.00  0.00     0.031 C 
ATOM     51  C   UNL A   1      42.346  32.676  30.199  1.00  0.00     0.029 A 
ATOM     52  C   UNL A   1      43.074  31.724  29.504  1.00  0.00     0.049 A 
ATOM     53  H   UNL A   1      42.517  29.764  28.956  1.00  0.00     0.167 HD
ATOM     54  C   UNL A   1      45.084  30.833  28.354  1.00  0.00     0.074 A 
ATOM     55  C   UNL A   1      46.431  30.955  27.834  1.00  0.00     0.031 C 
ATOM     56  C   UNL A   1      44.408  31.835  28.967  1.00  0.00     0.034 A 
BRANCH  43  57
ATOM     57  C   UNL A   1      38.711  30.304  30.840  1.00  0.00     0.023 A 
ATOM     58  C   UNL A   1      37.678  30.985  30.177  1.00  0.00     0.031 A 
ATOM     59  C   UNL A   1      38.532  29.993  32.202  1.00  0.00     0.131 A 
ATOM     60  C   UNL A   1      36.530  31.372  30.886  1.00  0.00     0.055 A 
ATOM     61  C   UNL A   1      37.361  30.324  32.884  1.00  0.00     0.041 A 
ATOM     62  F   UNL A   1      39.494  29.357  32.889  1.00  0.00    -0.206 F 
ATOM     63  C   UNL A   1      36.354  31.025  32.229  1.00  0.00     0.022 A 
BRANCH  60  64
ATOM     64  S   UNL A   1      35.301  32.411  30.051  1.00  0.00     0.124 S 
ATOM     65  O   UNL A   1      34.895  31.551  28.942  1.00  0.00    -0.237 OA
ATOM     66  O   UNL A   1      34.303  32.622  31.092  1.00  0.00    -0.237 OA
ATOM     67  O   UNL A   1      36.062  33.599  29.665  1.00  0.00    -0.744 OA
ENDBRANCH  60  64
ENDBRANCH  43  57
BRANCH  44  68
ATOM     68  C   UNL A   1      46.996  27.083  26.235  1.00  0.00     0.023 A 
ATOM     69  C   UNL A   1      48.034  26.479  26.962  1.00  0.00     0.031 A 
ATOM     70  C   UNL A   1      47.153  27.212  24.842  1.00  0.00     0.131 A 
ATOM     71  C   UNL A   1      49.186  26.036  26.295  1.00  0.00     0.055 A 
ATOM     72  C   UNL A   1      48.280  26.726  24.177  1.00  0.00     0.041 A 
ATOM     73  F   UNL A   1      46.191  27.782  24.100  1.00  0.00    -0.206 F 
ATOM     74  C   UNL A   1      49.307  26.137  24.907  1.00  0.00     0.022 A 
BRANCH  71  75
ATOM     75  S   UNL A   1      50.549  25.348  27.275  1.00  0.00     0.124 S 
ATOM     76  O   UNL A   1      49.892  24.240  27.957  1.00  0.00    -0.237 OA
ATOM     77  O   UNL A   1      51.514  24.986  26.242  1.00  0.00    -0.237 OA
ATOM     78  O   UNL A   1      50.947  26.463  28.131  1.00  0.00    -0.744 OA
ENDBRANCH  71  75
ENDBRANCH  44  68
BRANCH  56  79
ATOM     79  C   UNL A   1      45.122  33.150  29.126  1.00  0.00     0.023 A 
ATOM     80  C   UNL A   1      45.088  34.123  28.113  1.00  0.00     0.031 A 
ATOM     81  C   UNL A   1      45.806  33.447  30.317  1.00  0.00     0.131 A 
ATOM     82  C   UNL A   1      45.753  35.343  28.300  1.00  0.00     0.055 A 
ATOM     83  C   UNL A   1      46.426  34.681  30.515  1.00  0.00     0.041 A 
ATOM     84  F   UNL A   1      45.865  32.549  31.313  1.00  0.00    -0.206 F 
ATOM     85  C   UNL A   1      46.406  35.634  29.501  1.00  0.00     0.022 A 
BRANCH  82  86
ATOM     86  S   UNL A   1      45.783  36.535  26.934  1.00  0.00     0.124 S 
ATOM     87  O   UNL A   1      46.805  37.477  27.381  1.00  0.00    -0.237 OA
ATOM     88  O   UNL A   1      46.143  35.700  25.793  1.00  0.00    -0.237 OA
ATOM     89  O   UNL A   1      44.421  37.063  26.910  1.00  0.00    -0.744 OA
ENDBRANCH  82  86
ENDBRANCH  56  79
ENDBRANCH  30  31
ENDBRANCH  23  25
ENDBRANCH  22  23
ENDBRANCH   1  22
TORSDOF 15
ENDMDL
