MODEL 1
REMARK VINA RESULT:     -12.6      0.000      0.000
REMARK SMILES O=C(OCCOC(=O)[C@]12C[NH2+]C[C@H]1CN(C(=O)c1ccccc1-n1cncn1)C2)c1ccc(-c2c3nc(c(-c4cc(S(=O)(=O)[O-])ccc4F)c4ccc([nH]4)c(-c4cc(S(=O)(=O)[O-])ccc4F)c4nc(c(-c5cc(S(=O)(=O)[O-])ccc5F)c5ccc2[nH]5)C=C4)C=C3)cc1
REMARK SMILES IDX 4 1 3 2 2 3 1 4 30 5 31 6 92 7 32 8 91 9 33 10 34 11 35 12
REMARK SMILES IDX 85 13 36 14 90 15 84 16 86 17 37 18 89 19 83 20 82 21 38 23
REMARK SMILES IDX 70 24 50 25 69 26 51 27 54 28 68 29 87 30 52 31 53 32 67 34
REMARK SMILES IDX 88 35 55 36 39 37 40 38 48 39 41 40 47 41 49 42 46 43 42 44
REMARK SMILES IDX 43 45 44 46 45 47 71 48 72 49 80 50 73 51 79 52 81 53 78 54
REMARK SMILES IDX 74 55 75 56 76 57 77 58 56 59 57 60 65 61 58 62 64 63 66 64
REMARK SMILES IDX 63 65 59 66 60 67 61 68 62 69 5 70 6 71 7 72 8 73 9 74 10 75
REMARK SMILES IDX 13 76 29 77 11 78 12 79 14 80 15 81 16 84 17 85 18 86 19 87
REMARK SMILES IDX 23 88 20 89 22 90 21 91 24 92 25 93 28 94 26 95 27 96
REMARK H PARENT 86 22 54 33 11 82 11 83
REMARK Flexibility Score: inf
ROOT
ATOM      1  C   UNL A   1      33.506  30.772  27.103  1.00  0.00     0.275 C 
ENDROOT
BRANCH   1   2
ATOM      2  O   UNL A   1      34.410  31.040  28.193  1.00  0.00    -0.458 OA
BRANCH   2   3
ATOM      3  C   UNL A   1      35.588  31.668  27.988  1.00  0.00     0.338 C 
ATOM      4  O   UNL A   1      35.664  32.858  27.722  1.00  0.00    -0.246 OA
BRANCH   3   5
ATOM      5  C   UNL A   1      36.768  30.845  28.365  1.00  0.00     0.060 A 
ATOM      6  C   UNL A   1      36.841  29.466  28.125  1.00  0.00     0.016 A 
ATOM      7  C   UNL A   1      37.853  31.499  28.968  1.00  0.00     0.016 A 
ATOM      8  C   UNL A   1      37.978  28.749  28.488  1.00  0.00     0.010 A 
ATOM      9  C   UNL A   1      38.985  30.780  29.341  1.00  0.00     0.010 A 
ATOM     10  C   UNL A   1      39.038  29.401  29.119  1.00  0.00    -0.014 A 
BRANCH  10  11
ATOM     11  C   UNL A   1      40.221  28.625  29.491  1.00  0.00     0.031 A 
ATOM     12  C   UNL A   1      40.474  28.453  30.947  1.00  0.00     0.074 A 
ATOM     13  C   UNL A   1      40.956  27.933  28.598  1.00  0.00     0.049 A 
ATOM     14  N   UNL A   1      41.447  28.921  31.659  1.00  0.00    -0.248 NA
ATOM     15  C   UNL A   1      39.456  27.748  31.733  1.00  0.00     0.031 C 
ATOM     16  C   UNL A   1      40.675  27.744  27.174  1.00  0.00     0.029 A 
ATOM     17  N   UNL A   1      42.049  27.144  28.808  1.00  0.00    -0.354 N 
ATOM     18  C   UNL A   1      41.302  28.365  32.931  1.00  0.00     0.074 A 
ATOM     19  C   UNL A   1      39.966  27.834  32.961  1.00  0.00     0.031 C 
ATOM     20  C   UNL A   1      41.422  26.719  26.709  1.00  0.00     0.029 A 
ATOM     21  C   UNL A   1      42.327  26.278  27.757  1.00  0.00     0.049 A 
ATOM     22  H   UNL A   1      42.591  27.184  29.629  1.00  0.00     0.167 HD
ATOM     23  C   UNL A   1      42.372  28.179  33.759  1.00  0.00     0.034 A 
ATOM     24  C   UNL A   1      43.193  25.231  27.757  1.00  0.00     0.034 A 
ATOM     25  C   UNL A   1      43.519  28.945  33.302  1.00  0.00     0.049 A 
ATOM     26  C   UNL A   1      44.188  25.483  28.826  1.00  0.00     0.074 A 
ATOM     27  C   UNL A   1      43.748  30.279  33.016  1.00  0.00     0.029 A 
ATOM     28  N   UNL A   1      44.577  28.274  32.722  1.00  0.00    -0.354 N 
ATOM     29  N   UNL A   1      45.036  26.475  28.790  1.00  0.00    -0.248 NA
ATOM     30  C   UNL A   1      43.955  24.923  30.149  1.00  0.00     0.031 C 
ATOM     31  C   UNL A   1      44.584  30.266  31.858  1.00  0.00     0.029 A 
ATOM     32  C   UNL A   1      44.882  28.936  31.563  1.00  0.00     0.049 A 
ATOM     33  H   UNL A   1      45.027  27.473  33.076  1.00  0.00     0.167 HD
ATOM     34  C   UNL A   1      45.087  26.949  30.091  1.00  0.00     0.074 A 
ATOM     35  C   UNL A   1      44.504  25.882  30.902  1.00  0.00     0.031 C 
ATOM     36  C   UNL A   1      45.325  28.270  30.354  1.00  0.00     0.034 A 
BRANCH  23  37
ATOM     37  C   UNL A   1      42.543  27.006  34.723  1.00  0.00     0.023 A 
ATOM     38  C   UNL A   1      43.432  25.992  34.315  1.00  0.00     0.031 A 
ATOM     39  C   UNL A   1      41.685  26.654  35.786  1.00  0.00     0.131 A 
ATOM     40  C   UNL A   1      43.271  24.666  34.750  1.00  0.00     0.055 A 
ATOM     41  C   UNL A   1      41.586  25.348  36.283  1.00  0.00     0.041 A 
ATOM     42  F   UNL A   1      40.855  27.520  36.373  1.00  0.00    -0.206 F 
ATOM     43  C   UNL A   1      42.338  24.331  35.723  1.00  0.00     0.022 A 
BRANCH  40  44
ATOM     44  S   UNL A   1      44.120  23.372  33.812  1.00  0.00     0.124 S 
ATOM     45  O   UNL A   1      45.322  24.085  33.387  1.00  0.00    -0.237 OA
ATOM     46  O   UNL A   1      44.304  22.340  34.825  1.00  0.00    -0.237 OA
ATOM     47  O   UNL A   1      43.171  23.047  32.749  1.00  0.00    -0.744 OA
ENDBRANCH  40  44
ENDBRANCH  23  37
BRANCH  24  48
ATOM     48  C   UNL A   1      43.007  23.924  27.071  1.00  0.00     0.023 A 
ATOM     49  C   UNL A   1      43.918  23.413  26.124  1.00  0.00     0.031 A 
ATOM     50  C   UNL A   1      41.997  23.040  27.519  1.00  0.00     0.131 A 
ATOM     51  C   UNL A   1      43.789  22.083  25.659  1.00  0.00     0.055 A 
ATOM     52  C   UNL A   1      41.868  21.733  27.048  1.00  0.00     0.041 A 
ATOM     53  F   UNL A   1      41.147  23.392  28.497  1.00  0.00    -0.206 F 
ATOM     54  C   UNL A   1      42.769  21.245  26.119  1.00  0.00     0.022 A 
BRANCH  51  55
ATOM     55  S   UNL A   1      45.014  21.381  24.506  1.00  0.00     0.124 S 
ATOM     56  O   UNL A   1      44.771  19.948  24.629  1.00  0.00    -0.237 OA
ATOM     57  O   UNL A   1      44.642  21.997  23.237  1.00  0.00    -0.237 OA
ATOM     58  O   UNL A   1      46.294  21.834  25.050  1.00  0.00    -0.744 OA
ENDBRANCH  51  55
ENDBRANCH  24  48
BRANCH  36  59
ATOM     59  C   UNL A   1      45.853  29.151  29.243  1.00  0.00     0.023 A 
ATOM     60  C   UNL A   1      45.057  30.014  28.457  1.00  0.00     0.031 A 
ATOM     61  C   UNL A   1      47.246  29.203  29.062  1.00  0.00     0.131 A 
ATOM     62  C   UNL A   1      45.662  30.873  27.521  1.00  0.00     0.055 A 
ATOM     63  C   UNL A   1      47.844  30.068  28.147  1.00  0.00     0.041 A 
ATOM     64  F   UNL A   1      48.060  28.436  29.805  1.00  0.00    -0.206 F 
ATOM     65  C   UNL A   1      47.051  30.902  27.366  1.00  0.00     0.022 A 
BRANCH  62  66
ATOM     66  S   UNL A   1      44.650  31.967  26.475  1.00  0.00     0.124 S 
ATOM     67  O   UNL A   1      43.554  31.112  26.036  1.00  0.00    -0.237 OA
ATOM     68  O   UNL A   1      44.294  33.042  27.398  1.00  0.00    -0.237 OA
ATOM     69  O   UNL A   1      45.573  32.366  25.410  1.00  0.00    -0.744 OA
ENDBRANCH  62  66
ENDBRANCH  36  59
ENDBRANCH  10  11
ENDBRANCH   3   5
ENDBRANCH   2   3
ENDBRANCH   1   2
BRANCH   1  70
ATOM     70  C   UNL A   1      33.745  29.524  26.257  1.00  0.00     0.274 C 
BRANCH  70  71
ATOM     71  O   UNL A   1      32.605  29.207  25.429  1.00  0.00    -0.461 OA
BRANCH  71  72
ATOM     72  C   UNL A   1      32.143  27.921  25.503  1.00  0.00     0.320 C 
ATOM     73  O   UNL A   1      31.334  27.527  26.333  1.00  0.00    -0.251 OA
BRANCH  72  74
ATOM     74  C   UNL A   1      32.884  27.050  24.446  1.00  0.00     0.144 C 
ATOM     75  C   UNL A   1      32.087  27.934  23.391  1.00  0.00     0.281 C 
ATOM     76  C   UNL A   1      32.887  25.919  23.345  1.00  0.00     0.088 C 
ATOM     77  C   UNL A   1      32.609  25.882  25.518  1.00  0.00     0.145 C 
ATOM     78  N   UNL A   1      32.722  27.819  22.070  1.00  0.00    -0.345 N 
ATOM     79  C   UNL A   1      33.347  26.518  22.040  1.00  0.00     0.267 C 
ATOM     80  C   UNL A   1      33.808  24.813  23.814  1.00  0.00     0.130 C 
ATOM     81  N   UNL A   1      33.484  24.764  25.204  1.00  0.00    -0.337 N 
ATOM     82  H   UNL A   1      33.420  28.551  21.948  1.00  0.00     0.346 HD
ATOM     83  H   UNL A   1      32.039  27.922  21.319  1.00  0.00     0.346 HD
BRANCH  81  84
ATOM     84  C   UNL A   1      33.970  23.784  26.047  1.00  0.00     0.256 C 
ATOM     85  O   UNL A   1      33.473  23.494  27.121  1.00  0.00    -0.269 OA
BRANCH  84  86
ATOM     86  C   UNL A   1      35.169  23.036  25.601  1.00  0.00     0.065 A 
ATOM     87  C   UNL A   1      36.397  23.677  25.830  1.00  0.00     0.016 A 
ATOM     88  C   UNL A   1      35.143  21.715  25.127  1.00  0.00     0.079 A 
ATOM     89  C   UNL A   1      37.597  22.997  25.620  1.00  0.00     0.001 A 
ATOM     90  C   UNL A   1      36.359  21.030  24.950  1.00  0.00     0.029 A 
ATOM     91  C   UNL A   1      37.577  21.673  25.188  1.00  0.00     0.002 A 
BRANCH  88  92
ATOM     92  N   UNL A   1      33.937  21.015  24.872  1.00  0.00    -0.220 N 
ATOM     93  C   UNL A   1      33.274  20.077  25.627  1.00  0.00     0.225 A 
ATOM     94  N   UNL A   1      33.275  21.176  23.698  1.00  0.00    -0.155 NA
ATOM     95  N   UNL A   1      32.316  19.516  24.925  1.00  0.00    -0.223 NA
ATOM     96  C   UNL A   1      32.382  20.187  23.743  1.00  0.00     0.246 A 
ENDBRANCH  88  92
ENDBRANCH  84  86
ENDBRANCH  81  84
ENDBRANCH  72  74
ENDBRANCH  71  72
ENDBRANCH  70  71
ENDBRANCH   1  70
TORSDOF 17
ENDMDL
MODEL 2
REMARK VINA RESULT:     -12.5      3.416      9.423
REMARK SMILES O=C(OCCOC(=O)[C@]12C[NH2+]C[C@H]1CN(C(=O)c1ccccc1-n1cncn1)C2)c1ccc(-c2c3nc(c(-c4cc(S(=O)(=O)[O-])ccc4F)c4ccc([nH]4)c(-c4cc(S(=O)(=O)[O-])ccc4F)c4nc(c(-c5cc(S(=O)(=O)[O-])ccc5F)c5ccc2[nH]5)C=C4)C=C3)cc1
REMARK SMILES IDX 4 1 3 2 2 3 1 4 30 5 31 6 92 7 32 8 91 9 33 10 34 11 35 12
REMARK SMILES IDX 85 13 36 14 90 15 84 16 86 17 37 18 89 19 83 20 82 21 38 23
REMARK SMILES IDX 70 24 50 25 69 26 51 27 54 28 68 29 87 30 52 31 53 32 67 34
REMARK SMILES IDX 88 35 55 36 39 37 40 38 48 39 41 40 47 41 49 42 46 43 42 44
REMARK SMILES IDX 43 45 44 46 45 47 71 48 72 49 80 50 73 51 79 52 81 53 78 54
REMARK SMILES IDX 74 55 75 56 76 57 77 58 56 59 57 60 65 61 58 62 64 63 66 64
REMARK SMILES IDX 63 65 59 66 60 67 61 68 62 69 5 70 6 71 7 72 8 73 9 74 10 75
REMARK SMILES IDX 13 76 29 77 11 78 12 79 14 80 15 81 16 84 17 85 18 86 19 87
REMARK SMILES IDX 23 88 20 89 22 90 21 91 24 92 25 93 28 94 26 95 27 96
REMARK H PARENT 86 22 54 33 11 82 11 83
REMARK Flexibility Score: inf
ROOT
ATOM      1  C   UNL A   1      38.893  21.375  26.061  1.00  0.00     0.275 C 
ENDROOT
BRANCH   1   2
ATOM      2  O   UNL A   1      39.867  22.434  26.160  1.00  0.00    -0.458 OA
BRANCH   2   3
ATOM      3  C   UNL A   1      40.569  22.634  27.296  1.00  0.00     0.338 C 
ATOM      4  O   UNL A   1      41.269  21.770  27.801  1.00  0.00    -0.246 OA
BRANCH   3   5
ATOM      5  C   UNL A   1      40.610  24.060  27.719  1.00  0.00     0.060 A 
ATOM      6  C   UNL A   1      39.555  24.952  27.488  1.00  0.00     0.016 A 
ATOM      7  C   UNL A   1      41.756  24.506  28.395  1.00  0.00     0.016 A 
ATOM      8  C   UNL A   1      39.645  26.273  27.919  1.00  0.00     0.010 A 
ATOM      9  C   UNL A   1      41.851  25.829  28.816  1.00  0.00     0.010 A 
ATOM     10  C   UNL A   1      40.803  26.717  28.559  1.00  0.00    -0.014 A 
BRANCH  10  11
ATOM     11  C   UNL A   1      40.871  28.110  29.002  1.00  0.00     0.031 A 
ATOM     12  C   UNL A   1      41.940  28.949  28.395  1.00  0.00     0.074 A 
ATOM     13  C   UNL A   1      39.925  28.684  29.770  1.00  0.00     0.049 A 
ATOM     14  N   UNL A   1      42.977  29.472  28.964  1.00  0.00    -0.248 NA
ATOM     15  C   UNL A   1      41.900  29.150  26.943  1.00  0.00     0.031 C 
ATOM     16  C   UNL A   1      38.657  28.096  30.204  1.00  0.00     0.029 A 
ATOM     17  N   UNL A   1      39.843  29.970  30.220  1.00  0.00    -0.354 N 
ATOM     18  C   UNL A   1      43.587  30.275  27.999  1.00  0.00     0.074 A 
ATOM     19  C   UNL A   1      43.006  29.871  26.748  1.00  0.00     0.031 C 
ATOM     20  C   UNL A   1      37.840  29.079  30.641  1.00  0.00     0.029 A 
ATOM     21  C   UNL A   1      38.572  30.335  30.648  1.00  0.00     0.049 A 
ATOM     22  H   UNL A   1      40.614  30.582  30.239  1.00  0.00     0.167 HD
ATOM     23  C   UNL A   1      44.340  31.363  28.342  1.00  0.00     0.034 A 
ATOM     24  C   UNL A   1      38.125  31.587  30.933  1.00  0.00     0.034 A 
ATOM     25  C   UNL A   1      44.696  31.322  29.750  1.00  0.00     0.049 A 
ATOM     26  C   UNL A   1      39.310  32.415  31.257  1.00  0.00     0.074 A 
ATOM     27  C   UNL A   1      45.330  30.405  30.568  1.00  0.00     0.029 A 
ATOM     28  N   UNL A   1      44.071  32.196  30.618  1.00  0.00    -0.354 N 
ATOM     29  N   UNL A   1      40.062  32.202  32.303  1.00  0.00    -0.248 NA
ATOM     30  C   UNL A   1      39.939  33.187  30.197  1.00  0.00     0.031 C 
ATOM     31  C   UNL A   1      44.612  30.457  31.801  1.00  0.00     0.029 A 
ATOM     32  C   UNL A   1      43.645  31.457  31.689  1.00  0.00     0.049 A 
ATOM     33  H   UNL A   1      43.955  33.165  30.490  1.00  0.00     0.167 HD
ATOM     34  C   UNL A   1      41.359  32.405  31.858  1.00  0.00     0.074 A 
ATOM     35  C   UNL A   1      41.213  33.130  30.597  1.00  0.00     0.031 C 
ATOM     36  C   UNL A   1      42.409  31.717  32.400  1.00  0.00     0.034 A 
BRANCH  23  37
ATOM     37  C   UNL A   1      44.408  32.667  27.549  1.00  0.00     0.023 A 
ATOM     38  C   UNL A   1      43.901  33.812  28.195  1.00  0.00     0.031 A 
ATOM     39  C   UNL A   1      44.597  32.802  26.158  1.00  0.00     0.131 A 
ATOM     40  C   UNL A   1      43.373  34.887  27.460  1.00  0.00     0.055 A 
ATOM     41  C   UNL A   1      44.149  33.914  25.434  1.00  0.00     0.041 A 
ATOM     42  F   UNL A   1      45.168  31.859  25.403  1.00  0.00    -0.206 F 
ATOM     43  C   UNL A   1      43.477  34.939  26.077  1.00  0.00     0.022 A 
BRANCH  40  44
ATOM     44  S   UNL A   1      42.315  36.060  28.343  1.00  0.00     0.124 S 
ATOM     45  O   UNL A   1      42.763  35.853  29.717  1.00  0.00    -0.237 OA
ATOM     46  O   UNL A   1      42.691  37.326  27.724  1.00  0.00    -0.237 OA
ATOM     47  O   UNL A   1      40.965  35.590  28.043  1.00  0.00    -0.744 OA
ENDBRANCH  40  44
ENDBRANCH  23  37
BRANCH  24  48
ATOM     48  C   UNL A   1      36.769  32.130  30.651  1.00  0.00     0.023 A 
ATOM     49  C   UNL A   1      36.007  32.835  31.606  1.00  0.00     0.031 A 
ATOM     50  C   UNL A   1      36.286  32.141  29.322  1.00  0.00     0.131 A 
ATOM     51  C   UNL A   1      34.817  33.496  31.218  1.00  0.00     0.055 A 
ATOM     52  C   UNL A   1      35.106  32.786  28.947  1.00  0.00     0.041 A 
ATOM     53  F   UNL A   1      36.991  31.593  28.319  1.00  0.00    -0.206 F 
ATOM     54  C   UNL A   1      34.369  33.473  29.895  1.00  0.00     0.022 A 
BRANCH  51  55
ATOM     55  S   UNL A   1      33.873  34.487  32.421  1.00  0.00     0.124 S 
ATOM     56  O   UNL A   1      32.902  35.167  31.571  1.00  0.00    -0.237 OA
ATOM     57  O   UNL A   1      33.346  33.469  33.324  1.00  0.00    -0.237 OA
ATOM     58  O   UNL A   1      34.886  35.361  33.015  1.00  0.00    -0.744 OA
ENDBRANCH  51  55
ENDBRANCH  24  48
BRANCH  36  59
ATOM     59  C   UNL A   1      42.200  30.974  33.702  1.00  0.00     0.023 A 
ATOM     60  C   UNL A   1      42.037  29.575  33.809  1.00  0.00     0.031 A 
ATOM     61  C   UNL A   1      42.296  31.713  34.894  1.00  0.00     0.131 A 
ATOM     62  C   UNL A   1      41.958  28.970  35.078  1.00  0.00     0.055 A 
ATOM     63  C   UNL A   1      42.235  31.109  36.149  1.00  0.00     0.041 A 
ATOM     64  F   UNL A   1      42.490  33.043  34.859  1.00  0.00    -0.206 F 
ATOM     65  C   UNL A   1      42.058  29.734  36.245  1.00  0.00     0.022 A 
BRANCH  62  66
ATOM     66  S   UNL A   1      41.713  27.173  35.235  1.00  0.00     0.124 S 
ATOM     67  O   UNL A   1      40.608  26.892  34.327  1.00  0.00    -0.237 OA
ATOM     68  O   UNL A   1      43.016  26.644  34.843  1.00  0.00    -0.237 OA
ATOM     69  O   UNL A   1      41.392  26.999  36.654  1.00  0.00    -0.744 OA
ENDBRANCH  62  66
ENDBRANCH  36  59
ENDBRANCH  10  11
ENDBRANCH   3   5
ENDBRANCH   2   3
ENDBRANCH   1   2
BRANCH   1  70
ATOM     70  C   UNL A   1      37.755  21.534  25.054  1.00  0.00     0.274 C 
BRANCH  70  71
ATOM     71  O   UNL A   1      36.552  22.034  25.677  1.00  0.00    -0.461 OA
BRANCH  71  72
ATOM     72  C   UNL A   1      35.687  22.713  24.862  1.00  0.00     0.320 C 
ATOM     73  O   UNL A   1      35.867  22.889  23.664  1.00  0.00    -0.251 OA
BRANCH  72  74
ATOM     74  C   UNL A   1      34.524  23.293  25.718  1.00  0.00     0.144 C 
ATOM     75  C   UNL A   1      34.214  21.768  26.046  1.00  0.00     0.281 C 
ATOM     76  C   UNL A   1      32.987  23.553  25.967  1.00  0.00     0.088 C 
ATOM     77  C   UNL A   1      34.411  24.328  24.492  1.00  0.00     0.145 C 
ATOM     78  N   UNL A   1      33.360  21.681  27.238  1.00  0.00    -0.345 N 
ATOM     79  C   UNL A   1      32.592  22.903  27.268  1.00  0.00     0.267 C 
ATOM     80  C   UNL A   1      32.766  25.051  25.994  1.00  0.00     0.130 C 
ATOM     81  N   UNL A   1      33.625  25.470  24.934  1.00  0.00    -0.337 N 
ATOM     82  H   UNL A   1      33.932  21.601  28.078  1.00  0.00     0.346 HD
ATOM     83  H   UNL A   1      32.755  20.860  27.204  1.00  0.00     0.346 HD
BRANCH  81  84
ATOM     84  C   UNL A   1      33.653  26.769  24.467  1.00  0.00     0.256 C 
ATOM     85  O   UNL A   1      34.024  27.090  23.351  1.00  0.00    -0.269 OA
BRANCH  84  86
ATOM     86  C   UNL A   1      33.188  27.833  25.388  1.00  0.00     0.065 A 
ATOM     87  C   UNL A   1      34.069  28.148  26.436  1.00  0.00     0.016 A 
ATOM     88  C   UNL A   1      32.037  28.609  25.179  1.00  0.00     0.079 A 
ATOM     89  C   UNL A   1      33.824  29.250  27.254  1.00  0.00     0.001 A 
ATOM     90  C   UNL A   1      31.819  29.736  25.992  1.00  0.00     0.029 A 
ATOM     91  C   UNL A   1      32.704  30.047  27.027  1.00  0.00     0.002 A 
BRANCH  88  92
ATOM     92  N   UNL A   1      31.108  28.340  24.144  1.00  0.00    -0.220 N 
ATOM     93  C   UNL A   1      30.925  28.955  22.928  1.00  0.00     0.225 A 
ATOM     94  N   UNL A   1      30.160  27.379  24.292  1.00  0.00    -0.155 NA
ATOM     95  N   UNL A   1      29.811  28.543  22.367  1.00  0.00    -0.223 NA
ATOM     96  C   UNL A   1      29.358  27.615  23.254  1.00  0.00     0.246 A 
ENDBRANCH  88  92
ENDBRANCH  84  86
ENDBRANCH  81  84
ENDBRANCH  72  74
ENDBRANCH  71  72
ENDBRANCH  70  71
ENDBRANCH   1  70
TORSDOF 17
ENDMDL
MODEL 3
REMARK VINA RESULT:     -12.4      1.326      1.606
REMARK SMILES O=C(OCCOC(=O)[C@]12C[NH2+]C[C@H]1CN(C(=O)c1ccccc1-n1cncn1)C2)c1ccc(-c2c3nc(c(-c4cc(S(=O)(=O)[O-])ccc4F)c4ccc([nH]4)c(-c4cc(S(=O)(=O)[O-])ccc4F)c4nc(c(-c5cc(S(=O)(=O)[O-])ccc5F)c5ccc2[nH]5)C=C4)C=C3)cc1
REMARK SMILES IDX 4 1 3 2 2 3 1 4 30 5 31 6 92 7 32 8 91 9 33 10 34 11 35 12
REMARK SMILES IDX 85 13 36 14 90 15 84 16 86 17 37 18 89 19 83 20 82 21 38 23
REMARK SMILES IDX 70 24 50 25 69 26 51 27 54 28 68 29 87 30 52 31 53 32 67 34
REMARK SMILES IDX 88 35 55 36 39 37 40 38 48 39 41 40 47 41 49 42 46 43 42 44
REMARK SMILES IDX 43 45 44 46 45 47 71 48 72 49 80 50 73 51 79 52 81 53 78 54
REMARK SMILES IDX 74 55 75 56 76 57 77 58 56 59 57 60 65 61 58 62 64 63 66 64
REMARK SMILES IDX 63 65 59 66 60 67 61 68 62 69 5 70 6 71 7 72 8 73 9 74 10 75
REMARK SMILES IDX 13 76 29 77 11 78 12 79 14 80 15 81 16 84 17 85 18 86 19 87
REMARK SMILES IDX 23 88 20 89 22 90 21 91 24 92 25 93 28 94 26 95 27 96
REMARK H PARENT 86 22 54 33 11 82 11 83
REMARK Flexibility Score: inf
ROOT
ATOM      1  C   UNL A   1      33.354  31.582  27.242  1.00  0.00     0.275 C 
ENDROOT
BRANCH   1   2
ATOM      2  O   UNL A   1      34.389  31.308  28.208  1.00  0.00    -0.458 OA
BRANCH   2   3
ATOM      3  C   UNL A   1      35.563  31.974  28.184  1.00  0.00     0.338 C 
ATOM      4  O   UNL A   1      35.630  33.193  28.119  1.00  0.00    -0.246 OA
BRANCH   3   5
ATOM      5  C   UNL A   1      36.735  31.114  28.500  1.00  0.00     0.060 A 
ATOM      6  C   UNL A   1      36.794  29.756  28.162  1.00  0.00     0.016 A 
ATOM      7  C   UNL A   1      37.827  31.713  29.148  1.00  0.00     0.016 A 
ATOM      8  C   UNL A   1      37.924  29.003  28.472  1.00  0.00     0.010 A 
ATOM      9  C   UNL A   1      38.951  30.958  29.468  1.00  0.00     0.010 A 
ATOM     10  C   UNL A   1      38.990  29.598  29.148  1.00  0.00    -0.014 A 
BRANCH  10  11
ATOM     11  C   UNL A   1      40.165  28.785  29.462  1.00  0.00     0.031 A 
ATOM     12  C   UNL A   1      40.466  28.580  30.905  1.00  0.00     0.074 A 
ATOM     13  C   UNL A   1      40.849  28.092  28.531  1.00  0.00     0.049 A 
ATOM     14  N   UNL A   1      41.477  29.011  31.588  1.00  0.00    -0.248 NA
ATOM     15  C   UNL A   1      39.459  27.887  31.715  1.00  0.00     0.031 C 
ATOM     16  C   UNL A   1      40.511  27.935  27.116  1.00  0.00     0.029 A 
ATOM     17  N   UNL A   1      41.928  27.271  28.687  1.00  0.00    -0.354 N 
ATOM     18  C   UNL A   1      41.363  28.435  32.855  1.00  0.00     0.074 A 
ATOM     19  C   UNL A   1      40.016  27.938  32.926  1.00  0.00     0.031 C 
ATOM     20  C   UNL A   1      41.214  26.901  26.605  1.00  0.00     0.029 A 
ATOM     21  C   UNL A   1      42.145  26.418  27.612  1.00  0.00     0.049 A 
ATOM     22  H   UNL A   1      42.500  27.283  29.488  1.00  0.00     0.167 HD
ATOM     23  C   UNL A   1      42.458  28.208  33.640  1.00  0.00     0.034 A 
ATOM     24  C   UNL A   1      42.983  25.349  27.562  1.00  0.00     0.034 A 
ATOM     25  C   UNL A   1      43.607  28.953  33.154  1.00  0.00     0.049 A 
ATOM     26  C   UNL A   1      44.023  25.556  28.597  1.00  0.00     0.074 A 
ATOM     27  C   UNL A   1      43.860  30.285  32.883  1.00  0.00     0.029 A 
ATOM     28  N   UNL A   1      44.626  28.265  32.524  1.00  0.00    -0.354 N 
ATOM     29  N   UNL A   1      44.894  26.527  28.547  1.00  0.00    -0.248 NA
ATOM     30  C   UNL A   1      43.823  24.979  29.918  1.00  0.00     0.031 C 
ATOM     31  C   UNL A   1      44.653  30.272  31.695  1.00  0.00     0.029 A 
ATOM     32  C   UNL A   1      44.905  28.940  31.366  1.00  0.00     0.049 A 
ATOM     33  H   UNL A   1      45.067  27.447  32.847  1.00  0.00     0.167 HD
ATOM     34  C   UNL A   1      45.005  26.976  29.854  1.00  0.00     0.074 A 
ATOM     35  C   UNL A   1      44.424  25.909  30.666  1.00  0.00     0.031 C 
ATOM     36  C   UNL A   1      45.286  28.285  30.130  1.00  0.00     0.034 A 
BRANCH  23  37
ATOM     37  C   UNL A   1      42.633  27.013  34.577  1.00  0.00     0.023 A 
ATOM     38  C   UNL A   1      43.561  26.035  34.167  1.00  0.00     0.031 A 
ATOM     39  C   UNL A   1      41.755  26.609  35.604  1.00  0.00     0.131 A 
ATOM     40  C   UNL A   1      43.424  24.694  34.562  1.00  0.00     0.055 A 
ATOM     41  C   UNL A   1      41.678  25.288  36.062  1.00  0.00     0.041 A 
ATOM     42  F   UNL A   1      40.885  27.436  36.189  1.00  0.00    -0.206 F 
ATOM     43  C   UNL A   1      42.474  24.307  35.498  1.00  0.00     0.022 A 
BRANCH  40  44
ATOM     44  S   UNL A   1      44.334  23.449  33.614  1.00  0.00     0.124 S 
ATOM     45  O   UNL A   1      44.564  22.436  34.640  1.00  0.00    -0.237 OA
ATOM     46  O   UNL A   1      43.374  23.106  32.572  1.00  0.00    -0.237 OA
ATOM     47  O   UNL A   1      45.522  24.170  33.162  1.00  0.00    -0.744 OA
ENDBRANCH  40  44
ENDBRANCH  23  37
BRANCH  24  48
ATOM     48  C   UNL A   1      42.738  24.060  26.861  1.00  0.00     0.023 A 
ATOM     49  C   UNL A   1      43.704  23.426  26.053  1.00  0.00     0.031 A 
ATOM     50  C   UNL A   1      41.576  23.312  27.164  1.00  0.00     0.131 A 
ATOM     51  C   UNL A   1      43.481  22.111  25.578  1.00  0.00     0.055 A 
ATOM     52  C   UNL A   1      41.357  22.020  26.685  1.00  0.00     0.041 A 
ATOM     53  F   UNL A   1      40.647  23.782  28.012  1.00  0.00    -0.206 F 
ATOM     54  C   UNL A   1      42.314  21.410  25.894  1.00  0.00     0.022 A 
BRANCH  51  55
ATOM     55  S   UNL A   1      44.761  21.245  24.612  1.00  0.00     0.124 S 
ATOM     56  O   UNL A   1      44.278  19.869  24.618  1.00  0.00    -0.237 OA
ATOM     57  O   UNL A   1      44.716  21.943  23.332  1.00  0.00    -0.237 OA
ATOM     58  O   UNL A   1      45.983  21.469  25.385  1.00  0.00    -0.744 OA
ENDBRANCH  51  55
ENDBRANCH  24  48
BRANCH  36  59
ATOM     59  C   UNL A   1      45.796  29.173  29.016  1.00  0.00     0.023 A 
ATOM     60  C   UNL A   1      47.153  29.286  28.638  1.00  0.00     0.031 A 
ATOM     61  C   UNL A   1      44.841  29.837  28.226  1.00  0.00     0.131 A 
ATOM     62  C   UNL A   1      47.510  30.057  27.516  1.00  0.00     0.055 A 
ATOM     63  C   UNL A   1      45.196  30.585  27.105  1.00  0.00     0.041 A 
ATOM     64  F   UNL A   1      43.532  29.738  28.510  1.00  0.00    -0.206 F 
ATOM     65  C   UNL A   1      46.535  30.704  26.750  1.00  0.00     0.022 A 
BRANCH  62  66
ATOM     66  S   UNL A   1      49.256  30.242  27.034  1.00  0.00     0.124 S 
ATOM     67  O   UNL A   1      49.334  31.606  26.527  1.00  0.00    -0.237 OA
ATOM     68  O   UNL A   1      49.956  29.983  28.289  1.00  0.00    -0.237 OA
ATOM     69  O   UNL A   1      49.437  29.204  26.016  1.00  0.00    -0.744 OA
ENDBRANCH  62  66
ENDBRANCH  36  59
ENDBRANCH  10  11
ENDBRANCH   3   5
ENDBRANCH   2   3
ENDBRANCH   1   2
BRANCH   1  70
ATOM     70  C   UNL A   1      32.410  30.446  26.855  1.00  0.00     0.274 C 
BRANCH  70  71
ATOM     71  O   UNL A   1      32.953  29.633  25.792  1.00  0.00    -0.461 OA
BRANCH  71  72
ATOM     72  C   UNL A   1      33.559  28.467  26.172  1.00  0.00     0.320 C 
ATOM     73  O   UNL A   1      33.921  28.221  27.315  1.00  0.00    -0.251 OA
BRANCH  72  74
ATOM     74  C   UNL A   1      33.793  27.579  24.915  1.00  0.00     0.144 C 
ATOM     75  C   UNL A   1      33.123  28.788  24.129  1.00  0.00     0.281 C 
ATOM     76  C   UNL A   1      33.252  26.657  23.754  1.00  0.00     0.088 C 
ATOM     77  C   UNL A   1      33.379  26.398  25.926  1.00  0.00     0.145 C 
ATOM     78  N   UNL A   1      33.440  28.684  22.698  1.00  0.00    -0.345 N 
ATOM     79  C   UNL A   1      33.625  27.278  22.432  1.00  0.00     0.267 C 
ATOM     80  C   UNL A   1      33.864  25.282  23.925  1.00  0.00     0.130 C 
ATOM     81  N   UNL A   1      33.800  25.134  25.343  1.00  0.00    -0.337 N 
ATOM     82  H   UNL A   1      34.293  29.200  22.486  1.00  0.00     0.346 HD
ATOM     83  H   UNL A   1      32.695  29.078  22.122  1.00  0.00     0.346 HD
BRANCH  81  84
ATOM     84  C   UNL A   1      34.112  23.950  25.982  1.00  0.00     0.256 C 
ATOM     85  O   UNL A   1      33.428  23.437  26.851  1.00  0.00    -0.269 OA
BRANCH  84  86
ATOM     86  C   UNL A   1      35.358  23.262  25.569  1.00  0.00     0.065 A 
ATOM     87  C   UNL A   1      36.551  23.898  25.948  1.00  0.00     0.016 A 
ATOM     88  C   UNL A   1      35.396  21.986  24.982  1.00  0.00     0.079 A 
ATOM     89  C   UNL A   1      37.777  23.256  25.774  1.00  0.00     0.001 A 
ATOM     90  C   UNL A   1      36.637  21.338  24.843  1.00  0.00     0.029 A 
ATOM     91  C   UNL A   1      37.819  21.975  25.230  1.00  0.00     0.002 A 
BRANCH  88  92
ATOM     92  N   UNL A   1      34.229  21.294  24.574  1.00  0.00    -0.220 N 
ATOM     93  C   UNL A   1      33.306  21.599  23.602  1.00  0.00     0.225 A 
ATOM     94  N   UNL A   1      33.830  20.166  25.216  1.00  0.00    -0.155 NA
ATOM     95  N   UNL A   1      32.258  20.812  23.701  1.00  0.00    -0.223 NA
ATOM     96  C   UNL A   1      32.604  19.984  24.724  1.00  0.00     0.246 A 
ENDBRANCH  88  92
ENDBRANCH  84  86
ENDBRANCH  81  84
ENDBRANCH  72  74
ENDBRANCH  71  72
ENDBRANCH  70  71
ENDBRANCH   1  70
TORSDOF 17
ENDMDL
