MODEL 1
REMARK VINA RESULT:     -12.4      0.000      0.000
REMARK SMILES C[C@H]1CCC[C@H](C)N1C(=O)[C@H]1[C@@H](C(=O)OCCOC(=O)c2ccc(-c3c4nc(c(-c5cc(S(=O)(=O)[O-])ccc5F)c5ccc([nH]5)c(-c5cc(S(=O)(=O)[O-])ccc5F)c5nc(c(-c6cc(S(=O)(=O)[O-])ccc6F)c6ccc3[nH]6)C=C5)C=C4)cc2)[C@H]2CC[C@@H]1O2
REMARK SMILES IDX 17 1 16 2 15 3 13 4 14 5 12 6 11 7 87 8 84 9 86 10 88 11
REMARK SMILES IDX 85 12 9 13 1 14 2 15 3 16 8 17 4 18 6 19 5 20 7 21 10 22
REMARK SMILES IDX 18 23 19 24 20 25 21 26 22 27 83 28 23 29 82 30 24 31 25 32
REMARK SMILES IDX 26 33 76 34 27 35 81 36 75 37 77 38 28 39 80 40 74 41 73 42
REMARK SMILES IDX 29 44 61 45 41 46 60 47 42 48 45 49 59 50 78 51 43 52 44 53
REMARK SMILES IDX 58 55 79 56 46 57 30 58 31 59 39 60 32 61 38 62 40 63 37 64
REMARK SMILES IDX 33 65 34 66 35 67 36 68 62 69 63 70 71 71 64 72 70 73 72 74
REMARK SMILES IDX 69 75 65 76 66 77 67 78 68 79 47 80 48 81 56 82 49 83 55 84
REMARK SMILES IDX 57 85 54 86 50 87 51 88 52 89 53 90
REMARK H PARENT 77 43 45 54
REMARK Flexibility Score: inf
ROOT
ATOM      1  C   UNL A   1      31.899  30.911  25.977  1.00  0.00     0.275 C 
ENDROOT
BRANCH   1   2
ATOM      2  C   UNL A   1      31.749  29.508  25.382  1.00  0.00     0.274 C 
BRANCH   2   3
ATOM      3  O   UNL A   1      31.469  28.498  26.379  1.00  0.00    -0.462 OA
BRANCH   3   4
ATOM      4  C   UNL A   1      32.357  27.468  26.360  1.00  0.00     0.312 C 
ATOM      5  O   UNL A   1      33.534  27.588  26.025  1.00  0.00    -0.252 OA
BRANCH   4   6
ATOM      6  C   UNL A   1      31.755  26.100  26.537  1.00  0.00     0.143 C 
ATOM      7  C   UNL A   1      32.337  24.731  26.141  1.00  0.00     0.124 C 
ATOM      8  C   UNL A   1      31.088  24.076  25.471  1.00  0.00     0.132 C 
ATOM      9  C   UNL A   1      30.319  26.039  25.986  1.00  0.00     0.133 C 
ATOM     10  C   UNL A   1      30.664  24.628  24.114  1.00  0.00     0.035 C 
ATOM     11  O   UNL A   1      30.016  24.650  26.284  1.00  0.00    -0.373 OA
ATOM     12  C   UNL A   1      30.211  26.039  24.464  1.00  0.00     0.036 C 
BRANCH   7  13
ATOM     13  C   UNL A   1      33.635  24.522  25.360  1.00  0.00     0.229 C 
ATOM     14  C   UNL A   1      33.344  22.204  27.511  1.00  0.00     0.031 C 
ATOM     15  C   UNL A   1      34.604  22.470  26.694  1.00  0.00     0.082 C 
ATOM     16  C   UNL A   1      34.994  21.095  26.088  1.00  0.00     0.025 C 
ATOM     17  N   UNL A   1      34.588  23.536  25.649  1.00  0.00    -0.337 N 
ATOM     18  C   UNL A   1      36.221  21.113  25.193  1.00  0.00     0.004 C 
ATOM     19  C   UNL A   1      35.811  23.546  24.774  1.00  0.00     0.082 C 
ATOM     20  C   UNL A   1      36.058  22.183  24.130  1.00  0.00     0.025 C 
ATOM     21  C   UNL A   1      37.067  23.994  25.519  1.00  0.00     0.031 C 
ATOM     22  O   UNL A   1      33.790  25.220  24.352  1.00  0.00    -0.274 OA
ENDBRANCH   7  13
ENDBRANCH   4   6
ENDBRANCH   3   4
ENDBRANCH   2   3
ENDBRANCH   1   2
BRANCH   1  23
ATOM     23  O   UNL A   1      32.433  31.036  27.310  1.00  0.00    -0.458 OA
BRANCH  23  24
ATOM     24  C   UNL A   1      33.284  32.041  27.616  1.00  0.00     0.338 C 
ATOM     25  O   UNL A   1      33.100  33.227  27.456  1.00  0.00    -0.246 OA
BRANCH  24  26
ATOM     26  C   UNL A   1      34.595  31.447  27.983  1.00  0.00     0.060 A 
ATOM     27  C   UNL A   1      35.614  32.338  28.308  1.00  0.00     0.016 A 
ATOM     28  C   UNL A   1      34.856  30.073  27.983  1.00  0.00     0.016 A 
ATOM     29  C   UNL A   1      36.881  31.881  28.656  1.00  0.00     0.010 A 
ATOM     30  C   UNL A   1      36.113  29.602  28.394  1.00  0.00     0.010 A 
ATOM     31  C   UNL A   1      37.115  30.507  28.780  1.00  0.00    -0.014 A 
BRANCH  31  32
ATOM     32  C   UNL A   1      38.208  30.092  29.695  1.00  0.00     0.031 A 
ATOM     33  C   UNL A   1      38.316  30.530  31.120  1.00  0.00     0.074 A 
ATOM     34  C   UNL A   1      39.092  29.223  29.164  1.00  0.00     0.049 A 
ATOM     35  N   UNL A   1      39.238  30.222  31.997  1.00  0.00    -0.248 NA
ATOM     36  C   UNL A   1      37.272  31.426  31.629  1.00  0.00     0.031 C 
ATOM     37  C   UNL A   1      39.026  28.705  27.790  1.00  0.00     0.029 A 
ATOM     38  N   UNL A   1      40.187  28.601  29.694  1.00  0.00    -0.354 N 
ATOM     39  C   UNL A   1      38.900  30.893  33.167  1.00  0.00     0.074 A 
ATOM     40  C   UNL A   1      37.687  31.635  32.876  1.00  0.00     0.031 C 
ATOM     41  C   UNL A   1      40.013  27.825  27.599  1.00  0.00     0.029 A 
ATOM     42  C   UNL A   1      40.825  27.771  28.803  1.00  0.00     0.049 A 
ATOM     43  H   UNL A   1      40.489  28.733  30.622  1.00  0.00     0.167 HD
ATOM     44  C   UNL A   1      39.559  30.887  34.355  1.00  0.00     0.034 A 
ATOM     45  C   UNL A   1      41.960  27.062  28.921  1.00  0.00     0.034 A 
ATOM     46  C   UNL A   1      40.775  30.132  34.596  1.00  0.00     0.049 A 
ATOM     47  C   UNL A   1      42.675  27.096  30.234  1.00  0.00     0.074 A 
ATOM     48  C   UNL A   1      41.525  30.047  35.758  1.00  0.00     0.029 A 
ATOM     49  N   UNL A   1      41.428  29.337  33.656  1.00  0.00    -0.354 N 
ATOM     50  N   UNL A   1      42.358  27.759  31.322  1.00  0.00    -0.248 NA
ATOM     51  C   UNL A   1      43.885  26.281  30.340  1.00  0.00     0.031 C 
ATOM     52  C   UNL A   1      42.658  29.262  35.503  1.00  0.00     0.029 A 
ATOM     53  C   UNL A   1      42.582  28.788  34.203  1.00  0.00     0.049 A 
ATOM     54  H   UNL A   1      41.115  29.184  32.736  1.00  0.00     0.167 HD
ATOM     55  C   UNL A   1      43.335  27.438  32.252  1.00  0.00     0.074 A 
ATOM     56  C   UNL A   1      44.226  26.492  31.603  1.00  0.00     0.031 C 
ATOM     57  C   UNL A   1      43.487  27.886  33.525  1.00  0.00     0.034 A 
BRANCH  44  58
ATOM     58  C   UNL A   1      39.028  31.768  35.466  1.00  0.00     0.023 A 
ATOM     59  C   UNL A   1      38.388  31.248  36.605  1.00  0.00     0.031 A 
ATOM     60  C   UNL A   1      39.187  33.165  35.387  1.00  0.00     0.131 A 
ATOM     61  C   UNL A   1      37.896  32.119  37.595  1.00  0.00     0.055 A 
ATOM     62  C   UNL A   1      38.754  34.021  36.404  1.00  0.00     0.041 A 
ATOM     63  F   UNL A   1      39.770  33.728  34.317  1.00  0.00    -0.206 F 
ATOM     64  C   UNL A   1      38.096  33.499  37.512  1.00  0.00     0.022 A 
BRANCH  61  65
ATOM     65  S   UNL A   1      36.892  31.437  38.946  1.00  0.00     0.124 S 
ATOM     66  O   UNL A   1      35.744  32.341  38.948  1.00  0.00    -0.237 OA
ATOM     67  O   UNL A   1      36.635  30.076  38.492  1.00  0.00    -0.237 OA
ATOM     68  O   UNL A   1      37.764  31.551  40.113  1.00  0.00    -0.744 OA
ENDBRANCH  61  65
ENDBRANCH  44  58
BRANCH  45  69
ATOM     69  C   UNL A   1      42.476  26.305  27.749  1.00  0.00     0.023 A 
ATOM     70  C   UNL A   1      42.101  24.975  27.520  1.00  0.00     0.031 A 
ATOM     71  C   UNL A   1      43.322  26.929  26.812  1.00  0.00     0.131 A 
ATOM     72  C   UNL A   1      42.585  24.303  26.387  1.00  0.00     0.055 A 
ATOM     73  C   UNL A   1      43.757  26.274  25.661  1.00  0.00     0.041 A 
ATOM     74  F   UNL A   1      43.698  28.208  26.980  1.00  0.00    -0.206 F 
ATOM     75  C   UNL A   1      43.395  24.948  25.448  1.00  0.00     0.022 A 
BRANCH  72  76
ATOM     76  S   UNL A   1      42.183  22.547  26.182  1.00  0.00     0.124 S 
ATOM     77  O   UNL A   1      40.732  22.587  26.039  1.00  0.00    -0.237 OA
ATOM     78  O   UNL A   1      42.937  22.201  24.983  1.00  0.00    -0.237 OA
ATOM     79  O   UNL A   1      42.670  21.941  27.420  1.00  0.00    -0.744 OA
ENDBRANCH  72  76
ENDBRANCH  45  69
BRANCH  57  80
ATOM     80  C   UNL A   1      44.674  27.333  34.273  1.00  0.00     0.023 A 
ATOM     81  C   UNL A   1      44.563  26.172  35.060  1.00  0.00     0.031 A 
ATOM     82  C   UNL A   1      45.896  28.026  34.282  1.00  0.00     0.131 A 
ATOM     83  C   UNL A   1      45.624  25.789  35.892  1.00  0.00     0.055 A 
ATOM     84  C   UNL A   1      46.973  27.600  35.061  1.00  0.00     0.041 A 
ATOM     85  F   UNL A   1      46.054  29.144  33.556  1.00  0.00    -0.206 F 
ATOM     86  C   UNL A   1      46.833  26.488  35.888  1.00  0.00     0.022 A 
BRANCH  83  87
ATOM     87  S   UNL A   1      45.349  24.452  37.087  1.00  0.00     0.124 S 
ATOM     88  O   UNL A   1      45.242  23.284  36.218  1.00  0.00    -0.237 OA
ATOM     89  O   UNL A   1      46.547  24.523  37.915  1.00  0.00    -0.237 OA
ATOM     90  O   UNL A   1      44.108  24.841  37.756  1.00  0.00    -0.744 OA
ENDBRANCH  83  87
ENDBRANCH  57  80
ENDBRANCH  31  32
ENDBRANCH  24  26
ENDBRANCH  23  24
ENDBRANCH   1  23
TORSDOF 15
ENDMDL
MODEL 2
REMARK VINA RESULT:     -12.3      4.996     10.358
REMARK SMILES C[C@H]1CCC[C@H](C)N1C(=O)[C@H]1[C@@H](C(=O)OCCOC(=O)c2ccc(-c3c4nc(c(-c5cc(S(=O)(=O)[O-])ccc5F)c5ccc([nH]5)c(-c5cc(S(=O)(=O)[O-])ccc5F)c5nc(c(-c6cc(S(=O)(=O)[O-])ccc6F)c6ccc3[nH]6)C=C5)C=C4)cc2)[C@H]2CC[C@@H]1O2
REMARK SMILES IDX 17 1 16 2 15 3 13 4 14 5 12 6 11 7 87 8 84 9 86 10 88 11
REMARK SMILES IDX 85 12 9 13 1 14 2 15 3 16 8 17 4 18 6 19 5 20 7 21 10 22
REMARK SMILES IDX 18 23 19 24 20 25 21 26 22 27 83 28 23 29 82 30 24 31 25 32
REMARK SMILES IDX 26 33 76 34 27 35 81 36 75 37 77 38 28 39 80 40 74 41 73 42
REMARK SMILES IDX 29 44 61 45 41 46 60 47 42 48 45 49 59 50 78 51 43 52 44 53
REMARK SMILES IDX 58 55 79 56 46 57 30 58 31 59 39 60 32 61 38 62 40 63 37 64
REMARK SMILES IDX 33 65 34 66 35 67 36 68 62 69 63 70 71 71 64 72 70 73 72 74
REMARK SMILES IDX 69 75 65 76 66 77 67 78 68 79 47 80 48 81 56 82 49 83 55 84
REMARK SMILES IDX 57 85 54 86 50 87 51 88 52 89 53 90
REMARK H PARENT 77 43 45 54
REMARK Flexibility Score: inf
ROOT
ATOM      1  C   UNL A   1      37.518  20.307  25.038  1.00  0.00     0.275 C 
ENDROOT
BRANCH   1   2
ATOM      2  C   UNL A   1      36.027  20.654  24.990  1.00  0.00     0.274 C 
BRANCH   2   3
ATOM      3  O   UNL A   1      35.746  21.834  24.202  1.00  0.00    -0.462 OA
BRANCH   3   4
ATOM      4  C   UNL A   1      34.906  22.703  24.824  1.00  0.00     0.312 C 
ATOM      5  O   UNL A   1      35.031  23.055  25.996  1.00  0.00    -0.252 OA
BRANCH   4   6
ATOM      6  C   UNL A   1      33.647  23.031  24.066  1.00  0.00     0.143 C 
ATOM      7  C   UNL A   1      32.678  24.210  24.269  1.00  0.00     0.124 C 
ATOM      8  C   UNL A   1      31.309  23.463  24.203  1.00  0.00     0.132 C 
ATOM      9  C   UNL A   1      32.705  21.817  23.984  1.00  0.00     0.133 C 
ATOM     10  C   UNL A   1      30.951  22.571  25.387  1.00  0.00     0.035 C 
ATOM     11  O   UNL A   1      31.619  22.418  23.229  1.00  0.00    -0.373 OA
ATOM     12  C   UNL A   1      31.991  21.464  25.285  1.00  0.00     0.036 C 
BRANCH   7  13
ATOM     13  C   UNL A   1      32.767  25.234  25.401  1.00  0.00     0.229 C 
ATOM     14  C   UNL A   1      32.133  26.753  22.685  1.00  0.00     0.031 C 
ATOM     15  C   UNL A   1      32.515  27.443  23.992  1.00  0.00     0.082 C 
ATOM     16  C   UNL A   1      31.435  28.538  24.203  1.00  0.00     0.025 C 
ATOM     17  N   UNL A   1      32.703  26.623  25.224  1.00  0.00    -0.337 N 
ATOM     18  C   UNL A   1      31.587  29.350  25.478  1.00  0.00     0.004 C 
ATOM     19  C   UNL A   1      32.857  27.439  26.478  1.00  0.00     0.082 C 
ATOM     20  C   UNL A   1      31.696  28.413  26.667  1.00  0.00     0.025 C 
ATOM     21  C   UNL A   1      34.178  28.205  26.525  1.00  0.00     0.031 C 
ATOM     22  O   UNL A   1      32.802  24.782  26.551  1.00  0.00    -0.274 OA
ENDBRANCH   7  13
ENDBRANCH   4   6
ENDBRANCH   3   4
ENDBRANCH   2   3
ENDBRANCH   1   2
BRANCH   1  23
ATOM     23  O   UNL A   1      38.466  21.379  25.210  1.00  0.00    -0.458 OA
BRANCH  23  24
ATOM     24  C   UNL A   1      39.495  21.251  26.077  1.00  0.00     0.338 C 
ATOM     25  O   UNL A   1      39.995  20.221  26.470  1.00  0.00    -0.246 OA
BRANCH  24  26
ATOM     26  C   UNL A   1      39.784  22.588  26.658  1.00  0.00     0.060 A 
ATOM     27  C   UNL A   1      40.834  22.657  27.571  1.00  0.00     0.016 A 
ATOM     28  C   UNL A   1      39.050  23.741  26.365  1.00  0.00     0.016 A 
ATOM     29  C   UNL A   1      41.176  23.862  28.177  1.00  0.00     0.010 A 
ATOM     30  C   UNL A   1      39.429  24.972  26.924  1.00  0.00     0.010 A 
ATOM     31  C   UNL A   1      40.529  25.041  27.795  1.00  0.00    -0.014 A 
BRANCH  31  32
ATOM     32  C   UNL A   1      41.281  26.308  27.975  1.00  0.00     0.031 A 
ATOM     33  C   UNL A   1      42.628  26.571  27.383  1.00  0.00     0.074 A 
ATOM     34  C   UNL A   1      40.632  27.258  28.678  1.00  0.00     0.049 A 
ATOM     35  N   UNL A   1      43.366  27.648  27.487  1.00  0.00    -0.248 NA
ATOM     36  C   UNL A   1      43.230  25.501  26.580  1.00  0.00     0.031 C 
ATOM     37  C   UNL A   1      39.287  27.097  29.249  1.00  0.00     0.029 A 
ATOM     38  N   UNL A   1      40.977  28.537  29.014  1.00  0.00    -0.354 N 
ATOM     39  C   UNL A   1      44.532  27.390  26.774  1.00  0.00     0.074 A 
ATOM     40  C   UNL A   1      44.400  26.043  26.250  1.00  0.00     0.031 C 
ATOM     41  C   UNL A   1      38.912  28.239  29.832  1.00  0.00     0.029 A 
ATOM     42  C   UNL A   1      40.011  29.186  29.747  1.00  0.00     0.049 A 
ATOM     43  H   UNL A   1      41.831  28.953  28.756  1.00  0.00     0.167 HD
ATOM     44  C   UNL A   1      45.602  28.208  26.597  1.00  0.00     0.034 A 
ATOM     45  C   UNL A   1      40.012  30.400  30.321  1.00  0.00     0.034 A 
ATOM     46  C   UNL A   1      45.690  29.548  27.148  1.00  0.00     0.049 A 
ATOM     47  C   UNL A   1      41.215  31.266  30.127  1.00  0.00     0.074 A 
ATOM     48  C   UNL A   1      46.720  30.467  27.029  1.00  0.00     0.029 A 
ATOM     49  N   UNL A   1      44.714  30.161  27.930  1.00  0.00    -0.354 N 
ATOM     50  N   UNL A   1      42.321  30.997  29.473  1.00  0.00    -0.248 NA
ATOM     51  C   UNL A   1      41.166  32.597  30.731  1.00  0.00     0.031 C 
ATOM     52  C   UNL A   1      46.400  31.599  27.790  1.00  0.00     0.029 A 
ATOM     53  C   UNL A   1      45.133  31.427  28.325  1.00  0.00     0.049 A 
ATOM     54  H   UNL A   1      43.849  29.757  28.169  1.00  0.00     0.167 HD
ATOM     55  C   UNL A   1      43.107  32.134  29.586  1.00  0.00     0.074 A 
ATOM     56  C   UNL A   1      42.326  33.102  30.337  1.00  0.00     0.031 C 
ATOM     57  C   UNL A   1      44.362  32.359  29.117  1.00  0.00     0.034 A 
BRANCH  44  58
ATOM     58  C   UNL A   1      46.793  27.664  25.836  1.00  0.00     0.023 A 
ATOM     59  C   UNL A   1      47.030  27.966  24.483  1.00  0.00     0.031 A 
ATOM     60  C   UNL A   1      47.724  26.836  26.492  1.00  0.00     0.131 A 
ATOM     61  C   UNL A   1      48.143  27.413  23.823  1.00  0.00     0.055 A 
ATOM     62  C   UNL A   1      48.862  26.342  25.850  1.00  0.00     0.041 A 
ATOM     63  F   UNL A   1      47.545  26.491  27.778  1.00  0.00    -0.206 F 
ATOM     64  C   UNL A   1      49.072  26.623  24.504  1.00  0.00     0.022 A 
BRANCH  61  65
ATOM     65  S   UNL A   1      48.309  27.649  22.030  1.00  0.00     0.124 S 
ATOM     66  O   UNL A   1      49.490  28.505  21.950  1.00  0.00    -0.237 OA
ATOM     67  O   UNL A   1      48.474  26.284  21.546  1.00  0.00    -0.237 OA
ATOM     68  O   UNL A   1      47.055  28.297  21.651  1.00  0.00    -0.744 OA
ENDBRANCH  61  65
ENDBRANCH  44  58
BRANCH  45  69
ATOM     69  C   UNL A   1      38.847  30.822  31.143  1.00  0.00     0.023 A 
ATOM     70  C   UNL A   1      37.722  31.421  30.560  1.00  0.00     0.031 A 
ATOM     71  C   UNL A   1      38.829  30.584  32.531  1.00  0.00     0.131 A 
ATOM     72  C   UNL A   1      36.631  31.779  31.365  1.00  0.00     0.055 A 
ATOM     73  C   UNL A   1      37.720  30.893  33.317  1.00  0.00     0.041 A 
ATOM     74  F   UNL A   1      39.877  30.000  33.135  1.00  0.00    -0.206 F 
ATOM     75  C   UNL A   1      36.614  31.503  32.735  1.00  0.00     0.022 A 
BRANCH  72  76
ATOM     76  S   UNL A   1      35.244  32.663  30.603  1.00  0.00     0.124 S 
ATOM     77  O   UNL A   1      35.828  33.975  30.349  1.00  0.00    -0.237 OA
ATOM     78  O   UNL A   1      34.971  31.844  29.427  1.00  0.00    -0.237 OA
ATOM     79  O   UNL A   1      34.211  32.630  31.636  1.00  0.00    -0.744 OA
ENDBRANCH  72  76
ENDBRANCH  45  69
BRANCH  57  80
ATOM     80  C   UNL A   1      44.937  33.720  29.420  1.00  0.00     0.023 A 
ATOM     81  C   UNL A   1      44.871  34.765  28.480  1.00  0.00     0.031 A 
ATOM     82  C   UNL A   1      45.643  33.945  30.613  1.00  0.00     0.131 A 
ATOM     83  C   UNL A   1      45.575  35.955  28.709  1.00  0.00     0.055 A 
ATOM     84  C   UNL A   1      46.285  35.158  30.865  1.00  0.00     0.041 A 
ATOM     85  F   UNL A   1      45.743  32.980  31.541  1.00  0.00    -0.206 F 
ATOM     86  C   UNL A   1      46.272  36.163  29.901  1.00  0.00     0.022 A 
BRANCH  83  87
ATOM     87  S   UNL A   1      45.690  37.166  27.363  1.00  0.00     0.124 S 
ATOM     88  O   UNL A   1      44.310  37.628  27.250  1.00  0.00    -0.237 OA
ATOM     89  O   UNL A   1      46.644  38.133  27.894  1.00  0.00    -0.237 OA
ATOM     90  O   UNL A   1      46.173  36.377  26.231  1.00  0.00    -0.744 OA
ENDBRANCH  83  87
ENDBRANCH  57  80
ENDBRANCH  31  32
ENDBRANCH  24  26
ENDBRANCH  23  24
ENDBRANCH   1  23
TORSDOF 15
ENDMDL
MODEL 3
REMARK VINA RESULT:     -12.3      1.381      1.531
REMARK SMILES C[C@H]1CCC[C@H](C)N1C(=O)[C@H]1[C@@H](C(=O)OCCOC(=O)c2ccc(-c3c4nc(c(-c5cc(S(=O)(=O)[O-])ccc5F)c5ccc([nH]5)c(-c5cc(S(=O)(=O)[O-])ccc5F)c5nc(c(-c6cc(S(=O)(=O)[O-])ccc6F)c6ccc3[nH]6)C=C5)C=C4)cc2)[C@H]2CC[C@@H]1O2
REMARK SMILES IDX 17 1 16 2 15 3 13 4 14 5 12 6 11 7 87 8 84 9 86 10 88 11
REMARK SMILES IDX 85 12 9 13 1 14 2 15 3 16 8 17 4 18 6 19 5 20 7 21 10 22
REMARK SMILES IDX 18 23 19 24 20 25 21 26 22 27 83 28 23 29 82 30 24 31 25 32
REMARK SMILES IDX 26 33 76 34 27 35 81 36 75 37 77 38 28 39 80 40 74 41 73 42
REMARK SMILES IDX 29 44 61 45 41 46 60 47 42 48 45 49 59 50 78 51 43 52 44 53
REMARK SMILES IDX 58 55 79 56 46 57 30 58 31 59 39 60 32 61 38 62 40 63 37 64
REMARK SMILES IDX 33 65 34 66 35 67 36 68 62 69 63 70 71 71 64 72 70 73 72 74
REMARK SMILES IDX 69 75 65 76 66 77 67 78 68 79 47 80 48 81 56 82 49 83 55 84
REMARK SMILES IDX 57 85 54 86 50 87 51 88 52 89 53 90
REMARK H PARENT 77 43 45 54
REMARK Flexibility Score: inf
ROOT
ATOM      1  C   UNL A   1      31.908  30.908  25.966  1.00  0.00     0.275 C 
ENDROOT
BRANCH   1   2
ATOM      2  C   UNL A   1      31.763  29.509  25.360  1.00  0.00     0.274 C 
BRANCH   2   3
ATOM      3  O   UNL A   1      31.495  28.490  26.351  1.00  0.00    -0.462 OA
BRANCH   3   4
ATOM      4  C   UNL A   1      32.383  27.461  26.311  1.00  0.00     0.312 C 
ATOM      5  O   UNL A   1      33.551  27.580  25.947  1.00  0.00    -0.252 OA
BRANCH   4   6
ATOM      6  C   UNL A   1      31.786  26.092  26.504  1.00  0.00     0.143 C 
ATOM      7  C   UNL A   1      32.366  24.722  26.110  1.00  0.00     0.124 C 
ATOM      8  C   UNL A   1      31.111  24.060  25.460  1.00  0.00     0.132 C 
ATOM      9  C   UNL A   1      30.344  26.024  25.971  1.00  0.00     0.133 C 
ATOM     10  C   UNL A   1      30.670  24.602  24.105  1.00  0.00     0.035 C 
ATOM     11  O   UNL A   1      30.047  24.637  26.281  1.00  0.00    -0.373 OA
ATOM     12  C   UNL A   1      30.217  26.014  24.450  1.00  0.00     0.036 C 
BRANCH   7  13
ATOM     13  C   UNL A   1      33.656  24.511  25.315  1.00  0.00     0.229 C 
ATOM     14  C   UNL A   1      33.394  22.205  27.485  1.00  0.00     0.031 C 
ATOM     15  C   UNL A   1      34.644  22.469  26.651  1.00  0.00     0.082 C 
ATOM     16  C   UNL A   1      35.029  21.090  26.049  1.00  0.00     0.025 C 
ATOM     17  N   UNL A   1      34.614  23.528  25.600  1.00  0.00    -0.337 N 
ATOM     18  C   UNL A   1      36.246  21.105  25.140  1.00  0.00     0.004 C 
ATOM     19  C   UNL A   1      35.826  23.535  24.710  1.00  0.00     0.082 C 
ATOM     20  C   UNL A   1      36.068  22.168  24.072  1.00  0.00     0.025 C 
ATOM     21  C   UNL A   1      37.090  23.990  25.437  1.00  0.00     0.031 C 
ATOM     22  O   UNL A   1      33.797  25.203  24.301  1.00  0.00    -0.274 OA
ENDBRANCH   7  13
ENDBRANCH   4   6
ENDBRANCH   3   4
ENDBRANCH   2   3
ENDBRANCH   1   2
BRANCH   1  23
ATOM     23  O   UNL A   1      32.432  31.026  27.303  1.00  0.00    -0.458 OA
BRANCH  23  24
ATOM     24  C   UNL A   1      33.271  32.037  27.623  1.00  0.00     0.338 C 
ATOM     25  O   UNL A   1      33.070  33.223  27.488  1.00  0.00    -0.246 OA
BRANCH  24  26
ATOM     26  C   UNL A   1      34.592  31.454  27.972  1.00  0.00     0.060 A 
ATOM     27  C   UNL A   1      35.608  32.354  28.284  1.00  0.00     0.016 A 
ATOM     28  C   UNL A   1      34.865  30.082  27.967  1.00  0.00     0.016 A 
ATOM     29  C   UNL A   1      36.884  31.907  28.614  1.00  0.00     0.010 A 
ATOM     30  C   UNL A   1      36.132  29.621  28.360  1.00  0.00     0.010 A 
ATOM     31  C   UNL A   1      37.130  30.535  28.734  1.00  0.00    -0.014 A 
BRANCH  31  32
ATOM     32  C   UNL A   1      38.239  30.128  29.632  1.00  0.00     0.031 A 
ATOM     33  C   UNL A   1      38.396  30.614  31.037  1.00  0.00     0.074 A 
ATOM     34  C   UNL A   1      39.091  29.223  29.109  1.00  0.00     0.049 A 
ATOM     35  N   UNL A   1      39.335  30.317  31.900  1.00  0.00    -0.248 NA
ATOM     36  C   UNL A   1      37.386  31.550  31.542  1.00  0.00     0.031 C 
ATOM     37  C   UNL A   1      38.976  28.659  27.756  1.00  0.00     0.029 A 
ATOM     38  N   UNL A   1      40.187  28.596  29.631  1.00  0.00    -0.354 N 
ATOM     39  C   UNL A   1      39.044  31.036  33.054  1.00  0.00     0.074 A 
ATOM     40  C   UNL A   1      37.839  31.794  32.770  1.00  0.00     0.031 C 
ATOM     41  C   UNL A   1      39.939  27.751  27.571  1.00  0.00     0.029 A 
ATOM     42  C   UNL A   1      40.783  27.722  28.754  1.00  0.00     0.049 A 
ATOM     43  H   UNL A   1      40.517  28.754  30.545  1.00  0.00     0.167 HD
ATOM     44  C   UNL A   1      39.735  31.057  34.223  1.00  0.00     0.034 A 
ATOM     45  C   UNL A   1      41.905  26.993  28.866  1.00  0.00     0.034 A 
ATOM     46  C   UNL A   1      40.942  30.285  34.458  1.00  0.00     0.049 A 
ATOM     47  C   UNL A   1      42.657  27.058  30.157  1.00  0.00     0.074 A 
ATOM     48  C   UNL A   1      41.721  30.224  35.602  1.00  0.00     0.029 A 
ATOM     49  N   UNL A   1      41.551  29.443  33.530  1.00  0.00    -0.354 N 
ATOM     50  N   UNL A   1      42.384  27.765  31.230  1.00  0.00    -0.248 NA
ATOM     51  C   UNL A   1      43.852  26.221  30.260  1.00  0.00     0.031 C 
ATOM     52  C   UNL A   1      42.830  29.406  35.345  1.00  0.00     0.029 A 
ATOM     53  C   UNL A   1      42.709  28.889  34.065  1.00  0.00     0.049 A 
ATOM     54  H   UNL A   1      41.210  29.265  32.625  1.00  0.00     0.167 HD
ATOM     55  C   UNL A   1      43.379  27.456  32.144  1.00  0.00     0.074 A 
ATOM     56  C   UNL A   1      44.233  26.468  31.505  1.00  0.00     0.031 C 
ATOM     57  C   UNL A   1      43.576  27.945  33.395  1.00  0.00     0.034 A 
BRANCH  44  58
ATOM     58  C   UNL A   1      39.254  31.988  35.316  1.00  0.00     0.023 A 
ATOM     59  C   UNL A   1      39.719  33.310  35.444  1.00  0.00     0.031 A 
ATOM     60  C   UNL A   1      38.290  31.544  36.241  1.00  0.00     0.131 A 
ATOM     61  C   UNL A   1      39.251  34.122  36.493  1.00  0.00     0.055 A 
ATOM     62  C   UNL A   1      37.781  32.375  37.242  1.00  0.00     0.041 A 
ATOM     63  F   UNL A   1      37.820  30.287  36.188  1.00  0.00    -0.206 F 
ATOM     64  C   UNL A   1      38.269  33.670  37.377  1.00  0.00     0.022 A 
BRANCH  61  65
ATOM     65  S   UNL A   1      40.020  35.745  36.760  1.00  0.00     0.124 S 
ATOM     66  O   UNL A   1      39.653  36.453  35.536  1.00  0.00    -0.237 OA
ATOM     67  O   UNL A   1      39.375  36.203  37.983  1.00  0.00    -0.237 OA
ATOM     68  O   UNL A   1      41.443  35.434  36.885  1.00  0.00    -0.744 OA
ENDBRANCH  61  65
ENDBRANCH  44  58
BRANCH  45  69
ATOM     69  C   UNL A   1      42.373  26.185  27.708  1.00  0.00     0.023 A 
ATOM     70  C   UNL A   1      41.981  24.849  27.548  1.00  0.00     0.031 A 
ATOM     71  C   UNL A   1      43.189  26.763  26.717  1.00  0.00     0.131 A 
ATOM     72  C   UNL A   1      42.419  24.128  26.427  1.00  0.00     0.055 A 
ATOM     73  C   UNL A   1      43.577  26.057  25.579  1.00  0.00     0.041 A 
ATOM     74  F   UNL A   1      43.580  28.044  26.818  1.00  0.00    -0.206 F 
ATOM     75  C   UNL A   1      43.198  24.727  25.433  1.00  0.00     0.022 A 
BRANCH  72  76
ATOM     76  S   UNL A   1      41.997  22.369  26.309  1.00  0.00     0.124 S 
ATOM     77  O   UNL A   1      40.549  22.418  26.139  1.00  0.00    -0.237 OA
ATOM     78  O   UNL A   1      42.766  21.950  25.144  1.00  0.00    -0.237 OA
ATOM     79  O   UNL A   1      42.455  21.823  27.586  1.00  0.00    -0.744 OA
ENDBRANCH  72  76
ENDBRANCH  45  69
BRANCH  57  80
ATOM     80  C   UNL A   1      44.771  27.393  34.131  1.00  0.00     0.023 A 
ATOM     81  C   UNL A   1      44.679  26.212  34.890  1.00  0.00     0.031 A 
ATOM     82  C   UNL A   1      45.983  28.104  34.155  1.00  0.00     0.131 A 
ATOM     83  C   UNL A   1      45.746  25.826  35.713  1.00  0.00     0.055 A 
ATOM     84  C   UNL A   1      47.066  27.676  34.924  1.00  0.00     0.041 A 
ATOM     85  F   UNL A   1      46.123  29.240  33.455  1.00  0.00    -0.206 F 
ATOM     86  C   UNL A   1      46.944  26.543  35.725  1.00  0.00     0.022 A 
BRANCH  83  87
ATOM     87  S   UNL A   1      45.491  24.458  36.877  1.00  0.00     0.124 S 
ATOM     88  O   UNL A   1      44.933  23.423  36.012  1.00  0.00    -0.237 OA
ATOM     89  O   UNL A   1      46.841  24.215  37.372  1.00  0.00    -0.237 OA
ATOM     90  O   UNL A   1      44.561  25.012  37.859  1.00  0.00    -0.744 OA
ENDBRANCH  83  87
ENDBRANCH  57  80
ENDBRANCH  31  32
ENDBRANCH  24  26
ENDBRANCH  23  24
ENDBRANCH   1  23
TORSDOF 15
ENDMDL
