MODEL 1
REMARK VINA RESULT:     -10.9      0.000      0.000
REMARK SMILES CC(C)(C(=O)OCCOC(=O)c1ccc(-c2c3nc(c(-c4cc(S(=O)(=O)[O-])ccc4F)c4ccc([nH]4)c(-c4cc(S(=O)(=O)[O-])ccc4F)c4nc(c(-c5cc(S(=O)(=O)[O-])ccc5F)c5ccc2[nH]5)C=C4)C=C3)cc1)n1cccc1
REMARK SMILES IDX 8 1 7 2 6 3 4 4 5 5 2 6 1 7 3 8 75 9 76 10 79 11 77 12 78 13
REMARK SMILES IDX 9 14 10 15 11 16 12 17 13 18 74 19 14 20 73 21 15 22 16 23
REMARK SMILES IDX 17 24 67 25 18 26 72 27 66 28 68 29 19 30 71 31 65 32 64 33
REMARK SMILES IDX 20 35 52 36 32 37 51 38 33 39 36 40 50 41 69 42 34 43 35 44
REMARK SMILES IDX 49 46 70 47 37 48 21 49 22 50 30 51 23 52 29 53 31 54 28 55
REMARK SMILES IDX 24 56 25 57 26 58 27 59 53 60 54 61 62 62 55 63 61 64 63 65
REMARK SMILES IDX 60 66 56 67 57 68 58 69 59 70 38 71 39 72 47 73 40 74 46 75
REMARK SMILES IDX 48 76 45 77 41 78 42 79 43 80 44 81
REMARK H PARENT 68 34 36 45
REMARK Flexibility Score: inf
ROOT
ATOM      1  C   UNL A   1      40.432  19.622  26.126  1.00  0.00     0.275 C 
ENDROOT
BRANCH   1   2
ATOM      2  C   UNL A   1      41.761  18.885  26.286  1.00  0.00     0.274 C 
BRANCH   2   3
ATOM      3  O   UNL A   1      42.675  19.217  25.220  1.00  0.00    -0.460 OA
BRANCH   3   4
ATOM      4  C   UNL A   1      43.978  18.831  25.378  1.00  0.00     0.331 C 
ATOM      5  O   UNL A   1      44.313  17.919  26.125  1.00  0.00    -0.249 OA
BRANCH   4   6
ATOM      6  C   UNL A   1      44.962  19.758  24.618  1.00  0.00     0.136 C 
ATOM      7  C   UNL A   1      46.411  19.535  25.109  1.00  0.00     0.047 C 
ATOM      8  C   UNL A   1      44.903  19.354  23.132  1.00  0.00     0.047 C 
BRANCH   6   9
ATOM      9  N   UNL A   1      44.556  21.184  24.742  1.00  0.00    -0.338 N 
ATOM     10  C   UNL A   1      44.087  21.781  25.893  1.00  0.00     0.087 A 
ATOM     11  C   UNL A   1      44.550  22.132  23.744  1.00  0.00     0.087 A 
ATOM     12  C   UNL A   1      43.816  23.106  25.630  1.00  0.00     0.019 A 
ATOM     13  C   UNL A   1      44.101  23.326  24.268  1.00  0.00     0.019 A 
ENDBRANCH   6   9
ENDBRANCH   4   6
ENDBRANCH   3   4
ENDBRANCH   2   3
ENDBRANCH   1   2
BRANCH   1  14
ATOM     14  O   UNL A   1      40.647  21.043  26.121  1.00  0.00    -0.458 OA
BRANCH  14  15
ATOM     15  C   UNL A   1      39.522  21.793  26.155  1.00  0.00     0.338 C 
ATOM     16  O   UNL A   1      38.415  21.483  25.751  1.00  0.00    -0.246 OA
BRANCH  15  17
ATOM     17  C   UNL A   1      39.790  23.037  26.889  1.00  0.00     0.060 A 
ATOM     18  C   UNL A   1      39.097  24.175  26.489  1.00  0.00     0.016 A 
ATOM     19  C   UNL A   1      40.801  23.123  27.844  1.00  0.00     0.016 A 
ATOM     20  C   UNL A   1      39.451  25.422  26.988  1.00  0.00     0.010 A 
ATOM     21  C   UNL A   1      41.133  24.378  28.376  1.00  0.00     0.010 A 
ATOM     22  C   UNL A   1      40.489  25.544  27.918  1.00  0.00    -0.014 A 
BRANCH  22  23
ATOM     23  C   UNL A   1      40.981  26.902  28.272  1.00  0.00     0.031 A 
ATOM     24  C   UNL A   1      42.393  27.288  27.914  1.00  0.00     0.074 A 
ATOM     25  C   UNL A   1      40.154  27.820  28.808  1.00  0.00     0.049 A 
ATOM     26  N   UNL A   1      43.053  28.384  28.187  1.00  0.00    -0.248 NA
ATOM     27  C   UNL A   1      43.163  26.299  27.145  1.00  0.00     0.031 C 
ATOM     28  C   UNL A   1      38.739  27.606  29.113  1.00  0.00     0.029 A 
ATOM     29  N   UNL A   1      40.378  29.127  29.166  1.00  0.00    -0.354 N 
ATOM     30  C   UNL A   1      44.329  28.199  27.664  1.00  0.00     0.074 A 
ATOM     31  C   UNL A   1      44.350  26.879  27.070  1.00  0.00     0.031 C 
ATOM     32  C   UNL A   1      38.214  28.752  29.579  1.00  0.00     0.029 A 
ATOM     33  C   UNL A   1      39.266  29.762  29.665  1.00  0.00     0.049 A 
ATOM     34  H   UNL A   1      41.254  29.567  29.073  1.00  0.00     0.167 HD
ATOM     35  C   UNL A   1      45.386  29.051  27.677  1.00  0.00     0.034 A 
ATOM     36  C   UNL A   1      39.116  31.009  30.158  1.00  0.00     0.034 A 
ATOM     37  C   UNL A   1      45.341  30.378  28.242  1.00  0.00     0.049 A 
ATOM     38  C   UNL A   1      40.316  31.922  30.207  1.00  0.00     0.074 A 
ATOM     39  C   UNL A   1      46.359  31.312  28.342  1.00  0.00     0.029 A 
ATOM     40  N   UNL A   1      44.210  30.967  28.793  1.00  0.00    -0.354 N 
ATOM     41  N   UNL A   1      41.543  31.701  29.797  1.00  0.00    -0.248 NA
ATOM     42  C   UNL A   1      40.109  33.250  30.799  1.00  0.00     0.031 C 
ATOM     43  C   UNL A   1      45.855  32.445  28.994  1.00  0.00     0.029 A 
ATOM     44  C   UNL A   1      44.507  32.243  29.246  1.00  0.00     0.049 A 
ATOM     45  H   UNL A   1      43.325  30.541  28.853  1.00  0.00     0.167 HD
ATOM     46  C   UNL A   1      42.248  32.870  30.064  1.00  0.00     0.074 A 
ATOM     47  C   UNL A   1      41.307  33.799  30.655  1.00  0.00     0.031 C 
ATOM     48  C   UNL A   1      43.558  33.153  29.843  1.00  0.00     0.034 A 
BRANCH  35  49
ATOM     49  C   UNL A   1      46.692  28.526  27.133  1.00  0.00     0.023 A 
ATOM     50  C   UNL A   1      46.952  28.447  25.754  1.00  0.00     0.031 A 
ATOM     51  C   UNL A   1      47.666  28.026  28.018  1.00  0.00     0.131 A 
ATOM     52  C   UNL A   1      48.115  27.807  25.298  1.00  0.00     0.055 A 
ATOM     53  C   UNL A   1      48.857  27.462  27.558  1.00  0.00     0.041 A 
ATOM     54  F   UNL A   1      47.462  28.053  29.344  1.00  0.00    -0.206 F 
ATOM     55  C   UNL A   1      49.079  27.333  26.191  1.00  0.00     0.022 A 
BRANCH  52  56
ATOM     56  S   UNL A   1      48.275  27.453  23.525  1.00  0.00     0.124 S 
ATOM     57  O   UNL A   1      47.151  28.204  22.970  1.00  0.00    -0.237 OA
ATOM     58  O   UNL A   1      49.603  27.970  23.219  1.00  0.00    -0.237 OA
ATOM     59  O   UNL A   1      48.138  26.000  23.453  1.00  0.00    -0.744 OA
ENDBRANCH  52  56
ENDBRANCH  35  49
BRANCH  36  60
ATOM     60  C   UNL A   1      37.800  31.460  30.692  1.00  0.00     0.023 A 
ATOM     61  C   UNL A   1      36.874  32.128  29.875  1.00  0.00     0.031 A 
ATOM     62  C   UNL A   1      37.473  31.277  32.048  1.00  0.00     0.131 A 
ATOM     63  C   UNL A   1      35.682  32.623  30.430  1.00  0.00     0.055 A 
ATOM     64  C   UNL A   1      36.267  31.727  32.583  1.00  0.00     0.041 A 
ATOM     65  F   UNL A   1      38.327  30.648  32.873  1.00  0.00    -0.206 F 
ATOM     66  C   UNL A   1      35.367  32.415  31.775  1.00  0.00     0.022 A 
BRANCH  63  67
ATOM     67  S   UNL A   1      34.579  33.613  29.384  1.00  0.00     0.124 S 
ATOM     68  O   UNL A   1      33.653  34.165  30.366  1.00  0.00    -0.237 OA
ATOM     69  O   UNL A   1      35.506  34.558  28.772  1.00  0.00    -0.237 OA
ATOM     70  O   UNL A   1      34.004  32.628  28.469  1.00  0.00    -0.744 OA
ENDBRANCH  63  67
ENDBRANCH  36  60
BRANCH  48  71
ATOM     71  C   UNL A   1      44.025  34.540  30.205  1.00  0.00     0.023 A 
ATOM     72  C   UNL A   1      43.917  35.614  29.304  1.00  0.00     0.031 A 
ATOM     73  C   UNL A   1      44.609  34.781  31.460  1.00  0.00     0.131 A 
ATOM     74  C   UNL A   1      44.436  36.872  29.653  1.00  0.00     0.055 A 
ATOM     75  C   UNL A   1      45.079  36.044  31.820  1.00  0.00     0.041 A 
ATOM     76  F   UNL A   1      44.735  33.789  32.356  1.00  0.00    -0.206 F 
ATOM     77  C   UNL A   1      45.006  37.095  30.909  1.00  0.00     0.022 A 
BRANCH  74  78
ATOM     78  S   UNL A   1      44.436  38.191  28.408  1.00  0.00     0.124 S 
ATOM     79  O   UNL A   1      45.509  37.769  27.514  1.00  0.00    -0.237 OA
ATOM     80  O   UNL A   1      43.084  38.108  27.866  1.00  0.00    -0.237 OA
ATOM     81  O   UNL A   1      44.718  39.397  29.187  1.00  0.00    -0.744 OA
ENDBRANCH  74  78
ENDBRANCH  48  71
ENDBRANCH  22  23
ENDBRANCH  15  17
ENDBRANCH  14  15
ENDBRANCH   1  14
TORSDOF 15
ENDMDL
MODEL 2
REMARK VINA RESULT:     -10.9      1.595      1.997
REMARK SMILES CC(C)(C(=O)OCCOC(=O)c1ccc(-c2c3nc(c(-c4cc(S(=O)(=O)[O-])ccc4F)c4ccc([nH]4)c(-c4cc(S(=O)(=O)[O-])ccc4F)c4nc(c(-c5cc(S(=O)(=O)[O-])ccc5F)c5ccc2[nH]5)C=C4)C=C3)cc1)n1cccc1
REMARK SMILES IDX 8 1 7 2 6 3 4 4 5 5 2 6 1 7 3 8 75 9 76 10 79 11 77 12 78 13
REMARK SMILES IDX 9 14 10 15 11 16 12 17 13 18 74 19 14 20 73 21 15 22 16 23
REMARK SMILES IDX 17 24 67 25 18 26 72 27 66 28 68 29 19 30 71 31 65 32 64 33
REMARK SMILES IDX 20 35 52 36 32 37 51 38 33 39 36 40 50 41 69 42 34 43 35 44
REMARK SMILES IDX 49 46 70 47 37 48 21 49 22 50 30 51 23 52 29 53 31 54 28 55
REMARK SMILES IDX 24 56 25 57 26 58 27 59 53 60 54 61 62 62 55 63 61 64 63 65
REMARK SMILES IDX 60 66 56 67 57 68 58 69 59 70 38 71 39 72 47 73 40 74 46 75
REMARK SMILES IDX 48 76 45 77 41 78 42 79 43 80 44 81
REMARK H PARENT 68 34 36 45
REMARK Flexibility Score: inf
ROOT
ATOM      1  C   UNL A   1      40.805  19.832  26.232  1.00  0.00     0.275 C 
ENDROOT
BRANCH   1   2
ATOM      2  C   UNL A   1      42.324  19.990  26.257  1.00  0.00     0.274 C 
BRANCH   2   3
ATOM      3  O   UNL A   1      42.739  21.175  25.545  1.00  0.00    -0.460 OA
BRANCH   3   4
ATOM      4  C   UNL A   1      44.079  21.321  25.314  1.00  0.00     0.331 C 
ATOM      5  O   UNL A   1      44.867  20.384  25.365  1.00  0.00    -0.249 OA
BRANCH   4   6
ATOM      6  C   UNL A   1      44.483  22.806  25.119  1.00  0.00     0.136 C 
ATOM      7  C   UNL A   1      45.383  22.967  23.871  1.00  0.00     0.047 C 
ATOM      8  C   UNL A   1      43.184  23.596  24.865  1.00  0.00     0.047 C 
BRANCH   6   9
ATOM      9  N   UNL A   1      45.140  23.346  26.339  1.00  0.00    -0.338 N 
ATOM     10  C   UNL A   1      44.633  23.263  27.620  1.00  0.00     0.087 A 
ATOM     11  C   UNL A   1      46.331  24.034  26.403  1.00  0.00     0.087 A 
ATOM     12  C   UNL A   1      45.514  23.868  28.488  1.00  0.00     0.019 A 
ATOM     13  C   UNL A   1      46.585  24.363  27.717  1.00  0.00     0.019 A 
ENDBRANCH   6   9
ENDBRANCH   4   6
ENDBRANCH   3   4
ENDBRANCH   2   3
ENDBRANCH   1   2
BRANCH   1  14
ATOM     14  O   UNL A   1      40.188  20.819  27.077  1.00  0.00    -0.458 OA
BRANCH  14  15
ATOM     15  C   UNL A   1      39.559  21.821  26.421  1.00  0.00     0.338 C 
ATOM     16  O   UNL A   1      38.806  21.723  25.468  1.00  0.00    -0.246 OA
BRANCH  15  17
ATOM     17  C   UNL A   1      39.812  23.089  27.118  1.00  0.00     0.060 A 
ATOM     18  C   UNL A   1      38.999  24.170  26.788  1.00  0.00     0.016 A 
ATOM     19  C   UNL A   1      40.908  23.259  27.961  1.00  0.00     0.016 A 
ATOM     20  C   UNL A   1      39.313  25.445  27.242  1.00  0.00     0.010 A 
ATOM     21  C   UNL A   1      41.202  24.541  28.450  1.00  0.00     0.010 A 
ATOM     22  C   UNL A   1      40.431  25.652  28.057  1.00  0.00    -0.014 A 
BRANCH  22  23
ATOM     23  C   UNL A   1      40.858  27.047  28.351  1.00  0.00     0.031 A 
ATOM     24  C   UNL A   1      42.255  27.478  27.989  1.00  0.00     0.074 A 
ATOM     25  C   UNL A   1      39.984  27.951  28.835  1.00  0.00     0.049 A 
ATOM     26  N   UNL A   1      42.862  28.615  28.217  1.00  0.00    -0.248 NA
ATOM     27  C   UNL A   1      43.078  26.490  27.276  1.00  0.00     0.031 C 
ATOM     28  C   UNL A   1      38.577  27.687  29.136  1.00  0.00     0.029 A 
ATOM     29  N   UNL A   1      40.145  29.281  29.132  1.00  0.00    -0.354 N 
ATOM     30  C   UNL A   1      44.152  28.463  27.715  1.00  0.00     0.074 A 
ATOM     31  C   UNL A   1      44.239  27.119  27.185  1.00  0.00     0.031 C 
ATOM     32  C   UNL A   1      37.995  28.829  29.541  1.00  0.00     0.029 A 
ATOM     33  C   UNL A   1      39.000  29.888  29.590  1.00  0.00     0.049 A 
ATOM     34  H   UNL A   1      41.002  29.756  29.028  1.00  0.00     0.167 HD
ATOM     35  C   UNL A   1      45.169  29.362  27.700  1.00  0.00     0.034 A 
ATOM     36  C   UNL A   1      38.789  31.149  30.021  1.00  0.00     0.034 A 
ATOM     37  C   UNL A   1      45.059  30.710  28.200  1.00  0.00     0.049 A 
ATOM     38  C   UNL A   1      39.946  32.117  30.040  1.00  0.00     0.074 A 
ATOM     39  C   UNL A   1      46.032  31.692  28.266  1.00  0.00     0.029 A 
ATOM     40  N   UNL A   1      43.896  31.273  28.711  1.00  0.00    -0.354 N 
ATOM     41  N   UNL A   1      41.187  31.932  29.653  1.00  0.00    -0.248 NA
ATOM     42  C   UNL A   1      39.673  33.460  30.566  1.00  0.00     0.031 C 
ATOM     43  C   UNL A   1      45.470  32.831  28.859  1.00  0.00     0.029 A 
ATOM     44  C   UNL A   1      44.130  32.580  29.107  1.00  0.00     0.049 A 
ATOM     45  H   UNL A   1      43.030  30.810  28.782  1.00  0.00     0.167 HD
ATOM     46  C   UNL A   1      41.836  33.143  29.871  1.00  0.00     0.074 A 
ATOM     47  C   UNL A   1      40.847  34.055  30.408  1.00  0.00     0.031 C 
ATOM     48  C   UNL A   1      43.135  33.474  29.650  1.00  0.00     0.034 A 
BRANCH  35  49
ATOM     49  C   UNL A   1      46.504  28.871  27.194  1.00  0.00     0.023 A 
ATOM     50  C   UNL A   1      46.746  28.629  25.831  1.00  0.00     0.031 A 
ATOM     51  C   UNL A   1      47.529  28.569  28.110  1.00  0.00     0.131 A 
ATOM     52  C   UNL A   1      47.950  28.026  25.431  1.00  0.00     0.055 A 
ATOM     53  C   UNL A   1      48.754  28.042  27.697  1.00  0.00     0.041 A 
ATOM     54  F   UNL A   1      47.346  28.757  29.427  1.00  0.00    -0.206 F 
ATOM     55  C   UNL A   1      48.962  27.750  26.353  1.00  0.00     0.022 A 
BRANCH  52  56
ATOM     56  S   UNL A   1      48.108  27.453  23.716  1.00  0.00     0.124 S 
ATOM     57  O   UNL A   1      47.020  28.175  23.061  1.00  0.00    -0.237 OA
ATOM     58  O   UNL A   1      49.458  27.875  23.367  1.00  0.00    -0.237 OA
ATOM     59  O   UNL A   1      47.911  26.008  23.819  1.00  0.00    -0.744 OA
ENDBRANCH  52  56
ENDBRANCH  35  49
BRANCH  36  60
ATOM     60  C   UNL A   1      37.448  31.565  30.520  1.00  0.00     0.023 A 
ATOM     61  C   UNL A   1      36.551  32.266  29.698  1.00  0.00     0.031 A 
ATOM     62  C   UNL A   1      37.066  31.313  31.851  1.00  0.00     0.131 A 
ATOM     63  C   UNL A   1      35.333  32.726  30.225  1.00  0.00     0.055 A 
ATOM     64  C   UNL A   1      35.834  31.729  32.355  1.00  0.00     0.041 A 
ATOM     65  F   UNL A   1      37.889  30.651  32.680  1.00  0.00    -0.206 F 
ATOM     66  C   UNL A   1      34.963  32.450  31.545  1.00  0.00     0.022 A 
BRANCH  63  67
ATOM     67  S   UNL A   1      34.266  33.758  29.183  1.00  0.00     0.124 S 
ATOM     68  O   UNL A   1      33.484  34.480  30.179  1.00  0.00    -0.237 OA
ATOM     69  O   UNL A   1      35.241  34.545  28.436  1.00  0.00    -0.237 OA
ATOM     70  O   UNL A   1      33.519  32.783  28.390  1.00  0.00    -0.744 OA
ENDBRANCH  63  67
ENDBRANCH  36  60
BRANCH  48  71
ATOM     71  C   UNL A   1      43.534  34.896  29.951  1.00  0.00     0.023 A 
ATOM     72  C   UNL A   1      43.829  35.319  31.259  1.00  0.00     0.031 A 
ATOM     73  C   UNL A   1      43.595  35.844  28.916  1.00  0.00     0.131 A 
ATOM     74  C   UNL A   1      44.120  36.670  31.506  1.00  0.00     0.055 A 
ATOM     75  C   UNL A   1      43.932  37.176  29.160  1.00  0.00     0.041 A 
ATOM     76  F   UNL A   1      43.322  35.491  27.649  1.00  0.00    -0.206 F 
ATOM     77  C   UNL A   1      44.184  37.598  30.463  1.00  0.00     0.022 A 
BRANCH  74  78
ATOM     78  S   UNL A   1      44.327  37.219  33.222  1.00  0.00     0.124 S 
ATOM     79  O   UNL A   1      43.423  38.362  33.291  1.00  0.00    -0.237 OA
ATOM     80  O   UNL A   1      43.920  36.038  33.978  1.00  0.00    -0.237 OA
ATOM     81  O   UNL A   1      45.749  37.549  33.308  1.00  0.00    -0.744 OA
ENDBRANCH  74  78
ENDBRANCH  48  71
ENDBRANCH  22  23
ENDBRANCH  15  17
ENDBRANCH  14  15
ENDBRANCH   1  14
TORSDOF 15
ENDMDL
MODEL 3
REMARK VINA RESULT:     -10.9      5.047     12.735
REMARK SMILES CC(C)(C(=O)OCCOC(=O)c1ccc(-c2c3nc(c(-c4cc(S(=O)(=O)[O-])ccc4F)c4ccc([nH]4)c(-c4cc(S(=O)(=O)[O-])ccc4F)c4nc(c(-c5cc(S(=O)(=O)[O-])ccc5F)c5ccc2[nH]5)C=C4)C=C3)cc1)n1cccc1
REMARK SMILES IDX 8 1 7 2 6 3 4 4 5 5 2 6 1 7 3 8 75 9 76 10 79 11 77 12 78 13
REMARK SMILES IDX 9 14 10 15 11 16 12 17 13 18 74 19 14 20 73 21 15 22 16 23
REMARK SMILES IDX 17 24 67 25 18 26 72 27 66 28 68 29 19 30 71 31 65 32 64 33
REMARK SMILES IDX 20 35 52 36 32 37 51 38 33 39 36 40 50 41 69 42 34 43 35 44
REMARK SMILES IDX 49 46 70 47 37 48 21 49 22 50 30 51 23 52 29 53 31 54 28 55
REMARK SMILES IDX 24 56 25 57 26 58 27 59 53 60 54 61 62 62 55 63 61 64 63 65
REMARK SMILES IDX 60 66 56 67 57 68 58 69 59 70 38 71 39 72 47 73 40 74 46 75
REMARK SMILES IDX 48 76 45 77 41 78 42 79 43 80 44 81
REMARK H PARENT 68 34 36 45
REMARK Flexibility Score: inf
ROOT
ATOM      1  C   UNL A   1      33.003  33.868  27.965  1.00  0.00     0.275 C 
ENDROOT
BRANCH   1   2
ATOM      2  C   UNL A   1      33.052  35.239  28.637  1.00  0.00     0.274 C 
BRANCH   2   3
ATOM      3  O   UNL A   1      32.621  35.164  30.012  1.00  0.00    -0.460 OA
BRANCH   3   4
ATOM      4  C   UNL A   1      32.863  36.257  30.798  1.00  0.00     0.331 C 
ATOM      5  O   UNL A   1      32.868  37.401  30.358  1.00  0.00    -0.249 OA
BRANCH   4   6
ATOM      6  C   UNL A   1      33.253  35.864  32.247  1.00  0.00     0.136 C 
ATOM      7  C   UNL A   1      33.904  37.060  32.980  1.00  0.00     0.047 C 
ATOM      8  C   UNL A   1      31.945  35.517  32.985  1.00  0.00     0.047 C 
BRANCH   6   9
ATOM      9  N   UNL A   1      34.138  34.669  32.256  1.00  0.00    -0.338 N 
ATOM     10  C   UNL A   1      35.320  34.548  31.554  1.00  0.00     0.087 A 
ATOM     11  C   UNL A   1      33.927  33.487  32.930  1.00  0.00     0.087 A 
ATOM     12  C   UNL A   1      35.864  33.309  31.807  1.00  0.00     0.019 A 
ATOM     13  C   UNL A   1      34.979  32.634  32.672  1.00  0.00     0.019 A 
ENDBRANCH   6   9
ENDBRANCH   4   6
ENDBRANCH   3   4
ENDBRANCH   2   3
ENDBRANCH   1   2
BRANCH   1  14
ATOM     14  O   UNL A   1      33.973  32.988  28.557  1.00  0.00    -0.458 OA
BRANCH  14  15
ATOM     15  C   UNL A   1      34.069  31.769  27.979  1.00  0.00     0.338 C 
ATOM     16  O   UNL A   1      33.227  31.202  27.304  1.00  0.00    -0.246 OA
BRANCH  15  17
ATOM     17  C   UNL A   1      35.429  31.246  28.171  1.00  0.00     0.060 A 
ATOM     18  C   UNL A   1      35.572  29.866  28.274  1.00  0.00     0.016 A 
ATOM     19  C   UNL A   1      36.515  32.090  28.397  1.00  0.00     0.016 A 
ATOM     20  C   UNL A   1      36.785  29.316  28.668  1.00  0.00     0.010 A 
ATOM     21  C   UNL A   1      37.750  31.531  28.758  1.00  0.00     0.010 A 
ATOM     22  C   UNL A   1      37.882  30.141  28.940  1.00  0.00    -0.014 A 
BRANCH  22  23
ATOM     23  C   UNL A   1      39.096  29.542  29.558  1.00  0.00     0.031 A 
ATOM     24  C   UNL A   1      39.485  29.951  30.955  1.00  0.00     0.074 A 
ATOM     25  C   UNL A   1      39.784  28.569  28.932  1.00  0.00     0.049 A 
ATOM     26  N   UNL A   1      40.535  29.616  31.660  1.00  0.00    -0.248 NA
ATOM     27  C   UNL A   1      38.564  30.865  31.647  1.00  0.00     0.031 C 
ATOM     28  C   UNL A   1      39.454  28.013  27.619  1.00  0.00     0.029 A 
ATOM     29  N   UNL A   1      40.887  27.855  29.328  1.00  0.00    -0.354 N 
ATOM     30  C   UNL A   1      40.425  30.312  32.860  1.00  0.00     0.074 A 
ATOM     31  C   UNL A   1      39.211  31.097  32.778  1.00  0.00     0.031 C 
ATOM     32  C   UNL A   1      40.315  27.021  27.335  1.00  0.00     0.029 A 
ATOM     33  C   UNL A   1      41.294  26.913  28.413  1.00  0.00     0.049 A 
ATOM     34  H   UNL A   1      41.344  28.004  30.187  1.00  0.00     0.167 HD
ATOM     35  C   UNL A   1      41.258  30.298  33.931  1.00  0.00     0.034 A 
ATOM     36  C   UNL A   1      42.350  26.073  28.431  1.00  0.00     0.034 A 
ATOM     37  C   UNL A   1      42.447  29.485  34.014  1.00  0.00     0.049 A 
ATOM     38  C   UNL A   1      43.291  26.109  29.611  1.00  0.00     0.074 A 
ATOM     39  C   UNL A   1      43.382  29.418  35.033  1.00  0.00     0.029 A 
ATOM     40  N   UNL A   1      42.860  28.583  33.041  1.00  0.00    -0.354 N 
ATOM     41  N   UNL A   1      43.228  26.842  30.697  1.00  0.00    -0.248 NA
ATOM     42  C   UNL A   1      44.451  25.210  29.556  1.00  0.00     0.031 C 
ATOM     43  C   UNL A   1      44.382  28.512  34.656  1.00  0.00     0.029 A 
ATOM     44  C   UNL A   1      44.040  27.968  33.428  1.00  0.00     0.049 A 
ATOM     45  H   UNL A   1      42.384  28.407  32.197  1.00  0.00     0.167 HD
ATOM     46  C   UNL A   1      44.331  26.477  31.464  1.00  0.00     0.074 A 
ATOM     47  C   UNL A   1      45.031  25.448  30.724  1.00  0.00     0.031 C 
ATOM     48  C   UNL A   1      44.731  26.950  32.673  1.00  0.00     0.034 A 
BRANCH  35  49
ATOM     49  C   UNL A   1      40.942  31.256  35.054  1.00  0.00     0.023 A 
ATOM     50  C   UNL A   1      39.837  31.076  35.903  1.00  0.00     0.031 A 
ATOM     51  C   UNL A   1      41.724  32.413  35.226  1.00  0.00     0.131 A 
ATOM     52  C   UNL A   1      39.496  32.075  36.829  1.00  0.00     0.055 A 
ATOM     53  C   UNL A   1      41.425  33.366  36.201  1.00  0.00     0.041 A 
ATOM     54  F   UNL A   1      42.778  32.650  34.428  1.00  0.00    -0.206 F 
ATOM     55  C   UNL A   1      40.295  33.209  36.997  1.00  0.00     0.022 A 
BRANCH  52  56
ATOM     56  S   UNL A   1      37.904  31.955  37.692  1.00  0.00     0.124 S 
ATOM     57  O   UNL A   1      37.105  32.949  36.980  1.00  0.00    -0.237 OA
ATOM     58  O   UNL A   1      37.534  30.562  37.477  1.00  0.00    -0.237 OA
ATOM     59  O   UNL A   1      38.236  32.307  39.072  1.00  0.00    -0.744 OA
ENDBRANCH  52  56
ENDBRANCH  35  49
BRANCH  36  60
ATOM     60  C   UNL A   1      42.613  25.161  27.283  1.00  0.00     0.023 A 
ATOM     61  C   UNL A   1      42.127  23.844  27.273  1.00  0.00     0.031 A 
ATOM     62  C   UNL A   1      43.406  25.580  26.198  1.00  0.00     0.131 A 
ATOM     63  C   UNL A   1      42.469  22.979  26.220  1.00  0.00     0.055 A 
ATOM     64  C   UNL A   1      43.702  24.733  25.131  1.00  0.00     0.041 A 
ATOM     65  F   UNL A   1      43.900  26.828  26.161  1.00  0.00    -0.206 F 
ATOM     66  C   UNL A   1      43.243  23.420  25.143  1.00  0.00     0.022 A 
BRANCH  63  67
ATOM     67  S   UNL A   1      41.952  21.243  26.314  1.00  0.00     0.124 S 
ATOM     68  O   UNL A   1      42.854  20.612  25.358  1.00  0.00    -0.237 OA
ATOM     69  O   UNL A   1      42.184  20.932  27.720  1.00  0.00    -0.237 OA
ATOM     70  O   UNL A   1      40.546  21.285  25.912  1.00  0.00    -0.744 OA
ENDBRANCH  63  67
ENDBRANCH  36  60
BRANCH  48  71
ATOM     71  C   UNL A   1      45.960  26.319  33.276  1.00  0.00     0.023 A 
ATOM     72  C   UNL A   1      45.875  25.197  34.120  1.00  0.00     0.031 A 
ATOM     73  C   UNL A   1      47.229  26.866  33.023  1.00  0.00     0.131 A 
ATOM     74  C   UNL A   1      47.036  24.689  34.724  1.00  0.00     0.055 A 
ATOM     75  C   UNL A   1      48.386  26.327  33.587  1.00  0.00     0.041 A 
ATOM     76  F   UNL A   1      47.364  27.937  32.225  1.00  0.00    -0.206 F 
ATOM     77  C   UNL A   1      48.292  25.241  34.453  1.00  0.00     0.022 A 
BRANCH  74  78
ATOM     78  S   UNL A   1      46.875  23.351  35.938  1.00  0.00     0.124 S 
ATOM     79  O   UNL A   1      45.442  23.355  36.210  1.00  0.00    -0.237 OA
ATOM     80  O   UNL A   1      47.382  22.199  35.201  1.00  0.00    -0.237 OA
ATOM     81  O   UNL A   1      47.717  23.794  37.049  1.00  0.00    -0.744 OA
ENDBRANCH  74  78
ENDBRANCH  48  71
ENDBRANCH  22  23
ENDBRANCH  15  17
ENDBRANCH  14  15
ENDBRANCH   1  14
TORSDOF 15
ENDMDL
