MODEL 1
REMARK VINA RESULT:     -12.5      0.000      0.000
REMARK SMILES Cc1cc2c(c(C)c1Br)C=C(C(=O)OCCOC(=O)c1ccc(-c3c4nc(c(-c5cc(S(=O)(=O)[O-])ccc5F)c5ccc([nH]5)c(-c5cc(S(=O)(=O)[O-])ccc5F)c5nc(c(-c6cc(S(=O)(=O)[O-])ccc6F)c6ccc3[nH]6)C=C5)C=C4)cc1)[C@@H](C(F)(F)F)O2
REMARK SMILES IDX 16 1 15 2 14 3 12 4 13 5 11 6 1 7 2 8 3 9 8 10 4 11 6 12
REMARK SMILES IDX 9 13 5 14 88 15 7 16 10 17 83 18 84 19 85 20 86 21 87 22
REMARK SMILES IDX 17 23 18 24 19 25 20 26 21 27 82 28 22 29 81 30 23 31 24 32
REMARK SMILES IDX 25 33 75 34 26 35 80 36 74 37 76 38 27 39 79 40 73 41 72 42
REMARK SMILES IDX 28 44 60 45 40 46 59 47 41 48 44 49 58 50 77 51 42 52 43 53
REMARK SMILES IDX 57 55 78 56 45 57 29 58 30 59 38 60 31 61 37 62 39 63 36 64
REMARK SMILES IDX 32 65 33 66 34 67 35 68 61 69 62 70 70 71 63 72 69 73 71 74
REMARK SMILES IDX 68 75 64 76 65 77 66 78 67 79 46 80 47 81 55 82 48 83 54 84
REMARK SMILES IDX 56 85 53 86 49 87 50 88 51 89 52 90
REMARK H PARENT 76 43 44 54
REMARK Flexibility Score: inf
ROOT
ATOM      1  C   UNL A   1      36.405  20.910  24.627  1.00  0.00     0.275 C 
ENDROOT
BRANCH   1   2
ATOM      2  C   UNL A   1      35.014  20.385  24.980  1.00  0.00     0.275 C 
BRANCH   2   3
ATOM      3  O   UNL A   1      33.983  21.135  24.302  1.00  0.00    -0.459 OA
BRANCH   3   4
ATOM      4  C   UNL A   1      32.774  21.144  24.910  1.00  0.00     0.338 C 
ATOM      5  O   UNL A   1      32.051  20.178  25.104  1.00  0.00    -0.246 OA
BRANCH   4   6
ATOM      6  C   UNL A   1      32.420  22.511  25.334  1.00  0.00     0.087 C 
ATOM      7  C   UNL A   1      31.701  28.877  26.340  1.00  0.00     0.046 C 
ATOM      8  C   UNL A   1      31.847  27.505  25.735  1.00  0.00    -0.033 A 
ATOM      9  C   UNL A   1      31.756  26.412  26.611  1.00  0.00     0.051 A 
ATOM     10  C   UNL A   1      32.127  27.267  24.373  1.00  0.00     0.024 A 
ATOM     11  C   UNL A   1      31.940  25.108  26.161  1.00  0.00     0.128 A 
ATOM     12  C   UNL A   1      32.287  25.946  23.889  1.00  0.00    -0.026 A 
ATOM     13  Br  UNL A   1      32.322  28.763  23.194  1.00  0.00    -0.050 Br
ATOM     14  C   UNL A   1      32.212  24.865  24.812  1.00  0.00     0.021 A 
ATOM     15  O   UNL A   1      31.818  24.136  27.116  1.00  0.00    -0.475 OA
ATOM     16  C   UNL A   1      32.521  25.650  22.422  1.00  0.00     0.046 C 
ATOM     17  C   UNL A   1      32.441  23.480  24.412  1.00  0.00     0.027 C 
ATOM     18  C   UNL A   1      32.179  22.771  26.788  1.00  0.00     0.316 C 
BRANCH  18  19
ATOM     19  C   UNL A   1      33.391  22.358  27.639  1.00  0.00     0.430 C 
ATOM     20  F   UNL A   1      33.534  21.009  27.671  1.00  0.00    -0.167 F 
ATOM     21  F   UNL A   1      34.548  22.849  27.129  1.00  0.00    -0.167 F 
ATOM     22  F   UNL A   1      33.298  22.785  28.916  1.00  0.00    -0.167 F 
ENDBRANCH  18  19
ENDBRANCH   4   6
ENDBRANCH   3   4
ENDBRANCH   2   3
ENDBRANCH   1   2
BRANCH   1  23
ATOM     23  O   UNL A   1      37.042  21.454  25.795  1.00  0.00    -0.458 OA
BRANCH  23  24
ATOM     24  C   UNL A   1      38.377  21.251  25.879  1.00  0.00     0.338 C 
ATOM     25  O   UNL A   1      39.001  20.275  25.501  1.00  0.00    -0.246 OA
BRANCH  24  26
ATOM     26  C   UNL A   1      39.023  22.441  26.458  1.00  0.00     0.060 A 
ATOM     27  C   UNL A   1      38.496  23.691  26.162  1.00  0.00     0.016 A 
ATOM     28  C   UNL A   1      40.222  22.339  27.160  1.00  0.00     0.016 A 
ATOM     29  C   UNL A   1      39.230  24.839  26.440  1.00  0.00     0.010 A 
ATOM     30  C   UNL A   1      40.885  23.508  27.567  1.00  0.00     0.010 A 
ATOM     31  C   UNL A   1      40.423  24.777  27.175  1.00  0.00    -0.014 A 
BRANCH  31  32
ATOM     32  C   UNL A   1      41.169  26.035  27.494  1.00  0.00     0.031 A 
ATOM     33  C   UNL A   1      40.582  27.063  28.435  1.00  0.00     0.074 A 
ATOM     34  C   UNL A   1      42.409  26.236  26.994  1.00  0.00     0.049 A 
ATOM     35  N   UNL A   1      41.017  28.266  28.717  1.00  0.00    -0.248 NA
ATOM     36  C   UNL A   1      39.340  26.702  29.138  1.00  0.00     0.031 C 
ATOM     37  C   UNL A   1      43.129  25.308  26.117  1.00  0.00     0.029 A 
ATOM     38  N   UNL A   1      43.305  27.262  27.177  1.00  0.00    -0.354 N 
ATOM     39  C   UNL A   1      40.081  28.821  29.585  1.00  0.00     0.074 A 
ATOM     40  C   UNL A   1      39.046  27.828  29.773  1.00  0.00     0.031 C 
ATOM     41  C   UNL A   1      44.380  25.752  25.930  1.00  0.00     0.029 A 
ATOM     42  C   UNL A   1      44.517  27.061  26.553  1.00  0.00     0.049 A 
ATOM     43  H   UNL A   1      43.100  28.068  27.705  1.00  0.00     0.167 HD
ATOM     44  C   UNL A   1      40.089  30.043  30.173  1.00  0.00     0.034 A 
ATOM     45  C   UNL A   1      45.606  27.849  26.449  1.00  0.00     0.034 A 
ATOM     46  C   UNL A   1      41.155  31.003  30.025  1.00  0.00     0.049 A 
ATOM     47  C   UNL A   1      45.565  29.224  27.057  1.00  0.00     0.074 A 
ATOM     48  C   UNL A   1      41.250  32.275  30.564  1.00  0.00     0.029 A 
ATOM     49  N   UNL A   1      42.324  30.789  29.308  1.00  0.00    -0.354 N 
ATOM     50  N   UNL A   1      44.611  29.777  27.768  1.00  0.00    -0.248 NA
ATOM     51  C   UNL A   1      46.726  30.092  26.822  1.00  0.00     0.031 C 
ATOM     52  C   UNL A   1      42.449  32.847  30.133  1.00  0.00     0.029 A 
ATOM     53  C   UNL A   1      43.136  31.910  29.380  1.00  0.00     0.049 A 
ATOM     54  H   UNL A   1      42.545  29.962  28.820  1.00  0.00     0.167 HD
ATOM     55  C   UNL A   1      45.062  31.056  28.072  1.00  0.00     0.074 A 
ATOM     56  C   UNL A   1      46.376  31.190  27.479  1.00  0.00     0.031 C 
ATOM     57  C   UNL A   1      44.440  32.031  28.778  1.00  0.00     0.034 A 
BRANCH  44  58
ATOM     58  C   UNL A   1      38.893  30.439  31.001  1.00  0.00     0.023 A 
ATOM     59  C   UNL A   1      37.793  31.113  30.447  1.00  0.00     0.031 A 
ATOM     60  C   UNL A   1      38.840  30.098  32.366  1.00  0.00     0.131 A 
ATOM     61  C   UNL A   1      36.702  31.457  31.262  1.00  0.00     0.055 A 
ATOM     62  C   UNL A   1      37.725  30.385  33.156  1.00  0.00     0.041 A 
ATOM     63  F   UNL A   1      39.871  29.467  32.952  1.00  0.00    -0.206 F 
ATOM     64  C   UNL A   1      36.650  31.074  32.605  1.00  0.00     0.022 A 
BRANCH  61  65
ATOM     65  S   UNL A   1      35.376  32.476  30.562  1.00  0.00     0.124 S 
ATOM     66  O   UNL A   1      35.035  31.726  29.356  1.00  0.00    -0.237 OA
ATOM     67  O   UNL A   1      34.375  32.469  31.622  1.00  0.00    -0.237 OA
ATOM     68  O   UNL A   1      36.023  33.765  30.325  1.00  0.00    -0.744 OA
ENDBRANCH  61  65
ENDBRANCH  44  58
BRANCH  45  69
ATOM     69  C   UNL A   1      46.801  27.381  25.687  1.00  0.00     0.023 A 
ATOM     70  C   UNL A   1      46.996  27.752  24.347  1.00  0.00     0.031 A 
ATOM     71  C   UNL A   1      47.770  26.558  26.291  1.00  0.00     0.131 A 
ATOM     72  C   UNL A   1      48.127  27.294  23.653  1.00  0.00     0.055 A 
ATOM     73  C   UNL A   1      48.918  26.148  25.612  1.00  0.00     0.041 A 
ATOM     74  F   UNL A   1      47.630  26.169  27.568  1.00  0.00    -0.206 F 
ATOM     75  C   UNL A   1      49.098  26.511  24.282  1.00  0.00     0.022 A 
BRANCH  72  76
ATOM     76  S   UNL A   1      48.295  27.698  21.892  1.00  0.00     0.124 S 
ATOM     77  O   UNL A   1      48.525  26.382  21.307  1.00  0.00    -0.237 OA
ATOM     78  O   UNL A   1      47.007  28.316  21.597  1.00  0.00    -0.237 OA
ATOM     79  O   UNL A   1      49.440  28.605  21.861  1.00  0.00    -0.744 OA
ENDBRANCH  72  76
ENDBRANCH  45  69
BRANCH  57  80
ATOM     80  C   UNL A   1      45.185  33.320  28.984  1.00  0.00     0.023 A 
ATOM     81  C   UNL A   1      44.997  34.420  28.131  1.00  0.00     0.031 A 
ATOM     82  C   UNL A   1      46.049  33.465  30.083  1.00  0.00     0.131 A 
ATOM     83  C   UNL A   1      45.683  35.617  28.381  1.00  0.00     0.055 A 
ATOM     84  C   UNL A   1      46.697  34.670  30.350  1.00  0.00     0.041 A 
ATOM     85  F   UNL A   1      46.257  32.442  30.927  1.00  0.00    -0.206 F 
ATOM     86  C   UNL A   1      46.518  35.754  29.495  1.00  0.00     0.022 A 
BRANCH  83  87
ATOM     87  S   UNL A   1      45.487  36.996  27.220  1.00  0.00     0.124 S 
ATOM     88  O   UNL A   1      44.070  36.908  26.884  1.00  0.00    -0.237 OA
ATOM     89  O   UNL A   1      45.880  38.147  28.026  1.00  0.00    -0.237 OA
ATOM     90  O   UNL A   1      46.405  36.663  26.133  1.00  0.00    -0.744 OA
ENDBRANCH  83  87
ENDBRANCH  57  80
ENDBRANCH  31  32
ENDBRANCH  24  26
ENDBRANCH  23  24
ENDBRANCH   1  23
TORSDOF 15
ENDMDL
MODEL 2
REMARK VINA RESULT:     -12.5      1.285      1.822
REMARK SMILES Cc1cc2c(c(C)c1Br)C=C(C(=O)OCCOC(=O)c1ccc(-c3c4nc(c(-c5cc(S(=O)(=O)[O-])ccc5F)c5ccc([nH]5)c(-c5cc(S(=O)(=O)[O-])ccc5F)c5nc(c(-c6cc(S(=O)(=O)[O-])ccc6F)c6ccc3[nH]6)C=C5)C=C4)cc1)[C@@H](C(F)(F)F)O2
REMARK SMILES IDX 16 1 15 2 14 3 12 4 13 5 11 6 1 7 2 8 3 9 8 10 4 11 6 12
REMARK SMILES IDX 9 13 5 14 88 15 7 16 10 17 83 18 84 19 85 20 86 21 87 22
REMARK SMILES IDX 17 23 18 24 19 25 20 26 21 27 82 28 22 29 81 30 23 31 24 32
REMARK SMILES IDX 25 33 75 34 26 35 80 36 74 37 76 38 27 39 79 40 73 41 72 42
REMARK SMILES IDX 28 44 60 45 40 46 59 47 41 48 44 49 58 50 77 51 42 52 43 53
REMARK SMILES IDX 57 55 78 56 45 57 29 58 30 59 38 60 31 61 37 62 39 63 36 64
REMARK SMILES IDX 32 65 33 66 34 67 35 68 61 69 62 70 70 71 63 72 69 73 71 74
REMARK SMILES IDX 68 75 64 76 65 77 66 78 67 79 46 80 47 81 55 82 48 83 54 84
REMARK SMILES IDX 56 85 53 86 49 87 50 88 51 89 52 90
REMARK H PARENT 76 43 44 54
REMARK Flexibility Score: inf
ROOT
ATOM      1  C   UNL A   1      36.070  20.595  25.059  1.00  0.00     0.275 C 
ENDROOT
BRANCH   1   2
ATOM      2  C   UNL A   1      34.738  21.305  24.820  1.00  0.00     0.275 C 
BRANCH   2   3
ATOM      3  O   UNL A   1      34.901  22.739  24.824  1.00  0.00    -0.459 OA
BRANCH   3   4
ATOM      4  C   UNL A   1      34.196  23.404  25.769  1.00  0.00     0.338 C 
ATOM      5  O   UNL A   1      34.148  23.138  26.961  1.00  0.00    -0.246 OA
BRANCH   4   6
ATOM      6  C   UNL A   1      33.470  24.538  25.168  1.00  0.00     0.087 C 
ATOM      7  C   UNL A   1      30.109  29.889  23.712  1.00  0.00     0.046 C 
ATOM      8  C   UNL A   1      31.075  28.887  24.288  1.00  0.00    -0.033 A 
ATOM      9  C   UNL A   1      31.145  27.636  23.657  1.00  0.00     0.051 A 
ATOM     10  C   UNL A   1      31.852  29.113  25.444  1.00  0.00     0.024 A 
ATOM     11  C   UNL A   1      31.960  26.622  24.151  1.00  0.00     0.128 A 
ATOM     12  C   UNL A   1      32.711  28.105  25.945  1.00  0.00    -0.026 A 
ATOM     13  Br  UNL A   1      31.700  30.796  26.345  1.00  0.00    -0.050 Br
ATOM     14  C   UNL A   1      32.736  26.841  25.292  1.00  0.00     0.021 A 
ATOM     15  O   UNL A   1      31.939  25.455  23.437  1.00  0.00    -0.475 OA
ATOM     16  C   UNL A   1      33.608  28.336  27.142  1.00  0.00     0.046 C 
ATOM     17  C   UNL A   1      33.533  25.723  25.787  1.00  0.00     0.027 C 
ATOM     18  C   UNL A   1      32.602  24.283  23.976  1.00  0.00     0.316 C 
BRANCH  18  19
ATOM     19  C   UNL A   1      31.546  23.206  24.273  1.00  0.00     0.430 C 
ATOM     20  F   UNL A   1      31.939  21.991  23.817  1.00  0.00    -0.167 F 
ATOM     21  F   UNL A   1      31.342  23.062  25.606  1.00  0.00    -0.167 F 
ATOM     22  F   UNL A   1      30.350  23.481  23.708  1.00  0.00    -0.167 F 
ENDBRANCH  18  19
ENDBRANCH   4   6
ENDBRANCH   3   4
ENDBRANCH   2   3
ENDBRANCH   1   2
BRANCH   1  23
ATOM     23  O   UNL A   1      37.156  21.532  24.963  1.00  0.00    -0.458 OA
BRANCH  23  24
ATOM     24  C   UNL A   1      38.311  21.149  25.555  1.00  0.00     0.338 C 
ATOM     25  O   UNL A   1      38.805  20.036  25.559  1.00  0.00    -0.246 OA
BRANCH  24  26
ATOM     26  C   UNL A   1      38.960  22.317  26.175  1.00  0.00     0.060 A 
ATOM     27  C   UNL A   1      38.436  23.578  25.923  1.00  0.00     0.016 A 
ATOM     28  C   UNL A   1      40.159  22.188  26.871  1.00  0.00     0.016 A 
ATOM     29  C   UNL A   1      39.173  24.714  26.240  1.00  0.00     0.010 A 
ATOM     30  C   UNL A   1      40.826  23.340  27.318  1.00  0.00     0.010 A 
ATOM     31  C   UNL A   1      40.367  24.623  26.970  1.00  0.00    -0.014 A 
BRANCH  31  32
ATOM     32  C   UNL A   1      41.116  25.867  27.333  1.00  0.00     0.031 A 
ATOM     33  C   UNL A   1      40.519  26.879  28.285  1.00  0.00     0.074 A 
ATOM     34  C   UNL A   1      42.367  26.070  26.861  1.00  0.00     0.049 A 
ATOM     35  N   UNL A   1      40.957  28.071  28.603  1.00  0.00    -0.248 NA
ATOM     36  C   UNL A   1      39.261  26.512  28.956  1.00  0.00     0.031 C 
ATOM     37  C   UNL A   1      43.096  25.156  25.977  1.00  0.00     0.029 A 
ATOM     38  N   UNL A   1      43.267  27.084  27.085  1.00  0.00    -0.354 N 
ATOM     39  C   UNL A   1      40.009  28.614  29.465  1.00  0.00     0.074 A 
ATOM     40  C   UNL A   1      38.963  27.626  29.611  1.00  0.00     0.031 C 
ATOM     41  C   UNL A   1      44.354  25.594  25.824  1.00  0.00     0.029 A 
ATOM     42  C   UNL A   1      44.489  26.888  26.479  1.00  0.00     0.049 A 
ATOM     43  H   UNL A   1      43.058  27.880  27.626  1.00  0.00     0.167 HD
ATOM     44  C   UNL A   1      40.015  29.822  30.081  1.00  0.00     0.034 A 
ATOM     45  C   UNL A   1      45.586  27.668  26.414  1.00  0.00     0.034 A 
ATOM     46  C   UNL A   1      41.092  30.777  29.975  1.00  0.00     0.049 A 
ATOM     47  C   UNL A   1      45.544  29.029  27.052  1.00  0.00     0.074 A 
ATOM     48  C   UNL A   1      41.185  32.036  30.545  1.00  0.00     0.029 A 
ATOM     49  N   UNL A   1      42.272  30.569  29.276  1.00  0.00    -0.354 N 
ATOM     50  N   UNL A   1      44.581  29.574  27.757  1.00  0.00    -0.248 NA
ATOM     51  C   UNL A   1      46.716  29.893  26.859  1.00  0.00     0.031 C 
ATOM     52  C   UNL A   1      42.397  32.608  30.150  1.00  0.00     0.029 A 
ATOM     53  C   UNL A   1      43.091  31.682  29.389  1.00  0.00     0.049 A 
ATOM     54  H   UNL A   1      42.496  29.753  28.774  1.00  0.00     0.167 HD
ATOM     55  C   UNL A   1      45.035  30.842  28.099  1.00  0.00     0.074 A 
ATOM     56  C   UNL A   1      46.362  30.979  27.534  1.00  0.00     0.031 C 
ATOM     57  C   UNL A   1      44.408  31.807  28.815  1.00  0.00     0.034 A 
BRANCH  44  58
ATOM     58  C   UNL A   1      38.806  30.210  30.895  1.00  0.00     0.023 A 
ATOM     59  C   UNL A   1      37.750  30.959  30.351  1.00  0.00     0.031 A 
ATOM     60  C   UNL A   1      38.695  29.784  32.232  1.00  0.00     0.131 A 
ATOM     61  C   UNL A   1      36.645  31.291  31.152  1.00  0.00     0.055 A 
ATOM     62  C   UNL A   1      37.565  30.061  33.003  1.00  0.00     0.041 A 
ATOM     63  F   UNL A   1      39.682  29.078  32.807  1.00  0.00    -0.206 F 
ATOM     64  C   UNL A   1      36.534  30.825  32.465  1.00  0.00     0.022 A 
BRANCH  61  65
ATOM     65  S   UNL A   1      35.382  32.402  30.478  1.00  0.00     0.124 S 
ATOM     66  O   UNL A   1      34.443  32.488  31.593  1.00  0.00    -0.237 OA
ATOM     67  O   UNL A   1      36.142  33.612  30.190  1.00  0.00    -0.237 OA
ATOM     68  O   UNL A   1      34.884  31.685  29.306  1.00  0.00    -0.744 OA
ENDBRANCH  61  65
ENDBRANCH  44  58
BRANCH  45  69
ATOM     69  C   UNL A   1      46.792  27.208  25.665  1.00  0.00     0.023 A 
ATOM     70  C   UNL A   1      47.028  27.627  24.346  1.00  0.00     0.031 A 
ATOM     71  C   UNL A   1      47.730  26.345  26.259  1.00  0.00     0.131 A 
ATOM     72  C   UNL A   1      48.169  27.175  23.663  1.00  0.00     0.055 A 
ATOM     73  C   UNL A   1      48.887  25.939  25.594  1.00  0.00     0.041 A 
ATOM     74  F   UNL A   1      47.550  25.909  27.517  1.00  0.00    -0.206 F 
ATOM     75  C   UNL A   1      49.109  26.350  24.285  1.00  0.00     0.022 A 
BRANCH  72  76
ATOM     76  S   UNL A   1      48.389  27.645  21.924  1.00  0.00     0.124 S 
ATOM     77  O   UNL A   1      49.537  28.541  22.004  1.00  0.00    -0.237 OA
ATOM     78  O   UNL A   1      48.624  26.354  21.287  1.00  0.00    -0.237 OA
ATOM     79  O   UNL A   1      47.120  28.284  21.582  1.00  0.00    -0.744 OA
ENDBRANCH  72  76
ENDBRANCH  45  69
BRANCH  57  80
ATOM     80  C   UNL A   1      45.158  33.084  29.065  1.00  0.00     0.023 A 
ATOM     81  C   UNL A   1      45.156  34.131  28.128  1.00  0.00     0.031 A 
ATOM     82  C   UNL A   1      45.836  33.276  30.281  1.00  0.00     0.131 A 
ATOM     83  C   UNL A   1      45.838  35.321  28.416  1.00  0.00     0.055 A 
ATOM     84  C   UNL A   1      46.478  34.477  30.579  1.00  0.00     0.041 A 
ATOM     85  F   UNL A   1      45.862  32.305  31.208  1.00  0.00    -0.206 F 
ATOM     86  C   UNL A   1      46.483  35.507  29.643  1.00  0.00     0.022 A 
BRANCH  83  87
ATOM     87  S   UNL A   1      45.888  36.626  27.159  1.00  0.00     0.124 S 
ATOM     88  O   UNL A   1      44.571  37.236  27.304  1.00  0.00    -0.237 OA
ATOM     89  O   UNL A   1      47.018  37.441  27.593  1.00  0.00    -0.237 OA
ATOM     90  O   UNL A   1      46.100  35.894  25.911  1.00  0.00    -0.744 OA
ENDBRANCH  83  87
ENDBRANCH  57  80
ENDBRANCH  31  32
ENDBRANCH  24  26
ENDBRANCH  23  24
ENDBRANCH   1  23
TORSDOF 15
ENDMDL
MODEL 3
REMARK VINA RESULT:     -12.4      5.293     10.316
REMARK SMILES Cc1cc2c(c(C)c1Br)C=C(C(=O)OCCOC(=O)c1ccc(-c3c4nc(c(-c5cc(S(=O)(=O)[O-])ccc5F)c5ccc([nH]5)c(-c5cc(S(=O)(=O)[O-])ccc5F)c5nc(c(-c6cc(S(=O)(=O)[O-])ccc6F)c6ccc3[nH]6)C=C5)C=C4)cc1)[C@@H](C(F)(F)F)O2
REMARK SMILES IDX 16 1 15 2 14 3 12 4 13 5 11 6 1 7 2 8 3 9 8 10 4 11 6 12
REMARK SMILES IDX 9 13 5 14 88 15 7 16 10 17 83 18 84 19 85 20 86 21 87 22
REMARK SMILES IDX 17 23 18 24 19 25 20 26 21 27 82 28 22 29 81 30 23 31 24 32
REMARK SMILES IDX 25 33 75 34 26 35 80 36 74 37 76 38 27 39 79 40 73 41 72 42
REMARK SMILES IDX 28 44 60 45 40 46 59 47 41 48 44 49 58 50 77 51 42 52 43 53
REMARK SMILES IDX 57 55 78 56 45 57 29 58 30 59 38 60 31 61 37 62 39 63 36 64
REMARK SMILES IDX 32 65 33 66 34 67 35 68 61 69 62 70 70 71 63 72 69 73 71 74
REMARK SMILES IDX 68 75 64 76 65 77 66 78 67 79 46 80 47 81 55 82 48 83 54 84
REMARK SMILES IDX 56 85 53 86 49 87 50 88 51 89 52 90
REMARK H PARENT 76 43 44 54
REMARK Flexibility Score: inf
ROOT
ATOM      1  C   UNL A   1      31.409  29.849  25.932  1.00  0.00     0.275 C 
ENDROOT
BRANCH   1   2
ATOM      2  C   UNL A   1      30.926  29.599  24.504  1.00  0.00     0.275 C 
BRANCH   2   3
ATOM      3  O   UNL A   1      30.573  28.214  24.306  1.00  0.00    -0.459 OA
BRANCH   3   4
ATOM      4  C   UNL A   1      30.762  27.737  23.053  1.00  0.00     0.338 C 
ATOM      5  O   UNL A   1      30.194  28.114  22.039  1.00  0.00    -0.246 OA
BRANCH   4   6
ATOM      6  C   UNL A   1      31.782  26.672  23.055  1.00  0.00     0.087 C 
ATOM      7  C   UNL A   1      36.005  21.908  24.284  1.00  0.00     0.046 C 
ATOM      8  C   UNL A   1      34.789  22.793  24.211  1.00  0.00    -0.033 A 
ATOM      9  C   UNL A   1      34.831  23.856  23.296  1.00  0.00     0.051 A 
ATOM     10  C   UNL A   1      33.657  22.651  25.041  1.00  0.00     0.024 A 
ATOM     11  C   UNL A   1      33.784  24.767  23.198  1.00  0.00     0.128 A 
ATOM     12  C   UNL A   1      32.567  23.550  24.936  1.00  0.00    -0.026 A 
ATOM     13  Br  UNL A   1      33.632  21.243  26.338  1.00  0.00    -0.050 Br
ATOM     14  C   UNL A   1      32.658  24.629  24.013  1.00  0.00     0.021 A 
ATOM     15  O   UNL A   1      33.951  25.752  22.262  1.00  0.00    -0.475 OA
ATOM     16  C   UNL A   1      31.309  23.387  25.762  1.00  0.00     0.046 C 
ATOM     17  C   UNL A   1      31.615  25.644  23.895  1.00  0.00     0.027 C 
ATOM     18  C   UNL A   1      33.008  26.853  22.217  1.00  0.00     0.316 C 
BRANCH  18  19
ATOM     19  C   UNL A   1      33.745  28.154  22.576  1.00  0.00     0.430 C 
ATOM     20  F   UNL A   1      34.940  28.235  21.939  1.00  0.00    -0.167 F 
ATOM     21  F   UNL A   1      33.039  29.247  22.196  1.00  0.00    -0.167 F 
ATOM     22  F   UNL A   1      33.984  28.266  23.900  1.00  0.00    -0.167 F 
ENDBRANCH  18  19
ENDBRANCH   4   6
ENDBRANCH   3   4
ENDBRANCH   2   3
ENDBRANCH   1   2
BRANCH   1  23
ATOM     23  O   UNL A   1      32.773  30.303  25.923  1.00  0.00    -0.458 OA
BRANCH  23  24
ATOM     24  C   UNL A   1      33.080  31.247  26.843  1.00  0.00     0.338 C 
ATOM     25  O   UNL A   1      32.378  32.169  27.217  1.00  0.00    -0.246 OA
BRANCH  24  26
ATOM     26  C   UNL A   1      34.411  30.971  27.408  1.00  0.00     0.060 A 
ATOM     27  C   UNL A   1      34.760  29.654  27.673  1.00  0.00     0.016 A 
ATOM     28  C   UNL A   1      35.249  32.008  27.815  1.00  0.00     0.016 A 
ATOM     29  C   UNL A   1      35.869  29.372  28.464  1.00  0.00     0.010 A 
ATOM     30  C   UNL A   1      36.444  31.707  28.486  1.00  0.00     0.010 A 
ATOM     31  C   UNL A   1      36.752  30.387  28.861  1.00  0.00    -0.014 A 
BRANCH  31  32
ATOM     32  C   UNL A   1      37.960  30.046  29.677  1.00  0.00     0.031 A 
ATOM     33  C   UNL A   1      39.092  29.241  29.081  1.00  0.00     0.074 A 
ATOM     34  C   UNL A   1      38.081  30.513  30.940  1.00  0.00     0.049 A 
ATOM     35  N   UNL A   1      40.145  28.735  29.673  1.00  0.00    -0.248 NA
ATOM     36  C   UNL A   1      39.028  28.952  27.639  1.00  0.00     0.031 C 
ATOM     37  C   UNL A   1      37.097  31.350  31.632  1.00  0.00     0.029 A 
ATOM     38  N   UNL A   1      39.097  30.390  31.859  1.00  0.00    -0.354 N 
ATOM     39  C   UNL A   1      40.838  28.030  28.694  1.00  0.00     0.074 A 
ATOM     40  C   UNL A   1      40.078  28.160  27.469  1.00  0.00     0.031 C 
ATOM     41  C   UNL A   1      37.598  31.748  32.809  1.00  0.00     0.029 A 
ATOM     42  C   UNL A   1      38.879  31.089  33.026  1.00  0.00     0.049 A 
ATOM     43  H   UNL A   1      39.905  29.850  31.699  1.00  0.00     0.167 HD
ATOM     44  C   UNL A   1      42.002  27.342  28.805  1.00  0.00     0.034 A 
ATOM     45  C   UNL A   1      39.597  31.166  34.165  1.00  0.00     0.034 A 
ATOM     46  C   UNL A   1      42.781  27.267  30.017  1.00  0.00     0.049 A 
ATOM     47  C   UNL A   1      40.851  30.345  34.285  1.00  0.00     0.074 A 
ATOM     48  C   UNL A   1      43.964  26.582  30.238  1.00  0.00     0.029 A 
ATOM     49  N   UNL A   1      42.474  27.920  31.202  1.00  0.00    -0.354 N 
ATOM     50  N   UNL A   1      41.420  29.580  33.383  1.00  0.00    -0.248 NA
ATOM     51  C   UNL A   1      41.541  30.367  35.582  1.00  0.00     0.031 C 
ATOM     52  C   UNL A   1      44.344  26.779  31.568  1.00  0.00     0.029 A 
ATOM     53  C   UNL A   1      43.436  27.641  32.160  1.00  0.00     0.049 A 
ATOM     54  H   UNL A   1      41.688  28.497  31.343  1.00  0.00     0.167 HD
ATOM     55  C   UNL A   1      42.539  29.036  34.002  1.00  0.00     0.074 A 
ATOM     56  C   UNL A   1      42.574  29.568  35.349  1.00  0.00     0.031 C 
ATOM     57  C   UNL A   1      43.454  28.173  33.499  1.00  0.00     0.034 A 
BRANCH  44  58
ATOM     58  C   UNL A   1      42.492  26.577  27.602  1.00  0.00     0.023 A 
ATOM     59  C   UNL A   1      42.165  25.227  27.393  1.00  0.00     0.031 A 
ATOM     60  C   UNL A   1      43.270  27.227  26.626  1.00  0.00     0.131 A 
ATOM     61  C   UNL A   1      42.644  24.561  26.254  1.00  0.00     0.055 A 
ATOM     62  C   UNL A   1      43.690  26.577  25.463  1.00  0.00     0.041 A 
ATOM     63  F   UNL A   1      43.625  28.513  26.783  1.00  0.00    -0.206 F 
ATOM     64  C   UNL A   1      43.382  25.234  25.276  1.00  0.00     0.022 A 
BRANCH  61  65
ATOM     65  S   UNL A   1      42.352  22.779  26.097  1.00  0.00     0.124 S 
ATOM     66  O   UNL A   1      42.916  22.504  24.778  1.00  0.00    -0.237 OA
ATOM     67  O   UNL A   1      43.089  22.234  27.232  1.00  0.00    -0.237 OA
ATOM     68  O   UNL A   1      40.899  22.660  26.184  1.00  0.00    -0.744 OA
ENDBRANCH  61  65
ENDBRANCH  44  58
BRANCH  45  69
ATOM     69  C   UNL A   1      39.115  32.003  35.302  1.00  0.00     0.023 A 
ATOM     70  C   UNL A   1      38.446  31.425  36.392  1.00  0.00     0.031 A 
ATOM     71  C   UNL A   1      39.319  33.395  35.316  1.00  0.00     0.131 A 
ATOM     72  C   UNL A   1      37.998  32.237  37.447  1.00  0.00     0.055 A 
ATOM     73  C   UNL A   1      38.918  34.190  36.390  1.00  0.00     0.041 A 
ATOM     74  F   UNL A   1      39.949  34.000  34.296  1.00  0.00    -0.206 F 
ATOM     75  C   UNL A   1      38.247  33.612  37.462  1.00  0.00     0.022 A 
BRANCH  72  76
ATOM     76  S   UNL A   1      37.040  31.478  38.788  1.00  0.00     0.124 S 
ATOM     77  O   UNL A   1      36.875  30.115  38.298  1.00  0.00    -0.237 OA
ATOM     78  O   UNL A   1      37.930  31.647  39.931  1.00  0.00    -0.237 OA
ATOM     79  O   UNL A   1      35.819  32.281  38.829  1.00  0.00    -0.744 OA
ENDBRANCH  72  76
ENDBRANCH  45  69
BRANCH  57  80
ATOM     80  C   UNL A   1      44.596  27.774  34.392  1.00  0.00     0.023 A 
ATOM     81  C   UNL A   1      44.513  26.650  35.230  1.00  0.00     0.031 A 
ATOM     82  C   UNL A   1      45.801  28.497  34.358  1.00  0.00     0.131 A 
ATOM     83  C   UNL A   1      45.614  26.290  36.019  1.00  0.00     0.055 A 
ATOM     84  C   UNL A   1      46.907  28.111  35.114  1.00  0.00     0.041 A 
ATOM     85  F   UNL A   1      45.927  29.576  33.570  1.00  0.00    -0.206 F 
ATOM     86  C   UNL A   1      46.816  27.003  35.953  1.00  0.00     0.022 A 
BRANCH  83  87
ATOM     87  S   UNL A   1      45.456  24.884  37.152  1.00  0.00     0.124 S 
ATOM     88  O   UNL A   1      44.034  24.919  37.480  1.00  0.00    -0.237 OA
ATOM     89  O   UNL A   1      45.892  23.762  36.328  1.00  0.00    -0.237 OA
ATOM     90  O   UNL A   1      46.355  25.226  38.252  1.00  0.00    -0.744 OA
ENDBRANCH  83  87
ENDBRANCH  57  80
ENDBRANCH  31  32
ENDBRANCH  24  26
ENDBRANCH  23  24
ENDBRANCH   1  23
TORSDOF 15
ENDMDL
