MODEL 1
REMARK VINA RESULT:     -13.1      0.000      0.000
REMARK SMILES CC(C)CCn1nc(C(=O)OCCOC(=O)c2ccc(-c3c4nc(c(-c5cc(S(=O)(=O)[O-])ccc5F)c5ccc([nH]5)c(-c5cc(S(=O)(=O)[O-])ccc5F)c5nc(c(-c6cc(S(=O)(=O)[O-])ccc6F)c6ccc3[nH]6)C=C5)C=C4)cc2)c2c1CCN(C(=O)[C@@H]1CCc3nn(C)c(=O)n3C1)C2
REMARK SMILES IDX 12 1 11 2 9 3 10 4 8 5 6 6 7 7 81 8 80 9 82 10 98 11 83 12
REMARK SMILES IDX 84 13 5 14 4 15 2 16 1 17 3 18 85 19 86 20 87 21 88 22 97 23
REMARK SMILES IDX 89 24 96 25 90 26 94 27 91 28 92 29 95 30 93 31 13 32 14 33
REMARK SMILES IDX 15 34 16 35 17 36 18 37 79 38 19 39 78 40 20 41 21 42 22 43
REMARK SMILES IDX 72 44 23 45 77 46 71 47 73 48 24 49 76 50 70 51 69 52 25 54
REMARK SMILES IDX 57 55 37 56 56 57 38 58 41 59 55 60 74 61 39 62 40 63 54 65
REMARK SMILES IDX 75 66 42 67 26 68 27 69 35 70 28 71 34 72 36 73 33 74 29 75
REMARK SMILES IDX 30 76 31 77 32 78 58 79 59 80 67 81 60 82 66 83 68 84 65 85
REMARK SMILES IDX 61 86 62 87 63 88 64 89 43 90 44 91 52 92 45 93 51 94 53 95
REMARK SMILES IDX 50 96 46 97 47 98 48 99 49 100
REMARK H PARENT 73 53 41 64
REMARK Flexibility Score: inf
ROOT
ATOM      1  C   UNL A   1      34.383  31.314  27.294  1.00  0.00     0.275 C 
ENDROOT
BRANCH   1   2
ATOM      2  O   UNL A   1      33.411  30.268  27.153  1.00  0.00    -0.457 OA
BRANCH   2   3
ATOM      3  C   UNL A   1      33.785  29.069  26.605  1.00  0.00     0.359 C 
ATOM      4  O   UNL A   1      34.742  28.406  27.003  1.00  0.00    -0.244 OA
BRANCH   3   5
ATOM      5  C   UNL A   1      32.861  28.677  25.522  1.00  0.00     0.175 A 
ATOM      6  N   UNL A   1      31.648  28.734  23.743  1.00  0.00    -0.268 N 
ATOM      7  N   UNL A   1      32.535  29.465  24.468  1.00  0.00    -0.165 NA
ATOM      8  C   UNL A   1      31.285  27.605  24.408  1.00  0.00     0.046 A 
ATOM      9  C   UNL A   1      32.189  27.429  25.432  1.00  0.00     0.028 A 
ATOM     10  C   UNL A   1      30.146  26.692  24.215  1.00  0.00     0.078 C 
ATOM     11  C   UNL A   1      32.256  26.199  26.304  1.00  0.00     0.159 C 
ATOM     12  C   UNL A   1      29.924  26.046  25.591  1.00  0.00     0.126 C 
ATOM     13  N   UNL A   1      31.105  25.317  26.018  1.00  0.00    -0.338 N 
BRANCH   6  14
ATOM     14  C   UNL A   1      31.333  29.149  22.384  1.00  0.00     0.145 C 
BRANCH  14  15
ATOM     15  C   UNL A   1      29.986  29.847  22.129  1.00  0.00     0.027 C 
BRANCH  15  16
ATOM     16  C   UNL A   1      29.102  30.032  23.380  1.00  0.00    -0.016 C 
ATOM     17  C   UNL A   1      29.095  31.477  23.870  1.00  0.00     0.007 C 
ATOM     18  C   UNL A   1      27.670  29.567  23.092  1.00  0.00     0.007 C 
ENDBRANCH  15  16
ENDBRANCH  14  15
ENDBRANCH   6  14
BRANCH  13  19
ATOM     19  C   UNL A   1      31.235  23.967  26.259  1.00  0.00     0.227 C 
ATOM     20  O   UNL A   1      31.324  23.562  27.427  1.00  0.00    -0.274 OA
BRANCH  19  21
ATOM     21  C   UNL A   1      31.266  22.886  25.150  1.00  0.00     0.099 C 
ATOM     22  C   UNL A   1      31.554  21.443  25.576  1.00  0.00     0.023 C 
ATOM     23  C   UNL A   1      31.972  23.270  23.854  1.00  0.00     0.142 C 
ATOM     24  C   UNL A   1      33.004  20.982  25.484  1.00  0.00     0.078 C 
ATOM     25  N   UNL A   1      33.309  22.729  23.749  1.00  0.00    -0.278 N 
ATOM     26  C   UNL A   1      33.844  21.751  24.507  1.00  0.00     0.133 A 
ATOM     27  C   UNL A   1      34.368  23.385  23.167  1.00  0.00     0.345 A 
ATOM     28  N   UNL A   1      35.143  21.673  24.463  1.00  0.00    -0.155 NA
ATOM     29  N   UNL A   1      35.505  22.708  23.626  1.00  0.00    -0.216 N 
ATOM     30  O   UNL A   1      34.332  24.417  22.519  1.00  0.00    -0.246 OA
ATOM     31  C   UNL A   1      36.838  23.250  23.604  1.00  0.00     0.179 C 
ENDBRANCH  19  21
ENDBRANCH  13  19
ENDBRANCH   3   5
ENDBRANCH   2   3
ENDBRANCH   1   2
BRANCH   1  32
ATOM     32  C   UNL A   1      34.963  31.307  28.702  1.00  0.00     0.275 C 
BRANCH  32  33
ATOM     33  O   UNL A   1      36.318  30.888  28.628  1.00  0.00    -0.458 OA
BRANCH  33  34
ATOM     34  C   UNL A   1      36.794  30.199  29.690  1.00  0.00     0.338 C 
ATOM     35  O   UNL A   1      36.644  30.476  30.864  1.00  0.00    -0.246 OA
BRANCH  34  36
ATOM     36  C   UNL A   1      37.641  29.113  29.192  1.00  0.00     0.060 A 
ATOM     37  C   UNL A   1      38.112  28.186  30.128  1.00  0.00     0.016 A 
ATOM     38  C   UNL A   1      38.233  29.284  27.937  1.00  0.00     0.016 A 
ATOM     39  C   UNL A   1      39.361  27.646  29.922  1.00  0.00     0.010 A 
ATOM     40  C   UNL A   1      39.490  28.790  27.758  1.00  0.00     0.010 A 
ATOM     41  C   UNL A   1      40.071  28.070  28.799  1.00  0.00    -0.014 A 
BRANCH  41  42
ATOM     42  C   UNL A   1      41.471  27.749  28.664  1.00  0.00     0.031 A 
ATOM     43  C   UNL A   1      41.682  26.484  27.932  1.00  0.00     0.074 A 
ATOM     44  C   UNL A   1      42.414  28.658  28.977  1.00  0.00     0.049 A 
ATOM     45  N   UNL A   1      42.020  25.339  28.424  1.00  0.00    -0.248 NA
ATOM     46  C   UNL A   1      41.186  26.408  26.543  1.00  0.00     0.031 C 
ATOM     47  C   UNL A   1      42.247  30.048  29.413  1.00  0.00     0.029 A 
ATOM     48  N   UNL A   1      43.757  28.553  28.842  1.00  0.00    -0.354 N 
ATOM     49  C   UNL A   1      42.028  24.472  27.338  1.00  0.00     0.074 A 
ATOM     50  C   UNL A   1      41.211  25.092  26.340  1.00  0.00     0.031 C 
ATOM     51  C   UNL A   1      43.422  30.707  29.267  1.00  0.00     0.029 A 
ATOM     52  C   UNL A   1      44.444  29.765  28.842  1.00  0.00     0.049 A 
ATOM     53  H   UNL A   1      44.213  27.686  28.753  1.00  0.00     0.167 HD
ATOM     54  C   UNL A   1      42.963  23.489  27.222  1.00  0.00     0.034 A 
ATOM     55  C   UNL A   1      45.722  29.943  28.399  1.00  0.00     0.034 A 
ATOM     56  C   UNL A   1      43.652  23.302  28.482  1.00  0.00     0.049 A 
ATOM     57  C   UNL A   1      46.346  28.583  28.400  1.00  0.00     0.074 A 
ATOM     58  C   UNL A   1      43.246  22.955  29.757  1.00  0.00     0.029 A 
ATOM     59  N   UNL A   1      44.887  23.900  28.632  1.00  0.00    -0.354 N 
ATOM     60  N   UNL A   1      46.539  27.891  29.496  1.00  0.00    -0.248 NA
ATOM     61  C   UNL A   1      46.224  27.782  27.185  1.00  0.00     0.031 C 
ATOM     62  C   UNL A   1      43.996  23.804  30.622  1.00  0.00     0.029 A 
ATOM     63  C   UNL A   1      44.893  24.545  29.845  1.00  0.00     0.049 A 
ATOM     64  H   UNL A   1      45.630  23.869  27.986  1.00  0.00     0.167 HD
ATOM     65  C   UNL A   1      46.160  26.591  29.185  1.00  0.00     0.074 A 
ATOM     66  C   UNL A   1      46.030  26.573  27.727  1.00  0.00     0.031 C 
ATOM     67  C   UNL A   1      45.674  25.735  30.137  1.00  0.00     0.034 A 
BRANCH  54  68
ATOM     68  C   UNL A   1      43.537  22.988  25.912  1.00  0.00     0.023 A 
ATOM     69  C   UNL A   1      43.473  21.600  25.701  1.00  0.00     0.031 A 
ATOM     70  C   UNL A   1      44.359  23.702  25.008  1.00  0.00     0.131 A 
ATOM     71  C   UNL A   1      44.291  20.973  24.750  1.00  0.00     0.055 A 
ATOM     72  C   UNL A   1      45.121  23.079  24.016  1.00  0.00     0.041 A 
ATOM     73  F   UNL A   1      44.550  25.023  25.065  1.00  0.00    -0.206 F 
ATOM     74  C   UNL A   1      45.122  21.702  23.908  1.00  0.00     0.022 A 
BRANCH  71  75
ATOM     75  S   UNL A   1      44.385  19.168  24.774  1.00  0.00     0.124 S 
ATOM     76  O   UNL A   1      43.018  18.808  25.133  1.00  0.00    -0.237 OA
ATOM     77  O   UNL A   1      44.794  18.872  23.406  1.00  0.00    -0.237 OA
ATOM     78  O   UNL A   1      45.391  18.898  25.799  1.00  0.00    -0.744 OA
ENDBRANCH  71  75
ENDBRANCH  54  68
BRANCH  55  79
ATOM     79  C   UNL A   1      46.229  31.102  27.597  1.00  0.00     0.023 A 
ATOM     80  C   UNL A   1      45.393  32.035  26.940  1.00  0.00     0.031 A 
ATOM     81  C   UNL A   1      47.606  31.432  27.645  1.00  0.00     0.131 A 
ATOM     82  C   UNL A   1      45.943  33.212  26.361  1.00  0.00     0.055 A 
ATOM     83  C   UNL A   1      48.141  32.588  27.073  1.00  0.00     0.041 A 
ATOM     84  F   UNL A   1      48.479  30.673  28.327  1.00  0.00    -0.206 F 
ATOM     85  C   UNL A   1      47.309  33.488  26.431  1.00  0.00     0.022 A 
BRANCH  82  86
ATOM     86  S   UNL A   1      44.875  34.453  25.550  1.00  0.00     0.124 S 
ATOM     87  O   UNL A   1      45.218  34.288  24.142  1.00  0.00    -0.237 OA
ATOM     88  O   UNL A   1      43.537  34.026  25.946  1.00  0.00    -0.237 OA
ATOM     89  O   UNL A   1      45.310  35.720  26.141  1.00  0.00    -0.744 OA
ENDBRANCH  82  86
ENDBRANCH  55  79
BRANCH  67  90
ATOM     90  C   UNL A   1      45.769  26.120  31.602  1.00  0.00     0.023 A 
ATOM     91  C   UNL A   1      44.699  26.602  32.395  1.00  0.00     0.031 A 
ATOM     92  C   UNL A   1      46.965  25.778  32.258  1.00  0.00     0.131 A 
ATOM     93  C   UNL A   1      44.858  26.710  33.794  1.00  0.00     0.055 A 
ATOM     94  C   UNL A   1      47.105  25.862  33.641  1.00  0.00     0.041 A 
ATOM     95  F   UNL A   1      48.004  25.289  31.561  1.00  0.00    -0.206 F 
ATOM     96  C   UNL A   1      46.052  26.328  34.415  1.00  0.00     0.022 A 
BRANCH  93  97
ATOM     97  S   UNL A   1      43.509  27.346  34.846  1.00  0.00     0.124 S 
ATOM     98  O   UNL A   1      42.415  27.548  33.905  1.00  0.00    -0.237 OA
ATOM     99  O   UNL A   1      43.330  26.270  35.818  1.00  0.00    -0.237 OA
ATOM    100  O   UNL A   1      44.065  28.580  35.406  1.00  0.00    -0.744 OA
ENDBRANCH  93  97
ENDBRANCH  67  90
ENDBRANCH  41  42
ENDBRANCH  34  36
ENDBRANCH  33  34
ENDBRANCH  32  33
ENDBRANCH   1  32
TORSDOF 19
ENDMDL
MODEL 2
REMARK VINA RESULT:     -13.1      1.082      2.028
REMARK SMILES CC(C)CCn1nc(C(=O)OCCOC(=O)c2ccc(-c3c4nc(c(-c5cc(S(=O)(=O)[O-])ccc5F)c5ccc([nH]5)c(-c5cc(S(=O)(=O)[O-])ccc5F)c5nc(c(-c6cc(S(=O)(=O)[O-])ccc6F)c6ccc3[nH]6)C=C5)C=C4)cc2)c2c1CCN(C(=O)[C@@H]1CCc3nn(C)c(=O)n3C1)C2
REMARK SMILES IDX 12 1 11 2 9 3 10 4 8 5 6 6 7 7 81 8 80 9 82 10 98 11 83 12
REMARK SMILES IDX 84 13 5 14 4 15 2 16 1 17 3 18 85 19 86 20 87 21 88 22 97 23
REMARK SMILES IDX 89 24 96 25 90 26 94 27 91 28 92 29 95 30 93 31 13 32 14 33
REMARK SMILES IDX 15 34 16 35 17 36 18 37 79 38 19 39 78 40 20 41 21 42 22 43
REMARK SMILES IDX 72 44 23 45 77 46 71 47 73 48 24 49 76 50 70 51 69 52 25 54
REMARK SMILES IDX 57 55 37 56 56 57 38 58 41 59 55 60 74 61 39 62 40 63 54 65
REMARK SMILES IDX 75 66 42 67 26 68 27 69 35 70 28 71 34 72 36 73 33 74 29 75
REMARK SMILES IDX 30 76 31 77 32 78 58 79 59 80 67 81 60 82 66 83 68 84 65 85
REMARK SMILES IDX 61 86 62 87 63 88 64 89 43 90 44 91 52 92 45 93 51 94 53 95
REMARK SMILES IDX 50 96 46 97 47 98 48 99 49 100
REMARK H PARENT 73 53 41 64
REMARK Flexibility Score: inf
ROOT
ATOM      1  C   UNL A   1      34.618  29.671  27.195  1.00  0.00     0.275 C 
ENDROOT
BRANCH   1   2
ATOM      2  O   UNL A   1      33.590  30.010  26.253  1.00  0.00    -0.457 OA
BRANCH   2   3
ATOM      3  C   UNL A   1      32.300  29.617  26.493  1.00  0.00     0.359 C 
ATOM      4  O   UNL A   1      31.806  29.548  27.617  1.00  0.00    -0.244 OA
BRANCH   3   5
ATOM      5  C   UNL A   1      31.593  29.339  25.226  1.00  0.00     0.175 A 
ATOM      6  N   UNL A   1      30.220  29.481  23.573  1.00  0.00    -0.268 N 
ATOM      7  N   UNL A   1      30.598  30.108  24.718  1.00  0.00    -0.165 NA
ATOM      8  C   UNL A   1      30.819  28.267  23.458  1.00  0.00     0.046 A 
ATOM      9  C   UNL A   1      31.853  28.237  24.369  1.00  0.00     0.028 A 
ATOM     10  C   UNL A   1      30.500  27.104  22.613  1.00  0.00     0.078 C 
ATOM     11  C   UNL A   1      32.886  27.140  24.446  1.00  0.00     0.159 C 
ATOM     12  C   UNL A   1      31.079  25.899  23.368  1.00  0.00     0.126 C 
ATOM     13  N   UNL A   1      32.514  26.034  23.538  1.00  0.00    -0.338 N 
BRANCH   6  14
ATOM     14  C   UNL A   1      29.391  30.198  22.615  1.00  0.00     0.145 C 
BRANCH  14  15
ATOM     15  C   UNL A   1      28.189  30.998  23.146  1.00  0.00     0.027 C 
BRANCH  15  16
ATOM     16  C   UNL A   1      28.055  32.426  22.577  1.00  0.00    -0.016 C 
ATOM     17  C   UNL A   1      29.125  33.365  23.124  1.00  0.00     0.007 C 
ATOM     18  C   UNL A   1      28.115  32.394  21.045  1.00  0.00     0.007 C 
ENDBRANCH  15  16
ENDBRANCH  14  15
ENDBRANCH   6  14
BRANCH  13  19
ATOM     19  C   UNL A   1      33.514  25.228  23.040  1.00  0.00     0.227 C 
ATOM     20  O   UNL A   1      34.044  25.513  21.956  1.00  0.00    -0.274 OA
BRANCH  19  21
ATOM     21  C   UNL A   1      34.048  23.964  23.758  1.00  0.00     0.099 C 
ATOM     22  C   UNL A   1      33.813  22.611  23.079  1.00  0.00     0.023 C 
ATOM     23  C   UNL A   1      33.843  23.908  25.268  1.00  0.00     0.142 C 
ATOM     24  C   UNL A   1      32.581  21.832  23.522  1.00  0.00     0.078 C 
ATOM     25  N   UNL A   1      32.729  23.075  25.664  1.00  0.00    -0.278 N 
ATOM     26  C   UNL A   1      32.081  22.179  24.893  1.00  0.00     0.133 A 
ATOM     27  C   UNL A   1      31.894  23.347  26.721  1.00  0.00     0.345 A 
ATOM     28  N   UNL A   1      30.918  21.807  25.347  1.00  0.00    -0.155 NA
ATOM     29  N   UNL A   1      30.767  22.543  26.505  1.00  0.00    -0.216 N 
ATOM     30  O   UNL A   1      32.037  24.207  27.575  1.00  0.00    -0.246 OA
ATOM     31  C   UNL A   1      29.484  22.760  27.117  1.00  0.00     0.179 C 
ENDBRANCH  19  21
ENDBRANCH  13  19
ENDBRANCH   3   5
ENDBRANCH   2   3
ENDBRANCH   1   2
BRANCH   1  32
ATOM     32  C   UNL A   1      35.048  30.907  27.973  1.00  0.00     0.275 C 
BRANCH  32  33
ATOM     33  O   UNL A   1      36.460  30.877  28.122  1.00  0.00    -0.458 OA
BRANCH  33  34
ATOM     34  C   UNL A   1      36.939  30.173  29.173  1.00  0.00     0.338 C 
ATOM     35  O   UNL A   1      36.766  30.415  30.352  1.00  0.00    -0.246 OA
BRANCH  34  36
ATOM     36  C   UNL A   1      37.822  29.123  28.660  1.00  0.00     0.060 A 
ATOM     37  C   UNL A   1      38.184  28.101  29.544  1.00  0.00     0.016 A 
ATOM     38  C   UNL A   1      38.541  29.402  27.495  1.00  0.00     0.016 A 
ATOM     39  C   UNL A   1      39.442  27.558  29.414  1.00  0.00     0.010 A 
ATOM     40  C   UNL A   1      39.805  28.902  27.396  1.00  0.00     0.010 A 
ATOM     41  C   UNL A   1      40.268  28.074  28.415  1.00  0.00    -0.014 A 
BRANCH  41  42
ATOM     42  C   UNL A   1      41.671  27.740  28.392  1.00  0.00     0.031 A 
ATOM     43  C   UNL A   1      41.926  26.464  27.692  1.00  0.00     0.074 A 
ATOM     44  C   UNL A   1      42.596  28.644  28.767  1.00  0.00     0.049 A 
ATOM     45  N   UNL A   1      42.215  25.323  28.221  1.00  0.00    -0.248 NA
ATOM     46  C   UNL A   1      41.538  26.377  26.270  1.00  0.00     0.031 C 
ATOM     47  C   UNL A   1      42.410  30.041  29.174  1.00  0.00     0.029 A 
ATOM     48  N   UNL A   1      43.945  28.527  28.738  1.00  0.00    -0.354 N 
ATOM     49  C   UNL A   1      42.298  24.443  27.149  1.00  0.00     0.074 A 
ATOM     50  C   UNL A   1      41.567  25.059  26.084  1.00  0.00     0.031 C 
ATOM     51  C   UNL A   1      43.598  30.688  29.112  1.00  0.00     0.029 A 
ATOM     52  C   UNL A   1      44.641  29.732  28.777  1.00  0.00     0.049 A 
ATOM     53  H   UNL A   1      44.398  27.654  28.693  1.00  0.00     0.167 HD
ATOM     54  C   UNL A   1      43.230  23.451  27.116  1.00  0.00     0.034 A 
ATOM     55  C   UNL A   1      45.951  29.894  28.433  1.00  0.00     0.034 A 
ATOM     56  C   UNL A   1      43.818  23.272  28.427  1.00  0.00     0.049 A 
ATOM     57  C   UNL A   1      46.560  28.529  28.497  1.00  0.00     0.074 A 
ATOM     58  C   UNL A   1      43.312  22.944  29.671  1.00  0.00     0.029 A 
ATOM     59  N   UNL A   1      45.044  23.862  28.666  1.00  0.00    -0.354 N 
ATOM     60  N   UNL A   1      46.662  27.849  29.612  1.00  0.00    -0.248 NA
ATOM     61  C   UNL A   1      46.525  27.715  27.284  1.00  0.00     0.031 C 
ATOM     62  C   UNL A   1      44.001  23.797  30.581  1.00  0.00     0.029 A 
ATOM     63  C   UNL A   1      44.962  24.521  29.869  1.00  0.00     0.049 A 
ATOM     64  H   UNL A   1      45.834  23.818  28.080  1.00  0.00     0.167 HD
ATOM     65  C   UNL A   1      46.295  26.548  29.286  1.00  0.00     0.074 A 
ATOM     66  C   UNL A   1      46.278  26.514  27.823  1.00  0.00     0.031 C 
ATOM     67  C   UNL A   1      45.729  25.708  30.206  1.00  0.00     0.034 A 
BRANCH  54  68
ATOM     68  C   UNL A   1      43.899  22.930  25.860  1.00  0.00     0.023 A 
ATOM     69  C   UNL A   1      43.933  21.533  25.714  1.00  0.00     0.031 A 
ATOM     70  C   UNL A   1      44.717  23.655  24.961  1.00  0.00     0.131 A 
ATOM     71  C   UNL A   1      44.837  20.918  24.832  1.00  0.00     0.055 A 
ATOM     72  C   UNL A   1      45.565  23.040  24.036  1.00  0.00     0.041 A 
ATOM     73  F   UNL A   1      44.820  24.987  24.962  1.00  0.00    -0.206 F 
ATOM     74  C   UNL A   1      45.659  21.662  23.995  1.00  0.00     0.022 A 
BRANCH  71  75
ATOM     75  S   UNL A   1      45.044  19.127  24.949  1.00  0.00     0.124 S 
ATOM     76  O   UNL A   1      44.995  18.734  23.545  1.00  0.00    -0.237 OA
ATOM     77  O   UNL A   1      46.342  19.019  25.605  1.00  0.00    -0.237 OA
ATOM     78  O   UNL A   1      43.900  18.708  25.755  1.00  0.00    -0.744 OA
ENDBRANCH  71  75
ENDBRANCH  54  68
BRANCH  55  79
ATOM     79  C   UNL A   1      46.529  31.040  27.659  1.00  0.00     0.023 A 
ATOM     80  C   UNL A   1      45.753  32.039  27.028  1.00  0.00     0.031 A 
ATOM     81  C   UNL A   1      47.924  31.282  27.714  1.00  0.00     0.131 A 
ATOM     82  C   UNL A   1      46.375  33.194  26.478  1.00  0.00     0.055 A 
ATOM     83  C   UNL A   1      48.530  32.417  27.170  1.00  0.00     0.041 A 
ATOM     84  F   UNL A   1      48.748  30.452  28.374  1.00  0.00    -0.206 F 
ATOM     85  C   UNL A   1      47.756  33.383  26.553  1.00  0.00     0.022 A 
BRANCH  82  86
ATOM     86  S   UNL A   1      45.386  34.520  25.701  1.00  0.00     0.124 S 
ATOM     87  O   UNL A   1      44.966  33.903  24.448  1.00  0.00    -0.237 OA
ATOM     88  O   UNL A   1      44.341  34.756  26.691  1.00  0.00    -0.237 OA
ATOM     89  O   UNL A   1      46.343  35.619  25.550  1.00  0.00    -0.744 OA
ENDBRANCH  82  86
ENDBRANCH  55  79
BRANCH  67  90
ATOM     90  C   UNL A   1      45.715  26.108  31.670  1.00  0.00     0.023 A 
ATOM     91  C   UNL A   1      44.583  26.571  32.383  1.00  0.00     0.031 A 
ATOM     92  C   UNL A   1      46.871  25.802  32.410  1.00  0.00     0.131 A 
ATOM     93  C   UNL A   1      44.642  26.696  33.789  1.00  0.00     0.055 A 
ATOM     94  C   UNL A   1      46.915  25.902  33.798  1.00  0.00     0.041 A 
ATOM     95  F   UNL A   1      47.967  25.333  31.791  1.00  0.00    -0.206 F 
ATOM     96  C   UNL A   1      45.800  26.350  34.494  1.00  0.00     0.022 A 
BRANCH  93  97
ATOM     97  S   UNL A   1      43.210  27.308  34.740  1.00  0.00     0.124 S 
ATOM     98  O   UNL A   1      43.822  27.938  35.903  1.00  0.00    -0.237 OA
ATOM     99  O   UNL A   1      42.558  28.206  33.791  1.00  0.00    -0.237 OA
ATOM    100  O   UNL A   1      42.452  26.090  35.038  1.00  0.00    -0.744 OA
ENDBRANCH  93  97
ENDBRANCH  67  90
ENDBRANCH  41  42
ENDBRANCH  34  36
ENDBRANCH  33  34
ENDBRANCH  32  33
ENDBRANCH   1  32
TORSDOF 19
ENDMDL
MODEL 3
REMARK VINA RESULT:     -12.4      3.562      9.001
REMARK SMILES CC(C)CCn1nc(C(=O)OCCOC(=O)c2ccc(-c3c4nc(c(-c5cc(S(=O)(=O)[O-])ccc5F)c5ccc([nH]5)c(-c5cc(S(=O)(=O)[O-])ccc5F)c5nc(c(-c6cc(S(=O)(=O)[O-])ccc6F)c6ccc3[nH]6)C=C5)C=C4)cc2)c2c1CCN(C(=O)[C@@H]1CCc3nn(C)c(=O)n3C1)C2
REMARK SMILES IDX 12 1 11 2 9 3 10 4 8 5 6 6 7 7 81 8 80 9 82 10 98 11 83 12
REMARK SMILES IDX 84 13 5 14 4 15 2 16 1 17 3 18 85 19 86 20 87 21 88 22 97 23
REMARK SMILES IDX 89 24 96 25 90 26 94 27 91 28 92 29 95 30 93 31 13 32 14 33
REMARK SMILES IDX 15 34 16 35 17 36 18 37 79 38 19 39 78 40 20 41 21 42 22 43
REMARK SMILES IDX 72 44 23 45 77 46 71 47 73 48 24 49 76 50 70 51 69 52 25 54
REMARK SMILES IDX 57 55 37 56 56 57 38 58 41 59 55 60 74 61 39 62 40 63 54 65
REMARK SMILES IDX 75 66 42 67 26 68 27 69 35 70 28 71 34 72 36 73 33 74 29 75
REMARK SMILES IDX 30 76 31 77 32 78 58 79 59 80 67 81 60 82 66 83 68 84 65 85
REMARK SMILES IDX 61 86 62 87 63 88 64 89 43 90 44 91 52 92 45 93 51 94 53 95
REMARK SMILES IDX 50 96 46 97 47 98 48 99 49 100
REMARK H PARENT 73 53 41 64
REMARK Flexibility Score: inf
ROOT
ATOM      1  C   UNL A   1      39.740  21.257  26.408  1.00  0.00     0.275 C 
ENDROOT
BRANCH   1   2
ATOM      2  O   UNL A   1      38.613  21.370  25.527  1.00  0.00    -0.457 OA
BRANCH   2   3
ATOM      3  C   UNL A   1      37.687  22.357  25.741  1.00  0.00     0.359 C 
ATOM      4  O   UNL A   1      37.973  23.490  26.125  1.00  0.00    -0.244 OA
BRANCH   3   5
ATOM      5  C   UNL A   1      36.329  21.883  25.404  1.00  0.00     0.175 A 
ATOM      6  N   UNL A   1      34.695  20.632  24.768  1.00  0.00    -0.268 N 
ATOM      7  N   UNL A   1      36.035  20.624  24.993  1.00  0.00    -0.165 NA
ATOM      8  C   UNL A   1      34.191  21.892  24.851  1.00  0.00     0.046 A 
ATOM      9  C   UNL A   1      35.150  22.672  25.461  1.00  0.00     0.028 A 
ATOM     10  C   UNL A   1      32.918  22.460  24.377  1.00  0.00     0.078 C 
ATOM     11  C   UNL A   1      34.928  24.096  25.908  1.00  0.00     0.159 C 
ATOM     12  C   UNL A   1      33.205  23.956  24.181  1.00  0.00     0.126 C 
ATOM     13  N   UNL A   1      33.613  24.574  25.430  1.00  0.00    -0.338 N 
BRANCH   6  14
ATOM     14  C   UNL A   1      33.996  19.364  24.619  1.00  0.00     0.145 C 
BRANCH  14  15
ATOM     15  C   UNL A   1      34.832  18.074  24.553  1.00  0.00     0.027 C 
BRANCH  15  16
ATOM     16  C   UNL A   1      34.175  16.912  23.779  1.00  0.00    -0.016 C 
ATOM     17  C   UNL A   1      33.658  15.821  24.711  1.00  0.00     0.007 C 
ATOM     18  C   UNL A   1      33.034  17.437  22.900  1.00  0.00     0.007 C 
ENDBRANCH  15  16
ENDBRANCH  14  15
ENDBRANCH   6  14
BRANCH  13  19
ATOM     19  C   UNL A   1      32.979  25.573  26.136  1.00  0.00     0.227 C 
ATOM     20  O   UNL A   1      31.931  25.318  26.745  1.00  0.00    -0.274 OA
BRANCH  19  21
ATOM     21  C   UNL A   1      33.501  27.027  26.239  1.00  0.00     0.099 C 
ATOM     22  C   UNL A   1      32.805  27.961  27.234  1.00  0.00     0.023 C 
ATOM     23  C   UNL A   1      33.839  27.718  24.922  1.00  0.00     0.142 C 
ATOM     24  C   UNL A   1      31.693  28.842  26.678  1.00  0.00     0.078 C 
ATOM     25  N   UNL A   1      32.810  28.629  24.473  1.00  0.00    -0.278 N 
ATOM     26  C   UNL A   1      31.783  29.107  25.205  1.00  0.00     0.133 A 
ATOM     27  C   UNL A   1      32.466  28.826  23.157  1.00  0.00     0.345 A 
ATOM     28  N   UNL A   1      30.811  29.624  24.510  1.00  0.00    -0.155 NA
ATOM     29  N   UNL A   1      31.213  29.449  23.201  1.00  0.00    -0.216 N 
ATOM     30  O   UNL A   1      33.052  28.412  22.170  1.00  0.00    -0.246 OA
ATOM     31  C   UNL A   1      30.291  29.501  22.098  1.00  0.00     0.179 C 
ENDBRANCH  19  21
ENDBRANCH  13  19
ENDBRANCH   3   5
ENDBRANCH   2   3
ENDBRANCH   1   2
BRANCH   1  32
ATOM     32  C   UNL A   1      40.973  21.877  25.768  1.00  0.00     0.275 C 
BRANCH  32  33
ATOM     33  O   UNL A   1      41.625  22.686  26.738  1.00  0.00    -0.458 OA
BRANCH  33  34
ATOM     34  C   UNL A   1      41.789  23.990  26.421  1.00  0.00     0.338 C 
ATOM     35  O   UNL A   1      42.445  24.440  25.501  1.00  0.00    -0.246 OA
BRANCH  34  36
ATOM     36  C   UNL A   1      41.142  24.800  27.455  1.00  0.00     0.060 A 
ATOM     37  C   UNL A   1      40.091  25.632  27.054  1.00  0.00     0.016 A 
ATOM     38  C   UNL A   1      41.837  24.988  28.653  1.00  0.00     0.016 A 
ATOM     39  C   UNL A   1      39.941  26.834  27.709  1.00  0.00     0.010 A 
ATOM     40  C   UNL A   1      41.722  26.198  29.268  1.00  0.00     0.010 A 
ATOM     41  C   UNL A   1      40.853  27.138  28.719  1.00  0.00    -0.014 A 
BRANCH  41  42
ATOM     42  C   UNL A   1      40.915  28.473  29.261  1.00  0.00     0.031 A 
ATOM     43  C   UNL A   1      42.021  29.258  28.676  1.00  0.00     0.074 A 
ATOM     44  C   UNL A   1      39.908  28.951  30.017  1.00  0.00     0.049 A 
ATOM     45  N   UNL A   1      43.147  29.561  29.231  1.00  0.00    -0.248 NA
ATOM     46  C   UNL A   1      41.999  29.489  27.218  1.00  0.00     0.031 C 
ATOM     47  C   UNL A   1      38.633  28.316  30.367  1.00  0.00     0.029 A 
ATOM     48  N   UNL A   1      39.768  30.193  30.539  1.00  0.00    -0.354 N 
ATOM     49  C   UNL A   1      43.852  30.251  28.254  1.00  0.00     0.074 A 
ATOM     50  C   UNL A   1      43.254  29.879  27.008  1.00  0.00     0.031 C 
ATOM     51  C   UNL A   1      37.773  29.258  30.823  1.00  0.00     0.029 A 
ATOM     52  C   UNL A   1      38.468  30.531  30.908  1.00  0.00     0.049 A 
ATOM     53  H   UNL A   1      40.527  30.809  30.649  1.00  0.00     0.167 HD
ATOM     54  C   UNL A   1      44.641  31.316  28.567  1.00  0.00     0.034 A 
ATOM     55  C   UNL A   1      38.023  31.800  31.138  1.00  0.00     0.034 A 
ATOM     56  C   UNL A   1      44.871  31.367  29.996  1.00  0.00     0.049 A 
ATOM     57  C   UNL A   1      39.247  32.621  31.392  1.00  0.00     0.074 A 
ATOM     58  C   UNL A   1      45.443  30.500  30.908  1.00  0.00     0.029 A 
ATOM     59  N   UNL A   1      44.099  32.236  30.739  1.00  0.00    -0.354 N 
ATOM     60  N   UNL A   1      40.032  32.426  32.423  1.00  0.00    -0.248 NA
ATOM     61  C   UNL A   1      39.894  33.246  30.241  1.00  0.00     0.031 C 
ATOM     62  C   UNL A   1      44.599  30.569  32.054  1.00  0.00     0.029 A 
ATOM     63  C   UNL A   1      43.624  31.545  31.827  1.00  0.00     0.049 A 
ATOM     64  H   UNL A   1      43.921  33.181  30.527  1.00  0.00     0.167 HD
ATOM     65  C   UNL A   1      41.327  32.515  31.924  1.00  0.00     0.074 A 
ATOM     66  C   UNL A   1      41.178  33.081  30.582  1.00  0.00     0.031 C 
ATOM     67  C   UNL A   1      42.367  31.835  32.497  1.00  0.00     0.034 A 
BRANCH  54  68
ATOM     68  C   UNL A   1      44.865  32.521  27.675  1.00  0.00     0.023 A 
ATOM     69  C   UNL A   1      44.281  33.724  28.108  1.00  0.00     0.031 A 
ATOM     70  C   UNL A   1      45.353  32.527  26.348  1.00  0.00     0.131 A 
ATOM     71  C   UNL A   1      44.075  34.791  27.219  1.00  0.00     0.055 A 
ATOM     72  C   UNL A   1      45.207  33.617  25.485  1.00  0.00     0.041 A 
ATOM     73  F   UNL A   1      45.926  31.470  25.765  1.00  0.00    -0.206 F 
ATOM     74  C   UNL A   1      44.529  34.744  25.906  1.00  0.00     0.022 A 
BRANCH  71  75
ATOM     75  S   UNL A   1      43.030  36.159  27.768  1.00  0.00     0.124 S 
ATOM     76  O   UNL A   1      41.772  35.855  27.095  1.00  0.00    -0.237 OA
ATOM     77  O   UNL A   1      43.046  35.985  29.216  1.00  0.00    -0.237 OA
ATOM     78  O   UNL A   1      43.734  37.339  27.273  1.00  0.00    -0.744 OA
ENDBRANCH  71  75
ENDBRANCH  54  68
BRANCH  55  79
ATOM     79  C   UNL A   1      36.701  32.366  30.716  1.00  0.00     0.023 A 
ATOM     80  C   UNL A   1      35.849  33.105  31.569  1.00  0.00     0.031 A 
ATOM     81  C   UNL A   1      36.346  32.356  29.344  1.00  0.00     0.131 A 
ATOM     82  C   UNL A   1      34.706  33.769  31.046  1.00  0.00     0.055 A 
ATOM     83  C   UNL A   1      35.221  33.009  28.836  1.00  0.00     0.041 A 
ATOM     84  F   UNL A   1      37.134  31.772  28.427  1.00  0.00    -0.206 F 
ATOM     85  C   UNL A   1      34.397  33.725  29.685  1.00  0.00     0.022 A 
BRANCH  82  86
ATOM     86  S   UNL A   1      33.619  34.769  32.123  1.00  0.00     0.124 S 
ATOM     87  O   UNL A   1      34.548  35.743  32.685  1.00  0.00    -0.237 OA
ATOM     88  O   UNL A   1      32.630  35.284  31.182  1.00  0.00    -0.237 OA
ATOM     89  O   UNL A   1      33.097  33.796  33.084  1.00  0.00    -0.744 OA
ENDBRANCH  82  86
ENDBRANCH  55  79
BRANCH  67  90
ATOM     90  C   UNL A   1      42.165  31.159  33.841  1.00  0.00     0.023 A 
ATOM     91  C   UNL A   1      41.965  29.771  34.040  1.00  0.00     0.031 A 
ATOM     92  C   UNL A   1      42.394  31.955  34.978  1.00  0.00     0.131 A 
ATOM     93  C   UNL A   1      42.015  29.237  35.346  1.00  0.00     0.055 A 
ATOM     94  C   UNL A   1      42.467  31.417  36.260  1.00  0.00     0.041 A 
ATOM     95  F   UNL A   1      42.616  33.273  34.849  1.00  0.00    -0.206 F 
ATOM     96  C   UNL A   1      42.279  30.055  36.449  1.00  0.00     0.022 A 
BRANCH  93  97
ATOM     97  S   UNL A   1      41.744  27.457  35.643  1.00  0.00     0.124 S 
ATOM     98  O   UNL A   1      41.096  27.428  36.949  1.00  0.00    -0.237 OA
ATOM     99  O   UNL A   1      40.915  27.067  34.506  1.00  0.00    -0.237 OA
ATOM    100  O   UNL A   1      43.098  26.896  35.625  1.00  0.00    -0.744 OA
ENDBRANCH  93  97
ENDBRANCH  67  90
ENDBRANCH  41  42
ENDBRANCH  34  36
ENDBRANCH  33  34
ENDBRANCH  32  33
ENDBRANCH   1  32
TORSDOF 19
ENDMDL
