MODEL 1
REMARK VINA RESULT:     -10.4      0.000      0.000
REMARK SMILES COc1cc([C@H]2C[C@@H](C(=O)OCCOC(=O)c3ccc(-c4c5nc(c(-c6cc(S(=O)(=O)[O-])ccc6F)c6ccc([nH]6)c(-c6cc(S(=O)(=O)[O-])ccc6F)c6nc(c(-c7cc(S(=O)(=O)[O-])ccc7F)c7ccc4[nH]7)C=C6)C=C5)cc3)C2)ccc1Br
REMARK SMILES IDX 13 1 12 2 11 3 9 4 10 5 8 6 6 7 7 8 80 9 5 10 3 11 4 12
REMARK SMILES IDX 83 13 82 14 84 15 81 16 2 17 1 18 14 19 15 20 16 21 17 22
REMARK SMILES IDX 18 23 79 24 19 25 78 26 20 27 21 28 22 29 72 30 23 31 77 32
REMARK SMILES IDX 71 33 73 34 24 35 76 36 70 37 69 38 25 40 57 41 37 42 56 43
REMARK SMILES IDX 38 44 41 45 55 46 74 47 39 48 40 49 54 51 75 52 42 53 26 54
REMARK SMILES IDX 27 55 35 56 28 57 34 58 36 59 33 60 29 61 30 62 31 63 32 64
REMARK SMILES IDX 58 65 59 66 67 67 60 68 66 69 68 70 65 71 61 72 62 73 63 74
REMARK SMILES IDX 64 75 43 76 44 77 52 78 45 79 51 80 53 81 50 82 46 83 47 84
REMARK SMILES IDX 48 85 49 86
REMARK H PARENT 73 39 41 50
REMARK Flexibility Score: inf
ROOT
ATOM      1  C   UNL A   1      33.974  34.400  28.011  1.00  0.00     0.275 C 
ENDROOT
BRANCH   1   2
ATOM      2  C   UNL A   1      33.171  35.485  28.736  1.00  0.00     0.274 C 
BRANCH   2   3
ATOM      3  O   UNL A   1      32.625  34.983  29.971  1.00  0.00    -0.462 OA
BRANCH   3   4
ATOM      4  C   UNL A   1      32.862  35.722  31.096  1.00  0.00     0.309 C 
ATOM      5  O   UNL A   1      32.386  36.842  31.276  1.00  0.00    -0.252 OA
BRANCH   4   6
ATOM      6  C   UNL A   1      33.740  34.992  32.130  1.00  0.00     0.100 C 
ATOM      7  C   UNL A   1      35.632  34.456  32.968  1.00  0.00     0.021 C 
ATOM      8  C   UNL A   1      34.839  35.792  32.862  1.00  0.00     0.023 C 
ATOM      9  C   UNL A   1      34.863  34.018  31.691  1.00  0.00     0.023 C 
BRANCH   7  10
ATOM     10  C   UNL A   1      37.211  34.519  32.957  1.00  0.00    -0.041 A 
ATOM     11  C   UNL A   1      39.333  34.542  31.716  1.00  0.00     0.133 A 
ATOM     12  C   UNL A   1      37.934  34.531  31.746  1.00  0.00     0.051 A 
ATOM     13  C   UNL A   1      40.055  34.592  32.907  1.00  0.00     0.060 A 
ATOM     14  C   UNL A   1      39.374  34.587  34.121  1.00  0.00     0.020 A 
ATOM     15  Br  UNL A   1      41.948  34.676  32.935  1.00  0.00    -0.047 Br
ATOM     16  C   UNL A   1      37.976  34.548  34.138  1.00  0.00     0.005 A 
BRANCH  11  17
ATOM     17  O   UNL A   1      39.947  34.574  30.492  1.00  0.00    -0.496 OA
ATOM     18  C   UNL A   1      40.710  33.384  30.284  1.00  0.00     0.278 C 
ENDBRANCH  11  17
ENDBRANCH   7  10
ENDBRANCH   4   6
ENDBRANCH   3   4
ENDBRANCH   2   3
ENDBRANCH   1   2
BRANCH   1  19
ATOM     19  O   UNL A   1      33.862  33.121  28.664  1.00  0.00    -0.458 OA
BRANCH  19  20
ATOM     20  C   UNL A   1      34.166  32.059  27.879  1.00  0.00     0.338 C 
ATOM     21  O   UNL A   1      33.563  31.679  26.891  1.00  0.00    -0.246 OA
BRANCH  20  22
ATOM     22  C   UNL A   1      35.451  31.475  28.298  1.00  0.00     0.060 A 
ATOM     23  C   UNL A   1      35.476  30.107  28.566  1.00  0.00     0.016 A 
ATOM     24  C   UNL A   1      36.581  32.259  28.529  1.00  0.00     0.016 A 
ATOM     25  C   UNL A   1      36.618  29.509  29.081  1.00  0.00     0.010 A 
ATOM     26  C   UNL A   1      37.739  31.654  29.039  1.00  0.00     0.010 A 
ATOM     27  C   UNL A   1      37.758  30.278  29.331  1.00  0.00    -0.014 A 
BRANCH  27  28
ATOM     28  C   UNL A   1      38.939  29.633  29.959  1.00  0.00     0.031 A 
ATOM     29  C   UNL A   1      39.356  30.031  31.347  1.00  0.00     0.074 A 
ATOM     30  C   UNL A   1      39.593  28.652  29.308  1.00  0.00     0.049 A 
ATOM     31  N   UNL A   1      40.398  29.653  32.040  1.00  0.00    -0.248 NA
ATOM     32  C   UNL A   1      38.480  30.984  32.044  1.00  0.00     0.031 C 
ATOM     33  C   UNL A   1      39.235  28.134  27.986  1.00  0.00     0.029 A 
ATOM     34  N   UNL A   1      40.689  27.912  29.670  1.00  0.00    -0.354 N 
ATOM     35  C   UNL A   1      40.322  30.341  33.246  1.00  0.00     0.074 A 
ATOM     36  C   UNL A   1      39.138  31.174  33.179  1.00  0.00     0.031 C 
ATOM     37  C   UNL A   1      40.090  27.154  27.653  1.00  0.00     0.029 A 
ATOM     38  C   UNL A   1      41.092  27.017  28.706  1.00  0.00     0.049 A 
ATOM     39  H   UNL A   1      41.144  28.011  30.538  1.00  0.00     0.167 HD
ATOM     40  C   UNL A   1      41.163  30.281  34.308  1.00  0.00     0.034 A 
ATOM     41  C   UNL A   1      42.169  26.208  28.658  1.00  0.00     0.034 A 
ATOM     42  C   UNL A   1      42.333  29.436  34.358  1.00  0.00     0.049 A 
ATOM     43  C   UNL A   1      43.128  26.211  29.820  1.00  0.00     0.074 A 
ATOM     44  C   UNL A   1      43.259  29.299  35.379  1.00  0.00     0.029 A 
ATOM     45  N   UNL A   1      42.739  28.581  33.340  1.00  0.00    -0.354 N 
ATOM     46  N   UNL A   1      43.073  26.904  30.935  1.00  0.00    -0.248 NA
ATOM     47  C   UNL A   1      44.297  25.329  29.714  1.00  0.00     0.031 C 
ATOM     48  C   UNL A   1      44.252  28.408  34.955  1.00  0.00     0.029 A 
ATOM     49  C   UNL A   1      43.914  27.936  33.698  1.00  0.00     0.049 A 
ATOM     50  H   UNL A   1      42.263  28.452  32.488  1.00  0.00     0.167 HD
ATOM     51  C   UNL A   1      44.192  26.528  31.670  1.00  0.00     0.074 A 
ATOM     52  C   UNL A   1      44.893  25.534  30.880  1.00  0.00     0.031 C 
ATOM     53  C   UNL A   1      44.606  26.961  32.888  1.00  0.00     0.034 A 
BRANCH  40  54
ATOM     54  C   UNL A   1      40.880  31.207  35.467  1.00  0.00     0.023 A 
ATOM     55  C   UNL A   1      39.701  31.112  36.225  1.00  0.00     0.031 A 
ATOM     56  C   UNL A   1      41.791  32.231  35.787  1.00  0.00     0.131 A 
ATOM     57  C   UNL A   1      39.431  32.066  37.220  1.00  0.00     0.055 A 
ATOM     58  C   UNL A   1      41.550  33.131  36.826  1.00  0.00     0.041 A 
ATOM     59  F   UNL A   1      42.923  32.385  35.082  1.00  0.00    -0.206 F 
ATOM     60  C   UNL A   1      40.358  33.061  37.541  1.00  0.00     0.022 A 
BRANCH  57  61
ATOM     61  S   UNL A   1      37.790  32.074  37.993  1.00  0.00     0.124 S 
ATOM     62  O   UNL A   1      38.107  32.501  39.353  1.00  0.00    -0.237 OA
ATOM     63  O   UNL A   1      37.060  33.035  37.174  1.00  0.00    -0.237 OA
ATOM     64  O   UNL A   1      37.347  30.687  37.872  1.00  0.00    -0.744 OA
ENDBRANCH  57  61
ENDBRANCH  40  54
BRANCH  41  65
ATOM     65  C   UNL A   1      42.435  25.381  27.448  1.00  0.00     0.023 A 
ATOM     66  C   UNL A   1      42.051  24.033  27.386  1.00  0.00     0.031 A 
ATOM     67  C   UNL A   1      43.117  25.925  26.343  1.00  0.00     0.131 A 
ATOM     68  C   UNL A   1      42.380  23.264  26.257  1.00  0.00     0.055 A 
ATOM     69  C   UNL A   1      43.398  25.171  25.204  1.00  0.00     0.041 A 
ATOM     70  F   UNL A   1      43.509  27.209  26.353  1.00  0.00    -0.206 F 
ATOM     71  C   UNL A   1      43.038  23.827  25.161  1.00  0.00     0.022 A 
BRANCH  68  72
ATOM     72  S   UNL A   1      41.999  21.491  26.271  1.00  0.00     0.124 S 
ATOM     73  O   UNL A   1      42.964  20.971  25.309  1.00  0.00    -0.237 OA
ATOM     74  O   UNL A   1      42.232  21.142  27.668  1.00  0.00    -0.237 OA
ATOM     75  O   UNL A   1      40.602  21.440  25.842  1.00  0.00    -0.744 OA
ENDBRANCH  68  72
ENDBRANCH  41  65
BRANCH  53  76
ATOM     76  C   UNL A   1      45.857  26.329  33.443  1.00  0.00     0.023 A 
ATOM     77  C   UNL A   1      45.809  25.154  34.214  1.00  0.00     0.031 A 
ATOM     78  C   UNL A   1      47.110  26.923  33.215  1.00  0.00     0.131 A 
ATOM     79  C   UNL A   1      46.987  24.640  34.776  1.00  0.00     0.055 A 
ATOM     80  C   UNL A   1      48.286  26.378  33.732  1.00  0.00     0.041 A 
ATOM     81  F   UNL A   1      47.211  28.046  32.486  1.00  0.00    -0.206 F 
ATOM     82  C   UNL A   1      48.227  25.237  34.528  1.00  0.00     0.022 A 
BRANCH  79  83
ATOM     83  S   UNL A   1      46.870  23.226  35.906  1.00  0.00     0.124 S 
ATOM     84  O   UNL A   1      46.931  23.876  37.212  1.00  0.00    -0.237 OA
ATOM     85  O   UNL A   1      45.584  22.642  35.544  1.00  0.00    -0.237 OA
ATOM     86  O   UNL A   1      48.037  22.414  35.563  1.00  0.00    -0.744 OA
ENDBRANCH  79  83
ENDBRANCH  53  76
ENDBRANCH  27  28
ENDBRANCH  20  22
ENDBRANCH  19  20
ENDBRANCH   1  19
TORSDOF 16
ENDMDL
MODEL 2
REMARK VINA RESULT:     -10.1      4.203     10.207
REMARK SMILES COc1cc([C@H]2C[C@@H](C(=O)OCCOC(=O)c3ccc(-c4c5nc(c(-c6cc(S(=O)(=O)[O-])ccc6F)c6ccc([nH]6)c(-c6cc(S(=O)(=O)[O-])ccc6F)c6nc(c(-c7cc(S(=O)(=O)[O-])ccc7F)c7ccc4[nH]7)C=C6)C=C5)cc3)C2)ccc1Br
REMARK SMILES IDX 13 1 12 2 11 3 9 4 10 5 8 6 6 7 7 8 80 9 5 10 3 11 4 12
REMARK SMILES IDX 83 13 82 14 84 15 81 16 2 17 1 18 14 19 15 20 16 21 17 22
REMARK SMILES IDX 18 23 79 24 19 25 78 26 20 27 21 28 22 29 72 30 23 31 77 32
REMARK SMILES IDX 71 33 73 34 24 35 76 36 70 37 69 38 25 40 57 41 37 42 56 43
REMARK SMILES IDX 38 44 41 45 55 46 74 47 39 48 40 49 54 51 75 52 42 53 26 54
REMARK SMILES IDX 27 55 35 56 28 57 34 58 36 59 33 60 29 61 30 62 31 63 32 64
REMARK SMILES IDX 58 65 59 66 67 67 60 68 66 69 68 70 65 71 61 72 62 73 63 74
REMARK SMILES IDX 64 75 43 76 44 77 52 78 45 79 51 80 53 81 50 82 46 83 47 84
REMARK SMILES IDX 48 85 49 86
REMARK H PARENT 73 39 41 50
REMARK Flexibility Score: inf
ROOT
ATOM      1  C   UNL A   1      31.429  30.346  26.031  1.00  0.00     0.275 C 
ENDROOT
BRANCH   1   2
ATOM      2  C   UNL A   1      31.059  29.733  24.676  1.00  0.00     0.274 C 
BRANCH   2   3
ATOM      3  O   UNL A   1      31.638  28.423  24.527  1.00  0.00    -0.462 OA
BRANCH   3   4
ATOM      4  C   UNL A   1      32.611  28.283  23.579  1.00  0.00     0.309 C 
ATOM      5  O   UNL A   1      32.656  28.965  22.556  1.00  0.00    -0.252 OA
BRANCH   4   6
ATOM      6  C   UNL A   1      33.670  27.224  23.944  1.00  0.00     0.100 C 
ATOM      7  C   UNL A   1      34.271  25.222  24.395  1.00  0.00     0.021 C 
ATOM      8  C   UNL A   1      33.730  25.924  23.114  1.00  0.00     0.023 C 
ATOM      9  C   UNL A   1      33.507  26.318  25.191  1.00  0.00     0.023 C 
BRANCH   7  10
ATOM     10  C   UNL A   1      33.923  23.697  24.618  1.00  0.00    -0.041 A 
ATOM     11  C   UNL A   1      32.331  21.953  25.303  1.00  0.00     0.133 A 
ATOM     12  C   UNL A   1      32.645  23.294  25.058  1.00  0.00     0.051 A 
ATOM     13  C   UNL A   1      33.281  20.961  25.066  1.00  0.00     0.060 A 
ATOM     14  C   UNL A   1      34.552  21.322  24.627  1.00  0.00     0.020 A 
ATOM     15  Br  UNL A   1      32.902  19.121  25.313  1.00  0.00    -0.047 Br
ATOM     16  C   UNL A   1      34.862  22.669  24.411  1.00  0.00     0.005 A 
BRANCH  11  17
ATOM     17  O   UNL A   1      31.057  21.656  25.708  1.00  0.00    -0.496 OA
ATOM     18  C   UNL A   1      30.491  22.756  26.424  1.00  0.00     0.278 C 
ENDBRANCH  11  17
ENDBRANCH   7  10
ENDBRANCH   4   6
ENDBRANCH   3   4
ENDBRANCH   2   3
ENDBRANCH   1   2
BRANCH   1  19
ATOM     19  O   UNL A   1      32.846  30.579  26.148  1.00  0.00    -0.458 OA
BRANCH  19  20
ATOM     20  C   UNL A   1      33.187  31.565  27.012  1.00  0.00     0.338 C 
ATOM     21  O   UNL A   1      32.499  32.509  27.357  1.00  0.00    -0.246 OA
BRANCH  20  22
ATOM     22  C   UNL A   1      34.494  31.270  27.621  1.00  0.00     0.060 A 
ATOM     23  C   UNL A   1      34.770  29.939  27.932  1.00  0.00     0.016 A 
ATOM     24  C   UNL A   1      35.389  32.278  27.980  1.00  0.00     0.016 A 
ATOM     25  C   UNL A   1      35.927  29.600  28.619  1.00  0.00     0.010 A 
ATOM     26  C   UNL A   1      36.565  31.935  28.662  1.00  0.00     0.010 A 
ATOM     27  C   UNL A   1      36.833  30.595  28.998  1.00  0.00    -0.014 A 
BRANCH  27  28
ATOM     28  C   UNL A   1      38.023  30.219  29.802  1.00  0.00     0.031 A 
ATOM     29  C   UNL A   1      39.053  29.291  29.222  1.00  0.00     0.074 A 
ATOM     30  C   UNL A   1      38.204  30.758  31.023  1.00  0.00     0.049 A 
ATOM     31  N   UNL A   1      40.115  28.775  29.784  1.00  0.00    -0.248 NA
ATOM     32  C   UNL A   1      38.856  28.891  27.821  1.00  0.00     0.031 C 
ATOM     33  C   UNL A   1      37.307  31.724  31.659  1.00  0.00     0.029 A 
ATOM     34  N   UNL A   1      39.206  30.577  31.943  1.00  0.00    -0.354 N 
ATOM     35  C   UNL A   1      40.702  27.967  28.817  1.00  0.00     0.074 A 
ATOM     36  C   UNL A   1      39.863  28.049  27.638  1.00  0.00     0.031 C 
ATOM     37  C   UNL A   1      37.804  32.057  32.862  1.00  0.00     0.029 A 
ATOM     38  C   UNL A   1      39.016  31.284  33.108  1.00  0.00     0.049 A 
ATOM     39  H   UNL A   1      39.985  29.997  31.785  1.00  0.00     0.167 HD
ATOM     40  C   UNL A   1      41.835  27.227  28.908  1.00  0.00     0.034 A 
ATOM     41  C   UNL A   1      39.719  31.279  34.258  1.00  0.00     0.034 A 
ATOM     42  C   UNL A   1      42.662  27.167  30.090  1.00  0.00     0.049 A 
ATOM     43  C   UNL A   1      40.934  30.394  34.360  1.00  0.00     0.074 A 
ATOM     44  C   UNL A   1      43.826  26.448  30.296  1.00  0.00     0.029 A 
ATOM     45  N   UNL A   1      42.410  27.857  31.270  1.00  0.00    -0.354 N 
ATOM     46  N   UNL A   1      41.452  29.594  33.456  1.00  0.00    -0.248 NA
ATOM     47  C   UNL A   1      41.656  30.406  35.639  1.00  0.00     0.031 C 
ATOM     48  C   UNL A   1      44.245  26.656  31.616  1.00  0.00     0.029 A 
ATOM     49  C   UNL A   1      43.382  27.559  32.215  1.00  0.00     0.049 A 
ATOM     50  H   UNL A   1      41.653  28.469  31.416  1.00  0.00     0.167 HD
ATOM     51  C   UNL A   1      42.570  29.021  34.052  1.00  0.00     0.074 A 
ATOM     52  C   UNL A   1      42.661  29.581  35.387  1.00  0.00     0.031 C 
ATOM     53  C   UNL A   1      43.444  28.114  33.547  1.00  0.00     0.034 A 
BRANCH  40  54
ATOM     54  C   UNL A   1      42.199  26.372  27.718  1.00  0.00     0.023 A 
ATOM     55  C   UNL A   1      41.793  25.030  27.612  1.00  0.00     0.031 A 
ATOM     56  C   UNL A   1      43.003  26.901  26.691  1.00  0.00     0.131 A 
ATOM     57  C   UNL A   1      42.251  24.244  26.543  1.00  0.00     0.055 A 
ATOM     58  C   UNL A   1      43.393  26.134  25.592  1.00  0.00     0.041 A 
ATOM     59  F   UNL A   1      43.439  28.169  26.751  1.00  0.00    -0.206 F 
ATOM     60  C   UNL A   1      43.028  24.793  25.519  1.00  0.00     0.022 A 
BRANCH  57  61
ATOM     61  S   UNL A   1      41.931  22.459  26.578  1.00  0.00     0.124 S 
ATOM     62  O   UNL A   1      42.656  22.006  25.393  1.00  0.00    -0.237 OA
ATOM     63  O   UNL A   1      42.495  22.062  27.862  1.00  0.00    -0.237 OA
ATOM     64  O   UNL A   1      40.476  22.369  26.479  1.00  0.00    -0.744 OA
ENDBRANCH  57  61
ENDBRANCH  40  54
BRANCH  41  65
ATOM     65  C   UNL A   1      39.257  32.082  35.425  1.00  0.00     0.023 A 
ATOM     66  C   UNL A   1      39.705  33.397  35.629  1.00  0.00     0.031 A 
ATOM     67  C   UNL A   1      38.384  31.526  36.378  1.00  0.00     0.131 A 
ATOM     68  C   UNL A   1      39.303  34.100  36.777  1.00  0.00     0.055 A 
ATOM     69  C   UNL A   1      37.950  32.246  37.491  1.00  0.00     0.041 A 
ATOM     70  F   UNL A   1      37.929  30.271  36.231  1.00  0.00    -0.206 F 
ATOM     71  C   UNL A   1      38.419  33.539  37.701  1.00  0.00     0.022 A 
BRANCH  68  72
ATOM     72  S   UNL A   1      40.014  35.740  37.084  1.00  0.00     0.124 S 
ATOM     73  O   UNL A   1      41.431  35.427  37.242  1.00  0.00    -0.237 OA
ATOM     74  O   UNL A   1      39.648  36.462  35.871  1.00  0.00    -0.237 OA
ATOM     75  O   UNL A   1      39.335  36.183  38.300  1.00  0.00    -0.744 OA
ENDBRANCH  68  72
ENDBRANCH  41  65
BRANCH  53  76
ATOM     76  C   UNL A   1      44.590  27.708  34.437  1.00  0.00     0.023 A 
ATOM     77  C   UNL A   1      44.529  26.551  35.234  1.00  0.00     0.031 A 
ATOM     78  C   UNL A   1      45.748  28.501  34.506  1.00  0.00     0.131 A 
ATOM     79  C   UNL A   1      45.586  26.249  36.106  1.00  0.00     0.055 A 
ATOM     80  C   UNL A   1      46.818  28.168  35.335  1.00  0.00     0.041 A 
ATOM     81  F   UNL A   1      45.855  29.617  33.766  1.00  0.00    -0.206 F 
ATOM     82  C   UNL A   1      46.735  27.043  36.152  1.00  0.00     0.022 A 
BRANCH  79  83
ATOM     83  S   UNL A   1      45.404  24.849  37.245  1.00  0.00     0.124 S 
ATOM     84  O   UNL A   1      44.574  23.932  36.470  1.00  0.00    -0.237 OA
ATOM     85  O   UNL A   1      46.786  24.434  37.454  1.00  0.00    -0.237 OA
ATOM     86  O   UNL A   1      44.751  25.438  38.414  1.00  0.00    -0.744 OA
ENDBRANCH  79  83
ENDBRANCH  53  76
ENDBRANCH  27  28
ENDBRANCH  20  22
ENDBRANCH  19  20
ENDBRANCH   1  19
TORSDOF 16
ENDMDL
MODEL 3
REMARK VINA RESULT:     -10.1      5.224     11.881
REMARK SMILES COc1cc([C@H]2C[C@@H](C(=O)OCCOC(=O)c3ccc(-c4c5nc(c(-c6cc(S(=O)(=O)[O-])ccc6F)c6ccc([nH]6)c(-c6cc(S(=O)(=O)[O-])ccc6F)c6nc(c(-c7cc(S(=O)(=O)[O-])ccc7F)c7ccc4[nH]7)C=C6)C=C5)cc3)C2)ccc1Br
REMARK SMILES IDX 13 1 12 2 11 3 9 4 10 5 8 6 6 7 7 8 80 9 5 10 3 11 4 12
REMARK SMILES IDX 83 13 82 14 84 15 81 16 2 17 1 18 14 19 15 20 16 21 17 22
REMARK SMILES IDX 18 23 79 24 19 25 78 26 20 27 21 28 22 29 72 30 23 31 77 32
REMARK SMILES IDX 71 33 73 34 24 35 76 36 70 37 69 38 25 40 57 41 37 42 56 43
REMARK SMILES IDX 38 44 41 45 55 46 74 47 39 48 40 49 54 51 75 52 42 53 26 54
REMARK SMILES IDX 27 55 35 56 28 57 34 58 36 59 33 60 29 61 30 62 31 63 32 64
REMARK SMILES IDX 58 65 59 66 67 67 60 68 66 69 68 70 65 71 61 72 62 73 63 74
REMARK SMILES IDX 64 75 43 76 44 77 52 78 45 79 51 80 53 81 50 82 46 83 47 84
REMARK SMILES IDX 48 85 49 86
REMARK H PARENT 73 39 41 50
REMARK Flexibility Score: inf
ROOT
ATOM      1  C   UNL A   1      38.822  19.440  25.528  1.00  0.00     0.275 C 
ENDROOT
BRANCH   1   2
ATOM      2  C   UNL A   1      37.542  19.805  24.770  1.00  0.00     0.274 C 
BRANCH   2   3
ATOM      3  O   UNL A   1      37.249  21.210  24.899  1.00  0.00    -0.462 OA
BRANCH   3   4
ATOM      4  C   UNL A   1      35.968  21.543  25.236  1.00  0.00     0.309 C 
ATOM      5  O   UNL A   1      35.365  21.030  26.178  1.00  0.00    -0.252 OA
BRANCH   4   6
ATOM      6  C   UNL A   1      35.377  22.658  24.352  1.00  0.00     0.100 C 
ATOM      7  C   UNL A   1      34.452  24.566  24.074  1.00  0.00     0.021 C 
ATOM      8  C   UNL A   1      35.853  24.109  24.576  1.00  0.00     0.023 C 
ATOM      9  C   UNL A   1      33.938  23.188  24.579  1.00  0.00     0.023 C 
BRANCH   7  10
ATOM     10  C   UNL A   1      33.842  25.900  24.661  1.00  0.00    -0.041 A 
ATOM     11  C   UNL A   1      33.181  28.250  24.370  1.00  0.00     0.133 A 
ATOM     12  C   UNL A   1      33.677  27.046  23.857  1.00  0.00     0.051 A 
ATOM     13  C   UNL A   1      32.783  28.327  25.704  1.00  0.00     0.060 A 
ATOM     14  C   UNL A   1      32.927  27.212  26.526  1.00  0.00     0.020 A 
ATOM     15  Br  UNL A   1      32.040  29.905  26.445  1.00  0.00    -0.047 Br
ATOM     16  C   UNL A   1      33.450  26.023  26.008  1.00  0.00     0.005 A 
BRANCH  11  17
ATOM     17  O   UNL A   1      33.037  29.303  23.507  1.00  0.00    -0.496 OA
ATOM     18  C   UNL A   1      32.025  29.021  22.539  1.00  0.00     0.278 C 
ENDBRANCH  11  17
ENDBRANCH   7  10
ENDBRANCH   4   6
ENDBRANCH   3   4
ENDBRANCH   2   3
ENDBRANCH   1   2
BRANCH   1  19
ATOM     19  O   UNL A   1      39.668  20.586  25.742  1.00  0.00    -0.458 OA
BRANCH  19  20
ATOM     20  C   UNL A   1      40.336  20.584  26.921  1.00  0.00     0.338 C 
ATOM     21  O   UNL A   1      40.739  19.611  27.534  1.00  0.00    -0.246 OA
BRANCH  20  22
ATOM     22  C   UNL A   1      40.658  21.963  27.320  1.00  0.00     0.060 A 
ATOM     23  C   UNL A   1      40.082  22.995  26.579  1.00  0.00     0.016 A 
ATOM     24  C   UNL A   1      41.582  22.248  28.324  1.00  0.00     0.016 A 
ATOM     25  C   UNL A   1      40.434  24.316  26.817  1.00  0.00     0.010 A 
ATOM     26  C   UNL A   1      41.929  23.583  28.574  1.00  0.00     0.010 A 
ATOM     27  C   UNL A   1      41.367  24.624  27.812  1.00  0.00    -0.014 A 
BRANCH  27  28
ATOM     28  C   UNL A   1      41.789  26.036  27.993  1.00  0.00     0.031 A 
ATOM     29  C   UNL A   1      43.107  26.498  27.439  1.00  0.00     0.074 A 
ATOM     30  C   UNL A   1      40.961  26.910  28.598  1.00  0.00     0.049 A 
ATOM     31  N   UNL A   1      43.696  27.659  27.559  1.00  0.00    -0.248 NA
ATOM     32  C   UNL A   1      43.861  25.516  26.646  1.00  0.00     0.031 C 
ATOM     33  C   UNL A   1      39.629  26.591  29.112  1.00  0.00     0.029 A 
ATOM     34  N   UNL A   1      41.116  28.244  28.876  1.00  0.00    -0.354 N 
ATOM     35  C   UNL A   1      44.904  27.543  26.880  1.00  0.00     0.074 A 
ATOM     36  C   UNL A   1      44.968  26.190  26.367  1.00  0.00     0.031 C 
ATOM     37  C   UNL A   1      39.084  27.702  29.635  1.00  0.00     0.029 A 
ATOM     38  C   UNL A   1      40.050  28.792  29.551  1.00  0.00     0.049 A 
ATOM     39  H   UNL A   1      41.914  28.760  28.618  1.00  0.00     0.167 HD
ATOM     40  C   UNL A   1      45.867  28.482  26.703  1.00  0.00     0.034 A 
ATOM     41  C   UNL A   1      39.886  30.022  30.077  1.00  0.00     0.034 A 
ATOM     42  C   UNL A   1      45.778  29.830  27.215  1.00  0.00     0.049 A 
ATOM     43  C   UNL A   1      41.000  31.026  29.929  1.00  0.00     0.074 A 
ATOM     44  C   UNL A   1      46.695  30.861  27.102  1.00  0.00     0.029 A 
ATOM     45  N   UNL A   1      44.705  30.334  27.940  1.00  0.00    -0.354 N 
ATOM     46  N   UNL A   1      42.160  30.891  29.329  1.00  0.00    -0.248 NA
ATOM     47  C   UNL A   1      40.785  32.346  30.536  1.00  0.00     0.031 C 
ATOM     48  C   UNL A   1      46.202  31.967  27.805  1.00  0.00     0.029 A 
ATOM     49  C   UNL A   1      44.949  31.651  28.301  1.00  0.00     0.049 A 
ATOM     50  H   UNL A   1      43.889  29.831  28.164  1.00  0.00     0.167 HD
ATOM     51  C   UNL A   1      42.806  32.114  29.472  1.00  0.00     0.074 A 
ATOM     52  C   UNL A   1      41.898  32.980  30.199  1.00  0.00     0.031 C 
ATOM     53  C   UNL A   1      44.037  32.492  29.043  1.00  0.00     0.034 A 
BRANCH  40  54
ATOM     54  C   UNL A   1      47.125  28.055  25.986  1.00  0.00     0.023 A 
ATOM     55  C   UNL A   1      47.268  28.181  24.594  1.00  0.00     0.031 A 
ATOM     56  C   UNL A   1      48.182  27.470  26.707  1.00  0.00     0.131 A 
ATOM     57  C   UNL A   1      48.409  27.666  23.959  1.00  0.00     0.055 A 
ATOM     58  C   UNL A   1      49.346  27.027  26.078  1.00  0.00     0.041 A 
ATOM     59  F   UNL A   1      48.092  27.302  28.036  1.00  0.00    -0.206 F 
ATOM     60  C   UNL A   1      49.460  27.111  24.694  1.00  0.00     0.022 A 
BRANCH  57  61
ATOM     61  S   UNL A   1      48.442  27.604  22.146  1.00  0.00     0.124 S 
ATOM     62  O   UNL A   1      47.151  28.198  21.807  1.00  0.00    -0.237 OA
ATOM     63  O   UNL A   1      49.618  28.402  21.824  1.00  0.00    -0.237 OA
ATOM     64  O   UNL A   1      48.556  26.177  21.853  1.00  0.00    -0.744 OA
ENDBRANCH  57  61
ENDBRANCH  40  54
BRANCH  41  65
ATOM     65  C   UNL A   1      38.654  30.353  30.847  1.00  0.00     0.023 A 
ATOM     66  C   UNL A   1      37.614  31.101  30.273  1.00  0.00     0.031 A 
ATOM     67  C   UNL A   1      38.518  29.953  32.189  1.00  0.00     0.131 A 
ATOM     68  C   UNL A   1      36.498  31.454  31.050  1.00  0.00     0.055 A 
ATOM     69  C   UNL A   1      37.386  30.265  32.942  1.00  0.00     0.041 A 
ATOM     70  F   UNL A   1      39.486  29.239  32.786  1.00  0.00    -0.206 F 
ATOM     71  C   UNL A   1      36.371  31.030  32.375  1.00  0.00     0.022 A 
BRANCH  68  72
ATOM     72  S   UNL A   1      35.243  32.543  30.324  1.00  0.00     0.124 S 
ATOM     73  O   UNL A   1      36.030  33.724  29.987  1.00  0.00    -0.237 OA
ATOM     74  O   UNL A   1      34.766  31.747  29.199  1.00  0.00    -0.237 OA
ATOM     75  O   UNL A   1      34.281  32.724  31.410  1.00  0.00    -0.744 OA
ENDBRANCH  68  72
ENDBRANCH  41  65
BRANCH  53  76
ATOM     76  C   UNL A   1      44.446  33.915  29.324  1.00  0.00     0.023 A 
ATOM     77  C   UNL A   1      44.101  34.966  28.457  1.00  0.00     0.031 A 
ATOM     78  C   UNL A   1      45.211  34.218  30.463  1.00  0.00     0.131 A 
ATOM     79  C   UNL A   1      44.565  36.264  28.716  1.00  0.00     0.055 A 
ATOM     80  C   UNL A   1      45.625  35.520  30.744  1.00  0.00     0.041 A 
ATOM     81  F   UNL A   1      45.569  33.250  31.323  1.00  0.00    -0.206 F 
ATOM     82  C   UNL A   1      45.314  36.550  29.861  1.00  0.00     0.022 A 
BRANCH  79  83
ATOM     83  S   UNL A   1      44.249  37.564  27.490  1.00  0.00     0.124 S 
ATOM     84  O   UNL A   1      43.906  38.702  28.337  1.00  0.00    -0.237 OA
ATOM     85  O   UNL A   1      45.526  37.653  26.792  1.00  0.00    -0.237 OA
ATOM     86  O   UNL A   1      43.145  37.027  26.696  1.00  0.00    -0.744 OA
ENDBRANCH  79  83
ENDBRANCH  53  76
ENDBRANCH  27  28
ENDBRANCH  20  22
ENDBRANCH  19  20
ENDBRANCH   1  19
TORSDOF 16
ENDMDL
