MODEL 1
REMARK VINA RESULT:     -13.9      0.000      0.000
REMARK SMILES Cc1ccc(-c2c(C)sc(NC(=O)[C@H]3CC=CC[C@H]3C(=O)OCCOC(=O)c3ccc(-c4c5nc(c(-c6cc(S(=O)(=O)[O-])ccc6F)c6ccc([nH]6)c(-c6cc(S(=O)(=O)[O-])ccc6F)c6nc(c(-c7cc(S(=O)(=O)[O-])ccc7F)c7ccc4[nH]7)C=C6)C=C5)cc3)c2C(N)=O)cc1
REMARK SMILES IDX 23 1 22 2 20 3 21 4 19 5 14 6 15 7 16 8 18 9 17 10 12 11
REMARK SMILES IDX 11 12 13 14 10 15 6 16 7 17 91 18 8 19 9 20 5 21 1 22 2 23
REMARK SMILES IDX 3 24 96 25 4 26 95 27 92 28 93 29 94 30 24 33 25 34 26 35
REMARK SMILES IDX 27 36 28 37 29 38 90 39 30 40 89 41 31 42 32 43 33 44 83 45
REMARK SMILES IDX 34 46 88 47 82 48 84 49 35 50 87 51 81 52 80 53 36 55 68 56
REMARK SMILES IDX 48 57 67 58 49 59 52 60 66 61 85 62 50 63 51 64 65 66 86 67
REMARK SMILES IDX 53 68 37 69 38 70 46 71 39 72 45 73 47 74 44 75 40 76 41 77
REMARK SMILES IDX 42 78 43 79 69 80 70 81 78 82 71 83 77 84 79 85 76 86 72 87
REMARK SMILES IDX 73 88 74 89 75 90 54 91 55 92 63 93 56 94 62 95 64 96 61 97
REMARK SMILES IDX 57 98 58 99 59 100 60 101
REMARK H PARENT 11 13 93 31 93 32 84 54 52 65
REMARK Flexibility Score: inf
ROOT
ATOM      1  C   UNL A   1      32.866  30.081  26.808  1.00  0.00     0.274 C 
ENDROOT
BRANCH   1   2
ATOM      2  O   UNL A   1      32.430  30.179  25.464  1.00  0.00    -0.462 OA
BRANCH   2   3
ATOM      3  C   UNL A   1      32.868  29.135  24.699  1.00  0.00     0.310 C 
ATOM      4  O   UNL A   1      33.916  28.565  24.949  1.00  0.00    -0.252 OA
BRANCH   3   5
ATOM      5  C   UNL A   1      31.610  28.794  23.699  1.00  0.00     0.116 C 
ATOM      6  C   UNL A   1      30.818  27.194  24.555  1.00  0.00     0.097 C 
ATOM      7  C   UNL A   1      29.120  26.752  24.088  1.00  0.00     0.041 C 
ATOM      8  C   UNL A   1      27.971  27.918  23.414  1.00  0.00    -0.030 C 
ATOM      9  C   UNL A   1      30.070  29.900  22.519  1.00  0.00     0.043 C 
ATOM     10  C   UNL A   1      28.275  29.150  22.734  1.00  0.00    -0.030 C 
BRANCH   6  11
ATOM     11  C   UNL A   1      31.260  26.754  25.966  1.00  0.00     0.229 C 
ATOM     12  N   UNL A   1      31.893  25.617  26.355  1.00  0.00    -0.317 N 
ATOM     13  H   UNL A   1      31.905  25.506  27.333  1.00  0.00     0.170 HD
ATOM     14  O   UNL A   1      31.011  27.513  26.919  1.00  0.00    -0.274 OA
BRANCH  12  15
ATOM     15  C   UNL A   1      32.521  24.587  25.695  1.00  0.00     0.109 A 
ATOM     16  C   UNL A   1      33.273  22.566  24.826  1.00  0.00     0.010 A 
ATOM     17  C   UNL A   1      33.986  23.499  24.093  1.00  0.00     0.012 A 
ATOM     18  C   UNL A   1      32.418  23.204  25.837  1.00  0.00     0.082 A 
ATOM     19  C   UNL A   1      34.806  23.427  22.849  1.00  0.00     0.057 C 
ATOM     20  S   UNL A   1      34.088  24.847  25.099  1.00  0.00    -0.122 S 
BRANCH  16  21
ATOM     21  C   UNL A   1      33.555  21.160  24.629  1.00  0.00    -0.016 A 
ATOM     22  C   UNL A   1      34.451  16.985  24.322  1.00  0.00     0.044 C 
ATOM     23  C   UNL A   1      34.164  18.452  24.382  1.00  0.00    -0.051 A 
ATOM     24  C   UNL A   1      32.901  18.936  24.007  1.00  0.00     0.004 A 
ATOM     25  C   UNL A   1      35.134  19.337  24.856  1.00  0.00     0.004 A 
ATOM     26  C   UNL A   1      32.598  20.292  24.120  1.00  0.00     0.009 A 
ATOM     27  C   UNL A   1      34.824  20.682  24.991  1.00  0.00     0.009 A 
ENDBRANCH  16  21
BRANCH  18  28
ATOM     28  C   UNL A   1      31.638  22.506  26.856  1.00  0.00     0.252 C 
ATOM     29  N   UNL A   1      30.373  22.106  26.523  1.00  0.00    -0.365 N 
ATOM     30  O   UNL A   1      32.037  22.303  27.998  1.00  0.00    -0.269 OA
ATOM     31  H   UNL A   1      30.032  22.259  25.613  1.00  0.00     0.159 HD
ATOM     32  H   UNL A   1      29.804  21.666  27.195  1.00  0.00     0.159 HD
ENDBRANCH  18  28
ENDBRANCH  12  15
ENDBRANCH   6  11
ENDBRANCH   3   5
ENDBRANCH   2   3
ENDBRANCH   1   2
BRANCH   1  33
ATOM     33  C   UNL A   1      33.880  31.170  27.305  1.00  0.00     0.275 C 
BRANCH  33  34
ATOM     34  O   UNL A   1      33.448  32.370  28.090  1.00  0.00    -0.458 OA
BRANCH  34  35
ATOM     35  C   UNL A   1      34.063  33.492  28.634  1.00  0.00     0.338 C 
ATOM     36  O   UNL A   1      33.472  34.560  28.749  1.00  0.00    -0.246 OA
BRANCH  35  37
ATOM     37  C   UNL A   1      35.289  33.295  29.463  1.00  0.00     0.060 A 
ATOM     38  C   UNL A   1      35.120  32.267  30.891  1.00  0.00     0.016 A 
ATOM     39  C   UNL A   1      36.586  33.150  28.572  1.00  0.00     0.016 A 
ATOM     40  C   UNL A   1      36.478  30.886  31.323  1.00  0.00     0.010 A 
ATOM     41  C   UNL A   1      37.707  32.038  28.859  1.00  0.00     0.010 A 
ATOM     42  C   UNL A   1      37.865  30.908  30.185  1.00  0.00    -0.014 A 
BRANCH  42  43
ATOM     43  C   UNL A   1      39.232  30.341  30.080  1.00  0.00     0.031 A 
ATOM     44  C   UNL A   1      39.440  29.014  29.500  1.00  0.00     0.074 A 
ATOM     45  C   UNL A   1      40.295  31.110  30.511  1.00  0.00     0.049 A 
ATOM     46  N   UNL A   1      40.238  28.124  29.989  1.00  0.00    -0.248 NA
ATOM     47  C   UNL A   1      38.662  28.514  28.366  1.00  0.00     0.031 C 
ATOM     48  C   UNL A   1      41.704  31.092  30.125  1.00  0.00     0.029 A 
ATOM     49  N   UNL A   1      40.295  32.160  31.444  1.00  0.00    -0.354 N 
ATOM     50  C   UNL A   1      40.402  27.198  28.981  1.00  0.00     0.074 A 
ATOM     51  C   UNL A   1      39.219  27.313  28.165  1.00  0.00     0.031 C 
ATOM     52  C   UNL A   1      42.423  31.911  30.933  1.00  0.00     0.029 A 
ATOM     53  C   UNL A   1      41.538  32.464  31.942  1.00  0.00     0.049 A 
ATOM     54  H   UNL A   1      39.476  32.637  31.716  1.00  0.00     0.167 HD
ATOM     55  C   UNL A   1      41.653  26.741  28.678  1.00  0.00     0.034 A 
ATOM     56  C   UNL A   1      41.653  32.601  33.290  1.00  0.00     0.034 A 
ATOM     57  C   UNL A   1      42.658  27.476  29.452  1.00  0.00     0.049 A 
ATOM     58  C   UNL A   1      42.403  31.385  33.729  1.00  0.00     0.074 A 
ATOM     59  C   UNL A   1      43.557  28.468  29.093  1.00  0.00     0.029 A 
ATOM     60  N   UNL A   1      42.635  27.456  30.838  1.00  0.00    -0.354 N 
ATOM     61  N   UNL A   1      42.435  30.293  33.017  1.00  0.00    -0.248 NA
ATOM     62  C   UNL A   1      43.280  31.348  34.885  1.00  0.00     0.031 C 
ATOM     63  C   UNL A   1      44.114  29.006  30.283  1.00  0.00     0.029 A 
ATOM     64  C   UNL A   1      43.537  28.355  31.362  1.00  0.00     0.049 A 
ATOM     65  H   UNL A   1      42.050  26.875  31.377  1.00  0.00     0.167 HD
ATOM     66  C   UNL A   1      43.433  29.494  33.475  1.00  0.00     0.074 A 
ATOM     67  C   UNL A   1      43.900  30.173  34.677  1.00  0.00     0.031 C 
ATOM     68  C   UNL A   1      43.809  28.373  32.792  1.00  0.00     0.034 A 
BRANCH  55  69
ATOM     69  C   UNL A   1      42.037  25.938  27.448  1.00  0.00     0.023 A 
ATOM     70  C   UNL A   1      41.861  24.537  27.470  1.00  0.00     0.031 A 
ATOM     71  C   UNL A   1      42.521  26.457  26.233  1.00  0.00     0.131 A 
ATOM     72  C   UNL A   1      42.228  23.718  26.390  1.00  0.00     0.055 A 
ATOM     73  C   UNL A   1      42.923  25.640  25.162  1.00  0.00     0.041 A 
ATOM     74  F   UNL A   1      42.575  27.777  26.002  1.00  0.00    -0.206 F 
ATOM     75  C   UNL A   1      42.783  24.261  25.238  1.00  0.00     0.022 A 
BRANCH  72  76
ATOM     76  S   UNL A   1      41.918  21.936  26.510  1.00  0.00     0.124 S 
ATOM     77  O   UNL A   1      42.704  21.413  25.396  1.00  0.00    -0.237 OA
ATOM     78  O   UNL A   1      42.407  21.624  27.848  1.00  0.00    -0.237 OA
ATOM     79  O   UNL A   1      40.469  21.832  26.344  1.00  0.00    -0.744 OA
ENDBRANCH  72  76
ENDBRANCH  55  69
BRANCH  56  80
ATOM     80  C   UNL A   1      40.434  33.219  33.932  1.00  0.00     0.023 A 
ATOM     81  C   UNL A   1      39.662  32.391  34.790  1.00  0.00     0.031 A 
ATOM     82  C   UNL A   1      40.274  34.607  34.078  1.00  0.00     0.131 A 
ATOM     83  C   UNL A   1      38.883  32.945  35.827  1.00  0.00     0.055 A 
ATOM     84  C   UNL A   1      39.452  35.153  35.080  1.00  0.00     0.041 A 
ATOM     85  F   UNL A   1      41.012  35.460  33.354  1.00  0.00    -0.206 F 
ATOM     86  C   UNL A   1      38.782  34.326  35.982  1.00  0.00     0.022 A 
BRANCH  83  87
ATOM     87  S   UNL A   1      38.272  31.852  37.157  1.00  0.00     0.124 S 
ATOM     88  O   UNL A   1      36.914  32.340  37.363  1.00  0.00    -0.237 OA
ATOM     89  O   UNL A   1      38.401  30.528  36.555  1.00  0.00    -0.237 OA
ATOM     90  O   UNL A   1      39.210  32.095  38.251  1.00  0.00    -0.744 OA
ENDBRANCH  83  87
ENDBRANCH  56  80
BRANCH  68  91
ATOM     91  C   UNL A   1      44.554  27.215  33.388  1.00  0.00     0.023 A 
ATOM     92  C   UNL A   1      43.896  26.179  34.041  1.00  0.00     0.031 A 
ATOM     93  C   UNL A   1      45.951  27.047  33.223  1.00  0.00     0.131 A 
ATOM     94  C   UNL A   1      44.593  25.100  34.587  1.00  0.00     0.055 A 
ATOM     95  C   UNL A   1      46.636  25.923  33.682  1.00  0.00     0.041 A 
ATOM     96  F   UNL A   1      46.718  27.939  32.582  1.00  0.00    -0.206 F 
ATOM     97  C   UNL A   1      45.959  24.946  34.392  1.00  0.00     0.022 A 
BRANCH  94  98
ATOM     98  S   UNL A   1      43.638  23.954  35.599  1.00  0.00     0.124 S 
ATOM     99  O   UNL A   1      43.002  24.857  36.555  1.00  0.00    -0.237 OA
ATOM    100  O   UNL A   1      42.741  23.346  34.621  1.00  0.00    -0.237 OA
ATOM    101  O   UNL A   1      44.652  23.064  36.157  1.00  0.00    -0.744 OA
ENDBRANCH  94  98
ENDBRANCH  68  91
ENDBRANCH  42  43
ENDBRANCH  35  37
ENDBRANCH  34  35
ENDBRANCH  33  34
ENDBRANCH   1  33
TORSDOF 18
ENDMDL
MODEL 2
REMARK VINA RESULT:     -13.7      4.029     10.009
REMARK SMILES Cc1ccc(-c2c(C)sc(NC(=O)[C@H]3CC=CC[C@H]3C(=O)OCCOC(=O)c3ccc(-c4c5nc(c(-c6cc(S(=O)(=O)[O-])ccc6F)c6ccc([nH]6)c(-c6cc(S(=O)(=O)[O-])ccc6F)c6nc(c(-c7cc(S(=O)(=O)[O-])ccc7F)c7ccc4[nH]7)C=C6)C=C5)cc3)c2C(N)=O)cc1
REMARK SMILES IDX 23 1 22 2 20 3 21 4 19 5 14 6 15 7 16 8 18 9 17 10 12 11
REMARK SMILES IDX 11 12 13 14 10 15 6 16 7 17 91 18 8 19 9 20 5 21 1 22 2 23
REMARK SMILES IDX 3 24 96 25 4 26 95 27 92 28 93 29 94 30 24 33 25 34 26 35
REMARK SMILES IDX 27 36 28 37 29 38 90 39 30 40 89 41 31 42 32 43 33 44 83 45
REMARK SMILES IDX 34 46 88 47 82 48 84 49 35 50 87 51 81 52 80 53 36 55 68 56
REMARK SMILES IDX 48 57 67 58 49 59 52 60 66 61 85 62 50 63 51 64 65 66 86 67
REMARK SMILES IDX 53 68 37 69 38 70 46 71 39 72 45 73 47 74 44 75 40 76 41 77
REMARK SMILES IDX 42 78 43 79 69 80 70 81 78 82 71 83 77 84 79 85 76 86 72 87
REMARK SMILES IDX 73 88 74 89 75 90 54 91 55 92 63 93 56 94 62 95 64 96 61 97
REMARK SMILES IDX 57 98 58 99 59 100 60 101
REMARK H PARENT 11 13 93 31 93 32 84 54 52 65
REMARK Flexibility Score: inf
ROOT
ATOM      1  C   UNL A   1      37.661  21.806  25.221  1.00  0.00     0.274 C 
ENDROOT
BRANCH   1   2
ATOM      2  O   UNL A   1      36.544  21.042  25.638  1.00  0.00    -0.462 OA
BRANCH   2   3
ATOM      3  C   UNL A   1      35.496  21.828  26.029  1.00  0.00     0.310 C 
ATOM      4  O   UNL A   1      35.677  22.949  26.471  1.00  0.00    -0.252 OA
BRANCH   3   5
ATOM      5  C   UNL A   1      34.157  21.014  25.532  1.00  0.00     0.116 C 
ATOM      6  C   UNL A   1      33.584  22.074  23.961  1.00  0.00     0.097 C 
ATOM      7  C   UNL A   1      32.440  21.284  22.794  1.00  0.00     0.041 C 
ATOM      8  C   UNL A   1      32.275  19.527  22.645  1.00  0.00    -0.030 C 
ATOM      9  C   UNL A   1      33.460  18.900  25.353  1.00  0.00     0.043 C 
ATOM     10  C   UNL A   1      32.605  18.532  23.632  1.00  0.00    -0.030 C 
BRANCH   6  11
ATOM     11  C   UNL A   1      34.503  23.161  23.366  1.00  0.00     0.229 C 
ATOM     12  N   UNL A   1      34.277  24.492  23.217  1.00  0.00    -0.317 N 
ATOM     13  H   UNL A   1      34.954  24.931  22.653  1.00  0.00     0.170 HD
ATOM     14  O   UNL A   1      35.616  22.814  22.935  1.00  0.00    -0.274 OA
BRANCH  12  15
ATOM     15  C   UNL A   1      33.321  25.368  23.676  1.00  0.00     0.109 A 
ATOM     16  C   UNL A   1      31.614  26.917  23.980  1.00  0.00     0.010 A 
ATOM     17  C   UNL A   1      31.886  26.502  25.273  1.00  0.00     0.012 A 
ATOM     18  C   UNL A   1      32.508  26.279  23.003  1.00  0.00     0.082 A 
ATOM     19  C   UNL A   1      31.178  26.657  26.577  1.00  0.00     0.057 C 
ATOM     20  S   UNL A   1      33.497  26.011  25.235  1.00  0.00    -0.122 S 
BRANCH  16  21
ATOM     21  C   UNL A   1      30.652  27.978  23.776  1.00  0.00    -0.016 A 
ATOM     22  C   UNL A   1      28.001  31.253  23.015  1.00  0.00     0.044 C 
ATOM     23  C   UNL A   1      28.910  30.108  23.332  1.00  0.00    -0.051 A 
ATOM     24  C   UNL A   1      28.550  28.803  22.962  1.00  0.00     0.004 A 
ATOM     25  C   UNL A   1      30.138  30.338  23.954  1.00  0.00     0.004 A 
ATOM     26  C   UNL A   1      29.415  27.734  23.192  1.00  0.00     0.009 A 
ATOM     27  C   UNL A   1      31.009  29.280  24.160  1.00  0.00     0.009 A 
ENDBRANCH  16  21
BRANCH  18  28
ATOM     28  C   UNL A   1      32.573  26.591  21.578  1.00  0.00     0.252 C 
ATOM     29  N   UNL A   1      31.616  26.048  20.765  1.00  0.00    -0.365 N 
ATOM     30  O   UNL A   1      33.459  27.269  21.069  1.00  0.00    -0.269 OA
ATOM     31  H   UNL A   1      30.896  25.500  21.152  1.00  0.00     0.159 HD
ATOM     32  H   UNL A   1      31.648  26.205  19.794  1.00  0.00     0.159 HD
ENDBRANCH  18  28
ENDBRANCH  12  15
ENDBRANCH   6  11
ENDBRANCH   3   5
ENDBRANCH   2   3
ENDBRANCH   1   2
BRANCH   1  33
ATOM     33  C   UNL A   1      38.928  21.771  26.145  1.00  0.00     0.275 C 
BRANCH  33  34
ATOM     34  O   UNL A   1      40.179  21.038  25.767  1.00  0.00    -0.458 OA
BRANCH  34  35
ATOM     35  C   UNL A   1      41.416  20.789  26.350  1.00  0.00     0.338 C 
ATOM     36  O   UNL A   1      41.973  19.703  26.244  1.00  0.00    -0.246 OA
BRANCH  35  37
ATOM     37  C   UNL A   1      42.260  21.957  26.741  1.00  0.00     0.060 A 
ATOM     38  C   UNL A   1      42.664  23.105  25.460  1.00  0.00     0.016 A 
ATOM     39  C   UNL A   1      41.870  22.516  28.167  1.00  0.00     0.016 A 
ATOM     40  C   UNL A   1      42.536  25.062  25.764  1.00  0.00     0.010 A 
ATOM     41  C   UNL A   1      41.729  24.086  28.466  1.00  0.00     0.010 A 
ATOM     42  C   UNL A   1      42.086  25.467  27.452  1.00  0.00    -0.014 A 
BRANCH  42  43
ATOM     43  C   UNL A   1      42.049  26.651  28.345  1.00  0.00     0.031 A 
ATOM     44  C   UNL A   1      40.889  27.544  28.342  1.00  0.00     0.074 A 
ATOM     45  C   UNL A   1      43.116  26.865  29.195  1.00  0.00     0.049 A 
ATOM     46  N   UNL A   1      40.965  28.833  28.364  1.00  0.00    -0.248 NA
ATOM     47  C   UNL A   1      39.517  27.060  28.187  1.00  0.00     0.031 C 
ATOM     48  C   UNL A   1      43.195  27.577  30.469  1.00  0.00     0.029 A 
ATOM     49  N   UNL A   1      44.442  26.418  29.065  1.00  0.00    -0.354 N 
ATOM     50  C   UNL A   1      39.699  29.259  28.703  1.00  0.00     0.074 A 
ATOM     51  C   UNL A   1      38.817  28.196  28.288  1.00  0.00     0.031 C 
ATOM     52  C   UNL A   1      44.486  27.681  30.870  1.00  0.00     0.029 A 
ATOM     53  C   UNL A   1      45.339  27.101  29.849  1.00  0.00     0.049 A 
ATOM     54  H   UNL A   1      44.704  25.681  28.467  1.00  0.00     0.167 HD
ATOM     55  C   UNL A   1      39.542  30.228  29.654  1.00  0.00     0.034 A 
ATOM     56  C   UNL A   1      46.484  27.533  29.254  1.00  0.00     0.034 A 
ATOM     57  C   UNL A   1      40.837  30.550  30.262  1.00  0.00     0.049 A 
ATOM     58  C   UNL A   1      46.319  29.015  29.150  1.00  0.00     0.074 A 
ATOM     59  C   UNL A   1      41.384  30.232  31.495  1.00  0.00     0.029 A 
ATOM     60  N   UNL A   1      41.881  31.027  29.485  1.00  0.00    -0.354 N 
ATOM     61  N   UNL A   1      45.147  29.586  29.169  1.00  0.00    -0.248 NA
ATOM     62  C   UNL A   1      47.422  29.956  29.176  1.00  0.00     0.031 C 
ATOM     63  C   UNL A   1      42.761  30.576  31.466  1.00  0.00     0.029 A 
ATOM     64  C   UNL A   1      43.052  31.083  30.209  1.00  0.00     0.049 A 
ATOM     65  H   UNL A   1      41.797  31.292  28.540  1.00  0.00     0.167 HD
ATOM     66  C   UNL A   1      45.306  30.916  29.392  1.00  0.00     0.074 A 
ATOM     67  C   UNL A   1      46.749  31.109  29.339  1.00  0.00     0.031 C 
ATOM     68  C   UNL A   1      44.233  31.722  29.647  1.00  0.00     0.034 A 
BRANCH  55  69
ATOM     69  C   UNL A   1      38.238  30.617  30.325  1.00  0.00     0.023 A 
ATOM     70  C   UNL A   1      37.391  31.544  29.676  1.00  0.00     0.031 A 
ATOM     71  C   UNL A   1      37.740  30.106  31.539  1.00  0.00     0.131 A 
ATOM     72  C   UNL A   1      36.187  31.986  30.248  1.00  0.00     0.055 A 
ATOM     73  C   UNL A   1      36.554  30.572  32.132  1.00  0.00     0.041 A 
ATOM     74  F   UNL A   1      38.345  29.096  32.178  1.00  0.00    -0.206 F 
ATOM     75  C   UNL A   1      35.771  31.523  31.489  1.00  0.00     0.022 A 
BRANCH  72  76
ATOM     76  S   UNL A   1      35.158  33.146  29.308  1.00  0.00     0.124 S 
ATOM     77  O   UNL A   1      36.051  34.290  29.150  1.00  0.00    -0.237 OA
ATOM     78  O   UNL A   1      34.859  32.389  28.098  1.00  0.00    -0.237 OA
ATOM     79  O   UNL A   1      34.014  33.374  30.190  1.00  0.00    -0.744 OA
ENDBRANCH  72  76
ENDBRANCH  55  69
BRANCH  56  80
ATOM     80  C   UNL A   1      47.002  26.582  28.201  1.00  0.00     0.023 A 
ATOM     81  C   UNL A   1      46.829  26.961  26.844  1.00  0.00     0.031 A 
ATOM     82  C   UNL A   1      47.985  25.615  28.470  1.00  0.00     0.131 A 
ATOM     83  C   UNL A   1      47.700  26.488  25.840  1.00  0.00     0.055 A 
ATOM     84  C   UNL A   1      48.815  25.106  27.455  1.00  0.00     0.041 A 
ATOM     85  F   UNL A   1      48.258  25.249  29.729  1.00  0.00    -0.206 F 
ATOM     86  C   UNL A   1      48.701  25.567  26.142  1.00  0.00     0.022 A 
BRANCH  83  87
ATOM     87  S   UNL A   1      47.722  27.326  24.217  1.00  0.00     0.124 S 
ATOM     88  O   UNL A   1      46.428  27.996  24.193  1.00  0.00    -0.237 OA
ATOM     89  O   UNL A   1      48.896  28.188  24.330  1.00  0.00    -0.237 OA
ATOM     90  O   UNL A   1      47.889  26.226  23.271  1.00  0.00    -0.744 OA
ENDBRANCH  83  87
ENDBRANCH  56  80
BRANCH  68  91
ATOM     91  C   UNL A   1      44.220  33.212  29.475  1.00  0.00     0.023 A 
ATOM     92  C   UNL A   1      43.473  33.828  28.477  1.00  0.00     0.031 A 
ATOM     93  C   UNL A   1      44.869  34.086  30.381  1.00  0.00     0.131 A 
ATOM     94  C   UNL A   1      43.457  35.215  28.326  1.00  0.00     0.055 A 
ATOM     95  C   UNL A   1      44.777  35.473  30.291  1.00  0.00     0.041 A 
ATOM     96  F   UNL A   1      45.595  33.646  31.418  1.00  0.00    -0.206 F 
ATOM     97  C   UNL A   1      44.083  36.051  29.241  1.00  0.00     0.022 A 
BRANCH  94  98
ATOM     98  S   UNL A   1      42.633  35.856  26.855  1.00  0.00     0.124 S 
ATOM     99  O   UNL A   1      43.080  34.917  25.829  1.00  0.00    -0.237 OA
ATOM    100  O   UNL A   1      41.223  35.759  27.221  1.00  0.00    -0.237 OA
ATOM    101  O   UNL A   1      43.158  37.213  26.735  1.00  0.00    -0.744 OA
ENDBRANCH  94  98
ENDBRANCH  68  91
ENDBRANCH  42  43
ENDBRANCH  35  37
ENDBRANCH  34  35
ENDBRANCH  33  34
ENDBRANCH   1  33
TORSDOF 18
ENDMDL
MODEL 3
REMARK VINA RESULT:     -13.2      4.375     10.199
REMARK SMILES Cc1ccc(-c2c(C)sc(NC(=O)[C@H]3CC=CC[C@H]3C(=O)OCCOC(=O)c3ccc(-c4c5nc(c(-c6cc(S(=O)(=O)[O-])ccc6F)c6ccc([nH]6)c(-c6cc(S(=O)(=O)[O-])ccc6F)c6nc(c(-c7cc(S(=O)(=O)[O-])ccc7F)c7ccc4[nH]7)C=C6)C=C5)cc3)c2C(N)=O)cc1
REMARK SMILES IDX 23 1 22 2 20 3 21 4 19 5 14 6 15 7 16 8 18 9 17 10 12 11
REMARK SMILES IDX 11 12 13 14 10 15 6 16 7 17 91 18 8 19 9 20 5 21 1 22 2 23
REMARK SMILES IDX 3 24 96 25 4 26 95 27 92 28 93 29 94 30 24 33 25 34 26 35
REMARK SMILES IDX 27 36 28 37 29 38 90 39 30 40 89 41 31 42 32 43 33 44 83 45
REMARK SMILES IDX 34 46 88 47 82 48 84 49 35 50 87 51 81 52 80 53 36 55 68 56
REMARK SMILES IDX 48 57 67 58 49 59 52 60 66 61 85 62 50 63 51 64 65 66 86 67
REMARK SMILES IDX 53 68 37 69 38 70 46 71 39 72 45 73 47 74 44 75 40 76 41 77
REMARK SMILES IDX 42 78 43 79 69 80 70 81 78 82 71 83 77 84 79 85 76 86 72 87
REMARK SMILES IDX 73 88 74 89 75 90 54 91 55 92 63 93 56 94 62 95 64 96 61 97
REMARK SMILES IDX 57 98 58 99 59 100 60 101
REMARK H PARENT 11 13 93 31 93 32 84 54 52 65
REMARK Flexibility Score: inf
ROOT
ATOM      1  C   UNL A   1      38.860  20.940  25.717  1.00  0.00     0.274 C 
ENDROOT
BRANCH   1   2
ATOM      2  O   UNL A   1      37.668  20.315  25.278  1.00  0.00    -0.462 OA
BRANCH   2   3
ATOM      3  C   UNL A   1      36.822  21.191  24.656  1.00  0.00     0.310 C 
ATOM      4  O   UNL A   1      37.215  21.925  23.766  1.00  0.00    -0.252 OA
BRANCH   3   5
ATOM      5  C   UNL A   1      35.328  20.795  25.213  1.00  0.00     0.116 C 
ATOM      6  C   UNL A   1      34.781  22.450  26.154  1.00  0.00     0.097 C 
ATOM      7  C   UNL A   1      33.014  22.662  26.508  1.00  0.00     0.041 C 
ATOM      8  C   UNL A   1      31.741  21.831  25.599  1.00  0.00    -0.030 C 
ATOM      9  C   UNL A   1      33.538  19.653  24.522  1.00  0.00     0.043 C 
ATOM     10  C   UNL A   1      31.863  20.614  24.840  1.00  0.00    -0.030 C 
BRANCH   6  11
ATOM     11  C   UNL A   1      35.594  23.751  25.997  1.00  0.00     0.229 C 
ATOM     12  N   UNL A   1      35.357  24.823  25.198  1.00  0.00    -0.317 N 
ATOM     13  H   UNL A   1      36.120  25.444  25.160  1.00  0.00     0.170 HD
ATOM     14  O   UNL A   1      36.633  23.876  26.669  1.00  0.00    -0.274 OA
BRANCH  12  15
ATOM     15  C   UNL A   1      34.294  25.242  24.432  1.00  0.00     0.109 A 
ATOM     16  C   UNL A   1      32.390  26.218  23.524  1.00  0.00     0.010 A 
ATOM     17  C   UNL A   1      32.911  25.510  22.454  1.00  0.00     0.012 A 
ATOM     18  C   UNL A   1      33.186  26.027  24.745  1.00  0.00     0.082 A 
ATOM     19  C   UNL A   1      32.642  25.511  20.987  1.00  0.00     0.057 C 
ATOM     20  S   UNL A   1      33.778  24.248  23.158  1.00  0.00    -0.122 S 
BRANCH  16  21
ATOM     21  C   UNL A   1      31.118  26.891  23.363  1.00  0.00    -0.016 A 
ATOM     22  C   UNL A   1      27.311  28.838  23.163  1.00  0.00     0.044 C 
ATOM     23  C   UNL A   1      28.630  28.133  23.186  1.00  0.00    -0.051 A 
ATOM     24  C   UNL A   1      29.796  28.814  22.801  1.00  0.00     0.004 A 
ATOM     25  C   UNL A   1      28.713  26.814  23.633  1.00  0.00     0.004 A 
ATOM     26  C   UNL A   1      31.041  28.191  22.879  1.00  0.00     0.009 A 
ATOM     27  C   UNL A   1      29.953  26.202  23.734  1.00  0.00     0.009 A 
ENDBRANCH  16  21
BRANCH  18  28
ATOM     28  C   UNL A   1      32.841  26.526  26.073  1.00  0.00     0.252 C 
ATOM     29  N   UNL A   1      33.529  27.612  26.541  1.00  0.00    -0.365 N 
ATOM     30  O   UNL A   1      32.008  26.000  26.803  1.00  0.00    -0.269 OA
ATOM     31  H   UNL A   1      34.202  28.050  25.973  1.00  0.00     0.159 HD
ATOM     32  H   UNL A   1      33.351  27.954  27.447  1.00  0.00     0.159 HD
ENDBRANCH  18  28
ENDBRANCH  12  15
ENDBRANCH   6  11
ENDBRANCH   3   5
ENDBRANCH   2   3
ENDBRANCH   1   2
BRANCH   1  33
ATOM     33  C   UNL A   1      40.096  20.007  25.971  1.00  0.00     0.275 C 
BRANCH  33  34
ATOM     34  O   UNL A   1      41.472  20.345  25.485  1.00  0.00    -0.458 OA
BRANCH  34  35
ATOM     35  C   UNL A   1      42.774  20.148  25.929  1.00  0.00     0.338 C 
ATOM     36  O   UNL A   1      43.401  19.131  25.659  1.00  0.00    -0.246 OA
BRANCH  35  37
ATOM     37  C   UNL A   1      43.558  21.339  26.370  1.00  0.00     0.060 A 
ATOM     38  C   UNL A   1      44.209  22.375  25.094  1.00  0.00     0.016 A 
ATOM     39  C   UNL A   1      42.930  22.018  27.652  1.00  0.00     0.016 A 
ATOM     40  C   UNL A   1      44.069  24.350  25.210  1.00  0.00     0.010 A 
ATOM     41  C   UNL A   1      42.771  23.608  27.792  1.00  0.00     0.010 A 
ATOM     42  C   UNL A   1      43.332  24.898  26.751  1.00  0.00    -0.014 A 
BRANCH  42  43
ATOM     43  C   UNL A   1      43.161  26.153  27.524  1.00  0.00     0.031 A 
ATOM     44  C   UNL A   1      41.870  26.843  27.535  1.00  0.00     0.074 A 
ATOM     45  C   UNL A   1      44.233  26.626  28.252  1.00  0.00     0.049 A 
ATOM     46  N   UNL A   1      41.730  28.122  27.424  1.00  0.00    -0.248 NA
ATOM     47  C   UNL A   1      40.591  26.133  27.548  1.00  0.00     0.031 C 
ATOM     48  C   UNL A   1      44.281  27.478  29.438  1.00  0.00     0.029 A 
ATOM     49  N   UNL A   1      45.602  26.384  28.051  1.00  0.00    -0.354 N 
ATOM     50  C   UNL A   1      40.437  28.377  27.829  1.00  0.00     0.074 A 
ATOM     51  C   UNL A   1      39.719  27.148  27.598  1.00  0.00     0.031 C 
ATOM     52  C   UNL A   1      45.561  27.830  29.713  1.00  0.00     0.029 A 
ATOM     53  C   UNL A   1      46.426  27.284  28.683  1.00  0.00     0.049 A 
ATOM     54  H   UNL A   1      45.942  25.636  27.508  1.00  0.00     0.167 HD
ATOM     55  C   UNL A   1      40.188  29.407  28.690  1.00  0.00     0.034 A 
ATOM     56  C   UNL A   1      47.438  27.824  27.952  1.00  0.00     0.034 A 
ATOM     57  C   UNL A   1      41.450  29.997  29.148  1.00  0.00     0.049 A 
ATOM     58  C   UNL A   1      47.020  29.239  27.718  1.00  0.00     0.074 A 
ATOM     59  C   UNL A   1      42.128  29.908  30.354  1.00  0.00     0.029 A 
ATOM     60  N   UNL A   1      42.343  30.545  28.241  1.00  0.00    -0.354 N 
ATOM     61  N   UNL A   1      45.773  29.615  27.783  1.00  0.00    -0.248 NA
ATOM     62  C   UNL A   1      47.949  30.342  27.555  1.00  0.00     0.031 C 
ATOM     63  C   UNL A   1      43.422  30.462  30.171  1.00  0.00     0.029 A 
ATOM     64  C   UNL A   1      43.535  30.866  28.851  1.00  0.00     0.049 A 
ATOM     65  H   UNL A   1      42.150  30.687  27.285  1.00  0.00     0.167 HD
ATOM     66  C   UNL A   1      45.722  30.970  27.861  1.00  0.00     0.074 A 
ATOM     67  C   UNL A   1      47.106  31.383  27.663  1.00  0.00     0.031 C 
ATOM     68  C   UNL A   1      44.551  31.618  28.128  1.00  0.00     0.034 A 
BRANCH  55  69
ATOM     69  C   UNL A   1      38.887  29.657  29.432  1.00  0.00     0.023 A 
ATOM     70  C   UNL A   1      37.957  30.567  28.882  1.00  0.00     0.031 A 
ATOM     71  C   UNL A   1      38.471  29.026  30.619  1.00  0.00     0.131 A 
ATOM     72  C   UNL A   1      36.749  30.883  29.524  1.00  0.00     0.055 A 
ATOM     73  C   UNL A   1      37.280  29.365  31.284  1.00  0.00     0.041 A 
ATOM     74  F   UNL A   1      39.165  28.016  31.161  1.00  0.00    -0.206 F 
ATOM     75  C   UNL A   1      36.412  30.304  30.740  1.00  0.00     0.022 A 
BRANCH  72  76
ATOM     76  S   UNL A   1      35.610  32.034  28.708  1.00  0.00     0.124 S 
ATOM     77  O   UNL A   1      34.752  32.451  29.813  1.00  0.00    -0.237 OA
ATOM     78  O   UNL A   1      36.516  33.045  28.177  1.00  0.00    -0.237 OA
ATOM     79  O   UNL A   1      34.955  31.203  27.699  1.00  0.00    -0.744 OA
ENDBRANCH  72  76
ENDBRANCH  55  69
BRANCH  56  80
ATOM     80  C   UNL A   1      48.033  26.857  26.955  1.00  0.00     0.023 A 
ATOM     81  C   UNL A   1      47.775  27.102  25.580  1.00  0.00     0.031 A 
ATOM     82  C   UNL A   1      49.131  26.034  27.258  1.00  0.00     0.131 A 
ATOM     83  C   UNL A   1      48.665  26.653  24.583  1.00  0.00     0.055 A 
ATOM     84  C   UNL A   1      49.984  25.544  26.254  1.00  0.00     0.041 A 
ATOM     85  F   UNL A   1      49.482  25.806  28.531  1.00  0.00    -0.206 F 
ATOM     86  C   UNL A   1      49.776  25.880  24.915  1.00  0.00     0.022 A 
BRANCH  83  87
ATOM     87  S   UNL A   1      48.540  27.353  22.900  1.00  0.00     0.124 S 
ATOM     88  O   UNL A   1      47.249  28.029  22.938  1.00  0.00    -0.237 OA
ATOM     89  O   UNL A   1      49.720  28.211  22.834  1.00  0.00    -0.237 OA
ATOM     90  O   UNL A   1      48.619  26.176  22.038  1.00  0.00    -0.744 OA
ENDBRANCH  83  87
ENDBRANCH  56  80
BRANCH  68  91
ATOM     91  C   UNL A   1      44.276  33.059  27.813  1.00  0.00     0.023 A 
ATOM     92  C   UNL A   1      44.464  34.065  28.756  1.00  0.00     0.031 A 
ATOM     93  C   UNL A   1      43.924  33.497  26.513  1.00  0.00     0.131 A 
ATOM     94  C   UNL A   1      44.215  35.404  28.455  1.00  0.00     0.055 A 
ATOM     95  C   UNL A   1      43.769  34.843  26.185  1.00  0.00     0.041 A 
ATOM     96  F   UNL A   1      43.746  32.654  25.487  1.00  0.00    -0.206 F 
ATOM     97  C   UNL A   1      43.893  35.810  27.167  1.00  0.00     0.022 A 
BRANCH  94  98
ATOM     98  S   UNL A   1      44.280  36.564  29.835  1.00  0.00     0.124 S 
ATOM     99  O   UNL A   1      42.931  36.451  30.384  1.00  0.00    -0.237 OA
ATOM    100  O   UNL A   1      45.343  36.003  30.664  1.00  0.00    -0.237 OA
ATOM    101  O   UNL A   1      44.592  37.838  29.194  1.00  0.00    -0.744 OA
ENDBRANCH  94  98
ENDBRANCH  68  91
ENDBRANCH  42  43
ENDBRANCH  35  37
ENDBRANCH  34  35
ENDBRANCH  33  34
ENDBRANCH   1  33
TORSDOF 18
ENDMDL
