MODEL 1
REMARK VINA RESULT:     -10.6      0.000      0.000
REMARK SMILES Nc1nc(N)nc(N/C=C/C(=O)OCCOC(=O)c2ccc(-c3c4nc(c(-c5cc(S(=O)(=O)[O-])ccc5F)c5ccc([nH]5)c(-c5cc(S(=O)(=O)[O-])ccc5F)c5nc(c(-c6cc(S(=O)(=O)[O-])ccc6F)c6ccc3[nH]6)C=C5)C=C4)cc2)n1
REMARK SMILES IDX 14 1 13 2 11 3 12 4 10 5 9 6 8 7 7 9 2 10 3 11 82 12 4 13
REMARK SMILES IDX 6 14 1 15 5 18 15 21 16 22 17 23 18 24 19 25 20 26 81 27
REMARK SMILES IDX 21 28 80 29 22 30 23 31 24 32 74 33 25 34 79 35 73 36 75 37
REMARK SMILES IDX 26 38 78 39 72 40 71 41 27 43 59 44 39 45 58 46 40 47 43 48
REMARK SMILES IDX 57 49 76 50 41 51 42 52 56 54 77 55 44 56 28 57 29 58 37 59
REMARK SMILES IDX 30 60 36 61 38 62 35 63 31 64 32 65 33 66 34 67 60 68 61 69
REMARK SMILES IDX 69 70 62 71 68 72 70 73 67 74 63 75 64 76 65 77 66 78 45 79
REMARK SMILES IDX 46 80 54 81 47 82 53 83 55 84 52 85 48 86 49 87 50 88 51 89
REMARK H PARENT 8 8 1 16 1 17 5 19 5 20 75 42 43 53
REMARK Flexibility Score: inf
ROOT
ATOM      1  C   UNL A   1      31.310  31.264  26.236  1.00  0.00     0.275 C 
ENDROOT
BRANCH   1   2
ATOM      2  O   UNL A   1      32.351  30.412  26.748  1.00  0.00    -0.459 OA
BRANCH   2   3
ATOM      3  C   UNL A   1      32.861  29.520  25.867  1.00  0.00     0.332 C 
ATOM      4  O   UNL A   1      33.992  29.055  25.886  1.00  0.00    -0.247 OA
BRANCH   3   5
ATOM      5  C   UNL A   1      31.867  29.070  24.875  1.00  0.00     0.111 C 
ATOM      6  C   UNL A   1      32.139  28.661  23.632  1.00  0.00     0.093 C 
BRANCH   6   7
ATOM      7  N   UNL A   1      31.214  28.261  22.704  1.00  0.00    -0.330 N 
ATOM      8  H   UNL A   1      31.457  27.473  22.166  1.00  0.00     0.169 HD
BRANCH   7   9
ATOM      9  C   UNL A   1      29.974  28.830  22.432  1.00  0.00     0.233 A 
ATOM     10  C   UNL A   1      28.825  30.539  21.544  1.00  0.00     0.226 A 
ATOM     11  N   UNL A   1      27.672  30.087  22.006  1.00  0.00    -0.177 NA
ATOM     12  N   UNL A   1      29.998  29.958  21.730  1.00  0.00    -0.177 NA
ATOM     13  C   UNL A   1      27.753  28.957  22.686  1.00  0.00     0.226 A 
ATOM     14  N   UNL A   1      28.866  28.288  22.925  1.00  0.00    -0.177 NA
BRANCH  10  15
ATOM     15  N   UNL A   1      28.809  31.704  20.831  1.00  0.00    -0.368 N 
ATOM     16  H   UNL A   1      28.468  32.529  21.245  1.00  0.00     0.159 HD
ATOM     17  H   UNL A   1      29.138  31.718  19.903  1.00  0.00     0.159 HD
ENDBRANCH  10  15
BRANCH  13  18
ATOM     18  N   UNL A   1      26.597  28.449  23.209  1.00  0.00    -0.368 N 
ATOM     19  H   UNL A   1      26.269  27.569  22.914  1.00  0.00     0.159 HD
ATOM     20  H   UNL A   1      26.091  28.963  23.879  1.00  0.00     0.159 HD
ENDBRANCH  13  18
ENDBRANCH   7   9
ENDBRANCH   6   7
ENDBRANCH   3   5
ENDBRANCH   2   3
ENDBRANCH   1   2
BRANCH   1  21
ATOM     21  C   UNL A   1      31.426  32.692  26.780  1.00  0.00     0.275 C 
BRANCH  21  22
ATOM     22  O   UNL A   1      32.774  33.194  26.711  1.00  0.00    -0.458 OA
BRANCH  22  23
ATOM     23  C   UNL A   1      33.203  33.836  27.825  1.00  0.00     0.338 C 
ATOM     24  O   UNL A   1      32.640  34.750  28.403  1.00  0.00    -0.246 OA
BRANCH  23  25
ATOM     25  C   UNL A   1      34.417  33.182  28.351  1.00  0.00     0.060 A 
ATOM     26  C   UNL A   1      34.270  31.943  28.980  1.00  0.00     0.016 A 
ATOM     27  C   UNL A   1      35.670  33.797  28.286  1.00  0.00     0.016 A 
ATOM     28  C   UNL A   1      35.375  31.309  29.546  1.00  0.00     0.010 A 
ATOM     29  C   UNL A   1      36.778  33.163  28.862  1.00  0.00     0.010 A 
ATOM     30  C   UNL A   1      36.636  31.919  29.502  1.00  0.00    -0.014 A 
BRANCH  30  31
ATOM     31  C   UNL A   1      37.787  31.270  30.177  1.00  0.00     0.031 A 
ATOM     32  C   UNL A   1      38.114  31.624  31.601  1.00  0.00     0.074 A 
ATOM     33  C   UNL A   1      38.515  30.344  29.524  1.00  0.00     0.049 A 
ATOM     34  N   UNL A   1      39.095  31.202  32.356  1.00  0.00    -0.248 NA
ATOM     35  C   UNL A   1      37.213  32.582  32.260  1.00  0.00     0.031 C 
ATOM     36  C   UNL A   1      38.264  29.890  28.156  1.00  0.00     0.029 A 
ATOM     37  N   UNL A   1      39.611  29.621  29.921  1.00  0.00    -0.354 N 
ATOM     38  C   UNL A   1      38.937  31.845  33.579  1.00  0.00     0.074 A 
ATOM     39  C   UNL A   1      37.780  32.709  33.451  1.00  0.00     0.031 C 
ATOM     40  C   UNL A   1      39.181  28.966  27.827  1.00  0.00     0.029 A 
ATOM     41  C   UNL A   1      40.110  28.794  28.942  1.00  0.00     0.049 A 
ATOM     42  H   UNL A   1      40.003  29.687  30.821  1.00  0.00     0.167 HD
ATOM     43  C   UNL A   1      39.687  31.723  34.703  1.00  0.00     0.034 A 
ATOM     44  C   UNL A   1      41.208  28.010  28.934  1.00  0.00     0.034 A 
ATOM     45  C   UNL A   1      40.840  30.863  34.811  1.00  0.00     0.049 A 
ATOM     46  C   UNL A   1      42.068  27.949  30.173  1.00  0.00     0.074 A 
ATOM     47  C   UNL A   1      41.663  30.657  35.905  1.00  0.00     0.029 A 
ATOM     48  N   UNL A   1      41.344  30.073  33.785  1.00  0.00    -0.354 N 
ATOM     49  N   UNL A   1      41.909  28.565  31.322  1.00  0.00    -0.248 NA
ATOM     50  C   UNL A   1      43.255  27.084  30.114  1.00  0.00     0.031 C 
ATOM     51  C   UNL A   1      42.699  29.796  35.523  1.00  0.00     0.029 A 
ATOM     52  C   UNL A   1      42.482  29.403  34.211  1.00  0.00     0.049 A 
ATOM     53  H   UNL A   1      40.950  29.998  32.885  1.00  0.00     0.167 HD
ATOM     54  C   UNL A   1      42.959  28.137  32.131  1.00  0.00     0.074 A 
ATOM     55  C   UNL A   1      43.735  27.203  31.343  1.00  0.00     0.031 C 
ATOM     56  C   UNL A   1      43.252  28.482  33.411  1.00  0.00     0.034 A 
BRANCH  43  57
ATOM     57  C   UNL A   1      39.309  32.582  35.885  1.00  0.00     0.023 A 
ATOM     58  C   UNL A   1      39.789  33.895  36.033  1.00  0.00     0.031 A 
ATOM     59  C   UNL A   1      38.467  32.071  36.889  1.00  0.00     0.131 A 
ATOM     60  C   UNL A   1      39.472  34.630  37.187  1.00  0.00     0.055 A 
ATOM     61  C   UNL A   1      38.098  32.832  37.999  1.00  0.00     0.041 A 
ATOM     62  F   UNL A   1      37.995  30.816  36.810  1.00  0.00    -0.206 F 
ATOM     63  C   UNL A   1      38.611  34.115  38.160  1.00  0.00     0.022 A 
BRANCH  60  64
ATOM     64  S   UNL A   1      40.299  36.221  37.461  1.00  0.00     0.124 S 
ATOM     65  O   UNL A   1      41.569  35.797  38.046  1.00  0.00    -0.237 OA
ATOM     66  O   UNL A   1      40.370  36.775  36.114  1.00  0.00    -0.237 OA
ATOM     67  O   UNL A   1      39.401  36.920  38.377  1.00  0.00    -0.744 OA
ENDBRANCH  60  64
ENDBRANCH  43  57
BRANCH  44  68
ATOM     68  C   UNL A   1      41.592  27.255  27.707  1.00  0.00     0.023 A 
ATOM     69  C   UNL A   1      41.434  25.863  27.628  1.00  0.00     0.031 A 
ATOM     70  C   UNL A   1      42.180  27.915  26.613  1.00  0.00     0.131 A 
ATOM     71  C   UNL A   1      41.903  25.169  26.500  1.00  0.00     0.055 A 
ATOM     72  C   UNL A   1      42.594  27.228  25.470  1.00  0.00     0.041 A 
ATOM     73  F   UNL A   1      42.357  29.246  26.637  1.00  0.00    -0.206 F 
ATOM     74  C   UNL A   1      42.469  25.844  25.416  1.00  0.00     0.022 A 
BRANCH  71  75
ATOM     75  S   UNL A   1      41.848  23.356  26.511  1.00  0.00     0.124 S 
ATOM     76  O   UNL A   1      42.518  23.045  27.767  1.00  0.00    -0.237 OA
ATOM     77  O   UNL A   1      40.413  23.096  26.467  1.00  0.00    -0.237 OA
ATOM     78  O   UNL A   1      42.583  22.986  25.303  1.00  0.00    -0.744 OA
ENDBRANCH  71  75
ENDBRANCH  44  68
BRANCH  56  79
ATOM     79  C   UNL A   1      44.442  27.803  34.046  1.00  0.00     0.023 A 
ATOM     80  C   UNL A   1      44.306  26.630  34.808  1.00  0.00     0.031 A 
ATOM     81  C   UNL A   1      45.728  28.352  33.897  1.00  0.00     0.131 A 
ATOM     82  C   UNL A   1      45.429  26.072  35.437  1.00  0.00     0.055 A 
ATOM     83  C   UNL A   1      46.851  27.761  34.479  1.00  0.00     0.041 A 
ATOM     84  F   UNL A   1      45.915  29.472  33.180  1.00  0.00    -0.206 F 
ATOM     85  C   UNL A   1      46.703  26.621  35.265  1.00  0.00     0.022 A 
BRANCH  82  86
ATOM     86  S   UNL A   1      45.193  24.664  36.557  1.00  0.00     0.124 S 
ATOM     87  O   UNL A   1      45.240  23.532  35.637  1.00  0.00    -0.237 OA
ATOM     88  O   UNL A   1      46.327  24.795  37.465  1.00  0.00    -0.237 OA
ATOM     89  O   UNL A   1      43.885  24.920  37.160  1.00  0.00    -0.744 OA
ENDBRANCH  82  86
ENDBRANCH  56  79
ENDBRANCH  30  31
ENDBRANCH  23  25
ENDBRANCH  22  23
ENDBRANCH  21  22
ENDBRANCH   1  21
TORSDOF 18
ENDMDL
MODEL 2
REMARK VINA RESULT:     -10.3      4.691      6.437
REMARK SMILES Nc1nc(N)nc(N/C=C/C(=O)OCCOC(=O)c2ccc(-c3c4nc(c(-c5cc(S(=O)(=O)[O-])ccc5F)c5ccc([nH]5)c(-c5cc(S(=O)(=O)[O-])ccc5F)c5nc(c(-c6cc(S(=O)(=O)[O-])ccc6F)c6ccc3[nH]6)C=C5)C=C4)cc2)n1
REMARK SMILES IDX 14 1 13 2 11 3 12 4 10 5 9 6 8 7 7 9 2 10 3 11 82 12 4 13
REMARK SMILES IDX 6 14 1 15 5 18 15 21 16 22 17 23 18 24 19 25 20 26 81 27
REMARK SMILES IDX 21 28 80 29 22 30 23 31 24 32 74 33 25 34 79 35 73 36 75 37
REMARK SMILES IDX 26 38 78 39 72 40 71 41 27 43 59 44 39 45 58 46 40 47 43 48
REMARK SMILES IDX 57 49 76 50 41 51 42 52 56 54 77 55 44 56 28 57 29 58 37 59
REMARK SMILES IDX 30 60 36 61 38 62 35 63 31 64 32 65 33 66 34 67 60 68 61 69
REMARK SMILES IDX 69 70 62 71 68 72 70 73 67 74 63 75 64 76 65 77 66 78 45 79
REMARK SMILES IDX 46 80 54 81 47 82 53 83 55 84 52 85 48 86 49 87 50 88 51 89
REMARK H PARENT 8 8 1 16 1 17 5 19 5 20 75 42 43 53
REMARK Flexibility Score: inf
ROOT
ATOM      1  C   UNL A   1      33.358  34.237  28.420  1.00  0.00     0.275 C 
ENDROOT
BRANCH   1   2
ATOM      2  O   UNL A   1      32.583  34.710  29.537  1.00  0.00    -0.459 OA
BRANCH   2   3
ATOM      3  C   UNL A   1      32.998  35.878  30.081  1.00  0.00     0.332 C 
ATOM      4  O   UNL A   1      32.929  36.981  29.558  1.00  0.00    -0.247 OA
BRANCH   3   5
ATOM      5  C   UNL A   1      33.494  35.716  31.461  1.00  0.00     0.111 C 
ATOM      6  C   UNL A   1      34.265  34.714  31.896  1.00  0.00     0.093 C 
BRANCH   6   7
ATOM      7  N   UNL A   1      34.710  34.552  33.181  1.00  0.00    -0.330 N 
ATOM      8  H   UNL A   1      34.112  34.882  33.890  1.00  0.00     0.169 HD
BRANCH   7   9
ATOM      9  C   UNL A   1      35.904  33.977  33.607  1.00  0.00     0.233 A 
ATOM     10  C   UNL A   1      38.074  34.254  34.097  1.00  0.00     0.226 A 
ATOM     11  N   UNL A   1      38.271  32.956  34.251  1.00  0.00    -0.177 NA
ATOM     12  N   UNL A   1      36.921  34.815  33.772  1.00  0.00    -0.177 NA
ATOM     13  C   UNL A   1      37.197  32.209  34.069  1.00  0.00     0.226 A 
ATOM     14  N   UNL A   1      35.997  32.660  33.754  1.00  0.00    -0.177 NA
BRANCH  10  15
ATOM     15  N   UNL A   1      39.146  35.082  34.271  1.00  0.00    -0.368 N 
ATOM     16  H   UNL A   1      40.053  34.705  34.341  1.00  0.00     0.159 HD
ATOM     17  H   UNL A   1      39.012  36.056  34.327  1.00  0.00     0.159 HD
ENDBRANCH  10  15
BRANCH  13  18
ATOM     18  N   UNL A   1      37.339  30.855  34.194  1.00  0.00    -0.368 N 
ATOM     19  H   UNL A   1      37.823  30.346  33.505  1.00  0.00     0.159 HD
ATOM     20  H   UNL A   1      36.958  30.389  34.973  1.00  0.00     0.159 HD
ENDBRANCH  13  18
ENDBRANCH   7   9
ENDBRANCH   6   7
ENDBRANCH   3   5
ENDBRANCH   2   3
ENDBRANCH   1   2
BRANCH   1  21
ATOM     21  C   UNL A   1      34.212  33.021  28.796  1.00  0.00     0.275 C 
BRANCH  21  22
ATOM     22  O   UNL A   1      34.644  32.280  27.639  1.00  0.00    -0.458 OA
BRANCH  22  23
ATOM     23  C   UNL A   1      34.504  30.935  27.735  1.00  0.00     0.338 C 
ATOM     24  O   UNL A   1      33.512  30.283  27.455  1.00  0.00    -0.246 OA
BRANCH  23  25
ATOM     25  C   UNL A   1      35.790  30.318  28.110  1.00  0.00     0.060 A 
ATOM     26  C   UNL A   1      35.871  29.677  29.349  1.00  0.00     0.016 A 
ATOM     27  C   UNL A   1      36.919  30.416  27.291  1.00  0.00     0.016 A 
ATOM     28  C   UNL A   1      37.078  29.128  29.777  1.00  0.00     0.010 A 
ATOM     29  C   UNL A   1      38.134  29.872  27.726  1.00  0.00     0.010 A 
ATOM     30  C   UNL A   1      38.222  29.231  28.975  1.00  0.00    -0.014 A 
BRANCH  30  31
ATOM     31  C   UNL A   1      39.519  28.712  29.478  1.00  0.00     0.031 A 
ATOM     32  C   UNL A   1      40.218  29.418  30.606  1.00  0.00     0.074 A 
ATOM     33  C   UNL A   1      40.047  27.595  28.945  1.00  0.00     0.049 A 
ATOM     34  N   UNL A   1      41.371  29.152  31.163  1.00  0.00    -0.248 NA
ATOM     35  C   UNL A   1      39.524  30.581  31.180  1.00  0.00     0.031 C 
ATOM     36  C   UNL A   1      39.437  26.802  27.877  1.00  0.00     0.029 A 
ATOM     37  N   UNL A   1      41.216  26.932  29.226  1.00  0.00    -0.354 N 
ATOM     38  C   UNL A   1      41.547  30.114  32.151  1.00  0.00     0.074 A 
ATOM     39  C   UNL A   1      40.393  30.988  32.094  1.00  0.00     0.031 C 
ATOM     40  C   UNL A   1      40.237  25.762  27.593  1.00  0.00     0.029 A 
ATOM     41  C   UNL A   1      41.435  25.836  28.425  1.00  0.00     0.049 A 
ATOM     42  H   UNL A   1      41.838  27.214  29.935  1.00  0.00     0.167 HD
ATOM     43  C   UNL A   1      42.576  30.251  33.025  1.00  0.00     0.034 A 
ATOM     44  C   UNL A   1      42.495  25.005  28.351  1.00  0.00     0.034 A 
ATOM     45  C   UNL A   1      43.721  29.374  33.063  1.00  0.00     0.049 A 
ATOM     46  C   UNL A   1      43.661  25.225  29.284  1.00  0.00     0.074 A 
ATOM     47  C   UNL A   1      44.813  29.418  33.915  1.00  0.00     0.029 A 
ATOM     48  N   UNL A   1      43.932  28.301  32.208  1.00  0.00    -0.354 N 
ATOM     49  N   UNL A   1      43.816  26.141  30.212  1.00  0.00    -0.248 NA
ATOM     50  C   UNL A   1      44.793  24.296  29.161  1.00  0.00     0.031 C 
ATOM     51  C   UNL A   1      45.711  28.415  33.532  1.00  0.00     0.029 A 
ATOM     52  C   UNL A   1      45.148  27.695  32.490  1.00  0.00     0.049 A 
ATOM     53  H   UNL A   1      43.309  28.011  31.502  1.00  0.00     0.167 HD
ATOM     54  C   UNL A   1      45.049  25.878  30.802  1.00  0.00     0.074 A 
ATOM     55  C   UNL A   1      45.588  24.712  30.135  1.00  0.00     0.031 C 
ATOM     56  C   UNL A   1      45.678  26.538  31.809  1.00  0.00     0.034 A 
BRANCH  43  57
ATOM     57  C   UNL A   1      42.528  31.425  33.973  1.00  0.00     0.023 A 
ATOM     58  C   UNL A   1      41.729  31.414  35.129  1.00  0.00     0.031 A 
ATOM     59  C   UNL A   1      43.283  32.580  33.704  1.00  0.00     0.131 A 
ATOM     60  C   UNL A   1      41.658  32.558  35.941  1.00  0.00     0.055 A 
ATOM     61  C   UNL A   1      43.263  33.688  34.553  1.00  0.00     0.041 A 
ATOM     62  F   UNL A   1      44.048  32.655  32.603  1.00  0.00    -0.206 F 
ATOM     63  C   UNL A   1      42.437  33.686  35.672  1.00  0.00     0.022 A 
BRANCH  60  64
ATOM     64  S   UNL A   1      40.440  32.598  37.284  1.00  0.00     0.124 S 
ATOM     65  O   UNL A   1      39.854  33.926  37.112  1.00  0.00    -0.237 OA
ATOM     66  O   UNL A   1      39.573  31.471  36.958  1.00  0.00    -0.237 OA
ATOM     67  O   UNL A   1      41.251  32.434  38.488  1.00  0.00    -0.744 OA
ENDBRANCH  60  64
ENDBRANCH  43  57
BRANCH  44  68
ATOM     68  C   UNL A   1      42.535  23.918  27.330  1.00  0.00     0.023 A 
ATOM     69  C   UNL A   1      41.954  22.665  27.576  1.00  0.00     0.031 A 
ATOM     70  C   UNL A   1      43.212  24.104  26.111  1.00  0.00     0.131 A 
ATOM     71  C   UNL A   1      42.102  21.629  26.639  1.00  0.00     0.055 A 
ATOM     72  C   UNL A   1      43.308  23.089  25.157  1.00  0.00     0.041 A 
ATOM     73  F   UNL A   1      43.788  25.282  25.825  1.00  0.00    -0.206 F 
ATOM     74  C   UNL A   1      42.762  21.837  25.425  1.00  0.00     0.022 A 
BRANCH  71  75
ATOM     75  S   UNL A   1      41.497  19.975  27.069  1.00  0.00     0.124 S 
ATOM     76  O   UNL A   1      40.534  20.274  28.122  1.00  0.00    -0.237 OA
ATOM     77  O   UNL A   1      40.939  19.517  25.801  1.00  0.00    -0.237 OA
ATOM     78  O   UNL A   1      42.703  19.274  27.506  1.00  0.00    -0.744 OA
ENDBRANCH  71  75
ENDBRANCH  44  68
BRANCH  56  79
ATOM     79  C   UNL A   1      47.000  25.977  32.273  1.00  0.00     0.023 A 
ATOM     80  C   UNL A   1      47.086  25.072  33.345  1.00  0.00     0.031 A 
ATOM     81  C   UNL A   1      48.193  26.370  31.641  1.00  0.00     0.131 A 
ATOM     82  C   UNL A   1      48.341  24.630  33.787  1.00  0.00     0.055 A 
ATOM     83  C   UNL A   1      49.436  25.883  32.048  1.00  0.00     0.041 A 
ATOM     84  F   UNL A   1      48.169  27.233  30.612  1.00  0.00    -0.206 F 
ATOM     85  C   UNL A   1      49.516  25.018  33.136  1.00  0.00     0.022 A 
BRANCH  82  86
ATOM     86  S   UNL A   1      48.430  23.605  35.282  1.00  0.00     0.124 S 
ATOM     87  O   UNL A   1      47.973  22.309  34.790  1.00  0.00    -0.237 OA
ATOM     88  O   UNL A   1      49.843  23.691  35.635  1.00  0.00    -0.237 OA
ATOM     89  O   UNL A   1      47.519  24.273  36.211  1.00  0.00    -0.744 OA
ENDBRANCH  82  86
ENDBRANCH  56  79
ENDBRANCH  30  31
ENDBRANCH  23  25
ENDBRANCH  22  23
ENDBRANCH  21  22
ENDBRANCH   1  21
TORSDOF 18
ENDMDL
MODEL 3
REMARK VINA RESULT:     -10.3      6.403     12.009
REMARK SMILES Nc1nc(N)nc(N/C=C/C(=O)OCCOC(=O)c2ccc(-c3c4nc(c(-c5cc(S(=O)(=O)[O-])ccc5F)c5ccc([nH]5)c(-c5cc(S(=O)(=O)[O-])ccc5F)c5nc(c(-c6cc(S(=O)(=O)[O-])ccc6F)c6ccc3[nH]6)C=C5)C=C4)cc2)n1
REMARK SMILES IDX 14 1 13 2 11 3 12 4 10 5 9 6 8 7 7 9 2 10 3 11 82 12 4 13
REMARK SMILES IDX 6 14 1 15 5 18 15 21 16 22 17 23 18 24 19 25 20 26 81 27
REMARK SMILES IDX 21 28 80 29 22 30 23 31 24 32 74 33 25 34 79 35 73 36 75 37
REMARK SMILES IDX 26 38 78 39 72 40 71 41 27 43 59 44 39 45 58 46 40 47 43 48
REMARK SMILES IDX 57 49 76 50 41 51 42 52 56 54 77 55 44 56 28 57 29 58 37 59
REMARK SMILES IDX 30 60 36 61 38 62 35 63 31 64 32 65 33 66 34 67 60 68 61 69
REMARK SMILES IDX 69 70 62 71 68 72 70 73 67 74 63 75 64 76 65 77 66 78 45 79
REMARK SMILES IDX 46 80 54 81 47 82 53 83 55 84 52 85 48 86 49 87 50 88 51 89
REMARK H PARENT 8 8 1 16 1 17 5 19 5 20 75 42 43 53
REMARK Flexibility Score: inf
ROOT
ATOM      1  C   UNL A   1      42.253  19.504  26.725  1.00  0.00     0.275 C 
ENDROOT
BRANCH   1   2
ATOM      2  O   UNL A   1      42.749  18.647  25.681  1.00  0.00    -0.459 OA
BRANCH   2   3
ATOM      3  C   UNL A   1      44.078  18.730  25.440  1.00  0.00     0.332 C 
ATOM      4  O   UNL A   1      44.906  17.859  25.664  1.00  0.00    -0.247 OA
BRANCH   3   5
ATOM      5  C   UNL A   1      44.456  19.992  24.778  1.00  0.00     0.111 C 
ATOM      6  C   UNL A   1      45.689  20.508  24.734  1.00  0.00     0.093 C 
BRANCH   6   7
ATOM      7  N   UNL A   1      46.038  21.689  24.136  1.00  0.00    -0.330 N 
ATOM      8  H   UNL A   1      46.675  21.623  23.388  1.00  0.00     0.169 HD
BRANCH   7   9
ATOM      9  C   UNL A   1      45.600  22.972  24.454  1.00  0.00     0.233 A 
ATOM     10  C   UNL A   1      46.129  25.044  25.126  1.00  0.00     0.226 A 
ATOM     11  N   UNL A   1      44.861  25.400  25.240  1.00  0.00    -0.177 NA
ATOM     12  N   UNL A   1      46.552  23.851  24.745  1.00  0.00    -0.177 NA
ATOM     13  C   UNL A   1      43.992  24.457  24.923  1.00  0.00     0.226 A 
ATOM     14  N   UNL A   1      44.300  23.237  24.522  1.00  0.00    -0.177 NA
BRANCH  10  15
ATOM     15  N   UNL A   1      47.078  25.975  25.440  1.00  0.00    -0.368 N 
ATOM     16  H   UNL A   1      46.811  26.897  25.657  1.00  0.00     0.159 HD
ATOM     17  H   UNL A   1      48.030  25.723  25.450  1.00  0.00     0.159 HD
ENDBRANCH  10  15
BRANCH  13  18
ATOM     18  N   UNL A   1      42.663  24.756  25.040  1.00  0.00    -0.368 N 
ATOM     19  H   UNL A   1      42.027  24.064  25.330  1.00  0.00     0.159 HD
ATOM     20  H   UNL A   1      42.342  25.664  24.834  1.00  0.00     0.159 HD
ENDBRANCH  13  18
ENDBRANCH   7   9
ENDBRANCH   6   7
ENDBRANCH   3   5
ENDBRANCH   2   3
ENDBRANCH   1   2
BRANCH   1  21
ATOM     21  C   UNL A   1      40.791  19.900  26.489  1.00  0.00     0.275 C 
BRANCH  21  22
ATOM     22  O   UNL A   1      40.394  21.025  27.296  1.00  0.00    -0.458 OA
BRANCH  22  23
ATOM     23  C   UNL A   1      39.751  22.013  26.624  1.00  0.00     0.338 C 
ATOM     24  O   UNL A   1      38.924  21.874  25.739  1.00  0.00    -0.246 OA
BRANCH  23  25
ATOM     25  C   UNL A   1      40.090  23.325  27.208  1.00  0.00     0.060 A 
ATOM     26  C   UNL A   1      39.428  24.451  26.711  1.00  0.00     0.016 A 
ATOM     27  C   UNL A   1      41.084  23.462  28.181  1.00  0.00     0.016 A 
ATOM     28  C   UNL A   1      39.751  25.720  27.186  1.00  0.00     0.010 A 
ATOM     29  C   UNL A   1      41.415  24.739  28.650  1.00  0.00     0.010 A 
ATOM     30  C   UNL A   1      40.756  25.877  28.151  1.00  0.00    -0.014 A 
BRANCH  30  31
ATOM     31  C   UNL A   1      41.145  27.240  28.588  1.00  0.00     0.031 A 
ATOM     32  C   UNL A   1      42.599  27.609  28.676  1.00  0.00     0.074 A 
ATOM     33  C   UNL A   1      40.195  28.151  28.874  1.00  0.00     0.049 A 
ATOM     34  N   UNL A   1      43.149  28.728  29.072  1.00  0.00    -0.248 NA
ATOM     35  C   UNL A   1      43.562  26.577  28.264  1.00  0.00     0.031 C 
ATOM     36  C   UNL A   1      38.753  27.918  28.782  1.00  0.00     0.029 A 
ATOM     37  N   UNL A   1      40.298  29.451  29.300  1.00  0.00    -0.354 N 
ATOM     38  C   UNL A   1      44.521  28.538  28.962  1.00  0.00     0.074 A 
ATOM     39  C   UNL A   1      44.719  27.182  28.491  1.00  0.00     0.031 C 
ATOM     40  C   UNL A   1      38.107  29.039  29.142  1.00  0.00     0.029 A 
ATOM     41  C   UNL A   1      39.084  30.054  29.532  1.00  0.00     0.049 A 
ATOM     42  H   UNL A   1      41.159  29.910  29.426  1.00  0.00     0.167 HD
ATOM     43  C   UNL A   1      45.522  29.415  29.228  1.00  0.00     0.034 A 
ATOM     44  C   UNL A   1      38.792  31.273  30.029  1.00  0.00     0.034 A 
ATOM     45  C   UNL A   1      45.307  30.760  29.703  1.00  0.00     0.049 A 
ATOM     46  C   UNL A   1      39.926  32.203  30.389  1.00  0.00     0.074 A 
ATOM     47  C   UNL A   1      46.248  31.734  29.994  1.00  0.00     0.029 A 
ATOM     48  N   UNL A   1      44.065  31.323  29.970  1.00  0.00    -0.354 N 
ATOM     49  N   UNL A   1      41.220  32.009  30.283  1.00  0.00    -0.248 NA
ATOM     50  C   UNL A   1      39.558  33.518  30.931  1.00  0.00     0.031 C 
ATOM     51  C   UNL A   1      45.581  32.857  30.496  1.00  0.00     0.029 A 
ATOM     52  C   UNL A   1      44.218  32.616  30.450  1.00  0.00     0.049 A 
ATOM     53  H   UNL A   1      43.201  30.869  29.838  1.00  0.00     0.167 HD
ATOM     54  C   UNL A   1      41.818  33.189  30.718  1.00  0.00     0.074 A 
ATOM     55  C   UNL A   1      40.743  34.091  31.073  1.00  0.00     0.031 C 
ATOM     56  C   UNL A   1      43.136  33.501  30.810  1.00  0.00     0.034 A 
BRANCH  43  57
ATOM     57  C   UNL A   1      46.938  28.922  29.061  1.00  0.00     0.023 A 
ATOM     58  C   UNL A   1      47.663  29.134  27.875  1.00  0.00     0.031 A 
ATOM     59  C   UNL A   1      47.567  28.214  30.100  1.00  0.00     0.131 A 
ATOM     60  C   UNL A   1      48.951  28.592  27.736  1.00  0.00     0.055 A 
ATOM     61  C   UNL A   1      48.874  27.738  29.982  1.00  0.00     0.041 A 
ATOM     62  F   UNL A   1      46.916  27.964  31.247  1.00  0.00    -0.206 F 
ATOM     63  C   UNL A   1      49.570  27.915  28.790  1.00  0.00     0.022 A 
BRANCH  60  64
ATOM     64  S   UNL A   1      49.761  28.675  26.115  1.00  0.00     0.124 S 
ATOM     65  O   UNL A   1      50.817  27.676  26.260  1.00  0.00    -0.237 OA
ATOM     66  O   UNL A   1      48.677  28.330  25.203  1.00  0.00    -0.237 OA
ATOM     67  O   UNL A   1      50.227  30.057  26.036  1.00  0.00    -0.744 OA
ENDBRANCH  60  64
ENDBRANCH  43  57
BRANCH  44  68
ATOM     68  C   UNL A   1      37.376  31.676  30.267  1.00  0.00     0.023 A 
ATOM     69  C   UNL A   1      36.615  32.291  29.262  1.00  0.00     0.031 A 
ATOM     70  C   UNL A   1      36.784  31.502  31.531  1.00  0.00     0.131 A 
ATOM     71  C   UNL A   1      35.320  32.755  29.550  1.00  0.00     0.055 A 
ATOM     72  C   UNL A   1      35.476  31.914  31.797  1.00  0.00     0.041 A 
ATOM     73  F   UNL A   1      37.469  30.922  32.529  1.00  0.00    -0.206 F 
ATOM     74  C   UNL A   1      34.742  32.558  30.806  1.00  0.00     0.022 A 
BRANCH  71  75
ATOM     75  S   UNL A   1      34.435  33.704  28.284  1.00  0.00     0.124 S 
ATOM     76  O   UNL A   1      35.496  33.980  27.322  1.00  0.00    -0.237 OA
ATOM     77  O   UNL A   1      33.411  32.757  27.855  1.00  0.00    -0.237 OA
ATOM     78  O   UNL A   1      33.938  34.867  29.016  1.00  0.00    -0.744 OA
ENDBRANCH  71  75
ENDBRANCH  44  68
BRANCH  56  79
ATOM     79  C   UNL A   1      43.478  34.896  31.274  1.00  0.00     0.023 A 
ATOM     80  C   UNL A   1      43.628  35.962  30.370  1.00  0.00     0.031 A 
ATOM     81  C   UNL A   1      43.671  35.156  32.642  1.00  0.00     0.131 A 
ATOM     82  C   UNL A   1      44.013  37.226  30.839  1.00  0.00     0.055 A 
ATOM     83  C   UNL A   1      44.000  36.429  33.109  1.00  0.00     0.041 A 
ATOM     84  F   UNL A   1      43.541  34.174  33.550  1.00  0.00    -0.206 F 
ATOM     85  C   UNL A   1      44.185  37.471  32.204  1.00  0.00     0.022 A 
BRANCH  82  86
ATOM     86  S   UNL A   1      44.371  38.533  29.633  1.00  0.00     0.124 S 
ATOM     87  O   UNL A   1      44.925  37.774  28.516  1.00  0.00    -0.237 OA
ATOM     88  O   UNL A   1      43.056  39.124  29.412  1.00  0.00    -0.237 OA
ATOM     89  O   UNL A   1      45.326  39.394  30.331  1.00  0.00    -0.744 OA
ENDBRANCH  82  86
ENDBRANCH  56  79
ENDBRANCH  30  31
ENDBRANCH  23  25
ENDBRANCH  22  23
ENDBRANCH  21  22
ENDBRANCH   1  21
TORSDOF 18
ENDMDL
