MODEL 1
REMARK VINA RESULT:     -12.2      0.000      0.000
REMARK SMILES CC1(C)[C@H](C(=O)Nc2ccc(NC(=O)C[NH+]3CCCCC3)cc2)[C@@H]1C(=O)OCCOC(=O)c1ccc(-c2c3nc(c(-c4cc(S(=O)(=O)[O-])ccc4F)c4ccc([nH]4)c(-c4cc(S(=O)(=O)[O-])ccc4F)c4nc(c(-c5cc(S(=O)(=O)[O-])ccc5F)c5ccc2[nH]5)C=C4)C=C3)cc1
REMARK SMILES IDX 28 1 27 2 25 3 26 4 24 5 1 6 2 7 3 8 4 9 5 10 6 11 7 12 8 14
REMARK SMILES IDX 9 15 23 16 10 17 22 18 11 19 12 20 13 21 14 23 15 24 16 25
REMARK SMILES IDX 17 26 21 27 18 29 20 30 19 31 29 32 30 33 31 34 32 35 33 36
REMARK SMILES IDX 34 37 95 38 35 39 94 40 36 41 37 42 38 43 88 44 39 45 93 46
REMARK SMILES IDX 87 47 89 48 40 49 92 50 86 51 85 52 41 54 73 55 53 56 72 57
REMARK SMILES IDX 54 58 57 59 71 60 90 61 55 62 56 63 70 65 91 66 58 67 42 68
REMARK SMILES IDX 43 69 51 70 44 71 50 72 52 73 49 74 45 75 46 76 47 77 48 78
REMARK SMILES IDX 74 79 75 80 83 81 76 82 82 83 84 84 81 85 77 86 78 87 79 88
REMARK SMILES IDX 80 89 59 90 60 91 68 92 61 93 67 94 69 95 66 96 62 97 63 98
REMARK SMILES IDX 64 99 65 100
REMARK H PARENT 7 13 12 22 16 28 89 53 57 64
REMARK Flexibility Score: inf
ROOT
ATOM      1  C   UNL A   1      37.031  20.285  24.687  1.00  0.00     0.274 C 
ENDROOT
BRANCH   1   2
ATOM      2  O   UNL A   1      36.592  21.121  25.778  1.00  0.00    -0.462 OA
BRANCH   2   3
ATOM      3  C   UNL A   1      35.248  21.344  25.851  1.00  0.00     0.310 C 
ATOM      4  O   UNL A   1      34.621  21.489  26.897  1.00  0.00    -0.252 OA
BRANCH   3   5
ATOM      5  C   UNL A   1      34.654  21.610  24.524  1.00  0.00     0.118 C 
ATOM      6  C   UNL A   1      34.577  23.320  22.543  1.00  0.00     0.013 C 
ATOM      7  C   UNL A   1      34.268  23.010  23.999  1.00  0.00    -0.009 C 
ATOM      8  C   UNL A   1      34.393  24.251  24.834  1.00  0.00     0.013 C 
ATOM      9  C   UNL A   1      33.220  21.933  24.221  1.00  0.00     0.100 C 
BRANCH   9  10
ATOM     10  C   UNL A   1      32.024  21.792  25.104  1.00  0.00     0.228 C 
ATOM     11  O   UNL A   1      31.896  20.707  25.678  1.00  0.00    -0.274 OA
ATOM     12  N   UNL A   1      31.254  22.819  25.583  1.00  0.00    -0.326 N 
ATOM     13  H   UNL A   1      31.024  22.739  26.537  1.00  0.00     0.169 HD
BRANCH  12  14
ATOM     14  C   UNL A   1      30.741  23.949  24.965  1.00  0.00     0.041 A 
ATOM     15  C   UNL A   1      30.269  24.955  25.788  1.00  0.00     0.028 A 
ATOM     16  C   UNL A   1      30.677  24.101  23.589  1.00  0.00     0.028 A 
ATOM     17  C   UNL A   1      30.005  26.207  25.236  1.00  0.00     0.028 A 
ATOM     18  C   UNL A   1      30.341  25.346  23.037  1.00  0.00     0.028 A 
ATOM     19  C   UNL A   1      30.048  26.433  23.864  1.00  0.00     0.041 A 
BRANCH  19  20
ATOM     20  N   UNL A   1      29.893  27.696  23.263  1.00  0.00    -0.321 N 
ATOM     21  C   UNL A   1      30.789  28.626  22.801  1.00  0.00     0.279 C 
ATOM     22  H   UNL A   1      28.954  27.967  23.153  1.00  0.00     0.170 HD
ATOM     23  O   UNL A   1      30.348  29.585  22.155  1.00  0.00    -0.268 OA
BRANCH  21  24
ATOM     24  C   UNL A   1      32.299  28.537  23.081  1.00  0.00     0.363 C 
BRANCH  24  25
ATOM     25  N   UNL A   1      32.590  28.938  24.462  1.00  0.00    -0.327 N 
ATOM     26  C   UNL A   1      31.502  29.626  25.147  1.00  0.00     0.262 C 
ATOM     27  C   UNL A   1      33.168  27.871  25.273  1.00  0.00     0.262 C 
ATOM     28  H   UNL A   1      33.315  29.647  24.350  1.00  0.00     0.348 HD
ATOM     29  C   UNL A   1      32.089  30.337  26.370  1.00  0.00     0.062 C 
ATOM     30  C   UNL A   1      33.773  28.468  26.544  1.00  0.00     0.062 C 
ATOM     31  C   UNL A   1      32.774  29.342  27.302  1.00  0.00     0.012 C 
ENDBRANCH  24  25
ENDBRANCH  21  24
ENDBRANCH  19  20
ENDBRANCH  12  14
ENDBRANCH   9  10
ENDBRANCH   3   5
ENDBRANCH   2   3
ENDBRANCH   1   2
BRANCH   1  32
ATOM     32  C   UNL A   1      38.354  19.558  24.950  1.00  0.00     0.275 C 
BRANCH  32  33
ATOM     33  O   UNL A   1      38.864  19.830  26.267  1.00  0.00    -0.458 OA
BRANCH  33  34
ATOM     34  C   UNL A   1      40.199  20.052  26.306  1.00  0.00     0.338 C 
ATOM     35  O   UNL A   1      41.065  19.335  25.831  1.00  0.00    -0.246 OA
BRANCH  34  36
ATOM     36  C   UNL A   1      40.488  21.386  26.859  1.00  0.00     0.060 A 
ATOM     37  C   UNL A   1      39.951  22.486  26.182  1.00  0.00     0.016 A 
ATOM     38  C   UNL A   1      41.335  21.573  27.951  1.00  0.00     0.016 A 
ATOM     39  C   UNL A   1      40.281  23.777  26.564  1.00  0.00     0.010 A 
ATOM     40  C   UNL A   1      41.676  22.876  28.332  1.00  0.00     0.010 A 
ATOM     41  C   UNL A   1      41.174  23.981  27.620  1.00  0.00    -0.014 A 
BRANCH  41  42
ATOM     42  C   UNL A   1      41.670  25.353  27.871  1.00  0.00     0.031 A 
ATOM     43  C   UNL A   1      43.036  25.738  27.376  1.00  0.00     0.074 A 
ATOM     44  C   UNL A   1      40.872  26.261  28.461  1.00  0.00     0.049 A 
ATOM     45  N   UNL A   1      43.672  26.873  27.496  1.00  0.00    -0.248 NA
ATOM     46  C   UNL A   1      43.782  24.700  26.648  1.00  0.00     0.031 C 
ATOM     47  C   UNL A   1      39.504  26.009  28.915  1.00  0.00     0.029 A 
ATOM     48  N   UNL A   1      41.092  27.578  28.771  1.00  0.00    -0.354 N 
ATOM     49  C   UNL A   1      44.900  26.685  26.870  1.00  0.00     0.074 A 
ATOM     50  C   UNL A   1      44.930  25.315  26.404  1.00  0.00     0.031 C 
ATOM     51  C   UNL A   1      39.006  27.139  29.445  1.00  0.00     0.029 A 
ATOM     52  C   UNL A   1      40.034  28.175  29.414  1.00  0.00     0.049 A 
ATOM     53  H   UNL A   1      41.928  28.051  28.555  1.00  0.00     0.167 HD
ATOM     54  C   UNL A   1      45.904  27.580  26.696  1.00  0.00     0.034 A 
ATOM     55  C   UNL A   1      39.921  29.410  29.943  1.00  0.00     0.034 A 
ATOM     56  C   UNL A   1      45.851  28.940  27.176  1.00  0.00     0.049 A 
ATOM     57  C   UNL A   1      41.089  30.360  29.818  1.00  0.00     0.074 A 
ATOM     58  C   UNL A   1      46.806  29.935  27.058  1.00  0.00     0.029 A 
ATOM     59  N   UNL A   1      44.786  29.497  27.877  1.00  0.00    -0.354 N 
ATOM     60  N   UNL A   1      42.251  30.170  29.236  1.00  0.00    -0.248 NA
ATOM     61  C   UNL A   1      40.924  31.691  30.412  1.00  0.00     0.031 C 
ATOM     62  C   UNL A   1      46.356  31.061  27.756  1.00  0.00     0.029 A 
ATOM     63  C   UNL A   1      45.078  30.807  28.227  1.00  0.00     0.049 A 
ATOM     64  H   UNL A   1      43.949  29.028  28.095  1.00  0.00     0.167 HD
ATOM     65  C   UNL A   1      42.941  31.373  29.362  1.00  0.00     0.074 A 
ATOM     66  C   UNL A   1      42.056  32.283  30.063  1.00  0.00     0.031 C 
ATOM     67  C   UNL A   1      44.187  31.700  28.934  1.00  0.00     0.034 A 
BRANCH  54  68
ATOM     68  C   UNL A   1      47.161  27.092  26.015  1.00  0.00     0.023 A 
ATOM     69  C   UNL A   1      48.150  26.367  26.703  1.00  0.00     0.031 A 
ATOM     70  C   UNL A   1      47.389  27.387  24.658  1.00  0.00     0.131 A 
ATOM     71  C   UNL A   1      49.348  26.025  26.055  1.00  0.00     0.055 A 
ATOM     72  C   UNL A   1      48.545  26.970  23.997  1.00  0.00     0.041 A 
ATOM     73  F   UNL A   1      46.495  28.099  23.955  1.00  0.00    -0.206 F 
ATOM     74  C   UNL A   1      49.540  26.298  24.699  1.00  0.00     0.022 A 
BRANCH  71  75
ATOM     75  S   UNL A   1      50.711  25.354  27.045  1.00  0.00     0.124 S 
ATOM     76  O   UNL A   1      51.628  24.887  26.008  1.00  0.00    -0.237 OA
ATOM     77  O   UNL A   1      51.148  26.516  27.809  1.00  0.00    -0.237 OA
ATOM     78  O   UNL A   1      50.078  24.294  27.828  1.00  0.00    -0.744 OA
ENDBRANCH  71  75
ENDBRANCH  54  68
BRANCH  55  79
ATOM     79  C   UNL A   1      38.684  29.810  30.673  1.00  0.00     0.023 A 
ATOM     80  C   UNL A   1      37.694  30.590  30.057  1.00  0.00     0.031 A 
ATOM     81  C   UNL A   1      38.499  29.457  32.023  1.00  0.00     0.131 A 
ATOM     82  C   UNL A   1      36.589  31.034  30.802  1.00  0.00     0.055 A 
ATOM     83  C   UNL A   1      37.369  29.849  32.742  1.00  0.00     0.041 A 
ATOM     84  F   UNL A   1      39.417  28.716  32.664  1.00  0.00    -0.206 F 
ATOM     85  C   UNL A   1      36.412  30.656  32.135  1.00  0.00     0.022 A 
BRANCH  82  86
ATOM     86  S   UNL A   1      35.432  32.198  30.029  1.00  0.00     0.124 S 
ATOM     87  O   UNL A   1      34.445  32.381  31.087  1.00  0.00    -0.237 OA
ATOM     88  O   UNL A   1      36.294  33.341  29.751  1.00  0.00    -0.237 OA
ATOM     89  O   UNL A   1      34.958  31.475  28.851  1.00  0.00    -0.744 OA
ENDBRANCH  82  86
ENDBRANCH  55  79
BRANCH  67  90
ATOM     90  C   UNL A   1      44.641  33.124  29.161  1.00  0.00     0.023 A 
ATOM     91  C   UNL A   1      44.254  34.174  28.310  1.00  0.00     0.031 A 
ATOM     92  C   UNL A   1      45.491  33.429  30.240  1.00  0.00     0.131 A 
ATOM     93  C   UNL A   1      44.769  35.464  28.513  1.00  0.00     0.055 A 
ATOM     94  C   UNL A   1      45.941  34.727  30.479  1.00  0.00     0.041 A 
ATOM     95  F   UNL A   1      45.896  32.466  31.084  1.00  0.00    -0.206 F 
ATOM     96  C   UNL A   1      45.593  35.751  29.604  1.00  0.00     0.022 A 
BRANCH  93  97
ATOM     97  S   UNL A   1      44.440  36.740  27.266  1.00  0.00     0.124 S 
ATOM     98  O   UNL A   1      45.744  36.883  26.626  1.00  0.00    -0.237 OA
ATOM     99  O   UNL A   1      43.396  36.121  26.455  1.00  0.00    -0.237 OA
ATOM    100  O   UNL A   1      44.008  37.890  28.058  1.00  0.00    -0.744 OA
ENDBRANCH  93  97
ENDBRANCH  67  90
ENDBRANCH  41  42
ENDBRANCH  34  36
ENDBRANCH  33  34
ENDBRANCH  32  33
ENDBRANCH   1  32
TORSDOF 19
ENDMDL
MODEL 2
REMARK VINA RESULT:     -11.6      4.818     10.574
REMARK SMILES CC1(C)[C@H](C(=O)Nc2ccc(NC(=O)C[NH+]3CCCCC3)cc2)[C@@H]1C(=O)OCCOC(=O)c1ccc(-c2c3nc(c(-c4cc(S(=O)(=O)[O-])ccc4F)c4ccc([nH]4)c(-c4cc(S(=O)(=O)[O-])ccc4F)c4nc(c(-c5cc(S(=O)(=O)[O-])ccc5F)c5ccc2[nH]5)C=C4)C=C3)cc1
REMARK SMILES IDX 28 1 27 2 25 3 26 4 24 5 1 6 2 7 3 8 4 9 5 10 6 11 7 12 8 14
REMARK SMILES IDX 9 15 23 16 10 17 22 18 11 19 12 20 13 21 14 23 15 24 16 25
REMARK SMILES IDX 17 26 21 27 18 29 20 30 19 31 29 32 30 33 31 34 32 35 33 36
REMARK SMILES IDX 34 37 95 38 35 39 94 40 36 41 37 42 38 43 88 44 39 45 93 46
REMARK SMILES IDX 87 47 89 48 40 49 92 50 86 51 85 52 41 54 73 55 53 56 72 57
REMARK SMILES IDX 54 58 57 59 71 60 90 61 55 62 56 63 70 65 91 66 58 67 42 68
REMARK SMILES IDX 43 69 51 70 44 71 50 72 52 73 49 74 45 75 46 76 47 77 48 78
REMARK SMILES IDX 74 79 75 80 83 81 76 82 82 83 84 84 81 85 77 86 78 87 79 88
REMARK SMILES IDX 80 89 59 90 60 91 68 92 61 93 67 94 69 95 66 96 62 97 63 98
REMARK SMILES IDX 64 99 65 100
REMARK H PARENT 7 13 12 22 16 28 89 53 57 64
REMARK Flexibility Score: inf
ROOT
ATOM      1  C   UNL A   1      31.529  29.927  25.429  1.00  0.00     0.274 C 
ENDROOT
BRANCH   1   2
ATOM      2  O   UNL A   1      31.386  29.608  24.029  1.00  0.00    -0.462 OA
BRANCH   2   3
ATOM      3  C   UNL A   1      30.158  29.153  23.646  1.00  0.00     0.310 C 
ATOM      4  O   UNL A   1      29.143  29.842  23.596  1.00  0.00    -0.252 OA
BRANCH   3   5
ATOM      5  C   UNL A   1      30.221  27.785  23.087  1.00  0.00     0.118 C 
ATOM      6  C   UNL A   1      29.611  25.281  23.546  1.00  0.00     0.013 C 
ATOM      7  C   UNL A   1      30.432  26.505  23.924  1.00  0.00    -0.009 C 
ATOM      8  C   UNL A   1      30.670  26.535  25.405  1.00  0.00     0.013 C 
ATOM      9  C   UNL A   1      31.449  26.945  22.886  1.00  0.00     0.100 C 
BRANCH   9  10
ATOM     10  C   UNL A   1      32.883  27.361  22.925  1.00  0.00     0.228 C 
ATOM     11  O   UNL A   1      33.153  28.435  22.382  1.00  0.00    -0.274 OA
ATOM     12  N   UNL A   1      33.844  26.850  23.755  1.00  0.00    -0.326 N 
ATOM     13  H   UNL A   1      34.424  27.530  24.168  1.00  0.00     0.169 HD
BRANCH  12  14
ATOM     14  C   UNL A   1      34.149  25.546  24.116  1.00  0.00     0.041 A 
ATOM     15  C   UNL A   1      34.105  24.590  23.119  1.00  0.00     0.028 A 
ATOM     16  C   UNL A   1      34.479  25.173  25.410  1.00  0.00     0.028 A 
ATOM     17  C   UNL A   1      34.663  23.337  23.362  1.00  0.00     0.028 A 
ATOM     18  C   UNL A   1      34.975  23.885  25.662  1.00  0.00     0.028 A 
ATOM     19  C   UNL A   1      35.120  22.964  24.621  1.00  0.00     0.041 A 
BRANCH  19  20
ATOM     20  N   UNL A   1      35.785  21.756  24.898  1.00  0.00    -0.321 N 
ATOM     21  C   UNL A   1      35.374  20.447  24.917  1.00  0.00     0.279 C 
ATOM     22  H   UNL A   1      36.736  21.872  25.123  1.00  0.00     0.170 HD
ATOM     23  O   UNL A   1      36.240  19.570  25.030  1.00  0.00    -0.268 OA
BRANCH  21  24
ATOM     24  C   UNL A   1      33.893  20.039  24.838  1.00  0.00     0.363 C 
BRANCH  24  25
ATOM     25  N   UNL A   1      33.763  18.577  24.840  1.00  0.00    -0.327 N 
ATOM     26  C   UNL A   1      32.757  18.048  25.754  1.00  0.00     0.262 C 
ATOM     27  C   UNL A   1      33.657  17.997  23.504  1.00  0.00     0.262 C 
ATOM     28  H   UNL A   1      34.654  18.265  25.225  1.00  0.00     0.348 HD
ATOM     29  C   UNL A   1      33.038  16.556  25.951  1.00  0.00     0.062 C 
ATOM     30  C   UNL A   1      33.902  16.490  23.584  1.00  0.00     0.062 C 
ATOM     31  C   UNL A   1      33.004  15.814  24.619  1.00  0.00     0.012 C 
ENDBRANCH  24  25
ENDBRANCH  21  24
ENDBRANCH  19  20
ENDBRANCH  12  14
ENDBRANCH   9  10
ENDBRANCH   3   5
ENDBRANCH   2   3
ENDBRANCH   1   2
BRANCH   1  32
ATOM     32  C   UNL A   1      32.982  29.991  25.911  1.00  0.00     0.275 C 
BRANCH  32  33
ATOM     33  O   UNL A   1      33.072  30.335  27.304  1.00  0.00    -0.458 OA
BRANCH  33  34
ATOM     34  C   UNL A   1      33.807  31.446  27.551  1.00  0.00     0.338 C 
ATOM     35  O   UNL A   1      33.409  32.599  27.511  1.00  0.00    -0.246 OA
BRANCH  34  36
ATOM     36  C   UNL A   1      35.143  31.083  28.053  1.00  0.00     0.060 A 
ATOM     37  C   UNL A   1      35.317  29.775  28.516  1.00  0.00     0.016 A 
ATOM     38  C   UNL A   1      36.177  32.013  28.160  1.00  0.00     0.016 A 
ATOM     39  C   UNL A   1      36.505  29.394  29.120  1.00  0.00     0.010 A 
ATOM     40  C   UNL A   1      37.373  31.632  28.778  1.00  0.00     0.010 A 
ATOM     41  C   UNL A   1      37.529  30.330  29.287  1.00  0.00    -0.014 A 
BRANCH  41  42
ATOM     42  C   UNL A   1      38.698  29.958  30.117  1.00  0.00     0.031 A 
ATOM     43  C   UNL A   1      38.808  30.508  31.511  1.00  0.00     0.074 A 
ATOM     44  C   UNL A   1      39.600  29.074  29.653  1.00  0.00     0.049 A 
ATOM     45  N   UNL A   1      39.746  30.328  32.402  1.00  0.00    -0.248 NA
ATOM     46  C   UNL A   1      37.710  31.380  31.957  1.00  0.00     0.031 C 
ATOM     47  C   UNL A   1      39.546  28.427  28.341  1.00  0.00     0.029 A 
ATOM     48  N   UNL A   1      40.730  28.563  30.235  1.00  0.00    -0.354 N 
ATOM     49  C   UNL A   1      39.362  31.072  33.512  1.00  0.00     0.074 A 
ATOM     50  C   UNL A   1      38.122  31.735  33.166  1.00  0.00     0.031 C 
ATOM     51  C   UNL A   1      40.598  27.602  28.220  1.00  0.00     0.029 A 
ATOM     52  C   UNL A   1      41.425  27.700  29.420  1.00  0.00     0.049 A 
ATOM     53  H   UNL A   1      41.018  28.791  31.148  1.00  0.00     0.167 HD
ATOM     54  C   UNL A   1      39.986  31.184  34.711  1.00  0.00     0.034 A 
ATOM     55  C   UNL A   1      42.608  27.084  29.612  1.00  0.00     0.034 A 
ATOM     56  C   UNL A   1      41.226  30.517  35.028  1.00  0.00     0.049 A 
ATOM     57  C   UNL A   1      43.331  27.297  30.921  1.00  0.00     0.074 A 
ATOM     58  C   UNL A   1      41.949  30.556  36.208  1.00  0.00     0.029 A 
ATOM     59  N   UNL A   1      41.935  29.697  34.158  1.00  0.00    -0.354 N 
ATOM     60  N   UNL A   1      42.967  28.014  31.960  1.00  0.00    -0.248 NA
ATOM     61  C   UNL A   1      44.618  26.611  31.085  1.00  0.00     0.031 C 
ATOM     62  C   UNL A   1      43.131  29.829  36.023  1.00  0.00     0.029 A 
ATOM     63  C   UNL A   1      43.102  29.254  34.762  1.00  0.00     0.049 A 
ATOM     64  H   UNL A   1      41.651  29.465  33.244  1.00  0.00     0.167 HD
ATOM     65  C   UNL A   1      43.963  27.833  32.915  1.00  0.00     0.074 A 
ATOM     66  C   UNL A   1      44.934  26.929  32.331  1.00  0.00     0.031 C 
ATOM     67  C   UNL A   1      44.066  28.358  34.163  1.00  0.00     0.034 A 
BRANCH  54  68
ATOM     68  C   UNL A   1      39.368  32.108  35.734  1.00  0.00     0.023 A 
ATOM     69  C   UNL A   1      39.762  33.452  35.862  1.00  0.00     0.031 A 
ATOM     70  C   UNL A   1      38.388  31.624  36.620  1.00  0.00     0.131 A 
ATOM     71  C   UNL A   1      39.233  34.242  36.894  1.00  0.00     0.055 A 
ATOM     72  C   UNL A   1      37.805  32.440  37.591  1.00  0.00     0.041 A 
ATOM     73  F   UNL A   1      37.990  30.344  36.566  1.00  0.00    -0.206 F 
ATOM     74  C   UNL A   1      38.238  33.754  37.743  1.00  0.00     0.022 A 
BRANCH  71  75
ATOM     75  S   UNL A   1      39.974  35.868  37.210  1.00  0.00     0.124 S 
ATOM     76  O   UNL A   1      39.648  36.585  35.980  1.00  0.00    -0.237 OA
ATOM     77  O   UNL A   1      39.273  36.306  38.411  1.00  0.00    -0.237 OA
ATOM     78  O   UNL A   1      41.393  35.570  37.390  1.00  0.00    -0.744 OA
ENDBRANCH  71  75
ENDBRANCH  54  68
BRANCH  55  79
ATOM     79  C   UNL A   1      43.208  26.246  28.534  1.00  0.00     0.023 A 
ATOM     80  C   UNL A   1      44.217  26.746  27.698  1.00  0.00     0.031 A 
ATOM     81  C   UNL A   1      42.738  24.941  28.292  1.00  0.00     0.131 A 
ATOM     82  C   UNL A   1      44.690  25.966  26.630  1.00  0.00     0.055 A 
ATOM     83  C   UNL A   1      43.255  24.148  27.267  1.00  0.00     0.041 A 
ATOM     84  F   UNL A   1      41.770  24.413  29.057  1.00  0.00    -0.206 F 
ATOM     85  C   UNL A   1      44.227  24.666  26.418  1.00  0.00     0.022 A 
BRANCH  82  86
ATOM     86  S   UNL A   1      45.852  26.717  25.456  1.00  0.00     0.124 S 
ATOM     87  O   UNL A   1      46.100  25.612  24.536  1.00  0.00    -0.237 OA
ATOM     88  O   UNL A   1      45.073  27.830  24.927  1.00  0.00    -0.237 OA
ATOM     89  O   UNL A   1      46.987  27.095  26.296  1.00  0.00    -0.744 OA
ENDBRANCH  82  86
ENDBRANCH  55  79
BRANCH  67  90
ATOM     90  C   UNL A   1      45.244  27.916  35.001  1.00  0.00     0.023 A 
ATOM     91  C   UNL A   1      45.183  26.787  35.836  1.00  0.00     0.031 A 
ATOM     92  C   UNL A   1      46.443  28.652  34.974  1.00  0.00     0.131 A 
ATOM     93  C   UNL A   1      46.275  26.466  36.658  1.00  0.00     0.055 A 
ATOM     94  C   UNL A   1      47.550  28.286  35.740  1.00  0.00     0.041 A 
ATOM     95  F   UNL A   1      46.558  29.743  34.199  1.00  0.00    -0.206 F 
ATOM     96  C   UNL A   1      47.464  27.196  36.600  1.00  0.00     0.022 A 
BRANCH  93  97
ATOM     97  S   UNL A   1      46.079  25.149  37.890  1.00  0.00     0.124 S 
ATOM     98  O   UNL A   1      47.449  24.962  38.355  1.00  0.00    -0.237 OA
ATOM     99  O   UNL A   1      45.157  25.752  38.847  1.00  0.00    -0.237 OA
ATOM    100  O   UNL A   1      45.529  24.036  37.118  1.00  0.00    -0.744 OA
ENDBRANCH  93  97
ENDBRANCH  67  90
ENDBRANCH  41  42
ENDBRANCH  34  36
ENDBRANCH  33  34
ENDBRANCH  32  33
ENDBRANCH   1  32
TORSDOF 19
ENDMDL
MODEL 3
REMARK VINA RESULT:     -11.4      1.739      2.210
REMARK SMILES CC1(C)[C@H](C(=O)Nc2ccc(NC(=O)C[NH+]3CCCCC3)cc2)[C@@H]1C(=O)OCCOC(=O)c1ccc(-c2c3nc(c(-c4cc(S(=O)(=O)[O-])ccc4F)c4ccc([nH]4)c(-c4cc(S(=O)(=O)[O-])ccc4F)c4nc(c(-c5cc(S(=O)(=O)[O-])ccc5F)c5ccc2[nH]5)C=C4)C=C3)cc1
REMARK SMILES IDX 28 1 27 2 25 3 26 4 24 5 1 6 2 7 3 8 4 9 5 10 6 11 7 12 8 14
REMARK SMILES IDX 9 15 23 16 10 17 22 18 11 19 12 20 13 21 14 23 15 24 16 25
REMARK SMILES IDX 17 26 21 27 18 29 20 30 19 31 29 32 30 33 31 34 32 35 33 36
REMARK SMILES IDX 34 37 95 38 35 39 94 40 36 41 37 42 38 43 88 44 39 45 93 46
REMARK SMILES IDX 87 47 89 48 40 49 92 50 86 51 85 52 41 54 73 55 53 56 72 57
REMARK SMILES IDX 54 58 57 59 71 60 90 61 55 62 56 63 70 65 91 66 58 67 42 68
REMARK SMILES IDX 43 69 51 70 44 71 50 72 52 73 49 74 45 75 46 76 47 77 48 78
REMARK SMILES IDX 74 79 75 80 83 81 76 82 82 83 84 84 81 85 77 86 78 87 79 88
REMARK SMILES IDX 80 89 59 90 60 91 68 92 61 93 67 94 69 95 66 96 62 97 63 98
REMARK SMILES IDX 64 99 65 100
REMARK H PARENT 7 13 12 22 16 28 89 53 57 64
REMARK Flexibility Score: inf
ROOT
ATOM      1  C   UNL A   1      37.333  21.420  25.236  1.00  0.00     0.274 C 
ENDROOT
BRANCH   1   2
ATOM      2  O   UNL A   1      36.483  21.650  26.380  1.00  0.00    -0.462 OA
BRANCH   2   3
ATOM      3  C   UNL A   1      35.149  21.453  26.178  1.00  0.00     0.310 C 
ATOM      4  O   UNL A   1      34.322  21.308  27.074  1.00  0.00    -0.252 OA
BRANCH   3   5
ATOM      5  C   UNL A   1      34.765  21.648  24.764  1.00  0.00     0.118 C 
ATOM      6  C   UNL A   1      34.830  23.339  22.766  1.00  0.00     0.013 C 
ATOM      7  C   UNL A   1      34.314  22.993  24.154  1.00  0.00    -0.009 C 
ATOM      8  C   UNL A   1      34.149  24.239  24.974  1.00  0.00     0.013 C 
ATOM      9  C   UNL A   1      33.376  21.800  24.214  1.00  0.00     0.100 C 
BRANCH   9  10
ATOM     10  C   UNL A   1      32.071  21.518  24.883  1.00  0.00     0.228 C 
ATOM     11  O   UNL A   1      31.852  20.339  25.174  1.00  0.00    -0.274 OA
ATOM     12  N   UNL A   1      31.259  22.445  25.481  1.00  0.00    -0.326 N 
ATOM     13  H   UNL A   1      30.902  22.164  26.354  1.00  0.00     0.169 HD
BRANCH  12  14
ATOM     14  C   UNL A   1      30.849  23.705  25.076  1.00  0.00     0.041 A 
ATOM     15  C   UNL A   1      30.780  23.937  23.715  1.00  0.00     0.028 A 
ATOM     16  C   UNL A   1      30.522  24.720  25.962  1.00  0.00     0.028 A 
ATOM     17  C   UNL A   1      30.118  25.075  23.259  1.00  0.00     0.028 A 
ATOM     18  C   UNL A   1      29.921  25.896  25.489  1.00  0.00     0.028 A 
ATOM     19  C   UNL A   1      29.665  26.064  24.126  1.00  0.00     0.041 A 
BRANCH  19  20
ATOM     20  N   UNL A   1      28.902  27.177  23.730  1.00  0.00    -0.321 N 
ATOM     21  C   UNL A   1      29.203  28.309  23.016  1.00  0.00     0.279 C 
ATOM     22  H   UNL A   1      27.965  27.137  24.025  1.00  0.00     0.170 HD
ATOM     23  O   UNL A   1      28.268  29.043  22.672  1.00  0.00    -0.268 OA
BRANCH  21  24
ATOM     24  C   UNL A   1      30.646  28.710  22.661  1.00  0.00     0.363 C 
BRANCH  24  25
ATOM     25  N   UNL A   1      31.522  28.561  23.829  1.00  0.00    -0.327 N 
ATOM     26  C   UNL A   1      32.927  28.322  23.520  1.00  0.00     0.262 C 
ATOM     27  C   UNL A   1      31.346  29.609  24.831  1.00  0.00     0.262 C 
ATOM     28  H   UNL A   1      31.197  27.692  24.254  1.00  0.00     0.348 HD
ATOM     29  C   UNL A   1      33.601  27.775  24.782  1.00  0.00     0.062 C 
ATOM     30  C   UNL A   1      32.004  29.175  26.141  1.00  0.00     0.062 C 
ATOM     31  C   UNL A   1      33.459  28.754  25.943  1.00  0.00     0.012 C 
ENDBRANCH  24  25
ENDBRANCH  21  24
ENDBRANCH  19  20
ENDBRANCH  12  14
ENDBRANCH   9  10
ENDBRANCH   3   5
ENDBRANCH   2   3
ENDBRANCH   1   2
BRANCH   1  32
ATOM     32  C   UNL A   1      38.549  20.534  25.528  1.00  0.00     0.275 C 
BRANCH  32  33
ATOM     33  O   UNL A   1      39.749  21.308  25.698  1.00  0.00    -0.458 OA
BRANCH  33  34
ATOM     34  C   UNL A   1      40.292  21.218  26.935  1.00  0.00     0.338 C 
ATOM     35  O   UNL A   1      40.548  20.189  27.539  1.00  0.00    -0.246 OA
BRANCH  34  36
ATOM     36  C   UNL A   1      40.708  22.546  27.417  1.00  0.00     0.060 A 
ATOM     37  C   UNL A   1      40.205  23.658  26.735  1.00  0.00     0.016 A 
ATOM     38  C   UNL A   1      41.638  22.709  28.445  1.00  0.00     0.016 A 
ATOM     39  C   UNL A   1      40.648  24.935  27.046  1.00  0.00     0.010 A 
ATOM     40  C   UNL A   1      42.092  23.996  28.754  1.00  0.00     0.010 A 
ATOM     41  C   UNL A   1      41.622  25.109  28.033  1.00  0.00    -0.014 A 
BRANCH  41  42
ATOM     42  C   UNL A   1      42.227  26.450  28.200  1.00  0.00     0.031 A 
ATOM     43  C   UNL A   1      43.570  26.727  27.585  1.00  0.00     0.074 A 
ATOM     44  C   UNL A   1      41.542  27.427  28.822  1.00  0.00     0.049 A 
ATOM     45  N   UNL A   1      44.288  27.818  27.617  1.00  0.00    -0.248 NA
ATOM     46  C   UNL A   1      44.183  25.621  26.833  1.00  0.00     0.031 C 
ATOM     47  C   UNL A   1      40.201  27.282  29.392  1.00  0.00     0.029 A 
ATOM     48  N   UNL A   1      41.874  28.733  29.071  1.00  0.00    -0.354 N 
ATOM     49  C   UNL A   1      45.445  27.529  26.902  1.00  0.00     0.074 A 
ATOM     50  C   UNL A   1      45.346  26.148  26.480  1.00  0.00     0.031 C 
ATOM     51  C   UNL A   1      39.825  28.457  29.923  1.00  0.00     0.029 A 
ATOM     52  C   UNL A   1      40.914  29.419  29.776  1.00  0.00     0.049 A 
ATOM     53  H   UNL A   1      42.719  29.141  28.773  1.00  0.00     0.167 HD
ATOM     54  C   UNL A   1      46.489  28.348  26.619  1.00  0.00     0.034 A 
ATOM     55  C   UNL A   1      40.927  30.672  30.272  1.00  0.00     0.034 A 
ATOM     56  C   UNL A   1      46.566  29.721  27.058  1.00  0.00     0.049 A 
ATOM     57  C   UNL A   1      42.141  31.535  30.024  1.00  0.00     0.074 A 
ATOM     58  C   UNL A   1      47.572  30.644  26.832  1.00  0.00     0.029 A 
ATOM     59  N   UNL A   1      45.602  30.368  27.824  1.00  0.00    -0.354 N 
ATOM     60  N   UNL A   1      43.237  31.251  29.358  1.00  0.00    -0.248 NA
ATOM     61  C   UNL A   1      42.114  32.891  30.586  1.00  0.00     0.031 C 
ATOM     62  C   UNL A   1      47.257  31.817  27.527  1.00  0.00     0.029 A 
ATOM     63  C   UNL A   1      46.007  31.664  28.107  1.00  0.00     0.049 A 
ATOM     64  H   UNL A   1      44.755  29.964  28.122  1.00  0.00     0.167 HD
ATOM     65  C   UNL A   1      44.013  32.406  29.390  1.00  0.00     0.074 A 
ATOM     66  C   UNL A   1      43.251  33.393  30.129  1.00  0.00     0.031 C 
ATOM     67  C   UNL A   1      45.239  32.635  28.853  1.00  0.00     0.034 A 
BRANCH  54  68
ATOM     68  C   UNL A   1      47.651  27.756  25.856  1.00  0.00     0.023 A 
ATOM     69  C   UNL A   1      48.766  27.200  26.507  1.00  0.00     0.031 A 
ATOM     70  C   UNL A   1      47.657  27.780  24.450  1.00  0.00     0.131 A 
ATOM     71  C   UNL A   1      49.867  26.756  25.757  1.00  0.00     0.055 A 
ATOM     72  C   UNL A   1      48.718  27.259  23.708  1.00  0.00     0.041 A 
ATOM     73  F   UNL A   1      46.634  28.322  23.771  1.00  0.00    -0.206 F 
ATOM     74  C   UNL A   1      49.840  26.758  24.361  1.00  0.00     0.022 A 
BRANCH  71  75
ATOM     75  S   UNL A   1      51.396  26.320  26.632  1.00  0.00     0.124 S 
ATOM     76  O   UNL A   1      51.374  27.259  27.751  1.00  0.00    -0.237 OA
ATOM     77  O   UNL A   1      51.178  24.919  26.969  1.00  0.00    -0.237 OA
ATOM     78  O   UNL A   1      52.441  26.569  25.641  1.00  0.00    -0.744 OA
ENDBRANCH  71  75
ENDBRANCH  54  68
BRANCH  55  79
ATOM     79  C   UNL A   1      39.783  31.176  31.085  1.00  0.00     0.023 A 
ATOM     80  C   UNL A   1      39.822  31.159  32.488  1.00  0.00     0.031 A 
ATOM     81  C   UNL A   1      38.606  31.635  30.465  1.00  0.00     0.131 A 
ATOM     82  C   UNL A   1      38.691  31.547  33.224  1.00  0.00     0.055 A 
ATOM     83  C   UNL A   1      37.506  32.077  31.201  1.00  0.00     0.041 A 
ATOM     84  F   UNL A   1      38.511  31.668  29.127  1.00  0.00    -0.206 F 
ATOM     85  C   UNL A   1      37.539  32.020  32.591  1.00  0.00     0.022 A 
BRANCH  82  86
ATOM     86  S   UNL A   1      38.710  31.329  35.025  1.00  0.00     0.124 S 
ATOM     87  O   UNL A   1      37.410  31.871  35.403  1.00  0.00    -0.237 OA
ATOM     88  O   UNL A   1      38.865  29.885  35.154  1.00  0.00    -0.237 OA
ATOM     89  O   UNL A   1      39.864  32.119  35.451  1.00  0.00    -0.744 OA
ENDBRANCH  82  86
ENDBRANCH  55  79
BRANCH  67  90
ATOM     90  C   UNL A   1      45.803  34.030  28.997  1.00  0.00     0.023 A 
ATOM     91  C   UNL A   1      45.476  35.063  28.101  1.00  0.00     0.031 A 
ATOM     92  C   UNL A   1      46.700  34.322  30.041  1.00  0.00     0.131 A 
ATOM     93  C   UNL A   1      46.091  36.318  28.227  1.00  0.00     0.055 A 
ATOM     94  C   UNL A   1      47.252  35.593  30.204  1.00  0.00     0.041 A 
ATOM     95  F   UNL A   1      47.052  33.375  30.925  1.00  0.00    -0.206 F 
ATOM     96  C   UNL A   1      46.960  36.595  29.284  1.00  0.00     0.022 A 
BRANCH  93  97
ATOM     97  S   UNL A   1      45.828  37.551  26.923  1.00  0.00     0.124 S 
ATOM     98  O   UNL A   1      44.381  37.497  26.741  1.00  0.00    -0.237 OA
ATOM     99  O   UNL A   1      46.349  38.769  27.535  1.00  0.00    -0.237 OA
ATOM    100  O   UNL A   1      46.613  37.038  25.802  1.00  0.00    -0.744 OA
ENDBRANCH  93  97
ENDBRANCH  67  90
ENDBRANCH  41  42
ENDBRANCH  34  36
ENDBRANCH  33  34
ENDBRANCH  32  33
ENDBRANCH   1  32
TORSDOF 19
ENDMDL
