MODEL 1
REMARK VINA RESULT:     -10.7      0.000      0.000
REMARK SMILES COc1ccc(N[C@H](C)[C@H](C)C(=O)OCCOC(=O)c2ccc(-c3c4nc(c(-c5cc(S(=O)(=O)[O-])ccc5F)c5ccc([nH]5)c(-c5cc(S(=O)(=O)[O-])ccc5F)c5nc(c(-c6cc(S(=O)(=O)[O-])ccc6F)c6ccc3[nH]6)C=C5)C=C4)cc2)c(OC)c1
REMARK SMILES IDX 15 1 14 2 12 3 13 4 10 5 11 6 8 7 9 8 7 9 6 11 3 12 4 13
REMARK SMILES IDX 86 14 5 15 83 16 2 17 1 18 84 19 85 20 16 21 17 22 18 23
REMARK SMILES IDX 19 24 20 25 21 26 82 27 22 28 81 29 23 30 24 31 25 32 75 33
REMARK SMILES IDX 26 34 80 35 74 36 76 37 27 38 79 39 73 40 72 41 28 43 60 44
REMARK SMILES IDX 40 45 59 46 41 47 44 48 58 49 77 50 42 51 43 52 57 54 78 55
REMARK SMILES IDX 45 56 29 57 30 58 38 59 31 60 37 61 39 62 36 63 32 64 33 65
REMARK SMILES IDX 34 66 35 67 61 68 62 69 70 70 63 71 69 72 71 73 68 74 64 75
REMARK SMILES IDX 65 76 66 77 67 78 46 79 47 80 55 81 48 82 54 83 56 84 53 85
REMARK SMILES IDX 49 86 50 87 51 88 52 89
REMARK H PARENT 7 10 76 42 44 53
REMARK Flexibility Score: inf
ROOT
ATOM      1  C   UNL A   1      34.949  20.267  25.194  1.00  0.00     0.274 C 
ENDROOT
BRANCH   1   2
ATOM      2  O   UNL A   1      34.512  21.440  25.904  1.00  0.00    -0.462 OA
BRANCH   2   3
ATOM      3  C   UNL A   1      33.377  22.008  25.415  1.00  0.00     0.310 C 
ATOM      4  O   UNL A   1      33.040  21.882  24.244  1.00  0.00    -0.252 OA
BRANCH   3   5
ATOM      5  C   UNL A   1      32.577  22.793  26.465  1.00  0.00     0.118 C 
ATOM      6  C   UNL A   1      32.998  22.444  27.901  1.00  0.00     0.022 C 
BRANCH   5   7
ATOM      7  C   UNL A   1      32.651  24.316  26.212  1.00  0.00     0.090 C 
ATOM      8  C   UNL A   1      33.990  24.776  25.626  1.00  0.00     0.031 C 
BRANCH   7   9
ATOM      9  N   UNL A   1      31.534  24.963  25.500  1.00  0.00    -0.379 N 
ATOM     10  H   UNL A   1      30.684  24.478  25.611  1.00  0.00     0.160 HD
BRANCH   9  11
ATOM     11  C   UNL A   1      31.402  26.094  24.712  1.00  0.00     0.077 A 
ATOM     12  C   UNL A   1      31.047  28.333  23.022  1.00  0.00     0.122 A 
ATOM     13  C   UNL A   1      31.007  28.488  24.391  1.00  0.00     0.049 A 
ATOM     14  C   UNL A   1      31.353  27.104  22.470  1.00  0.00     0.095 A 
ATOM     15  C   UNL A   1      31.215  27.382  25.210  1.00  0.00     0.033 A 
ATOM     16  C   UNL A   1      31.496  25.979  23.297  1.00  0.00     0.145 A 
BRANCH  12  17
ATOM     17  O   UNL A   1      30.848  29.384  22.185  1.00  0.00    -0.497 OA
ATOM     18  C   UNL A   1      29.487  29.803  22.175  1.00  0.00     0.278 C 
ENDBRANCH  12  17
BRANCH  16  19
ATOM     19  O   UNL A   1      31.708  24.707  22.800  1.00  0.00    -0.494 OA
ATOM     20  C   UNL A   1      32.903  24.540  22.035  1.00  0.00     0.278 C 
ENDBRANCH  16  19
ENDBRANCH   9  11
ENDBRANCH   7   9
ENDBRANCH   5   7
ENDBRANCH   3   5
ENDBRANCH   2   3
ENDBRANCH   1   2
BRANCH   1  21
ATOM     21  C   UNL A   1      36.413  20.384  24.760  1.00  0.00     0.275 C 
BRANCH  21  22
ATOM     22  O   UNL A   1      37.137  21.426  25.447  1.00  0.00    -0.458 OA
BRANCH  22  23
ATOM     23  C   UNL A   1      38.416  21.122  25.782  1.00  0.00     0.338 C 
ATOM     24  O   UNL A   1      38.955  20.030  25.649  1.00  0.00    -0.246 OA
BRANCH  23  25
ATOM     25  C   UNL A   1      39.148  22.323  26.246  1.00  0.00     0.060 A 
ATOM     26  C   UNL A   1      38.546  23.573  26.066  1.00  0.00     0.016 A 
ATOM     27  C   UNL A   1      40.432  22.247  26.795  1.00  0.00     0.016 A 
ATOM     28  C   UNL A   1      39.195  24.739  26.481  1.00  0.00     0.010 A 
ATOM     29  C   UNL A   1      41.102  23.424  27.169  1.00  0.00     0.010 A 
ATOM     30  C   UNL A   1      40.487  24.679  27.023  1.00  0.00    -0.014 A 
BRANCH  30  31
ATOM     31  C   UNL A   1      41.203  25.945  27.341  1.00  0.00     0.031 A 
ATOM     32  C   UNL A   1      40.585  26.927  28.284  1.00  0.00     0.074 A 
ATOM     33  C   UNL A   1      42.418  26.212  26.827  1.00  0.00     0.049 A 
ATOM     34  N   UNL A   1      41.049  28.076  28.697  1.00  0.00    -0.248 NA
ATOM     35  C   UNL A   1      39.256  26.580  28.802  1.00  0.00     0.031 C 
ATOM     36  C   UNL A   1      43.109  25.350  25.886  1.00  0.00     0.029 A 
ATOM     37  N   UNL A   1      43.297  27.251  27.033  1.00  0.00    -0.354 N 
ATOM     38  C   UNL A   1      40.058  28.613  29.505  1.00  0.00     0.074 A 
ATOM     39  C   UNL A   1      38.968  27.656  29.518  1.00  0.00     0.031 C 
ATOM     40  C   UNL A   1      44.332  25.848  25.656  1.00  0.00     0.029 A 
ATOM     41  C   UNL A   1      44.501  27.097  26.377  1.00  0.00     0.049 A 
ATOM     42  H   UNL A   1      43.086  28.032  27.595  1.00  0.00     0.167 HD
ATOM     43  C   UNL A   1      40.052  29.807  30.149  1.00  0.00     0.034 A 
ATOM     44  C   UNL A   1      45.611  27.865  26.335  1.00  0.00     0.034 A 
ATOM     45  C   UNL A   1      41.129  30.768  30.084  1.00  0.00     0.049 A 
ATOM     46  C   UNL A   1      45.574  29.188  27.050  1.00  0.00     0.074 A 
ATOM     47  C   UNL A   1      41.202  32.018  30.675  1.00  0.00     0.029 A 
ATOM     48  N   UNL A   1      42.312  30.602  29.372  1.00  0.00    -0.354 N 
ATOM     49  N   UNL A   1      44.616  29.696  27.790  1.00  0.00    -0.248 NA
ATOM     50  C   UNL A   1      46.743  30.062  26.893  1.00  0.00     0.031 C 
ATOM     51  C   UNL A   1      42.389  32.634  30.262  1.00  0.00     0.029 A 
ATOM     52  C   UNL A   1      43.104  31.738  29.484  1.00  0.00     0.049 A 
ATOM     53  H   UNL A   1      42.553  29.796  28.860  1.00  0.00     0.167 HD
ATOM     54  C   UNL A   1      45.063  30.954  28.176  1.00  0.00     0.074 A 
ATOM     55  C   UNL A   1      46.395  31.108  27.627  1.00  0.00     0.031 C 
ATOM     56  C   UNL A   1      44.418  31.901  28.904  1.00  0.00     0.034 A 
BRANCH  43  57
ATOM     57  C   UNL A   1      38.787  30.160  30.888  1.00  0.00     0.023 A 
ATOM     58  C   UNL A   1      37.713  30.806  30.252  1.00  0.00     0.031 A 
ATOM     59  C   UNL A   1      38.693  29.932  32.273  1.00  0.00     0.131 A 
ATOM     60  C   UNL A   1      36.642  31.292  31.014  1.00  0.00     0.055 A 
ATOM     61  C   UNL A   1      37.579  30.332  33.010  1.00  0.00     0.041 A 
ATOM     62  F   UNL A   1      39.700  29.346  32.939  1.00  0.00    -0.206 F 
ATOM     63  C   UNL A   1      36.554  31.037  32.385  1.00  0.00     0.022 A 
BRANCH  60  64
ATOM     64  S   UNL A   1      35.467  32.428  30.227  1.00  0.00     0.124 S 
ATOM     65  O   UNL A   1      36.310  33.595  29.974  1.00  0.00    -0.237 OA
ATOM     66  O   UNL A   1      35.043  31.678  29.050  1.00  0.00    -0.237 OA
ATOM     67  O   UNL A   1      34.440  32.621  31.248  1.00  0.00    -0.744 OA
ENDBRANCH  60  64
ENDBRANCH  43  57
BRANCH  44  68
ATOM     68  C   UNL A   1      46.819  27.450  25.548  1.00  0.00     0.023 A 
ATOM     69  C   UNL A   1      47.016  27.877  24.222  1.00  0.00     0.031 A 
ATOM     70  C   UNL A   1      47.782  26.580  26.095  1.00  0.00     0.131 A 
ATOM     71  C   UNL A   1      48.124  27.414  23.487  1.00  0.00     0.055 A 
ATOM     72  C   UNL A   1      48.919  26.184  25.388  1.00  0.00     0.041 A 
ATOM     73  F   UNL A   1      47.642  26.107  27.345  1.00  0.00    -0.206 F 
ATOM     74  C   UNL A   1      49.089  26.593  24.070  1.00  0.00     0.022 A 
BRANCH  71  75
ATOM     75  S   UNL A   1      48.238  27.809  21.716  1.00  0.00     0.124 S 
ATOM     76  O   UNL A   1      49.328  28.778  21.696  1.00  0.00    -0.237 OA
ATOM     77  O   UNL A   1      48.525  26.505  21.128  1.00  0.00    -0.237 OA
ATOM     78  O   UNL A   1      46.916  28.351  21.403  1.00  0.00    -0.744 OA
ENDBRANCH  71  75
ENDBRANCH  44  68
BRANCH  56  79
ATOM     79  C   UNL A   1      45.171  33.185  29.159  1.00  0.00     0.023 A 
ATOM     80  C   UNL A   1      45.007  34.316  28.338  1.00  0.00     0.031 A 
ATOM     81  C   UNL A   1      46.094  33.264  30.216  1.00  0.00     0.131 A 
ATOM     82  C   UNL A   1      45.800  35.455  28.549  1.00  0.00     0.055 A 
ATOM     83  C   UNL A   1      46.830  34.424  30.464  1.00  0.00     0.041 A 
ATOM     84  F   UNL A   1      46.298  32.213  31.026  1.00  0.00    -0.206 F 
ATOM     85  C   UNL A   1      46.697  35.522  29.618  1.00  0.00     0.022 A 
BRANCH  82  86
ATOM     86  S   UNL A   1      45.724  36.809  27.345  1.00  0.00     0.124 S 
ATOM     87  O   UNL A   1      44.370  36.668  26.816  1.00  0.00    -0.237 OA
ATOM     88  O   UNL A   1      45.962  37.983  28.177  1.00  0.00    -0.237 OA
ATOM     89  O   UNL A   1      46.794  36.491  26.402  1.00  0.00    -0.744 OA
ENDBRANCH  82  86
ENDBRANCH  56  79
ENDBRANCH  30  31
ENDBRANCH  23  25
ENDBRANCH  22  23
ENDBRANCH  21  22
ENDBRANCH   1  21
TORSDOF 19
ENDMDL
MODEL 2
REMARK VINA RESULT:     -10.6      1.320      7.780
REMARK SMILES COc1ccc(N[C@H](C)[C@H](C)C(=O)OCCOC(=O)c2ccc(-c3c4nc(c(-c5cc(S(=O)(=O)[O-])ccc5F)c5ccc([nH]5)c(-c5cc(S(=O)(=O)[O-])ccc5F)c5nc(c(-c6cc(S(=O)(=O)[O-])ccc6F)c6ccc3[nH]6)C=C5)C=C4)cc2)c(OC)c1
REMARK SMILES IDX 15 1 14 2 12 3 13 4 10 5 11 6 8 7 9 8 7 9 6 11 3 12 4 13
REMARK SMILES IDX 86 14 5 15 83 16 2 17 1 18 84 19 85 20 16 21 17 22 18 23
REMARK SMILES IDX 19 24 20 25 21 26 82 27 22 28 81 29 23 30 24 31 25 32 75 33
REMARK SMILES IDX 26 34 80 35 74 36 76 37 27 38 79 39 73 40 72 41 28 43 60 44
REMARK SMILES IDX 40 45 59 46 41 47 44 48 58 49 77 50 42 51 43 52 57 54 78 55
REMARK SMILES IDX 45 56 29 57 30 58 38 59 31 60 37 61 39 62 36 63 32 64 33 65
REMARK SMILES IDX 34 66 35 67 61 68 62 69 70 70 63 71 69 72 71 73 68 74 64 75
REMARK SMILES IDX 65 76 66 77 67 78 46 79 47 80 55 81 48 82 54 83 56 84 53 85
REMARK SMILES IDX 49 86 50 87 51 88 52 89
REMARK H PARENT 7 10 76 42 44 53
REMARK Flexibility Score: inf
ROOT
ATOM      1  C   UNL A   1      36.538  22.430  23.863  1.00  0.00     0.274 C 
ENDROOT
BRANCH   1   2
ATOM      2  O   UNL A   1      35.206  22.631  24.368  1.00  0.00    -0.462 OA
BRANCH   2   3
ATOM      3  C   UNL A   1      34.332  23.155  23.466  1.00  0.00     0.310 C 
ATOM      4  O   UNL A   1      34.653  24.052  22.697  1.00  0.00    -0.252 OA
BRANCH   3   5
ATOM      5  C   UNL A   1      32.939  22.509  23.508  1.00  0.00     0.118 C 
ATOM      6  C   UNL A   1      32.911  21.238  24.373  1.00  0.00     0.022 C 
BRANCH   5   7
ATOM      7  C   UNL A   1      31.859  23.519  23.957  1.00  0.00     0.090 C 
ATOM      8  C   UNL A   1      31.043  23.048  25.165  1.00  0.00     0.031 C 
BRANCH   7   9
ATOM      9  N   UNL A   1      32.247  24.932  24.123  1.00  0.00    -0.379 N 
ATOM     10  H   UNL A   1      33.156  25.033  24.488  1.00  0.00     0.160 HD
BRANCH   9  11
ATOM     11  C   UNL A   1      31.631  26.149  23.886  1.00  0.00     0.077 A 
ATOM     12  C   UNL A   1      30.480  28.696  23.462  1.00  0.00     0.122 A 
ATOM     13  C   UNL A   1      30.483  27.762  22.448  1.00  0.00     0.049 A 
ATOM     14  C   UNL A   1      30.952  28.362  24.716  1.00  0.00     0.095 A 
ATOM     15  C   UNL A   1      31.026  26.502  22.683  1.00  0.00     0.033 A 
ATOM     16  C   UNL A   1      31.559  27.114  24.928  1.00  0.00     0.145 A 
BRANCH  12  17
ATOM     17  O   UNL A   1      29.963  29.938  23.277  1.00  0.00    -0.497 OA
ATOM     18  C   UNL A   1      29.124  29.998  22.127  1.00  0.00     0.278 C 
ENDBRANCH  12  17
BRANCH  16  19
ATOM     19  O   UNL A   1      32.135  26.758  26.133  1.00  0.00    -0.494 OA
ATOM     20  C   UNL A   1      32.871  27.792  26.789  1.00  0.00     0.278 C 
ENDBRANCH  16  19
ENDBRANCH   9  11
ENDBRANCH   7   9
ENDBRANCH   5   7
ENDBRANCH   3   5
ENDBRANCH   2   3
ENDBRANCH   1   2
BRANCH   1  21
ATOM     21  C   UNL A   1      37.233  21.255  24.559  1.00  0.00     0.275 C 
BRANCH  21  22
ATOM     22  O   UNL A   1      37.663  21.554  25.903  1.00  0.00    -0.458 OA
BRANCH  22  23
ATOM     23  C   UNL A   1      38.997  21.435  26.127  1.00  0.00     0.338 C 
ATOM     24  O   UNL A   1      39.691  20.468  25.837  1.00  0.00    -0.246 OA
BRANCH  23  25
ATOM     25  C   UNL A   1      39.560  22.685  26.683  1.00  0.00     0.060 A 
ATOM     26  C   UNL A   1      39.039  23.902  26.231  1.00  0.00     0.016 A 
ATOM     27  C   UNL A   1      40.626  22.684  27.590  1.00  0.00     0.016 A 
ATOM     28  C   UNL A   1      39.538  25.113  26.721  1.00  0.00     0.010 A 
ATOM     29  C   UNL A   1      41.156  23.903  28.045  1.00  0.00     0.010 A 
ATOM     30  C   UNL A   1      40.612  25.127  27.621  1.00  0.00    -0.014 A 
BRANCH  30  31
ATOM     31  C   UNL A   1      41.204  26.431  28.029  1.00  0.00     0.031 A 
ATOM     32  C   UNL A   1      42.593  26.779  27.599  1.00  0.00     0.074 A 
ATOM     33  C   UNL A   1      40.501  27.327  28.747  1.00  0.00     0.049 A 
ATOM     34  N   UNL A   1      43.282  27.862  27.839  1.00  0.00    -0.248 NA
ATOM     35  C   UNL A   1      43.307  25.756  26.826  1.00  0.00     0.031 C 
ATOM     36  C   UNL A   1      39.156  27.096  29.240  1.00  0.00     0.029 A 
ATOM     37  N   UNL A   1      40.793  28.605  29.163  1.00  0.00    -0.354 N 
ATOM     38  C   UNL A   1      44.530  27.648  27.273  1.00  0.00     0.074 A 
ATOM     39  C   UNL A   1      44.494  26.325  26.678  1.00  0.00     0.031 C 
ATOM     40  C   UNL A   1      38.706  28.218  29.820  1.00  0.00     0.029 A 
ATOM     41  C   UNL A   1      39.745  29.233  29.804  1.00  0.00     0.049 A 
ATOM     42  H   UNL A   1      41.669  29.033  29.019  1.00  0.00     0.167 HD
ATOM     43  C   UNL A   1      45.608  28.470  27.276  1.00  0.00     0.034 A 
ATOM     44  C   UNL A   1      39.620  30.468  30.336  1.00  0.00     0.034 A 
ATOM     45  C   UNL A   1      45.639  29.765  27.916  1.00  0.00     0.049 A 
ATOM     46  C   UNL A   1      40.834  31.356  30.336  1.00  0.00     0.074 A 
ATOM     47  C   UNL A   1      46.694  30.657  28.002  1.00  0.00     0.029 A 
ATOM     48  N   UNL A   1      44.576  30.349  28.598  1.00  0.00    -0.354 N 
ATOM     49  N   UNL A   1      42.019  31.127  29.819  1.00  0.00    -0.248 NA
ATOM     50  C   UNL A   1      40.715  32.646  31.025  1.00  0.00     0.031 C 
ATOM     51  C   UNL A   1      46.294  31.739  28.795  1.00  0.00     0.029 A 
ATOM     52  C   UNL A   1      44.962  31.572  29.132  1.00  0.00     0.049 A 
ATOM     53  H   UNL A   1      43.679  29.952  28.690  1.00  0.00     0.167 HD
ATOM     54  C   UNL A   1      42.790  32.241  30.132  1.00  0.00     0.074 A 
ATOM     55  C   UNL A   1      41.922  33.160  30.841  1.00  0.00     0.031 C 
ATOM     56  C   UNL A   1      44.102  32.470  29.870  1.00  0.00     0.034 A 
BRANCH  43  57
ATOM     57  C   UNL A   1      46.866  27.923  26.650  1.00  0.00     0.023 A 
ATOM     58  C   UNL A   1      47.180  28.150  25.299  1.00  0.00     0.031 A 
ATOM     59  C   UNL A   1      47.714  27.081  27.392  1.00  0.00     0.131 A 
ATOM     60  C   UNL A   1      48.248  27.463  24.707  1.00  0.00     0.055 A 
ATOM     61  C   UNL A   1      48.833  26.477  26.821  1.00  0.00     0.041 A 
ATOM     62  F   UNL A   1      47.447  26.804  28.678  1.00  0.00    -0.206 F 
ATOM     63  C   UNL A   1      49.094  26.648  25.464  1.00  0.00     0.022 A 
BRANCH  60  64
ATOM     64  S   UNL A   1      48.401  27.495  22.900  1.00  0.00     0.124 S 
ATOM     65  O   UNL A   1      48.407  26.069  22.580  1.00  0.00    -0.237 OA
ATOM     66  O   UNL A   1      47.212  28.236  22.495  1.00  0.00    -0.237 OA
ATOM     67  O   UNL A   1      49.671  28.181  22.674  1.00  0.00    -0.744 OA
ENDBRANCH  60  64
ENDBRANCH  43  57
BRANCH  44  68
ATOM     68  C   UNL A   1      38.337  30.922  30.968  1.00  0.00     0.023 A 
ATOM     69  C   UNL A   1      37.325  31.545  30.214  1.00  0.00     0.031 A 
ATOM     70  C   UNL A   1      38.116  30.781  32.351  1.00  0.00     0.131 A 
ATOM     71  C   UNL A   1      36.163  32.024  30.848  1.00  0.00     0.055 A 
ATOM     72  C   UNL A   1      36.929  31.189  32.964  1.00  0.00     0.041 A 
ATOM     73  F   UNL A   1      39.052  30.225  33.138  1.00  0.00    -0.206 F 
ATOM     74  C   UNL A   1      35.948  31.825  32.212  1.00  0.00     0.022 A 
BRANCH  71  75
ATOM     75  S   UNL A   1      34.975  33.010  29.890  1.00  0.00     0.124 S 
ATOM     76  O   UNL A   1      34.433  32.016  28.972  1.00  0.00    -0.237 OA
ATOM     77  O   UNL A   1      34.067  33.491  30.927  1.00  0.00    -0.237 OA
ATOM     78  O   UNL A   1      35.808  34.041  29.272  1.00  0.00    -0.744 OA
ENDBRANCH  71  75
ENDBRANCH  44  68
BRANCH  56  79
ATOM     79  C   UNL A   1      44.665  33.788  30.346  1.00  0.00     0.023 A 
ATOM     80  C   UNL A   1      44.582  34.955  29.564  1.00  0.00     0.031 A 
ATOM     81  C   UNL A   1      45.327  33.867  31.583  1.00  0.00     0.131 A 
ATOM     82  C   UNL A   1      45.206  36.134  29.999  1.00  0.00     0.055 A 
ATOM     83  C   UNL A   1      45.888  35.061  32.042  1.00  0.00     0.041 A 
ATOM     84  F   UNL A   1      45.446  32.783  32.366  1.00  0.00    -0.206 F 
ATOM     85  C   UNL A   1      45.842  36.199  31.241  1.00  0.00     0.022 A 
BRANCH  82  86
ATOM     86  S   UNL A   1      45.271  37.556  28.873  1.00  0.00     0.124 S 
ATOM     87  O   UNL A   1      46.615  38.071  29.114  1.00  0.00    -0.237 OA
ATOM     88  O   UNL A   1      45.050  36.935  27.572  1.00  0.00    -0.237 OA
ATOM     89  O   UNL A   1      44.185  38.414  29.342  1.00  0.00    -0.744 OA
ENDBRANCH  82  86
ENDBRANCH  56  79
ENDBRANCH  30  31
ENDBRANCH  23  25
ENDBRANCH  22  23
ENDBRANCH  21  22
ENDBRANCH   1  21
TORSDOF 19
ENDMDL
MODEL 3
REMARK VINA RESULT:     -10.5      5.181     10.521
REMARK SMILES COc1ccc(N[C@H](C)[C@H](C)C(=O)OCCOC(=O)c2ccc(-c3c4nc(c(-c5cc(S(=O)(=O)[O-])ccc5F)c5ccc([nH]5)c(-c5cc(S(=O)(=O)[O-])ccc5F)c5nc(c(-c6cc(S(=O)(=O)[O-])ccc6F)c6ccc3[nH]6)C=C5)C=C4)cc2)c(OC)c1
REMARK SMILES IDX 15 1 14 2 12 3 13 4 10 5 11 6 8 7 9 8 7 9 6 11 3 12 4 13
REMARK SMILES IDX 86 14 5 15 83 16 2 17 1 18 84 19 85 20 16 21 17 22 18 23
REMARK SMILES IDX 19 24 20 25 21 26 82 27 22 28 81 29 23 30 24 31 25 32 75 33
REMARK SMILES IDX 26 34 80 35 74 36 76 37 27 38 79 39 73 40 72 41 28 43 60 44
REMARK SMILES IDX 40 45 59 46 41 47 44 48 58 49 77 50 42 51 43 52 57 54 78 55
REMARK SMILES IDX 45 56 29 57 30 58 38 59 31 60 37 61 39 62 36 63 32 64 33 65
REMARK SMILES IDX 34 66 35 67 61 68 62 69 70 70 63 71 69 72 71 73 68 74 64 75
REMARK SMILES IDX 65 76 66 77 67 78 46 79 47 80 55 81 48 82 54 83 56 84 53 85
REMARK SMILES IDX 49 86 50 87 51 88 52 89
REMARK H PARENT 7 10 76 42 44 53
REMARK Flexibility Score: inf
ROOT
ATOM      1  C   UNL A   1      31.278  29.134  24.258  1.00  0.00     0.274 C 
ENDROOT
BRANCH   1   2
ATOM      2  O   UNL A   1      31.646  27.783  24.590  1.00  0.00    -0.462 OA
BRANCH   2   3
ATOM      3  C   UNL A   1      32.596  27.239  23.783  1.00  0.00     0.310 C 
ATOM      4  O   UNL A   1      33.669  27.793  23.578  1.00  0.00    -0.252 OA
BRANCH   3   5
ATOM      5  C   UNL A   1      32.194  25.885  23.180  1.00  0.00     0.118 C 
ATOM      6  C   UNL A   1      32.937  25.587  21.868  1.00  0.00     0.022 C 
BRANCH   5   7
ATOM      7  C   UNL A   1      32.369  24.736  24.199  1.00  0.00     0.090 C 
ATOM      8  C   UNL A   1      31.058  24.295  24.857  1.00  0.00     0.031 C 
BRANCH   7   9
ATOM      9  N   UNL A   1      33.159  23.558  23.797  1.00  0.00    -0.379 N 
ATOM     10  H   UNL A   1      34.036  23.802  23.420  1.00  0.00     0.160 HD
BRANCH   9  11
ATOM     11  C   UNL A   1      32.955  22.189  23.825  1.00  0.00     0.077 A 
ATOM     12  C   UNL A   1      32.487  19.407  24.008  1.00  0.00     0.122 A 
ATOM     13  C   UNL A   1      32.152  20.089  22.859  1.00  0.00     0.049 A 
ATOM     14  C   UNL A   1      33.138  20.058  25.038  1.00  0.00     0.095 A 
ATOM     15  C   UNL A   1      32.418  21.453  22.772  1.00  0.00     0.033 A 
ATOM     16  C   UNL A   1      33.343  21.444  24.973  1.00  0.00     0.145 A 
BRANCH  12  17
ATOM     17  O   UNL A   1      32.245  18.077  24.138  1.00  0.00    -0.497 OA
ATOM     18  C   UNL A   1      32.953  17.513  25.238  1.00  0.00     0.278 C 
ENDBRANCH  12  17
BRANCH  16  19
ATOM     19  O   UNL A   1      33.902  22.168  26.011  1.00  0.00    -0.494 OA
ATOM     20  C   UNL A   1      35.152  21.676  26.495  1.00  0.00     0.278 C 
ENDBRANCH  16  19
ENDBRANCH   9  11
ENDBRANCH   7   9
ENDBRANCH   5   7
ENDBRANCH   3   5
ENDBRANCH   2   3
ENDBRANCH   1   2
BRANCH   1  21
ATOM     21  C   UNL A   1      31.410  30.067  25.465  1.00  0.00     0.275 C 
BRANCH  21  22
ATOM     22  O   UNL A   1      32.775  30.423  25.772  1.00  0.00    -0.458 OA
BRANCH  22  23
ATOM     23  C   UNL A   1      32.935  31.242  26.842  1.00  0.00     0.338 C 
ATOM     24  O   UNL A   1      32.124  32.067  27.244  1.00  0.00    -0.246 OA
BRANCH  23  25
ATOM     25  C   UNL A   1      34.197  30.948  27.558  1.00  0.00     0.060 A 
ATOM     26  C   UNL A   1      34.496  29.611  27.844  1.00  0.00     0.016 A 
ATOM     27  C   UNL A   1      35.056  31.959  28.001  1.00  0.00     0.016 A 
ATOM     28  C   UNL A   1      35.673  29.278  28.522  1.00  0.00     0.010 A 
ATOM     29  C   UNL A   1      36.215  31.624  28.722  1.00  0.00     0.010 A 
ATOM     30  C   UNL A   1      36.537  30.281  28.982  1.00  0.00    -0.014 A 
BRANCH  30  31
ATOM     31  C   UNL A   1      37.717  29.904  29.808  1.00  0.00     0.031 A 
ATOM     32  C   UNL A   1      38.816  29.093  29.200  1.00  0.00     0.074 A 
ATOM     33  C   UNL A   1      37.838  30.310  31.086  1.00  0.00     0.049 A 
ATOM     34  N   UNL A   1      39.926  28.672  29.744  1.00  0.00    -0.248 NA
ATOM     35  C   UNL A   1      38.618  28.676  27.807  1.00  0.00     0.031 C 
ATOM     36  C   UNL A   1      36.831  31.080  31.792  1.00  0.00     0.029 A 
ATOM     37  N   UNL A   1      38.851  30.165  32.006  1.00  0.00    -0.354 N 
ATOM     38  C   UNL A   1      40.557  27.911  28.770  1.00  0.00     0.074 A 
ATOM     39  C   UNL A   1      39.696  27.933  27.604  1.00  0.00     0.031 C 
ATOM     40  C   UNL A   1      37.304  31.410  33.002  1.00  0.00     0.029 A 
ATOM     41  C   UNL A   1      38.620  30.826  33.194  1.00  0.00     0.049 A 
ATOM     42  H   UNL A   1      39.664  29.637  31.833  1.00  0.00     0.167 HD
ATOM     43  C   UNL A   1      41.730  27.237  28.859  1.00  0.00     0.034 A 
ATOM     44  C   UNL A   1      39.356  30.946  34.320  1.00  0.00     0.034 A 
ATOM     45  C   UNL A   1      42.550  27.189  30.047  1.00  0.00     0.049 A 
ATOM     46  C   UNL A   1      40.649  30.180  34.395  1.00  0.00     0.074 A 
ATOM     47  C   UNL A   1      43.738  26.507  30.244  1.00  0.00     0.029 A 
ATOM     48  N   UNL A   1      42.263  27.829  31.248  1.00  0.00    -0.354 N 
ATOM     49  N   UNL A   1      41.220  29.440  33.473  1.00  0.00    -0.248 NA
ATOM     50  C   UNL A   1      41.376  30.225  35.669  1.00  0.00     0.031 C 
ATOM     51  C   UNL A   1      44.128  26.673  31.579  1.00  0.00     0.029 A 
ATOM     52  C   UNL A   1      43.233  27.532  32.196  1.00  0.00     0.049 A 
ATOM     53  H   UNL A   1      41.482  28.409  31.405  1.00  0.00     0.167 HD
ATOM     54  C   UNL A   1      42.368  28.921  34.062  1.00  0.00     0.074 A 
ATOM     55  C   UNL A   1      42.432  29.472  35.401  1.00  0.00     0.031 C 
ATOM     56  C   UNL A   1      43.274  28.055  33.543  1.00  0.00     0.034 A 
BRANCH  43  57
ATOM     57  C   UNL A   1      42.121  26.418  27.654  1.00  0.00     0.023 A 
ATOM     58  C   UNL A   1      41.688  25.091  27.490  1.00  0.00     0.031 A 
ATOM     59  C   UNL A   1      43.017  26.943  26.707  1.00  0.00     0.131 A 
ATOM     60  C   UNL A   1      42.231  24.304  26.465  1.00  0.00     0.055 A 
ATOM     61  C   UNL A   1      43.479  26.184  25.632  1.00  0.00     0.041 A 
ATOM     62  F   UNL A   1      43.487  28.194  26.830  1.00  0.00    -0.206 F 
ATOM     63  C   UNL A   1      43.104  24.848  25.518  1.00  0.00     0.022 A 
BRANCH  60  64
ATOM     64  S   UNL A   1      41.935  22.515  26.500  1.00  0.00     0.124 S 
ATOM     65  O   UNL A   1      42.719  22.064  25.352  1.00  0.00    -0.237 OA
ATOM     66  O   UNL A   1      42.445  22.136  27.812  1.00  0.00    -0.237 OA
ATOM     67  O   UNL A   1      40.487  22.404  26.337  1.00  0.00    -0.744 OA
ENDBRANCH  60  64
ENDBRANCH  43  57
BRANCH  44  68
ATOM     68  C   UNL A   1      38.877  31.760  35.486  1.00  0.00     0.023 A 
ATOM     69  C   UNL A   1      38.297  31.155  36.616  1.00  0.00     0.031 A 
ATOM     70  C   UNL A   1      38.950  33.166  35.472  1.00  0.00     0.131 A 
ATOM     71  C   UNL A   1      37.793  31.950  37.663  1.00  0.00     0.055 A 
ATOM     72  C   UNL A   1      38.518  33.947  36.547  1.00  0.00     0.041 A 
ATOM     73  F   UNL A   1      39.462  33.812  34.412  1.00  0.00    -0.206 F 
ATOM     74  C   UNL A   1      37.924  33.339  37.647  1.00  0.00     0.022 A 
BRANCH  71  75
ATOM     75  S   UNL A   1      36.860  31.156  39.006  1.00  0.00     0.124 S 
ATOM     76  O   UNL A   1      35.682  32.010  39.097  1.00  0.00    -0.237 OA
ATOM     77  O   UNL A   1      36.643  29.813  38.479  1.00  0.00    -0.237 OA
ATOM     78  O   UNL A   1      37.774  31.232  40.146  1.00  0.00    -0.744 OA
ENDBRANCH  71  75
ENDBRANCH  44  68
BRANCH  56  79
ATOM     79  C   UNL A   1      44.427  27.668  34.438  1.00  0.00     0.023 A 
ATOM     80  C   UNL A   1      44.359  26.556  35.297  1.00  0.00     0.031 A 
ATOM     81  C   UNL A   1      45.596  28.448  34.459  1.00  0.00     0.131 A 
ATOM     82  C   UNL A   1      45.413  26.291  36.185  1.00  0.00     0.055 A 
ATOM     83  C   UNL A   1      46.671  28.140  35.296  1.00  0.00     0.041 A 
ATOM     84  F   UNL A   1      45.713  29.527  33.669  1.00  0.00    -0.206 F 
ATOM     85  C   UNL A   1      46.576  27.065  36.176  1.00  0.00     0.022 A 
BRANCH  82  86
ATOM     86  S   UNL A   1      45.203  24.986  37.428  1.00  0.00     0.124 S 
ATOM     87  O   UNL A   1      45.597  23.793  36.684  1.00  0.00    -0.237 OA
ATOM     88  O   UNL A   1      46.116  25.409  38.484  1.00  0.00    -0.237 OA
ATOM     89  O   UNL A   1      43.783  25.063  37.769  1.00  0.00    -0.744 OA
ENDBRANCH  82  86
ENDBRANCH  56  79
ENDBRANCH  30  31
ENDBRANCH  23  25
ENDBRANCH  22  23
ENDBRANCH  21  22
ENDBRANCH   1  21
TORSDOF 19
ENDMDL
