MODEL 1
REMARK VINA RESULT:     -11.4      0.000      0.000
REMARK SMILES C[C@](NC(=O)c1ccc(Br)o1)(C(=O)OCCOC(=O)c1ccc(-c2c3nc(c(-c4cc(S(=O)(=O)[O-])ccc4F)c4ccc([nH]4)c(-c4cc(S(=O)(=O)[O-])ccc4F)c4nc(c(-c5cc(S(=O)(=O)[O-])ccc5F)c5ccc2[nH]5)C=C4)C=C3)cc1)C(F)(F)F
REMARK SMILES IDX 16 1 15 2 14 3 12 4 13 5 2 6 1 7 83 8 84 9 85 10 86 11 3 12
REMARK SMILES IDX 4 13 5 15 6 16 7 17 11 18 8 19 9 20 10 21 17 22 18 23 19 24
REMARK SMILES IDX 20 25 21 26 82 27 22 28 81 29 23 30 24 31 25 32 75 33 26 34
REMARK SMILES IDX 80 35 74 36 76 37 27 38 79 39 73 40 72 41 28 43 60 44 40 45
REMARK SMILES IDX 59 46 41 47 44 48 58 49 77 50 42 51 43 52 57 54 78 55 45 56
REMARK SMILES IDX 29 57 30 58 38 59 31 60 37 61 39 62 36 63 32 64 33 65 34 66
REMARK SMILES IDX 35 67 61 68 62 69 70 70 63 71 69 72 71 73 68 74 64 75 65 76
REMARK SMILES IDX 66 77 67 78 46 79 47 80 55 81 48 82 54 83 56 84 53 85 49 86
REMARK SMILES IDX 50 87 51 88 52 89
REMARK H PARENT 3 14 76 42 44 53
REMARK Flexibility Score: inf
ROOT
ATOM      1  C   UNL A   1      36.391  20.368  24.956  1.00  0.00     0.275 C 
ENDROOT
BRANCH   1   2
ATOM      2  C   UNL A   1      34.910  20.438  25.315  1.00  0.00     0.274 C 
BRANCH   2   3
ATOM      3  O   UNL A   1      34.190  21.349  24.455  1.00  0.00    -0.460 OA
BRANCH   3   4
ATOM      4  C   UNL A   1      33.377  22.240  25.098  1.00  0.00     0.341 C 
ATOM      5  O   UNL A   1      32.678  21.941  26.059  1.00  0.00    -0.249 OA
BRANCH   4   6
ATOM      6  C   UNL A   1      33.352  23.622  24.423  1.00  0.00     0.231 C 
ATOM      7  C   UNL A   1      32.161  24.363  25.044  1.00  0.00     0.058 C 
BRANCH   6   8
ATOM      8  C   UNL A   1      34.683  24.271  24.827  1.00  0.00     0.422 C 
ATOM      9  F   UNL A   1      35.118  23.771  26.006  1.00  0.00    -0.168 F 
ATOM     10  F   UNL A   1      35.653  24.014  23.919  1.00  0.00    -0.168 F 
ATOM     11  F   UNL A   1      34.612  25.613  24.941  1.00  0.00    -0.168 F 
ENDBRANCH   6   8
BRANCH   6  12
ATOM     12  N   UNL A   1      33.239  23.471  22.936  1.00  0.00    -0.326 N 
ATOM     13  C   UNL A   1      33.149  24.407  21.935  1.00  0.00     0.288 C 
ATOM     14  H   UNL A   1      33.227  22.538  22.622  1.00  0.00     0.165 HD
ATOM     15  O   UNL A   1      33.354  24.034  20.782  1.00  0.00    -0.266 OA
BRANCH  13  16
ATOM     16  C   UNL A   1      32.747  25.749  22.265  1.00  0.00     0.192 A 
ATOM     17  C   UNL A   1      33.449  26.922  22.462  1.00  0.00     0.057 A 
ATOM     18  O   UNL A   1      31.406  25.987  22.415  1.00  0.00    -0.444 OA
ATOM     19  C   UNL A   1      32.492  27.917  22.792  1.00  0.00     0.059 A 
ATOM     20  C   UNL A   1      31.263  27.302  22.723  1.00  0.00     0.170 A 
ATOM     21  Br  UNL A   1      29.622  28.134  23.026  1.00  0.00    -0.008 Br
ENDBRANCH  13  16
ENDBRANCH   6  12
ENDBRANCH   4   6
ENDBRANCH   3   4
ENDBRANCH   2   3
ENDBRANCH   1   2
BRANCH   1  22
ATOM     22  O   UNL A   1      37.083  21.493  25.520  1.00  0.00    -0.458 OA
BRANCH  22  23
ATOM     23  C   UNL A   1      38.411  21.315  25.721  1.00  0.00     0.338 C 
ATOM     24  O   UNL A   1      39.077  20.354  25.379  1.00  0.00    -0.246 OA
BRANCH  23  25
ATOM     25  C   UNL A   1      38.983  22.482  26.418  1.00  0.00     0.060 A 
ATOM     26  C   UNL A   1      38.499  23.761  26.157  1.00  0.00     0.016 A 
ATOM     27  C   UNL A   1      40.110  22.318  27.220  1.00  0.00     0.016 A 
ATOM     28  C   UNL A   1      39.223  24.879  26.568  1.00  0.00     0.010 A 
ATOM     29  C   UNL A   1      40.758  23.444  27.744  1.00  0.00     0.010 A 
ATOM     30  C   UNL A   1      40.358  24.742  27.379  1.00  0.00    -0.014 A 
BRANCH  30  31
ATOM     31  C   UNL A   1      41.164  25.933  27.791  1.00  0.00     0.031 A 
ATOM     32  C   UNL A   1      40.541  26.995  28.666  1.00  0.00     0.074 A 
ATOM     33  C   UNL A   1      42.450  26.075  27.408  1.00  0.00     0.049 A 
ATOM     34  N   UNL A   1      40.955  28.211  28.921  1.00  0.00    -0.248 NA
ATOM     35  C   UNL A   1      39.270  26.648  29.320  1.00  0.00     0.031 C 
ATOM     36  C   UNL A   1      43.216  25.109  26.618  1.00  0.00     0.029 A 
ATOM     37  N   UNL A   1      43.347  27.090  27.639  1.00  0.00    -0.354 N 
ATOM     38  C   UNL A   1      39.957  28.801  29.693  1.00  0.00     0.074 A 
ATOM     39  C   UNL A   1      38.921  27.803  29.866  1.00  0.00     0.031 C 
ATOM     40  C   UNL A   1      44.473  25.551  26.474  1.00  0.00     0.029 A 
ATOM     41  C   UNL A   1      44.578  26.884  27.056  1.00  0.00     0.049 A 
ATOM     42  H   UNL A   1      43.131  27.891  28.169  1.00  0.00     0.167 HD
ATOM     43  C   UNL A   1      39.908  30.059  30.201  1.00  0.00     0.034 A 
ATOM     44  C   UNL A   1      45.651  27.690  26.944  1.00  0.00     0.034 A 
ATOM     45  C   UNL A   1      40.984  31.015  30.082  1.00  0.00     0.049 A 
ATOM     46  C   UNL A   1      45.573  29.088  27.498  1.00  0.00     0.074 A 
ATOM     47  C   UNL A   1      41.046  32.311  30.566  1.00  0.00     0.029 A 
ATOM     48  N   UNL A   1      42.197  30.771  29.453  1.00  0.00    -0.354 N 
ATOM     49  N   UNL A   1      44.577  29.673  28.121  1.00  0.00    -0.248 NA
ATOM     50  C   UNL A   1      46.754  29.940  27.308  1.00  0.00     0.031 C 
ATOM     51  C   UNL A   1      42.275  32.865  30.189  1.00  0.00     0.029 A 
ATOM     52  C   UNL A   1      43.007  31.896  29.524  1.00  0.00     0.049 A 
ATOM     53  H   UNL A   1      42.447  29.924  29.020  1.00  0.00     0.167 HD
ATOM     54  C   UNL A   1      45.013  30.965  28.397  1.00  0.00     0.074 A 
ATOM     55  C   UNL A   1      46.370  31.062  27.899  1.00  0.00     0.031 C 
ATOM     56  C   UNL A   1      44.349  31.983  29.001  1.00  0.00     0.034 A 
BRANCH  43  57
ATOM     57  C   UNL A   1      38.623  30.493  30.866  1.00  0.00     0.023 A 
ATOM     58  C   UNL A   1      37.577  31.112  30.160  1.00  0.00     0.031 A 
ATOM     59  C   UNL A   1      38.459  30.307  32.253  1.00  0.00     0.131 A 
ATOM     60  C   UNL A   1      36.451  31.585  30.852  1.00  0.00     0.055 A 
ATOM     61  C   UNL A   1      37.302  30.711  32.921  1.00  0.00     0.041 A 
ATOM     62  F   UNL A   1      39.432  29.740  32.985  1.00  0.00    -0.206 F 
ATOM     63  C   UNL A   1      36.295  31.368  32.223  1.00  0.00     0.022 A 
BRANCH  60  64
ATOM     64  S   UNL A   1      35.251  32.611  29.958  1.00  0.00     0.124 S 
ATOM     65  O   UNL A   1      36.096  33.700  29.475  1.00  0.00    -0.237 OA
ATOM     66  O   UNL A   1      34.745  31.695  28.943  1.00  0.00    -0.237 OA
ATOM     67  O   UNL A   1      34.287  32.991  30.990  1.00  0.00    -0.744 OA
ENDBRANCH  60  64
ENDBRANCH  43  57
BRANCH  44  68
ATOM     68  C   UNL A   1      46.859  27.235  26.197  1.00  0.00     0.023 A 
ATOM     69  C   UNL A   1      47.096  27.647  24.877  1.00  0.00     0.031 A 
ATOM     70  C   UNL A   1      47.785  26.358  26.793  1.00  0.00     0.131 A 
ATOM     71  C   UNL A   1      48.217  27.161  24.186  1.00  0.00     0.055 A 
ATOM     72  C   UNL A   1      48.925  25.921  26.120  1.00  0.00     0.041 A 
ATOM     73  F   UNL A   1      47.604  25.932  28.053  1.00  0.00    -0.206 F 
ATOM     74  C   UNL A   1      49.142  26.315  24.803  1.00  0.00     0.022 A 
BRANCH  71  75
ATOM     75  S   UNL A   1      48.420  27.599  22.437  1.00  0.00     0.124 S 
ATOM     76  O   UNL A   1      48.545  26.287  21.814  1.00  0.00    -0.237 OA
ATOM     77  O   UNL A   1      47.184  28.326  22.161  1.00  0.00    -0.237 OA
ATOM     78  O   UNL A   1      49.633  28.413  22.428  1.00  0.00    -0.744 OA
ENDBRANCH  71  75
ENDBRANCH  44  68
BRANCH  56  79
ATOM     79  C   UNL A   1      45.107  33.273  29.175  1.00  0.00     0.023 A 
ATOM     80  C   UNL A   1      45.037  34.300  28.218  1.00  0.00     0.031 A 
ATOM     81  C   UNL A   1      45.935  33.462  30.295  1.00  0.00     0.131 A 
ATOM     82  C   UNL A   1      45.825  35.451  28.372  1.00  0.00     0.055 A 
ATOM     83  C   UNL A   1      46.679  34.629  30.468  1.00  0.00     0.041 A 
ATOM     84  F   UNL A   1      46.039  32.509  31.235  1.00  0.00    -0.206 F 
ATOM     85  C   UNL A   1      46.635  35.627  29.497  1.00  0.00     0.022 A 
BRANCH  82  86
ATOM     86  S   UNL A   1      45.840  36.681  27.039  1.00  0.00     0.124 S 
ATOM     87  O   UNL A   1      46.748  37.694  27.570  1.00  0.00    -0.237 OA
ATOM     88  O   UNL A   1      46.339  35.909  25.906  1.00  0.00    -0.237 OA
ATOM     89  O   UNL A   1      44.441  37.095  26.939  1.00  0.00    -0.744 OA
ENDBRANCH  82  86
ENDBRANCH  56  79
ENDBRANCH  30  31
ENDBRANCH  23  25
ENDBRANCH  22  23
ENDBRANCH   1  22
TORSDOF 17
ENDMDL
MODEL 2
REMARK VINA RESULT:     -11.3      5.225     10.074
REMARK SMILES C[C@](NC(=O)c1ccc(Br)o1)(C(=O)OCCOC(=O)c1ccc(-c2c3nc(c(-c4cc(S(=O)(=O)[O-])ccc4F)c4ccc([nH]4)c(-c4cc(S(=O)(=O)[O-])ccc4F)c4nc(c(-c5cc(S(=O)(=O)[O-])ccc5F)c5ccc2[nH]5)C=C4)C=C3)cc1)C(F)(F)F
REMARK SMILES IDX 16 1 15 2 14 3 12 4 13 5 2 6 1 7 83 8 84 9 85 10 86 11 3 12
REMARK SMILES IDX 4 13 5 15 6 16 7 17 11 18 8 19 9 20 10 21 17 22 18 23 19 24
REMARK SMILES IDX 20 25 21 26 82 27 22 28 81 29 23 30 24 31 25 32 75 33 26 34
REMARK SMILES IDX 80 35 74 36 76 37 27 38 79 39 73 40 72 41 28 43 60 44 40 45
REMARK SMILES IDX 59 46 41 47 44 48 58 49 77 50 42 51 43 52 57 54 78 55 45 56
REMARK SMILES IDX 29 57 30 58 38 59 31 60 37 61 39 62 36 63 32 64 33 65 34 66
REMARK SMILES IDX 35 67 61 68 62 69 70 70 63 71 69 72 71 73 68 74 64 75 65 76
REMARK SMILES IDX 66 77 67 78 46 79 47 80 55 81 48 82 54 83 56 84 53 85 49 86
REMARK SMILES IDX 50 87 51 88 52 89
REMARK H PARENT 3 14 76 42 44 53
REMARK Flexibility Score: inf
ROOT
ATOM      1  C   UNL A   1      32.347  29.723  24.970  1.00  0.00     0.275 C 
ENDROOT
BRANCH   1   2
ATOM      2  C   UNL A   1      31.056  29.118  24.427  1.00  0.00     0.274 C 
BRANCH   2   3
ATOM      3  O   UNL A   1      30.924  27.724  24.785  1.00  0.00    -0.460 OA
BRANCH   3   4
ATOM      4  C   UNL A   1      31.698  26.859  24.061  1.00  0.00     0.341 C 
ATOM      5  O   UNL A   1      31.941  27.010  22.870  1.00  0.00    -0.249 OA
BRANCH   4   6
ATOM      6  C   UNL A   1      32.134  25.627  24.871  1.00  0.00     0.231 C 
ATOM      7  C   UNL A   1      32.660  24.620  23.839  1.00  0.00     0.058 C 
BRANCH   6   8
ATOM      8  C   UNL A   1      33.265  26.142  25.772  1.00  0.00     0.422 C 
ATOM      9  F   UNL A   1      32.766  26.630  26.930  1.00  0.00    -0.168 F 
ATOM     10  F   UNL A   1      34.117  25.147  26.111  1.00  0.00    -0.168 F 
ATOM     11  F   UNL A   1      34.012  27.105  25.197  1.00  0.00    -0.168 F 
ENDBRANCH   6   8
BRANCH   6  12
ATOM     12  N   UNL A   1      30.984  25.098  25.674  1.00  0.00    -0.326 N 
ATOM     13  C   UNL A   1      30.865  23.974  26.453  1.00  0.00     0.288 C 
ATOM     14  H   UNL A   1      30.172  25.654  25.635  1.00  0.00     0.165 HD
ATOM     15  O   UNL A   1      29.916  23.916  27.232  1.00  0.00    -0.266 OA
BRANCH  13  16
ATOM     16  C   UNL A   1      31.797  22.892  26.270  1.00  0.00     0.192 A 
ATOM     17  C   UNL A   1      32.982  22.555  26.893  1.00  0.00     0.057 A 
ATOM     18  O   UNL A   1      31.504  21.963  25.308  1.00  0.00    -0.444 OA
ATOM     19  C   UNL A   1      33.460  21.384  26.249  1.00  0.00     0.059 A 
ATOM     20  C   UNL A   1      32.510  21.051  25.311  1.00  0.00     0.170 A 
ATOM     21  Br  UNL A   1      32.585  19.570  24.179  1.00  0.00    -0.008 Br
ENDBRANCH  13  16
ENDBRANCH   6  12
ENDBRANCH   4   6
ENDBRANCH   3   4
ENDBRANCH   2   3
ENDBRANCH   1   2
BRANCH   1  22
ATOM     22  O   UNL A   1      32.281  29.810  26.402  1.00  0.00    -0.458 OA
BRANCH  22  23
ATOM     23  C   UNL A   1      32.795  30.944  26.937  1.00  0.00     0.338 C 
ATOM     24  O   UNL A   1      32.225  32.013  27.066  1.00  0.00    -0.246 OA
BRANCH  23  25
ATOM     25  C   UNL A   1      34.183  30.715  27.382  1.00  0.00     0.060 A 
ATOM     26  C   UNL A   1      34.623  29.426  27.671  1.00  0.00     0.016 A 
ATOM     27  C   UNL A   1      35.003  31.806  27.660  1.00  0.00     0.016 A 
ATOM     28  C   UNL A   1      35.811  29.236  28.373  1.00  0.00     0.010 A 
ATOM     29  C   UNL A   1      36.258  31.598  28.245  1.00  0.00     0.010 A 
ATOM     30  C   UNL A   1      36.657  30.315  28.662  1.00  0.00    -0.014 A 
BRANCH  30  31
ATOM     31  C   UNL A   1      37.914  30.125  29.450  1.00  0.00     0.031 A 
ATOM     32  C   UNL A   1      39.038  29.289  28.883  1.00  0.00     0.074 A 
ATOM     33  C   UNL A   1      38.076  30.700  30.660  1.00  0.00     0.049 A 
ATOM     34  N   UNL A   1      40.084  28.783  29.485  1.00  0.00    -0.248 NA
ATOM     35  C   UNL A   1      38.956  28.961  27.451  1.00  0.00     0.031 C 
ATOM     36  C   UNL A   1      37.114  31.587  31.318  1.00  0.00     0.029 A 
ATOM     37  N   UNL A   1      39.117  30.628  31.555  1.00  0.00    -0.354 N 
ATOM     38  C   UNL A   1      40.738  28.009  28.529  1.00  0.00     0.074 A 
ATOM     39  C   UNL A   1      39.968  28.119  27.307  1.00  0.00     0.031 C 
ATOM     40  C   UNL A   1      37.629  32.015  32.480  1.00  0.00     0.029 A 
ATOM     41  C   UNL A   1      38.902  31.344  32.711  1.00  0.00     0.049 A 
ATOM     42  H   UNL A   1      39.938  30.112  31.386  1.00  0.00     0.167 HD
ATOM     43  C   UNL A   1      41.868  27.269  28.664  1.00  0.00     0.034 A 
ATOM     44  C   UNL A   1      39.611  31.412  33.855  1.00  0.00     0.034 A 
ATOM     45  C   UNL A   1      42.664  27.231  29.869  1.00  0.00     0.049 A 
ATOM     46  C   UNL A   1      40.853  30.573  33.993  1.00  0.00     0.074 A 
ATOM     47  C   UNL A   1      43.831  26.527  30.113  1.00  0.00     0.029 A 
ATOM     48  N   UNL A   1      42.387  27.947  31.027  1.00  0.00    -0.354 N 
ATOM     49  N   UNL A   1      41.394  29.751  33.124  1.00  0.00    -0.248 NA
ATOM     50  C   UNL A   1      41.562  30.649  35.277  1.00  0.00     0.031 C 
ATOM     51  C   UNL A   1      44.233  26.779  31.430  1.00  0.00     0.029 A 
ATOM     52  C   UNL A   1      43.352  27.689  31.990  1.00  0.00     0.049 A 
ATOM     53  H   UNL A   1      41.619  28.550  31.146  1.00  0.00     0.167 HD
ATOM     54  C   UNL A   1      42.508  29.213  33.758  1.00  0.00     0.074 A 
ATOM     55  C   UNL A   1      42.577  29.824  35.070  1.00  0.00     0.031 C 
ATOM     56  C   UNL A   1      43.393  28.290  33.301  1.00  0.00     0.034 A 
BRANCH  43  57
ATOM     57  C   UNL A   1      42.268  26.388  27.504  1.00  0.00     0.023 A 
ATOM     58  C   UNL A   1      41.835  25.057  27.382  1.00  0.00     0.031 A 
ATOM     59  C   UNL A   1      43.132  26.892  26.512  1.00  0.00     0.131 A 
ATOM     60  C   UNL A   1      42.322  24.257  26.336  1.00  0.00     0.055 A 
ATOM     61  C   UNL A   1      43.551  26.113  25.433  1.00  0.00     0.041 A 
ATOM     62  F   UNL A   1      43.595  28.150  26.585  1.00  0.00    -0.206 F 
ATOM     63  C   UNL A   1      43.159  24.782  25.347  1.00  0.00     0.022 A 
BRANCH  60  64
ATOM     64  S   UNL A   1      41.958  22.480  26.360  1.00  0.00     0.124 S 
ATOM     65  O   UNL A   1      42.400  22.106  27.701  1.00  0.00    -0.237 OA
ATOM     66  O   UNL A   1      40.519  22.449  26.128  1.00  0.00    -0.237 OA
ATOM     67  O   UNL A   1      42.776  21.946  25.271  1.00  0.00    -0.744 OA
ENDBRANCH  60  64
ENDBRANCH  43  57
BRANCH  44  68
ATOM     68  C   UNL A   1      39.116  32.232  34.998  1.00  0.00     0.023 A 
ATOM     69  C   UNL A   1      38.547  31.632  36.132  1.00  0.00     0.031 A 
ATOM     70  C   UNL A   1      39.188  33.638  34.959  1.00  0.00     0.131 A 
ATOM     71  C   UNL A   1      38.048  32.435  37.169  1.00  0.00     0.055 A 
ATOM     72  C   UNL A   1      38.738  34.428  36.016  1.00  0.00     0.041 A 
ATOM     73  F   UNL A   1      39.720  34.262  33.897  1.00  0.00    -0.206 F 
ATOM     74  C   UNL A   1      38.154  33.827  37.127  1.00  0.00     0.022 A 
BRANCH  71  75
ATOM     75  S   UNL A   1      37.193  31.635  38.555  1.00  0.00     0.124 S 
ATOM     76  O   UNL A   1      35.961  32.411  38.632  1.00  0.00    -0.237 OA
ATOM     77  O   UNL A   1      37.058  30.263  38.077  1.00  0.00    -0.237 OA
ATOM     78  O   UNL A   1      38.115  31.814  39.673  1.00  0.00    -0.744 OA
ENDBRANCH  71  75
ENDBRANCH  44  68
BRANCH  56  79
ATOM     79  C   UNL A   1      44.521  27.919  34.229  1.00  0.00     0.023 A 
ATOM     80  C   UNL A   1      44.386  26.884  35.170  1.00  0.00     0.031 A 
ATOM     81  C   UNL A   1      45.731  28.633  34.191  1.00  0.00     0.131 A 
ATOM     82  C   UNL A   1      45.427  26.626  36.075  1.00  0.00     0.055 A 
ATOM     83  C   UNL A   1      46.781  28.339  35.061  1.00  0.00     0.041 A 
ATOM     84  F   UNL A   1      45.907  29.633  33.312  1.00  0.00    -0.206 F 
ATOM     85  C   UNL A   1      46.628  27.338  36.017  1.00  0.00     0.022 A 
BRANCH  82  86
ATOM     86  S   UNL A   1      45.159  25.400  37.385  1.00  0.00     0.124 S 
ATOM     87  O   UNL A   1      45.014  24.164  36.620  1.00  0.00    -0.237 OA
ATOM     88  O   UNL A   1      46.377  25.519  38.179  1.00  0.00    -0.237 OA
ATOM     89  O   UNL A   1      43.941  25.866  38.046  1.00  0.00    -0.744 OA
ENDBRANCH  82  86
ENDBRANCH  56  79
ENDBRANCH  30  31
ENDBRANCH  23  25
ENDBRANCH  22  23
ENDBRANCH   1  22
TORSDOF 17
ENDMDL
MODEL 3
REMARK VINA RESULT:     -11.2      1.202      1.722
REMARK SMILES C[C@](NC(=O)c1ccc(Br)o1)(C(=O)OCCOC(=O)c1ccc(-c2c3nc(c(-c4cc(S(=O)(=O)[O-])ccc4F)c4ccc([nH]4)c(-c4cc(S(=O)(=O)[O-])ccc4F)c4nc(c(-c5cc(S(=O)(=O)[O-])ccc5F)c5ccc2[nH]5)C=C4)C=C3)cc1)C(F)(F)F
REMARK SMILES IDX 16 1 15 2 14 3 12 4 13 5 2 6 1 7 83 8 84 9 85 10 86 11 3 12
REMARK SMILES IDX 4 13 5 15 6 16 7 17 11 18 8 19 9 20 10 21 17 22 18 23 19 24
REMARK SMILES IDX 20 25 21 26 82 27 22 28 81 29 23 30 24 31 25 32 75 33 26 34
REMARK SMILES IDX 80 35 74 36 76 37 27 38 79 39 73 40 72 41 28 43 60 44 40 45
REMARK SMILES IDX 59 46 41 47 44 48 58 49 77 50 42 51 43 52 57 54 78 55 45 56
REMARK SMILES IDX 29 57 30 58 38 59 31 60 37 61 39 62 36 63 32 64 33 65 34 66
REMARK SMILES IDX 35 67 61 68 62 69 70 70 63 71 69 72 71 73 68 74 64 75 65 76
REMARK SMILES IDX 66 77 67 78 46 79 47 80 55 81 48 82 54 83 56 84 53 85 49 86
REMARK SMILES IDX 50 87 51 88 52 89
REMARK H PARENT 3 14 76 42 44 53
REMARK Flexibility Score: inf
ROOT
ATOM      1  C   UNL A   1      36.261  20.518  24.994  1.00  0.00     0.275 C 
ENDROOT
BRANCH   1   2
ATOM      2  C   UNL A   1      34.900  20.928  25.547  1.00  0.00     0.274 C 
BRANCH   2   3
ATOM      3  O   UNL A   1      34.257  21.918  24.713  1.00  0.00    -0.460 OA
BRANCH   3   4
ATOM      4  C   UNL A   1      32.896  21.989  24.835  1.00  0.00     0.341 C 
ATOM      5  O   UNL A   1      32.171  21.002  24.860  1.00  0.00    -0.249 OA
BRANCH   4   6
ATOM      6  C   UNL A   1      32.371  23.434  24.825  1.00  0.00     0.231 C 
ATOM      7  C   UNL A   1      33.600  24.322  25.060  1.00  0.00     0.058 C 
BRANCH   6   8
ATOM      8  C   UNL A   1      31.807  23.628  23.410  1.00  0.00     0.422 C 
ATOM      9  F   UNL A   1      32.273  22.670  22.577  1.00  0.00    -0.168 F 
ATOM     10  F   UNL A   1      30.458  23.525  23.398  1.00  0.00    -0.168 F 
ATOM     11  F   UNL A   1      32.104  24.830  22.876  1.00  0.00    -0.168 F 
ENDBRANCH   6   8
BRANCH   6  12
ATOM     12  N   UNL A   1      31.312  23.609  25.871  1.00  0.00    -0.326 N 
ATOM     13  C   UNL A   1      30.517  24.684  26.184  1.00  0.00     0.288 C 
ATOM     14  H   UNL A   1      31.159  22.814  26.431  1.00  0.00     0.165 HD
ATOM     15  O   UNL A   1      29.533  24.482  26.892  1.00  0.00    -0.266 OA
BRANCH  13  16
ATOM     16  C   UNL A   1      30.909  25.997  25.743  1.00  0.00     0.192 A 
ATOM     17  C   UNL A   1      31.793  26.934  26.241  1.00  0.00     0.057 A 
ATOM     18  O   UNL A   1      30.338  26.472  24.593  1.00  0.00    -0.444 OA
ATOM     19  C   UNL A   1      31.726  28.056  25.374  1.00  0.00     0.059 A 
ATOM     20  C   UNL A   1      30.846  27.712  24.373  1.00  0.00     0.170 A 
ATOM     21  Br  UNL A   1      30.388  28.791  22.923  1.00  0.00    -0.008 Br
ENDBRANCH  13  16
ENDBRANCH   6  12
ENDBRANCH   4   6
ENDBRANCH   3   4
ENDBRANCH   2   3
ENDBRANCH   1   2
BRANCH   1  22
ATOM     22  O   UNL A   1      37.188  21.606  25.123  1.00  0.00    -0.458 OA
BRANCH  22  23
ATOM     23  C   UNL A   1      38.396  21.280  25.643  1.00  0.00     0.338 C 
ATOM     24  O   UNL A   1      38.963  20.205  25.550  1.00  0.00    -0.246 OA
BRANCH  23  25
ATOM     25  C   UNL A   1      38.978  22.436  26.351  1.00  0.00     0.060 A 
ATOM     26  C   UNL A   1      38.482  23.717  26.125  1.00  0.00     0.016 A 
ATOM     27  C   UNL A   1      40.123  22.262  27.125  1.00  0.00     0.016 A 
ATOM     28  C   UNL A   1      39.209  24.830  26.543  1.00  0.00     0.010 A 
ATOM     29  C   UNL A   1      40.776  23.381  27.656  1.00  0.00     0.010 A 
ATOM     30  C   UNL A   1      40.362  24.684  27.326  1.00  0.00    -0.014 A 
BRANCH  30  31
ATOM     31  C   UNL A   1      41.171  25.871  27.745  1.00  0.00     0.031 A 
ATOM     32  C   UNL A   1      40.551  26.930  28.626  1.00  0.00     0.074 A 
ATOM     33  C   UNL A   1      42.458  26.011  27.362  1.00  0.00     0.049 A 
ATOM     34  N   UNL A   1      40.967  28.143  28.887  1.00  0.00    -0.248 NA
ATOM     35  C   UNL A   1      39.279  26.582  29.278  1.00  0.00     0.031 C 
ATOM     36  C   UNL A   1      43.221  25.048  26.566  1.00  0.00     0.029 A 
ATOM     37  N   UNL A   1      43.357  27.024  27.598  1.00  0.00    -0.354 N 
ATOM     38  C   UNL A   1      39.971  28.731  29.663  1.00  0.00     0.074 A 
ATOM     39  C   UNL A   1      38.933  27.735  29.830  1.00  0.00     0.031 C 
ATOM     40  C   UNL A   1      44.479  25.488  26.425  1.00  0.00     0.029 A 
ATOM     41  C   UNL A   1      44.586  26.817  27.014  1.00  0.00     0.049 A 
ATOM     42  H   UNL A   1      43.142  27.822  28.132  1.00  0.00     0.167 HD
ATOM     43  C   UNL A   1      39.925  29.986  30.177  1.00  0.00     0.034 A 
ATOM     44  C   UNL A   1      45.662  27.622  26.905  1.00  0.00     0.034 A 
ATOM     45  C   UNL A   1      41.003  30.941  30.063  1.00  0.00     0.049 A 
ATOM     46  C   UNL A   1      45.587  29.017  27.467  1.00  0.00     0.074 A 
ATOM     47  C   UNL A   1      41.068  32.234  30.554  1.00  0.00     0.029 A 
ATOM     48  N   UNL A   1      42.216  30.698  29.432  1.00  0.00    -0.354 N 
ATOM     49  N   UNL A   1      44.592  29.601  28.093  1.00  0.00    -0.248 NA
ATOM     50  C   UNL A   1      46.769  29.867  27.282  1.00  0.00     0.031 C 
ATOM     51  C   UNL A   1      42.299  32.787  30.179  1.00  0.00     0.029 A 
ATOM     52  C   UNL A   1      43.028  31.820  29.509  1.00  0.00     0.049 A 
ATOM     53  H   UNL A   1      42.463  29.852  28.994  1.00  0.00     0.167 HD
ATOM     54  C   UNL A   1      45.031  30.891  28.376  1.00  0.00     0.074 A 
ATOM     55  C   UNL A   1      46.388  30.987  27.878  1.00  0.00     0.031 C 
ATOM     56  C   UNL A   1      44.370  31.907  28.986  1.00  0.00     0.034 A 
BRANCH  43  57
ATOM     57  C   UNL A   1      38.641  30.419  30.845  1.00  0.00     0.023 A 
ATOM     58  C   UNL A   1      37.599  31.048  30.143  1.00  0.00     0.031 A 
ATOM     59  C   UNL A   1      38.476  30.223  32.230  1.00  0.00     0.131 A 
ATOM     60  C   UNL A   1      36.473  31.520  30.839  1.00  0.00     0.055 A 
ATOM     61  C   UNL A   1      37.320  30.626  32.901  1.00  0.00     0.041 A 
ATOM     62  F   UNL A   1      39.445  29.645  32.958  1.00  0.00    -0.206 F 
ATOM     63  C   UNL A   1      36.316  31.292  32.208  1.00  0.00     0.022 A 
BRANCH  60  64
ATOM     64  S   UNL A   1      35.278  32.559  29.953  1.00  0.00     0.124 S 
ATOM     65  O   UNL A   1      34.311  32.860  31.006  1.00  0.00    -0.237 OA
ATOM     66  O   UNL A   1      36.102  33.674  29.501  1.00  0.00    -0.237 OA
ATOM     67  O   UNL A   1      34.780  31.682  28.893  1.00  0.00    -0.744 OA
ENDBRANCH  60  64
ENDBRANCH  43  57
BRANCH  44  68
ATOM     68  C   UNL A   1      46.868  27.168  26.156  1.00  0.00     0.023 A 
ATOM     69  C   UNL A   1      47.113  27.599  24.843  1.00  0.00     0.031 A 
ATOM     70  C   UNL A   1      47.785  26.274  26.741  1.00  0.00     0.131 A 
ATOM     71  C   UNL A   1      48.233  27.115  24.148  1.00  0.00     0.055 A 
ATOM     72  C   UNL A   1      48.923  25.837  26.065  1.00  0.00     0.041 A 
ATOM     73  F   UNL A   1      47.595  25.829  27.993  1.00  0.00    -0.206 F 
ATOM     74  C   UNL A   1      49.148  26.250  24.756  1.00  0.00     0.022 A 
BRANCH  71  75
ATOM     75  S   UNL A   1      48.446  27.579  22.408  1.00  0.00     0.124 S 
ATOM     76  O   UNL A   1      47.223  28.328  22.147  1.00  0.00    -0.237 OA
ATOM     77  O   UNL A   1      49.680  28.359  22.451  1.00  0.00    -0.237 OA
ATOM     78  O   UNL A   1      48.550  26.293  21.722  1.00  0.00    -0.744 OA
ENDBRANCH  71  75
ENDBRANCH  44  68
BRANCH  56  79
ATOM     79  C   UNL A   1      45.131  33.194  29.167  1.00  0.00     0.023 A 
ATOM     80  C   UNL A   1      45.110  34.202  28.188  1.00  0.00     0.031 A 
ATOM     81  C   UNL A   1      45.912  33.399  30.317  1.00  0.00     0.131 A 
ATOM     82  C   UNL A   1      45.901  35.350  28.352  1.00  0.00     0.055 A 
ATOM     83  C   UNL A   1      46.658  34.564  30.498  1.00  0.00     0.041 A 
ATOM     84  F   UNL A   1      45.968  32.464  31.280  1.00  0.00    -0.206 F 
ATOM     85  C   UNL A   1      46.664  35.542  29.507  1.00  0.00     0.022 A 
BRANCH  82  86
ATOM     86  S   UNL A   1      45.983  36.553  26.997  1.00  0.00     0.124 S 
ATOM     87  O   UNL A   1      47.065  37.431  27.435  1.00  0.00    -0.237 OA
ATOM     88  O   UNL A   1      46.276  35.707  25.845  1.00  0.00    -0.237 OA
ATOM     89  O   UNL A   1      44.653  37.161  26.997  1.00  0.00    -0.744 OA
ENDBRANCH  82  86
ENDBRANCH  56  79
ENDBRANCH  30  31
ENDBRANCH  23  25
ENDBRANCH  22  23
ENDBRANCH   1  22
TORSDOF 17
ENDMDL
