MODEL 1
REMARK VINA RESULT:     -12.4      0.000      0.000
REMARK SMILES CCCc1cc2c(cc1Cl)C=C(C(=O)OCCOC(=O)c1ccc(-c3c4nc(c(-c5cc(S(=O)(=O)[O-])ccc5F)c5ccc([nH]5)c(-c5cc(S(=O)(=O)[O-])ccc5F)c5nc(c(-c6cc(S(=O)(=O)[O-])ccc6F)c6ccc3[nH]6)C=C5)C=C4)cc1)[C@H](C(F)(F)F)O2
REMARK SMILES IDX 17 1 16 2 15 3 13 4 14 5 12 6 4 7 5 8 9 9 6 10 8 11 10 12
REMARK SMILES IDX 7 13 89 14 11 15 84 16 3 17 2 18 1 19 85 20 86 21 87 22
REMARK SMILES IDX 88 23 18 24 19 25 20 26 21 27 22 28 83 29 23 30 82 31 24 32
REMARK SMILES IDX 25 33 26 34 76 35 27 36 81 37 75 38 77 39 28 40 80 41 74 42
REMARK SMILES IDX 73 43 29 45 61 46 41 47 60 48 42 49 45 50 59 51 78 52 43 53
REMARK SMILES IDX 44 54 58 56 79 57 46 58 30 59 31 60 39 61 32 62 38 63 40 64
REMARK SMILES IDX 37 65 33 66 34 67 35 68 36 69 62 70 63 71 71 72 64 73 70 74
REMARK SMILES IDX 72 75 69 76 65 77 66 78 67 79 68 80 47 81 48 82 56 83 49 84
REMARK SMILES IDX 55 85 57 86 54 87 50 88 51 89 52 90 53 91
REMARK H PARENT 77 44 45 55
REMARK Flexibility Score: inf
ROOT
ATOM      1  C   UNL A   1      31.388  30.755  25.653  1.00  0.00     0.275 C 
ENDROOT
BRANCH   1   2
ATOM      2  C   UNL A   1      31.530  29.456  24.855  1.00  0.00     0.275 C 
BRANCH   2   3
ATOM      3  O   UNL A   1      32.888  28.968  24.897  1.00  0.00    -0.459 OA
BRANCH   3   4
ATOM      4  C   UNL A   1      33.401  28.523  23.727  1.00  0.00     0.338 C 
ATOM      5  O   UNL A   1      33.840  29.219  22.832  1.00  0.00    -0.246 OA
BRANCH   4   6
ATOM      6  C   UNL A   1      33.425  27.045  23.698  1.00  0.00     0.087 C 
ATOM      7  C   UNL A   1      34.463  22.234  24.745  1.00  0.00    -0.026 A 
ATOM      8  C   UNL A   1      34.427  23.007  23.564  1.00  0.00     0.052 A 
ATOM      9  C   UNL A   1      34.151  22.868  25.962  1.00  0.00     0.045 A 
ATOM     10  C   UNL A   1      34.077  24.354  23.588  1.00  0.00     0.128 A 
ATOM     11  C   UNL A   1      33.863  24.234  25.995  1.00  0.00     0.032 A 
ATOM     12  Cl  UNL A   1      34.156  22.040  27.479  1.00  0.00    -0.084 Cl
ATOM     13  C   UNL A   1      33.852  24.973  24.811  1.00  0.00     0.019 A 
ATOM     14  O   UNL A   1      34.047  25.038  22.397  1.00  0.00    -0.475 OA
ATOM     15  C   UNL A   1      33.737  26.414  24.837  1.00  0.00     0.027 C 
ATOM     16  C   UNL A   1      33.288  26.297  22.401  1.00  0.00     0.316 C 
BRANCH   7  17
ATOM     17  C   UNL A   1      34.915  20.791  24.674  1.00  0.00     0.037 C 
BRANCH  17  18
ATOM     18  C   UNL A   1      36.371  20.522  25.075  1.00  0.00     0.001 C 
ATOM     19  C   UNL A   1      37.355  21.589  24.617  1.00  0.00     0.004 C 
ENDBRANCH  17  18
ENDBRANCH   7  17
BRANCH  16  20
ATOM     20  C   UNL A   1      31.854  26.047  21.898  1.00  0.00     0.430 C 
ATOM     21  F   UNL A   1      31.800  25.772  20.578  1.00  0.00    -0.167 F 
ATOM     22  F   UNL A   1      31.221  25.047  22.546  1.00  0.00    -0.167 F 
ATOM     23  F   UNL A   1      31.098  27.162  22.103  1.00  0.00    -0.167 F 
ENDBRANCH  16  20
ENDBRANCH   4   6
ENDBRANCH   3   4
ENDBRANCH   2   3
ENDBRANCH   1   2
BRANCH   1  24
ATOM     24  O   UNL A   1      32.207  30.718  26.838  1.00  0.00    -0.458 OA
BRANCH  24  25
ATOM     25  C   UNL A   1      32.820  31.880  27.160  1.00  0.00     0.338 C 
ATOM     26  O   UNL A   1      32.332  32.999  27.160  1.00  0.00    -0.246 OA
BRANCH  25  27
ATOM     27  C   UNL A   1      34.167  31.598  27.674  1.00  0.00     0.060 A 
ATOM     28  C   UNL A   1      35.071  32.598  28.004  1.00  0.00     0.016 A 
ATOM     29  C   UNL A   1      34.467  30.275  27.968  1.00  0.00     0.016 A 
ATOM     30  C   UNL A   1      36.287  32.241  28.607  1.00  0.00     0.010 A 
ATOM     31  C   UNL A   1      35.596  29.938  28.703  1.00  0.00     0.010 A 
ATOM     32  C   UNL A   1      36.555  30.909  28.996  1.00  0.00    -0.014 A 
BRANCH  32  33
ATOM     33  C   UNL A   1      37.816  30.527  29.701  1.00  0.00     0.031 A 
ATOM     34  C   UNL A   1      38.104  30.997  31.112  1.00  0.00     0.074 A 
ATOM     35  C   UNL A   1      38.741  29.788  29.053  1.00  0.00     0.049 A 
ATOM     36  N   UNL A   1      39.132  30.724  31.878  1.00  0.00    -0.248 NA
ATOM     37  C   UNL A   1      37.145  31.929  31.732  1.00  0.00     0.031 C 
ATOM     38  C   UNL A   1      38.652  29.380  27.650  1.00  0.00     0.029 A 
ATOM     39  N   UNL A   1      39.924  29.234  29.482  1.00  0.00    -0.354 N 
ATOM     40  C   UNL A   1      38.948  31.460  33.046  1.00  0.00     0.074 A 
ATOM     41  C   UNL A   1      37.766  32.264  32.853  1.00  0.00     0.031 C 
ATOM     42  C   UNL A   1      39.683  28.573  27.360  1.00  0.00     0.029 A 
ATOM     43  C   UNL A   1      40.539  28.444  28.537  1.00  0.00     0.049 A 
ATOM     44  H   UNL A   1      40.296  29.389  30.379  1.00  0.00     0.167 HD
ATOM     45  C   UNL A   1      39.663  31.430  34.197  1.00  0.00     0.034 A 
ATOM     46  C   UNL A   1      41.651  27.682  28.609  1.00  0.00     0.034 A 
ATOM     47  C   UNL A   1      40.804  30.575  34.401  1.00  0.00     0.049 A 
ATOM     48  C   UNL A   1      42.391  27.601  29.920  1.00  0.00     0.074 A 
ATOM     49  C   UNL A   1      41.539  30.393  35.558  1.00  0.00     0.029 A 
ATOM     50  N   UNL A   1      41.369  29.754  33.435  1.00  0.00    -0.354 N 
ATOM     51  N   UNL A   1      42.122  28.200  31.057  1.00  0.00    -0.248 NA
ATOM     52  C   UNL A   1      43.574  26.730  29.971  1.00  0.00     0.031 C 
ATOM     53  C   UNL A   1      42.582  29.510  35.277  1.00  0.00     0.029 A 
ATOM     54  C   UNL A   1      42.455  29.079  33.965  1.00  0.00     0.049 A 
ATOM     55  H   UNL A   1      41.044  29.664  32.509  1.00  0.00     0.167 HD
ATOM     56  C   UNL A   1      43.091  27.768  31.959  1.00  0.00     0.074 A 
ATOM     57  C   UNL A   1      43.928  26.825  31.246  1.00  0.00     0.031 C 
ATOM     58  C   UNL A   1      43.277  28.129  33.254  1.00  0.00     0.034 A 
BRANCH  45  59
ATOM     59  C   UNL A   1      39.212  32.284  35.363  1.00  0.00     0.023 A 
ATOM     60  C   UNL A   1      39.660  33.613  35.489  1.00  0.00     0.031 A 
ATOM     61  C   UNL A   1      38.454  31.742  36.419  1.00  0.00     0.131 A 
ATOM     62  C   UNL A   1      39.375  34.340  36.653  1.00  0.00     0.055 A 
ATOM     63  C   UNL A   1      38.126  32.487  37.552  1.00  0.00     0.041 A 
ATOM     64  F   UNL A   1      38.010  30.475  36.361  1.00  0.00    -0.206 F 
ATOM     65  C   UNL A   1      38.600  33.788  37.679  1.00  0.00     0.022 A 
BRANCH  62  66
ATOM     66  S   UNL A   1      40.060  35.997  36.922  1.00  0.00     0.124 S 
ATOM     67  O   UNL A   1      41.474  35.705  37.151  1.00  0.00    -0.237 OA
ATOM     68  O   UNL A   1      39.759  36.659  35.656  1.00  0.00    -0.237 OA
ATOM     69  O   UNL A   1      39.334  36.494  38.085  1.00  0.00    -0.744 OA
ENDBRANCH  62  66
ENDBRANCH  45  59
BRANCH  46  70
ATOM     70  C   UNL A   1      42.047  26.860  27.424  1.00  0.00     0.023 A 
ATOM     71  C   UNL A   1      41.685  25.504  27.325  1.00  0.00     0.031 A 
ATOM     72  C   UNL A   1      42.900  27.388  26.439  1.00  0.00     0.131 A 
ATOM     73  C   UNL A   1      42.237  24.708  26.311  1.00  0.00     0.055 A 
ATOM     74  C   UNL A   1      43.384  26.610  25.386  1.00  0.00     0.041 A 
ATOM     75  F   UNL A   1      43.289  28.671  26.498  1.00  0.00    -0.206 F 
ATOM     76  C   UNL A   1      43.069  25.256  25.331  1.00  0.00     0.022 A 
BRANCH  73  77
ATOM     77  S   UNL A   1      42.020  22.906  26.322  1.00  0.00     0.124 S 
ATOM     78  O   UNL A   1      42.768  22.517  27.513  1.00  0.00    -0.237 OA
ATOM     79  O   UNL A   1      40.568  22.783  26.422  1.00  0.00    -0.237 OA
ATOM     80  O   UNL A   1      42.592  22.482  25.049  1.00  0.00    -0.744 OA
ENDBRANCH  73  77
ENDBRANCH  46  70
BRANCH  58  81
ATOM     81  C   UNL A   1      44.432  27.524  34.017  1.00  0.00     0.023 A 
ATOM     82  C   UNL A   1      44.229  26.375  34.807  1.00  0.00     0.031 A 
ATOM     83  C   UNL A   1      45.678  28.170  34.092  1.00  0.00     0.131 A 
ATOM     84  C   UNL A   1      45.239  25.937  35.674  1.00  0.00     0.055 A 
ATOM     85  C   UNL A   1      46.700  27.696  34.914  1.00  0.00     0.041 A 
ATOM     86  F   UNL A   1      45.915  29.277  33.371  1.00  0.00    -0.206 F 
ATOM     87  C   UNL A   1      46.478  26.586  35.723  1.00  0.00     0.022 A 
BRANCH  84  88
ATOM     88  S   UNL A   1      44.949  24.578  36.840  1.00  0.00     0.124 S 
ATOM     89  O   UNL A   1      46.273  24.400  37.431  1.00  0.00    -0.237 OA
ATOM     90  O   UNL A   1      43.941  25.149  37.731  1.00  0.00    -0.237 OA
ATOM     91  O   UNL A   1      44.491  23.481  35.997  1.00  0.00    -0.744 OA
ENDBRANCH  84  88
ENDBRANCH  58  81
ENDBRANCH  32  33
ENDBRANCH  25  27
ENDBRANCH  24  25
ENDBRANCH   1  24
TORSDOF 17
ENDMDL
MODEL 2
REMARK VINA RESULT:     -12.4      5.029     10.197
REMARK SMILES CCCc1cc2c(cc1Cl)C=C(C(=O)OCCOC(=O)c1ccc(-c3c4nc(c(-c5cc(S(=O)(=O)[O-])ccc5F)c5ccc([nH]5)c(-c5cc(S(=O)(=O)[O-])ccc5F)c5nc(c(-c6cc(S(=O)(=O)[O-])ccc6F)c6ccc3[nH]6)C=C5)C=C4)cc1)[C@H](C(F)(F)F)O2
REMARK SMILES IDX 17 1 16 2 15 3 13 4 14 5 12 6 4 7 5 8 9 9 6 10 8 11 10 12
REMARK SMILES IDX 7 13 89 14 11 15 84 16 3 17 2 18 1 19 85 20 86 21 87 22
REMARK SMILES IDX 88 23 18 24 19 25 20 26 21 27 22 28 83 29 23 30 82 31 24 32
REMARK SMILES IDX 25 33 26 34 76 35 27 36 81 37 75 38 77 39 28 40 80 41 74 42
REMARK SMILES IDX 73 43 29 45 61 46 41 47 60 48 42 49 45 50 59 51 78 52 43 53
REMARK SMILES IDX 44 54 58 56 79 57 46 58 30 59 31 60 39 61 32 62 38 63 40 64
REMARK SMILES IDX 37 65 33 66 34 67 35 68 36 69 62 70 63 71 71 72 64 73 70 74
REMARK SMILES IDX 72 75 69 76 65 77 66 78 67 79 68 80 47 81 48 82 56 83 49 84
REMARK SMILES IDX 55 85 57 86 54 87 50 88 51 89 52 90 53 91
REMARK H PARENT 77 44 45 55
REMARK Flexibility Score: inf
ROOT
ATOM      1  C   UNL A   1      36.673  20.407  25.052  1.00  0.00     0.275 C 
ENDROOT
BRANCH   1   2
ATOM      2  C   UNL A   1      35.247  20.959  25.133  1.00  0.00     0.275 C 
BRANCH   2   3
ATOM      3  O   UNL A   1      35.234  22.274  25.728  1.00  0.00    -0.459 OA
BRANCH   3   4
ATOM      4  C   UNL A   1      34.276  22.503  26.655  1.00  0.00     0.338 C 
ATOM      5  O   UNL A   1      34.159  21.922  27.716  1.00  0.00    -0.246 OA
BRANCH   4   6
ATOM      6  C   UNL A   1      33.404  23.622  26.237  1.00  0.00     0.087 C 
ATOM      7  C   UNL A   1      31.756  28.165  24.836  1.00  0.00    -0.026 A 
ATOM      8  C   UNL A   1      31.346  27.213  25.795  1.00  0.00     0.052 A 
ATOM      9  C   UNL A   1      32.876  27.863  24.039  1.00  0.00     0.045 A 
ATOM     10  C   UNL A   1      32.012  26.000  25.944  1.00  0.00     0.128 A 
ATOM     11  C   UNL A   1      33.582  26.675  24.232  1.00  0.00     0.032 A 
ATOM     12  Cl  UNL A   1      33.482  28.938  22.829  1.00  0.00    -0.084 Cl
ATOM     13  C   UNL A   1      33.160  25.763  25.201  1.00  0.00     0.019 A 
ATOM     14  O   UNL A   1      31.545  25.115  26.886  1.00  0.00    -0.475 OA
ATOM     15  C   UNL A   1      33.973  24.617  25.545  1.00  0.00     0.027 C 
ATOM     16  C   UNL A   1      31.987  23.722  26.730  1.00  0.00     0.316 C 
BRANCH   7  17
ATOM     17  C   UNL A   1      31.040  29.497  24.760  1.00  0.00     0.037 C 
BRANCH  17  18
ATOM     18  C   UNL A   1      30.014  29.645  23.630  1.00  0.00     0.001 C 
ATOM     19  C   UNL A   1      29.200  30.929  23.686  1.00  0.00     0.004 C 
ENDBRANCH  17  18
ENDBRANCH   7  17
BRANCH  16  20
ATOM     20  C   UNL A   1      30.928  22.919  25.951  1.00  0.00     0.430 C 
ATOM     21  F   UNL A   1      29.753  22.821  26.609  1.00  0.00    -0.167 F 
ATOM     22  F   UNL A   1      30.665  23.418  24.725  1.00  0.00    -0.167 F 
ATOM     23  F   UNL A   1      31.377  21.649  25.749  1.00  0.00    -0.167 F 
ENDBRANCH  16  20
ENDBRANCH   4   6
ENDBRANCH   3   4
ENDBRANCH   2   3
ENDBRANCH   1   2
BRANCH   1  24
ATOM     24  O   UNL A   1      37.639  21.461  25.235  1.00  0.00    -0.458 OA
BRANCH  24  25
ATOM     25  C   UNL A   1      38.787  21.100  25.852  1.00  0.00     0.338 C 
ATOM     26  O   UNL A   1      39.340  20.012  25.809  1.00  0.00    -0.246 OA
BRANCH  25  27
ATOM     27  C   UNL A   1      39.391  22.276  26.492  1.00  0.00     0.060 A 
ATOM     28  C   UNL A   1      40.520  22.199  27.296  1.00  0.00     0.016 A 
ATOM     29  C   UNL A   1      38.877  23.518  26.144  1.00  0.00     0.016 A 
ATOM     30  C   UNL A   1      41.103  23.387  27.762  1.00  0.00     0.010 A 
ATOM     31  C   UNL A   1      39.543  24.691  26.475  1.00  0.00     0.010 A 
ATOM     32  C   UNL A   1      40.643  24.653  27.332  1.00  0.00    -0.014 A 
BRANCH  32  33
ATOM     33  C   UNL A   1      41.299  25.924  27.766  1.00  0.00     0.031 A 
ATOM     34  C   UNL A   1      42.713  26.265  27.348  1.00  0.00     0.074 A 
ATOM     35  C   UNL A   1      40.636  26.765  28.588  1.00  0.00     0.049 A 
ATOM     36  N   UNL A   1      43.413  27.343  27.606  1.00  0.00    -0.248 NA
ATOM     37  C   UNL A   1      43.462  25.254  26.579  1.00  0.00     0.031 C 
ATOM     38  C   UNL A   1      39.322  26.499  29.175  1.00  0.00     0.029 A 
ATOM     39  N   UNL A   1      40.960  28.014  29.062  1.00  0.00    -0.354 N 
ATOM     40  C   UNL A   1      44.673  27.127  27.053  1.00  0.00     0.074 A 
ATOM     41  C   UNL A   1      44.676  25.782  26.531  1.00  0.00     0.031 C 
ATOM     42  C   UNL A   1      38.914  27.581  29.853  1.00  0.00     0.029 A 
ATOM     43  C   UNL A   1      39.957  28.603  29.798  1.00  0.00     0.049 A 
ATOM     44  H   UNL A   1      41.827  28.446  28.891  1.00  0.00     0.167 HD
ATOM     45  C   UNL A   1      45.716  27.985  26.939  1.00  0.00     0.034 A 
ATOM     46  C   UNL A   1      39.869  29.832  30.350  1.00  0.00     0.034 A 
ATOM     47  C   UNL A   1      45.678  29.346  27.409  1.00  0.00     0.049 A 
ATOM     48  C   UNL A   1      41.007  30.801  30.148  1.00  0.00     0.074 A 
ATOM     49  C   UNL A   1      46.638  30.329  27.255  1.00  0.00     0.029 A 
ATOM     50  N   UNL A   1      44.626  29.920  28.108  1.00  0.00    -0.354 N 
ATOM     51  N   UNL A   1      42.137  30.623  29.503  1.00  0.00    -0.248 NA
ATOM     52  C   UNL A   1      40.857  32.143  30.729  1.00  0.00     0.031 C 
ATOM     53  C   UNL A   1      46.196  31.477  27.913  1.00  0.00     0.029 A 
ATOM     54  C   UNL A   1      44.924  31.238  28.411  1.00  0.00     0.049 A 
ATOM     55  H   UNL A   1      43.791  29.459  28.352  1.00  0.00     0.167 HD
ATOM     56  C   UNL A   1      42.824  31.830  29.588  1.00  0.00     0.074 A 
ATOM     57  C   UNL A   1      41.965  32.744  30.313  1.00  0.00     0.031 C 
ATOM     58  C   UNL A   1      44.058  32.149  29.121  1.00  0.00     0.034 A 
BRANCH  45  59
ATOM     59  C   UNL A   1      46.968  27.526  26.224  1.00  0.00     0.023 A 
ATOM     60  C   UNL A   1      47.194  27.883  24.880  1.00  0.00     0.031 A 
ATOM     61  C   UNL A   1      47.867  26.624  26.825  1.00  0.00     0.131 A 
ATOM     62  C   UNL A   1      48.267  27.318  24.177  1.00  0.00     0.055 A 
ATOM     63  C   UNL A   1      48.965  26.106  26.137  1.00  0.00     0.041 A 
ATOM     64  F   UNL A   1      47.696  26.236  28.100  1.00  0.00    -0.206 F 
ATOM     65  C   UNL A   1      49.160  26.442  24.802  1.00  0.00     0.022 A 
BRANCH  62  66
ATOM     66  S   UNL A   1      48.504  27.632  22.407  1.00  0.00     0.124 S 
ATOM     67  O   UNL A   1      48.570  26.275  21.867  1.00  0.00    -0.237 OA
ATOM     68  O   UNL A   1      47.296  28.378  22.066  1.00  0.00    -0.237 OA
ATOM     69  O   UNL A   1      49.752  28.384  22.346  1.00  0.00    -0.744 OA
ENDBRANCH  62  66
ENDBRANCH  45  59
BRANCH  46  70
ATOM     70  C   UNL A   1      38.606  30.228  31.045  1.00  0.00     0.023 A 
ATOM     71  C   UNL A   1      37.574  30.893  30.356  1.00  0.00     0.031 A 
ATOM     72  C   UNL A   1      38.470  30.063  32.434  1.00  0.00     0.131 A 
ATOM     73  C   UNL A   1      36.494  31.432  31.071  1.00  0.00     0.055 A 
ATOM     74  C   UNL A   1      37.354  30.531  33.129  1.00  0.00     0.041 A 
ATOM     75  F   UNL A   1      39.434  29.451  33.140  1.00  0.00    -0.206 F 
ATOM     76  C   UNL A   1      36.368  31.238  32.449  1.00  0.00     0.022 A 
BRANCH  73  77
ATOM     77  S   UNL A   1      35.300  32.532  30.260  1.00  0.00     0.124 S 
ATOM     78  O   UNL A   1      36.123  33.694  29.943  1.00  0.00    -0.237 OA
ATOM     79  O   UNL A   1      34.881  31.725  29.116  1.00  0.00    -0.237 OA
ATOM     80  O   UNL A   1      34.277  32.741  31.279  1.00  0.00    -0.744 OA
ENDBRANCH  73  77
ENDBRANCH  46  70
BRANCH  58  81
ATOM     81  C   UNL A   1      44.591  33.541  29.369  1.00  0.00     0.023 A 
ATOM     82  C   UNL A   1      44.483  34.525  28.365  1.00  0.00     0.031 A 
ATOM     83  C   UNL A   1      45.341  33.843  30.517  1.00  0.00     0.131 A 
ATOM     84  C   UNL A   1      45.156  35.745  28.511  1.00  0.00     0.055 A 
ATOM     85  C   UNL A   1      45.962  35.081  30.683  1.00  0.00     0.041 A 
ATOM     86  F   UNL A   1      45.487  32.934  31.494  1.00  0.00    -0.206 F 
ATOM     87  C   UNL A   1      45.886  36.032  29.669  1.00  0.00     0.022 A 
BRANCH  84  88
ATOM     88  S   UNL A   1      45.195  36.959  27.163  1.00  0.00     0.124 S 
ATOM     89  O   UNL A   1      43.777  37.109  26.850  1.00  0.00    -0.237 OA
ATOM     90  O   UNL A   1      45.818  38.113  27.808  1.00  0.00    -0.237 OA
ATOM     91  O   UNL A   1      45.996  36.312  26.130  1.00  0.00    -0.744 OA
ENDBRANCH  84  88
ENDBRANCH  58  81
ENDBRANCH  32  33
ENDBRANCH  25  27
ENDBRANCH  24  25
ENDBRANCH   1  24
TORSDOF 17
ENDMDL
MODEL 3
REMARK VINA RESULT:     -12.3      1.529      1.858
REMARK SMILES CCCc1cc2c(cc1Cl)C=C(C(=O)OCCOC(=O)c1ccc(-c3c4nc(c(-c5cc(S(=O)(=O)[O-])ccc5F)c5ccc([nH]5)c(-c5cc(S(=O)(=O)[O-])ccc5F)c5nc(c(-c6cc(S(=O)(=O)[O-])ccc6F)c6ccc3[nH]6)C=C5)C=C4)cc1)[C@H](C(F)(F)F)O2
REMARK SMILES IDX 17 1 16 2 15 3 13 4 14 5 12 6 4 7 5 8 9 9 6 10 8 11 10 12
REMARK SMILES IDX 7 13 89 14 11 15 84 16 3 17 2 18 1 19 85 20 86 21 87 22
REMARK SMILES IDX 88 23 18 24 19 25 20 26 21 27 22 28 83 29 23 30 82 31 24 32
REMARK SMILES IDX 25 33 26 34 76 35 27 36 81 37 75 38 77 39 28 40 80 41 74 42
REMARK SMILES IDX 73 43 29 45 61 46 41 47 60 48 42 49 45 50 59 51 78 52 43 53
REMARK SMILES IDX 44 54 58 56 79 57 46 58 30 59 31 60 39 61 32 62 38 63 40 64
REMARK SMILES IDX 37 65 33 66 34 67 35 68 36 69 62 70 63 71 71 72 64 73 70 74
REMARK SMILES IDX 72 75 69 76 65 77 66 78 67 79 68 80 47 81 48 82 56 83 49 84
REMARK SMILES IDX 55 85 57 86 54 87 50 88 51 89 52 90 53 91
REMARK H PARENT 77 44 45 55
REMARK Flexibility Score: inf
ROOT
ATOM      1  C   UNL A   1      31.855  30.507  26.120  1.00  0.00     0.275 C 
ENDROOT
BRANCH   1   2
ATOM      2  C   UNL A   1      31.878  29.335  25.134  1.00  0.00     0.275 C 
BRANCH   2   3
ATOM      3  O   UNL A   1      33.171  28.694  25.121  1.00  0.00    -0.459 OA
BRANCH   3   4
ATOM      4  C   UNL A   1      33.614  28.264  23.918  1.00  0.00     0.338 C 
ATOM      5  O   UNL A   1      33.992  28.970  23.004  1.00  0.00    -0.246 OA
BRANCH   4   6
ATOM      6  C   UNL A   1      33.644  26.786  23.874  1.00  0.00     0.087 C 
ATOM      7  C   UNL A   1      34.595  21.964  24.955  1.00  0.00    -0.026 A 
ATOM      8  C   UNL A   1      34.665  22.751  23.784  1.00  0.00     0.052 A 
ATOM      9  C   UNL A   1      34.171  22.583  26.146  1.00  0.00     0.045 A 
ATOM     10  C   UNL A   1      34.311  24.097  23.792  1.00  0.00     0.128 A 
ATOM     11  C   UNL A   1      33.877  23.948  26.168  1.00  0.00     0.032 A 
ATOM     12  Cl  UNL A   1      34.040  21.737  27.647  1.00  0.00    -0.084 Cl
ATOM     13  C   UNL A   1      33.973  24.701  24.996  1.00  0.00     0.019 A 
ATOM     14  O   UNL A   1      34.387  24.795  22.612  1.00  0.00    -0.475 OA
ATOM     15  C   UNL A   1      33.853  26.142  25.029  1.00  0.00     0.027 C 
ATOM     16  C   UNL A   1      33.628  26.053  22.561  1.00  0.00     0.316 C 
BRANCH   7  17
ATOM     17  C   UNL A   1      35.055  20.523  24.908  1.00  0.00     0.037 C 
BRANCH  17  18
ATOM     18  C   UNL A   1      33.960  19.475  24.680  1.00  0.00     0.001 C 
ATOM     19  C   UNL A   1      32.565  20.054  24.492  1.00  0.00     0.004 C 
ENDBRANCH  17  18
ENDBRANCH   7  17
BRANCH  16  20
ATOM     20  C   UNL A   1      32.246  25.807  21.926  1.00  0.00     0.430 C 
ATOM     21  F   UNL A   1      32.321  25.436  20.631  1.00  0.00    -0.167 F 
ATOM     22  F   UNL A   1      31.513  24.875  22.572  1.00  0.00    -0.167 F 
ATOM     23  F   UNL A   1      31.514  26.955  21.970  1.00  0.00    -0.167 F 
ENDBRANCH  16  20
ENDBRANCH   4   6
ENDBRANCH   3   4
ENDBRANCH   2   3
ENDBRANCH   1   2
BRANCH   1  24
ATOM     24  O   UNL A   1      32.895  30.363  27.108  1.00  0.00    -0.458 OA
BRANCH  24  25
ATOM     25  C   UNL A   1      33.580  31.490  27.402  1.00  0.00     0.338 C 
ATOM     26  O   UNL A   1      33.149  32.632  27.435  1.00  0.00    -0.246 OA
BRANCH  25  27
ATOM     27  C   UNL A   1      34.938  31.139  27.841  1.00  0.00     0.060 A 
ATOM     28  C   UNL A   1      35.937  32.084  28.026  1.00  0.00     0.016 A 
ATOM     29  C   UNL A   1      35.159  29.820  28.215  1.00  0.00     0.016 A 
ATOM     30  C   UNL A   1      37.165  31.675  28.568  1.00  0.00     0.010 A 
ATOM     31  C   UNL A   1      36.313  29.448  28.893  1.00  0.00     0.010 A 
ATOM     32  C   UNL A   1      37.361  30.357  29.041  1.00  0.00    -0.014 A 
BRANCH  32  33
ATOM     33  C   UNL A   1      38.640  29.926  29.683  1.00  0.00     0.031 A 
ATOM     34  C   UNL A   1      39.039  30.422  31.057  1.00  0.00     0.074 A 
ATOM     35  C   UNL A   1      39.482  29.116  29.007  1.00  0.00     0.049 A 
ATOM     36  N   UNL A   1      40.094  30.116  31.771  1.00  0.00    -0.248 NA
ATOM     37  C   UNL A   1      38.171  31.425  31.701  1.00  0.00     0.031 C 
ATOM     38  C   UNL A   1      39.287  28.671  27.627  1.00  0.00     0.029 A 
ATOM     39  N   UNL A   1      40.657  28.511  29.384  1.00  0.00    -0.354 N 
ATOM     40  C   UNL A   1      40.022  30.897  32.922  1.00  0.00     0.074 A 
ATOM     41  C   UNL A   1      38.876  31.760  32.771  1.00  0.00     0.031 C 
ATOM     42  C   UNL A   1      40.253  27.799  27.304  1.00  0.00     0.029 A 
ATOM     43  C   UNL A   1      41.170  27.658  28.433  1.00  0.00     0.049 A 
ATOM     44  H   UNL A   1      41.091  28.672  30.253  1.00  0.00     0.167 HD
ATOM     45  C   UNL A   1      40.803  30.863  34.029  1.00  0.00     0.034 A 
ATOM     46  C   UNL A   1      42.241  26.837  28.465  1.00  0.00     0.034 A 
ATOM     47  C   UNL A   1      41.906  29.951  34.194  1.00  0.00     0.049 A 
ATOM     48  C   UNL A   1      43.055  26.755  29.732  1.00  0.00     0.074 A 
ATOM     49  C   UNL A   1      42.699  29.764  35.311  1.00  0.00     0.029 A 
ATOM     50  N   UNL A   1      42.365  29.070  33.225  1.00  0.00    -0.354 N 
ATOM     51  N   UNL A   1      42.888  27.404  30.862  1.00  0.00    -0.248 NA
ATOM     52  C   UNL A   1      44.189  25.821  29.743  1.00  0.00     0.031 C 
ATOM     53  C   UNL A   1      43.673  28.816  35.000  1.00  0.00     0.029 A 
ATOM     54  C   UNL A   1      43.443  28.352  33.713  1.00  0.00     0.049 A 
ATOM     55  H   UNL A   1      41.980  28.970  32.324  1.00  0.00     0.167 HD
ATOM     56  C   UNL A   1      43.884  26.946  31.720  1.00  0.00     0.074 A 
ATOM     57  C   UNL A   1      44.624  25.936  30.991  1.00  0.00     0.031 C 
ATOM     58  C   UNL A   1      44.168  27.336  32.988  1.00  0.00     0.034 A 
BRANCH  45  59
ATOM     59  C   UNL A   1      40.470  31.776  35.190  1.00  0.00     0.023 A 
ATOM     60  C   UNL A   1      39.448  31.434  36.096  1.00  0.00     0.031 A 
ATOM     61  C   UNL A   1      41.067  33.045  35.318  1.00  0.00     0.131 A 
ATOM     62  C   UNL A   1      39.034  32.360  37.064  1.00  0.00     0.055 A 
ATOM     63  C   UNL A   1      40.689  33.942  36.318  1.00  0.00     0.041 A 
ATOM     64  F   UNL A   1      42.039  33.432  34.474  1.00  0.00    -0.206 F 
ATOM     65  C   UNL A   1      39.658  33.606  37.188  1.00  0.00     0.022 A 
BRANCH  62  66
ATOM     66  S   UNL A   1      37.621  32.020  38.149  1.00  0.00     0.124 S 
ATOM     67  O   UNL A   1      37.326  30.625  37.832  1.00  0.00    -0.237 OA
ATOM     68  O   UNL A   1      38.193  32.250  39.473  1.00  0.00    -0.237 OA
ATOM     69  O   UNL A   1      36.610  32.980  37.721  1.00  0.00    -0.744 OA
ENDBRANCH  62  66
ENDBRANCH  45  59
BRANCH  46  70
ATOM     70  C   UNL A   1      42.519  25.959  27.287  1.00  0.00     0.023 A 
ATOM     71  C   UNL A   1      42.032  24.640  27.232  1.00  0.00     0.031 A 
ATOM     72  C   UNL A   1      43.384  26.385  26.264  1.00  0.00     0.131 A 
ATOM     73  C   UNL A   1      42.473  23.776  26.220  1.00  0.00     0.055 A 
ATOM     74  C   UNL A   1      43.757  25.544  25.214  1.00  0.00     0.041 A 
ATOM     75  F   UNL A   1      43.891  27.628  26.279  1.00  0.00    -0.206 F 
ATOM     76  C   UNL A   1      43.317  24.225  25.200  1.00  0.00     0.022 A 
BRANCH  73  77
ATOM     77  S   UNL A   1      42.091  22.002  26.281  1.00  0.00     0.124 S 
ATOM     78  O   UNL A   1      42.445  21.662  27.655  1.00  0.00    -0.237 OA
ATOM     79  O   UNL A   1      40.663  21.996  25.977  1.00  0.00    -0.237 OA
ATOM     80  O   UNL A   1      42.948  21.430  25.247  1.00  0.00    -0.744 OA
ENDBRANCH  73  77
ENDBRANCH  46  70
BRANCH  58  81
ATOM     81  C   UNL A   1      45.333  26.690  33.702  1.00  0.00     0.023 A 
ATOM     82  C   UNL A   1      45.112  25.598  34.565  1.00  0.00     0.031 A 
ATOM     83  C   UNL A   1      46.620  27.252  33.657  1.00  0.00     0.131 A 
ATOM     84  C   UNL A   1      46.151  25.134  35.382  1.00  0.00     0.055 A 
ATOM     85  C   UNL A   1      47.666  26.750  34.432  1.00  0.00     0.041 A 
ATOM     86  F   UNL A   1      46.878  28.304  32.864  1.00  0.00    -0.206 F 
ATOM     87  C   UNL A   1      47.430  25.698  35.312  1.00  0.00     0.022 A 
BRANCH  84  88
ATOM     88  S   UNL A   1      45.857  23.858  36.638  1.00  0.00     0.124 S 
ATOM     89  O   UNL A   1      44.926  24.531  37.540  1.00  0.00    -0.237 OA
ATOM     90  O   UNL A   1      45.284  22.774  35.844  1.00  0.00    -0.237 OA
ATOM     91  O   UNL A   1      47.181  23.596  37.191  1.00  0.00    -0.744 OA
ENDBRANCH  84  88
ENDBRANCH  58  81
ENDBRANCH  32  33
ENDBRANCH  25  27
ENDBRANCH  24  25
ENDBRANCH   1  24
TORSDOF 17
ENDMDL
