MODEL 1
REMARK VINA RESULT:     -11.0      0.000      0.000
REMARK SMILES Cc1ccc2c(c1)C=C(C(=O)OCCOC(=O)c1ccc(-c3c4nc(c(-c5cc(S(=O)(=O)[O-])ccc5F)c5ccc([nH]5)c(-c5cc(S(=O)(=O)[O-])ccc5F)c5nc(c(-c6cc(S(=O)(=O)[O-])ccc6F)c6ccc3[nH]6)C=C5)C=C4)cc1)[C@@H](C(F)(F)F)O2
REMARK SMILES IDX 14 1 13 2 12 3 10 4 11 5 9 6 1 7 2 8 3 9 7 10 4 11 6 12 5 13
REMARK SMILES IDX 8 14 86 15 81 16 82 17 83 18 84 19 85 20 15 21 16 22 17 23
REMARK SMILES IDX 18 24 19 25 80 26 20 27 79 28 21 29 22 30 23 31 73 32 24 33
REMARK SMILES IDX 78 34 72 35 74 36 25 37 77 38 71 39 70 40 26 42 58 43 38 44
REMARK SMILES IDX 57 45 39 46 42 47 56 48 75 49 40 50 41 51 55 53 76 54 43 55
REMARK SMILES IDX 27 56 28 57 36 58 29 59 35 60 37 61 34 62 30 63 31 64 32 65
REMARK SMILES IDX 33 66 59 67 60 68 68 69 61 70 67 71 69 72 66 73 62 74 63 75
REMARK SMILES IDX 64 76 65 77 44 78 45 79 53 80 46 81 52 82 54 83 51 84 47 85
REMARK SMILES IDX 48 86 49 87 50 88
REMARK H PARENT 74 41 42 52
REMARK Flexibility Score: inf
ROOT
ATOM      1  C   UNL A   1      40.412  20.034  25.988  1.00  0.00     0.275 C 
ENDROOT
BRANCH   1   2
ATOM      2  C   UNL A   1      41.919  20.058  26.250  1.00  0.00     0.275 C 
BRANCH   2   3
ATOM      3  O   UNL A   1      42.496  21.353  25.969  1.00  0.00    -0.459 OA
BRANCH   3   4
ATOM      4  C   UNL A   1      43.796  21.342  25.587  1.00  0.00     0.338 C 
ATOM      5  O   UNL A   1      44.267  20.719  24.648  1.00  0.00    -0.246 OA
BRANCH   4   6
ATOM      6  C   UNL A   1      44.606  22.223  26.452  1.00  0.00     0.087 C 
ATOM      7  C   UNL A   1      44.376  25.154  31.867  1.00  0.00     0.044 C 
ATOM      8  C   UNL A   1      44.946  24.773  30.532  1.00  0.00    -0.050 A 
ATOM      9  C   UNL A   1      46.139  25.339  30.067  1.00  0.00     0.007 A 
ATOM     10  C   UNL A   1      44.304  23.819  29.740  1.00  0.00     0.015 A 
ATOM     11  C   UNL A   1      46.674  24.961  28.830  1.00  0.00     0.047 A 
ATOM     12  C   UNL A   1      44.827  23.464  28.491  1.00  0.00     0.017 A 
ATOM     13  C   UNL A   1      46.017  24.022  28.037  1.00  0.00     0.128 A 
ATOM     14  C   UNL A   1      44.107  22.531  27.653  1.00  0.00     0.027 C 
ATOM     15  O   UNL A   1      46.601  23.689  26.846  1.00  0.00    -0.475 OA
ATOM     16  C   UNL A   1      45.864  22.842  25.914  1.00  0.00     0.316 C 
BRANCH  16  17
ATOM     17  C   UNL A   1      45.571  23.655  24.643  1.00  0.00     0.430 C 
ATOM     18  F   UNL A   1      44.243  23.692  24.373  1.00  0.00    -0.167 F 
ATOM     19  F   UNL A   1      45.968  24.946  24.772  1.00  0.00    -0.167 F 
ATOM     20  F   UNL A   1      46.190  23.152  23.551  1.00  0.00    -0.167 F 
ENDBRANCH  16  17
ENDBRANCH   4   6
ENDBRANCH   3   4
ENDBRANCH   2   3
ENDBRANCH   1   2
BRANCH   1  21
ATOM     21  O   UNL A   1      39.720  20.922  26.883  1.00  0.00    -0.458 OA
BRANCH  21  22
ATOM     22  C   UNL A   1      39.110  21.974  26.290  1.00  0.00     0.338 C 
ATOM     23  O   UNL A   1      38.249  21.939  25.429  1.00  0.00    -0.246 OA
BRANCH  22  24
ATOM     24  C   UNL A   1      39.555  23.220  26.930  1.00  0.00     0.060 A 
ATOM     25  C   UNL A   1      40.520  23.233  27.928  1.00  0.00     0.016 A 
ATOM     26  C   UNL A   1      39.089  24.415  26.399  1.00  0.00     0.016 A 
ATOM     27  C   UNL A   1      40.999  24.467  28.390  1.00  0.00     0.010 A 
ATOM     28  C   UNL A   1      39.670  25.627  26.750  1.00  0.00     0.010 A 
ATOM     29  C   UNL A   1      40.609  25.681  27.780  1.00  0.00    -0.014 A 
BRANCH  29  30
ATOM     30  C   UNL A   1      41.192  26.990  28.205  1.00  0.00     0.031 A 
ATOM     31  C   UNL A   1      42.611  27.374  27.849  1.00  0.00     0.074 A 
ATOM     32  C   UNL A   1      40.449  27.829  28.957  1.00  0.00     0.049 A 
ATOM     33  N   UNL A   1      43.243  28.495  28.090  1.00  0.00    -0.248 NA
ATOM     34  C   UNL A   1      43.445  26.362  27.179  1.00  0.00     0.031 C 
ATOM     35  C   UNL A   1      39.116  27.525  29.481  1.00  0.00     0.029 A 
ATOM     36  N   UNL A   1      40.690  29.109  29.396  1.00  0.00    -0.354 N 
ATOM     37  C   UNL A   1      44.541  28.314  27.618  1.00  0.00     0.074 A 
ATOM     38  C   UNL A   1      44.633  26.948  27.160  1.00  0.00     0.031 C 
ATOM     39  C   UNL A   1      38.624  28.612  30.090  1.00  0.00     0.029 A 
ATOM     40  C   UNL A   1      39.618  29.680  30.045  1.00  0.00     0.049 A 
ATOM     41  H   UNL A   1      41.548  29.572  29.259  1.00  0.00     0.167 HD
ATOM     42  C   UNL A   1      45.548  29.216  27.522  1.00  0.00     0.034 A 
ATOM     43  C   UNL A   1      39.441  30.929  30.526  1.00  0.00     0.034 A 
ATOM     44  C   UNL A   1      45.424  30.591  27.930  1.00  0.00     0.049 A 
ATOM     45  C   UNL A   1      40.542  31.942  30.338  1.00  0.00     0.074 A 
ATOM     46  C   UNL A   1      46.349  31.610  27.792  1.00  0.00     0.029 A 
ATOM     47  N   UNL A   1      44.307  31.145  28.539  1.00  0.00    -0.354 N 
ATOM     48  N   UNL A   1      41.714  31.788  29.769  1.00  0.00    -0.248 NA
ATOM     49  C   UNL A   1      40.295  33.301  30.839  1.00  0.00     0.031 C 
ATOM     50  C   UNL A   1      45.815  32.764  28.366  1.00  0.00     0.029 A 
ATOM     51  C   UNL A   1      44.528  32.487  28.801  1.00  0.00     0.049 A 
ATOM     52  H   UNL A   1      43.480  30.657  28.754  1.00  0.00     0.167 HD
ATOM     53  C   UNL A   1      42.338  33.031  29.829  1.00  0.00     0.074 A 
ATOM     54  C   UNL A   1      41.396  33.935  30.457  1.00  0.00     0.031 C 
ATOM     55  C   UNL A   1      43.580  33.386  29.414  1.00  0.00     0.034 A 
BRANCH  42  56
ATOM     56  C   UNL A   1      46.857  28.784  26.899  1.00  0.00     0.023 A 
ATOM     57  C   UNL A   1      46.948  28.567  25.510  1.00  0.00     0.031 A 
ATOM     58  C   UNL A   1      47.975  28.461  27.693  1.00  0.00     0.131 A 
ATOM     59  C   UNL A   1      48.116  28.015  24.966  1.00  0.00     0.055 A 
ATOM     60  C   UNL A   1      49.154  27.962  27.138  1.00  0.00     0.041 A 
ATOM     61  F   UNL A   1      47.940  28.637  29.023  1.00  0.00    -0.206 F 
ATOM     62  C   UNL A   1      49.222  27.724  25.769  1.00  0.00     0.022 A 
BRANCH  59  63
ATOM     63  S   UNL A   1      48.224  27.587  23.206  1.00  0.00     0.124 S 
ATOM     64  O   UNL A   1      48.183  26.127  23.249  1.00  0.00    -0.237 OA
ATOM     65  O   UNL A   1      47.031  28.228  22.663  1.00  0.00    -0.237 OA
ATOM     66  O   UNL A   1      49.498  28.160  22.782  1.00  0.00    -0.744 OA
ENDBRANCH  59  63
ENDBRANCH  42  56
BRANCH  43  67
ATOM     67  C   UNL A   1      38.121  31.295  31.125  1.00  0.00     0.023 A 
ATOM     68  C   UNL A   1      37.098  31.862  30.343  1.00  0.00     0.031 A 
ATOM     69  C   UNL A   1      37.915  31.203  32.513  1.00  0.00     0.131 A 
ATOM     70  C   UNL A   1      35.953  32.380  30.962  1.00  0.00     0.055 A 
ATOM     71  C   UNL A   1      36.739  31.651  33.117  1.00  0.00     0.041 A 
ATOM     72  F   UNL A   1      38.868  30.688  33.305  1.00  0.00    -0.206 F 
ATOM     73  C   UNL A   1      35.759  32.262  32.342  1.00  0.00     0.022 A 
BRANCH  70  74
ATOM     74  S   UNL A   1      34.749  33.358  30.020  1.00  0.00     0.124 S 
ATOM     75  O   UNL A   1      35.603  34.342  29.362  1.00  0.00    -0.237 OA
ATOM     76  O   UNL A   1      34.162  32.345  29.144  1.00  0.00    -0.237 OA
ATOM     77  O   UNL A   1      33.854  33.882  31.046  1.00  0.00    -0.744 OA
ENDBRANCH  70  74
ENDBRANCH  43  67
BRANCH  55  78
ATOM     78  C   UNL A   1      44.031  34.813  29.618  1.00  0.00     0.023 A 
ATOM     79  C   UNL A   1      43.706  35.798  28.666  1.00  0.00     0.031 A 
ATOM     80  C   UNL A   1      44.909  35.158  30.659  1.00  0.00     0.131 A 
ATOM     81  C   UNL A   1      44.290  37.068  28.750  1.00  0.00     0.055 A 
ATOM     82  C   UNL A   1      45.449  36.441  30.768  1.00  0.00     0.041 A 
ATOM     83  F   UNL A   1      45.263  34.251  31.584  1.00  0.00    -0.206 F 
ATOM     84  C   UNL A   1      45.152  37.397  29.800  1.00  0.00     0.022 A 
BRANCH  81  85
ATOM     85  S   UNL A   1      44.034  38.304  27.447  1.00  0.00     0.124 S 
ATOM     86  O   UNL A   1      42.993  37.677  26.637  1.00  0.00    -0.237 OA
ATOM     87  O   UNL A   1      43.609  39.474  28.212  1.00  0.00    -0.237 OA
ATOM     88  O   UNL A   1      45.339  38.415  26.804  1.00  0.00    -0.744 OA
ENDBRANCH  81  85
ENDBRANCH  55  78
ENDBRANCH  29  30
ENDBRANCH  22  24
ENDBRANCH  21  22
ENDBRANCH   1  21
TORSDOF 15
ENDMDL
MODEL 2
REMARK VINA RESULT:     -10.9      5.548     11.756
REMARK SMILES Cc1ccc2c(c1)C=C(C(=O)OCCOC(=O)c1ccc(-c3c4nc(c(-c5cc(S(=O)(=O)[O-])ccc5F)c5ccc([nH]5)c(-c5cc(S(=O)(=O)[O-])ccc5F)c5nc(c(-c6cc(S(=O)(=O)[O-])ccc6F)c6ccc3[nH]6)C=C5)C=C4)cc1)[C@@H](C(F)(F)F)O2
REMARK SMILES IDX 14 1 13 2 12 3 10 4 11 5 9 6 1 7 2 8 3 9 7 10 4 11 6 12 5 13
REMARK SMILES IDX 8 14 86 15 81 16 82 17 83 18 84 19 85 20 15 21 16 22 17 23
REMARK SMILES IDX 18 24 19 25 80 26 20 27 79 28 21 29 22 30 23 31 73 32 24 33
REMARK SMILES IDX 78 34 72 35 74 36 25 37 77 38 71 39 70 40 26 42 58 43 38 44
REMARK SMILES IDX 57 45 39 46 42 47 56 48 75 49 40 50 41 51 55 53 76 54 43 55
REMARK SMILES IDX 27 56 28 57 36 58 29 59 35 60 37 61 34 62 30 63 31 64 32 65
REMARK SMILES IDX 33 66 59 67 60 68 68 69 61 70 67 71 69 72 66 73 62 74 63 75
REMARK SMILES IDX 64 76 65 77 44 78 45 79 53 80 46 81 52 82 54 83 51 84 47 85
REMARK SMILES IDX 48 86 49 87 50 88
REMARK H PARENT 74 41 42 52
REMARK Flexibility Score: inf
ROOT
ATOM      1  C   UNL A   1      31.878  30.752  26.074  1.00  0.00     0.275 C 
ENDROOT
BRANCH   1   2
ATOM      2  C   UNL A   1      31.690  29.406  25.371  1.00  0.00     0.275 C 
BRANCH   2   3
ATOM      3  O   UNL A   1      32.522  28.374  25.947  1.00  0.00    -0.459 OA
BRANCH   3   4
ATOM      4  C   UNL A   1      31.858  27.371  26.571  1.00  0.00     0.338 C 
ATOM      5  O   UNL A   1      31.028  27.497  27.458  1.00  0.00    -0.246 OA
BRANCH   4   6
ATOM      6  C   UNL A   1      32.252  26.059  26.021  1.00  0.00     0.087 C 
ATOM      7  C   UNL A   1      37.252  22.821  24.444  1.00  0.00     0.044 C 
ATOM      8  C   UNL A   1      35.785  23.117  24.563  1.00  0.00    -0.050 A 
ATOM      9  C   UNL A   1      34.827  22.237  24.047  1.00  0.00     0.007 A 
ATOM     10  C   UNL A   1      35.352  24.269  25.221  1.00  0.00     0.015 A 
ATOM     11  C   UNL A   1      33.460  22.511  24.182  1.00  0.00     0.047 A 
ATOM     12  C   UNL A   1      33.985  24.554  25.330  1.00  0.00     0.017 A 
ATOM     13  C   UNL A   1      33.035  23.672  24.824  1.00  0.00     0.128 A 
ATOM     14  C   UNL A   1      33.558  25.789  25.949  1.00  0.00     0.027 C 
ATOM     15  O   UNL A   1      31.687  23.872  24.932  1.00  0.00    -0.475 OA
ATOM     16  C   UNL A   1      31.204  25.151  25.444  1.00  0.00     0.316 C 
BRANCH  16  17
ATOM     17  C   UNL A   1      30.424  25.859  24.325  1.00  0.00     0.430 C 
ATOM     18  F   UNL A   1      29.454  26.661  24.828  1.00  0.00    -0.167 F 
ATOM     19  F   UNL A   1      31.229  26.659  23.582  1.00  0.00    -0.167 F 
ATOM     20  F   UNL A   1      29.829  24.990  23.477  1.00  0.00    -0.167 F 
ENDBRANCH  16  17
ENDBRANCH   4   6
ENDBRANCH   3   4
ENDBRANCH   2   3
ENDBRANCH   1   2
BRANCH   1  21
ATOM     21  O   UNL A   1      32.789  30.631  27.180  1.00  0.00    -0.458 OA
BRANCH  21  22
ATOM     22  C   UNL A   1      33.503  31.745  27.460  1.00  0.00     0.338 C 
ATOM     23  O   UNL A   1      33.102  32.895  27.473  1.00  0.00    -0.246 OA
BRANCH  22  24
ATOM     24  C   UNL A   1      34.858  31.363  27.881  1.00  0.00     0.060 A 
ATOM     25  C   UNL A   1      35.867  32.300  28.061  1.00  0.00     0.016 A 
ATOM     26  C   UNL A   1      35.066  30.040  28.246  1.00  0.00     0.016 A 
ATOM     27  C   UNL A   1      37.091  31.881  28.602  1.00  0.00     0.010 A 
ATOM     28  C   UNL A   1      36.220  29.657  28.918  1.00  0.00     0.010 A 
ATOM     29  C   UNL A   1      37.272  30.562  29.075  1.00  0.00    -0.014 A 
BRANCH  29  30
ATOM     30  C   UNL A   1      38.540  30.138  29.742  1.00  0.00     0.031 A 
ATOM     31  C   UNL A   1      38.896  30.613  31.133  1.00  0.00     0.074 A 
ATOM     32  C   UNL A   1      39.405  29.348  29.072  1.00  0.00     0.049 A 
ATOM     33  N   UNL A   1      39.928  30.291  31.872  1.00  0.00    -0.248 NA
ATOM     34  C   UNL A   1      38.013  31.611  31.762  1.00  0.00     0.031 C 
ATOM     35  C   UNL A   1      39.247  28.927  27.679  1.00  0.00     0.029 A 
ATOM     36  N   UNL A   1      40.572  28.741  29.468  1.00  0.00    -0.354 N 
ATOM     37  C   UNL A   1      39.822  31.051  33.034  1.00  0.00     0.074 A 
ATOM     38  C   UNL A   1      38.681  31.918  32.864  1.00  0.00     0.031 C 
ATOM     39  C   UNL A   1      40.223  28.065  27.365  1.00  0.00     0.029 A 
ATOM     40  C   UNL A   1      41.108  27.902  28.515  1.00  0.00     0.049 A 
ATOM     41  H   UNL A   1      40.987  28.891  30.348  1.00  0.00     0.167 HD
ATOM     42  C   UNL A   1      40.573  30.997  34.161  1.00  0.00     0.034 A 
ATOM     43  C   UNL A   1      42.173  27.075  28.566  1.00  0.00     0.034 A 
ATOM     44  C   UNL A   1      41.675  30.087  34.338  1.00  0.00     0.049 A 
ATOM     45  C   UNL A   1      42.948  26.967  29.855  1.00  0.00     0.074 A 
ATOM     46  C   UNL A   1      42.442  29.884  35.471  1.00  0.00     0.029 A 
ATOM     47  N   UNL A   1      42.158  29.220  33.369  1.00  0.00    -0.354 N 
ATOM     48  N   UNL A   1      42.752  27.599  30.988  1.00  0.00    -0.248 NA
ATOM     49  C   UNL A   1      44.075  26.025  29.883  1.00  0.00     0.031 C 
ATOM     50  C   UNL A   1      43.421  28.938  35.171  1.00  0.00     0.029 A 
ATOM     51  C   UNL A   1      43.224  28.494  33.873  1.00  0.00     0.049 A 
ATOM     52  H   UNL A   1      41.796  29.133  32.457  1.00  0.00     0.167 HD
ATOM     53  C   UNL A   1      43.719  27.121  31.868  1.00  0.00     0.074 A 
ATOM     54  C   UNL A   1      44.476  26.119  31.145  1.00  0.00     0.031 C 
ATOM     55  C   UNL A   1      43.965  27.488  33.151  1.00  0.00     0.034 A 
BRANCH  42  56
ATOM     56  C   UNL A   1      40.206  31.891  35.325  1.00  0.00     0.023 A 
ATOM     57  C   UNL A   1      39.257  31.469  36.276  1.00  0.00     0.031 A 
ATOM     58  C   UNL A   1      40.697  33.208  35.420  1.00  0.00     0.131 A 
ATOM     59  C   UNL A   1      38.807  32.364  37.257  1.00  0.00     0.055 A 
ATOM     60  C   UNL A   1      40.285  34.077  36.431  1.00  0.00     0.041 A 
ATOM     61  F   UNL A   1      41.595  33.666  34.534  1.00  0.00    -0.206 F 
ATOM     62  C   UNL A   1      39.325  33.660  37.347  1.00  0.00     0.022 A 
BRANCH  59  63
ATOM     63  S   UNL A   1      37.484  31.910  38.411  1.00  0.00     0.124 S 
ATOM     64  O   UNL A   1      38.140  32.084  39.705  1.00  0.00    -0.237 OA
ATOM     65  O   UNL A   1      36.455  32.897  38.098  1.00  0.00    -0.237 OA
ATOM     66  O   UNL A   1      37.166  30.530  38.057  1.00  0.00    -0.744 OA
ENDBRANCH  59  63
ENDBRANCH  42  56
BRANCH  43  67
ATOM     67  C   UNL A   1      42.479  26.213  27.384  1.00  0.00     0.023 A 
ATOM     68  C   UNL A   1      41.970  24.905  27.284  1.00  0.00     0.031 A 
ATOM     69  C   UNL A   1      43.392  26.640  26.403  1.00  0.00     0.131 A 
ATOM     70  C   UNL A   1      42.431  24.051  26.273  1.00  0.00     0.055 A 
ATOM     71  C   UNL A   1      43.791  25.811  25.353  1.00  0.00     0.041 A 
ATOM     72  F   UNL A   1      43.922  27.872  26.464  1.00  0.00    -0.206 F 
ATOM     73  C   UNL A   1      43.326  24.502  25.296  1.00  0.00     0.022 A 
BRANCH  70  74
ATOM     74  S   UNL A   1      42.006  22.288  26.280  1.00  0.00     0.124 S 
ATOM     75  O   UNL A   1      42.576  21.842  27.547  1.00  0.00    -0.237 OA
ATOM     76  O   UNL A   1      40.546  22.333  26.225  1.00  0.00    -0.237 OA
ATOM     77  O   UNL A   1      42.655  21.773  25.079  1.00  0.00    -0.744 OA
ENDBRANCH  70  74
ENDBRANCH  43  67
BRANCH  55  78
ATOM     78  C   UNL A   1      45.104  26.824  33.888  1.00  0.00     0.023 A 
ATOM     79  C   UNL A   1      44.888  25.613  34.575  1.00  0.00     0.031 A 
ATOM     80  C   UNL A   1      46.345  27.465  34.043  1.00  0.00     0.131 A 
ATOM     81  C   UNL A   1      45.883  25.106  35.420  1.00  0.00     0.055 A 
ATOM     82  C   UNL A   1      47.352  26.927  34.847  1.00  0.00     0.041 A 
ATOM     83  F   UNL A   1      46.595  28.628  33.422  1.00  0.00    -0.206 F 
ATOM     84  C   UNL A   1      47.116  25.751  35.552  1.00  0.00     0.022 A 
BRANCH  81  85
ATOM     85  S   UNL A   1      45.576  23.647  36.456  1.00  0.00     0.124 S 
ATOM     86  O   UNL A   1      44.433  23.035  35.783  1.00  0.00    -0.237 OA
ATOM     87  O   UNL A   1      46.835  22.915  36.336  1.00  0.00    -0.237 OA
ATOM     88  O   UNL A   1      45.297  24.203  37.775  1.00  0.00    -0.744 OA
ENDBRANCH  81  85
ENDBRANCH  55  78
ENDBRANCH  29  30
ENDBRANCH  22  24
ENDBRANCH  21  22
ENDBRANCH   1  21
TORSDOF 15
ENDMDL
MODEL 3
REMARK VINA RESULT:     -10.9      3.824      6.227
REMARK SMILES Cc1ccc2c(c1)C=C(C(=O)OCCOC(=O)c1ccc(-c3c4nc(c(-c5cc(S(=O)(=O)[O-])ccc5F)c5ccc([nH]5)c(-c5cc(S(=O)(=O)[O-])ccc5F)c5nc(c(-c6cc(S(=O)(=O)[O-])ccc6F)c6ccc3[nH]6)C=C5)C=C4)cc1)[C@@H](C(F)(F)F)O2
REMARK SMILES IDX 14 1 13 2 12 3 10 4 11 5 9 6 1 7 2 8 3 9 7 10 4 11 6 12 5 13
REMARK SMILES IDX 8 14 86 15 81 16 82 17 83 18 84 19 85 20 15 21 16 22 17 23
REMARK SMILES IDX 18 24 19 25 80 26 20 27 79 28 21 29 22 30 23 31 73 32 24 33
REMARK SMILES IDX 78 34 72 35 74 36 25 37 77 38 71 39 70 40 26 42 58 43 38 44
REMARK SMILES IDX 57 45 39 46 42 47 56 48 75 49 40 50 41 51 55 53 76 54 43 55
REMARK SMILES IDX 27 56 28 57 36 58 29 59 35 60 37 61 34 62 30 63 31 64 32 65
REMARK SMILES IDX 33 66 59 67 60 68 68 69 61 70 67 71 69 72 66 73 62 74 63 75
REMARK SMILES IDX 64 76 65 77 44 78 45 79 53 80 46 81 52 82 54 83 51 84 47 85
REMARK SMILES IDX 48 86 49 87 50 88
REMARK H PARENT 74 41 42 52
REMARK Flexibility Score: inf
ROOT
ATOM      1  C   UNL A   1      36.450  20.516  25.007  1.00  0.00     0.275 C 
ENDROOT
BRANCH   1   2
ATOM      2  C   UNL A   1      34.963  20.861  24.903  1.00  0.00     0.275 C 
BRANCH   2   3
ATOM      3  O   UNL A   1      34.737  22.288  24.918  1.00  0.00    -0.459 OA
BRANCH   3   4
ATOM      4  C   UNL A   1      33.728  22.728  24.128  1.00  0.00     0.338 C 
ATOM      5  O   UNL A   1      33.385  22.244  23.061  1.00  0.00    -0.246 OA
BRANCH   4   6
ATOM      6  C   UNL A   1      33.050  23.888  24.739  1.00  0.00     0.087 C 
ATOM      7  C   UNL A   1      34.256  29.432  27.143  1.00  0.00     0.044 C 
ATOM      8  C   UNL A   1      33.414  28.244  26.777  1.00  0.00    -0.050 A 
ATOM      9  C   UNL A   1      32.059  28.184  27.126  1.00  0.00     0.007 A 
ATOM     10  C   UNL A   1      33.968  27.187  26.054  1.00  0.00     0.015 A 
ATOM     11  C   UNL A   1      31.277  27.082  26.761  1.00  0.00     0.047 A 
ATOM     12  C   UNL A   1      33.189  26.073  25.715  1.00  0.00     0.017 A 
ATOM     13  C   UNL A   1      31.841  26.021  26.055  1.00  0.00     0.128 A 
ATOM     14  C   UNL A   1      33.799  24.955  25.032  1.00  0.00     0.027 C 
ATOM     15  O   UNL A   1      31.018  24.982  25.719  1.00  0.00    -0.475 OA
ATOM     16  C   UNL A   1      31.604  23.781  25.132  1.00  0.00     0.316 C 
BRANCH  16  17
ATOM     17  C   UNL A   1      31.388  22.609  26.102  1.00  0.00     0.430 C 
ATOM     18  F   UNL A   1      30.197  22.709  26.743  1.00  0.00    -0.167 F 
ATOM     19  F   UNL A   1      31.370  21.418  25.453  1.00  0.00    -0.167 F 
ATOM     20  F   UNL A   1      32.350  22.536  27.049  1.00  0.00    -0.167 F 
ENDBRANCH  16  17
ENDBRANCH   4   6
ENDBRANCH   3   4
ENDBRANCH   2   3
ENDBRANCH   1   2
BRANCH   1  21
ATOM     21  O   UNL A   1      37.181  21.578  25.643  1.00  0.00    -0.458 OA
BRANCH  21  22
ATOM     22  C   UNL A   1      38.501  21.339  25.823  1.00  0.00     0.338 C 
ATOM     23  O   UNL A   1      39.138  20.380  25.425  1.00  0.00    -0.246 OA
BRANCH  22  24
ATOM     24  C   UNL A   1      39.119  22.494  26.489  1.00  0.00     0.060 A 
ATOM     25  C   UNL A   1      40.243  22.367  27.293  1.00  0.00     0.016 A 
ATOM     26  C   UNL A   1      38.633  23.754  26.168  1.00  0.00     0.016 A 
ATOM     27  C   UNL A   1      40.863  23.528  27.777  1.00  0.00     0.010 A 
ATOM     28  C   UNL A   1      39.333  24.900  26.522  1.00  0.00     0.010 A 
ATOM     29  C   UNL A   1      40.440  24.812  27.367  1.00  0.00    -0.014 A 
BRANCH  29  30
ATOM     30  C   UNL A   1      41.160  26.047  27.802  1.00  0.00     0.031 A 
ATOM     31  C   UNL A   1      42.571  26.340  27.346  1.00  0.00     0.074 A 
ATOM     32  C   UNL A   1      40.551  26.898  28.656  1.00  0.00     0.049 A 
ATOM     33  N   UNL A   1      43.310  27.394  27.586  1.00  0.00    -0.248 NA
ATOM     34  C   UNL A   1      43.263  25.306  26.558  1.00  0.00     0.031 C 
ATOM     35  C   UNL A   1      39.245  26.669  29.277  1.00  0.00     0.029 A 
ATOM     36  N   UNL A   1      40.930  28.129  29.133  1.00  0.00    -0.354 N 
ATOM     37  C   UNL A   1      44.545  27.141  26.995  1.00  0.00     0.074 A 
ATOM     38  C   UNL A   1      44.489  25.800  26.466  1.00  0.00     0.031 C 
ATOM     39  C   UNL A   1      38.894  27.755  29.977  1.00  0.00     0.029 A 
ATOM     40  C   UNL A   1      39.964  28.745  29.899  1.00  0.00     0.049 A 
ATOM     41  H   UNL A   1      41.808  28.533  28.946  1.00  0.00     0.167 HD
ATOM     42  C   UNL A   1      45.611  27.967  26.858  1.00  0.00     0.034 A 
ATOM     43  C   UNL A   1      39.928  29.975  30.453  1.00  0.00     0.034 A 
ATOM     44  C   UNL A   1      45.632  29.323  27.341  1.00  0.00     0.049 A 
ATOM     45  C   UNL A   1      41.088  30.910  30.221  1.00  0.00     0.074 A 
ATOM     46  C   UNL A   1      46.622  30.275  27.174  1.00  0.00     0.029 A 
ATOM     47  N   UNL A   1      44.617  29.927  28.070  1.00  0.00    -0.354 N 
ATOM     48  N   UNL A   1      42.194  30.698  29.546  1.00  0.00    -0.248 NA
ATOM     49  C   UNL A   1      40.994  32.254  30.806  1.00  0.00     0.031 C 
ATOM     50  C   UNL A   1      46.232  31.433  27.847  1.00  0.00     0.029 A 
ATOM     51  C   UNL A   1      44.967  31.232  28.376  1.00  0.00     0.049 A 
ATOM     52  H   UNL A   1      43.774  29.492  28.331  1.00  0.00     0.167 HD
ATOM     53  C   UNL A   1      42.919  31.884  29.613  1.00  0.00     0.074 A 
ATOM     54  C   UNL A   1      42.108  32.822  30.362  1.00  0.00     0.031 C 
ATOM     55  C   UNL A   1      44.148  32.165  29.111  1.00  0.00     0.034 A 
BRANCH  42  56
ATOM     56  C   UNL A   1      46.826  27.471  26.105  1.00  0.00     0.023 A 
ATOM     57  C   UNL A   1      47.042  27.857  24.768  1.00  0.00     0.031 A 
ATOM     58  C   UNL A   1      47.695  26.515  26.665  1.00  0.00     0.131 A 
ATOM     59  C   UNL A   1      48.079  27.269  24.031  1.00  0.00     0.055 A 
ATOM     60  C   UNL A   1      48.759  25.972  25.943  1.00  0.00     0.041 A 
ATOM     61  F   UNL A   1      47.529  26.103  27.932  1.00  0.00    -0.206 F 
ATOM     62  C   UNL A   1      48.945  26.339  24.615  1.00  0.00     0.022 A 
BRANCH  59  63
ATOM     63  S   UNL A   1      48.305  27.630  22.267  1.00  0.00     0.124 S 
ATOM     64  O   UNL A   1      47.028  28.250  21.922  1.00  0.00    -0.237 OA
ATOM     65  O   UNL A   1      49.451  28.533  22.286  1.00  0.00    -0.237 OA
ATOM     66  O   UNL A   1      48.541  26.320  21.668  1.00  0.00    -0.744 OA
ENDBRANCH  59  63
ENDBRANCH  42  56
BRANCH  43  67
ATOM     67  C   UNL A   1      38.696  30.408  31.180  1.00  0.00     0.023 A 
ATOM     68  C   UNL A   1      37.640  31.049  30.507  1.00  0.00     0.031 A 
ATOM     69  C   UNL A   1      38.617  30.302  32.580  1.00  0.00     0.131 A 
ATOM     70  C   UNL A   1      36.592  31.623  31.239  1.00  0.00     0.055 A 
ATOM     71  C   UNL A   1      37.532  30.808  33.299  1.00  0.00     0.041 A 
ATOM     72  F   UNL A   1      39.607  29.717  33.271  1.00  0.00    -0.206 F 
ATOM     73  C   UNL A   1      36.522  31.490  32.629  1.00  0.00     0.022 A 
BRANCH  70  74
ATOM     74  S   UNL A   1      35.366  32.687  30.428  1.00  0.00     0.124 S 
ATOM     75  O   UNL A   1      34.333  32.798  31.454  1.00  0.00    -0.237 OA
ATOM     76  O   UNL A   1      36.142  33.901  30.181  1.00  0.00    -0.237 OA
ATOM     77  O   UNL A   1      34.994  31.936  29.235  1.00  0.00    -0.744 OA
ENDBRANCH  70  74
ENDBRANCH  43  67
BRANCH  55  78
ATOM     78  C   UNL A   1      44.728  33.540  29.345  1.00  0.00     0.023 A 
ATOM     79  C   UNL A   1      44.500  34.569  28.411  1.00  0.00     0.031 A 
ATOM     80  C   UNL A   1      45.630  33.783  30.395  1.00  0.00     0.131 A 
ATOM     81  C   UNL A   1      45.199  35.778  28.522  1.00  0.00     0.055 A 
ATOM     82  C   UNL A   1      46.285  35.008  30.530  1.00  0.00     0.041 A 
ATOM     83  F   UNL A   1      45.893  32.829  31.302  1.00  0.00    -0.206 F 
ATOM     84  C   UNL A   1      46.083  36.005  29.581  1.00  0.00     0.022 A 
BRANCH  81  85
ATOM     85  S   UNL A   1      45.065  37.058  27.242  1.00  0.00     0.124 S 
ATOM     86  O   UNL A   1      45.952  36.539  26.204  1.00  0.00    -0.237 OA
ATOM     87  O   UNL A   1      43.641  37.022  26.920  1.00  0.00    -0.237 OA
ATOM     88  O   UNL A   1      45.528  38.271  27.906  1.00  0.00    -0.744 OA
ENDBRANCH  81  85
ENDBRANCH  55  78
ENDBRANCH  29  30
ENDBRANCH  22  24
ENDBRANCH  21  22
ENDBRANCH   1  21
TORSDOF 15
ENDMDL
