MODEL 1
REMARK VINA RESULT:     -12.2      0.000      0.000
REMARK SMILES O=C1C=C/C(=C\NCc2ccc(C(=O)OCCOC(=O)c3ccc(-c4c5nc(c(-c6cc(S(=O)(=O)[O-])ccc6F)c6ccc([nH]6)c(-c6cc(S(=O)(=O)[O-])ccc6F)c6nc(c(-c7cc(S(=O)(=O)[O-])ccc7F)c7ccc4[nH]7)C=C6)C=C5)cc3)cc2)C=C1[N+](=O)[O-]
REMARK SMILES IDX 16 1 15 2 13 3 14 4 12 5 9 6 10 7 85 8 11 9 84 10 8 11 7 12
REMARK SMILES IDX 6 14 1 15 2 16 3 17 87 18 4 19 86 20 5 21 88 22 89 23 90 24
REMARK SMILES IDX 17 25 18 26 19 27 20 28 21 29 22 30 83 31 23 32 82 33 24 34
REMARK SMILES IDX 25 35 26 36 76 37 27 38 81 39 75 40 77 41 28 42 80 43 74 44
REMARK SMILES IDX 73 45 29 47 61 48 41 49 60 50 42 51 45 52 59 53 78 54 43 55
REMARK SMILES IDX 44 56 58 58 79 59 46 60 30 61 31 62 39 63 32 64 38 65 40 66
REMARK SMILES IDX 37 67 33 68 34 69 35 70 36 71 62 72 63 73 71 74 64 75 70 76
REMARK SMILES IDX 72 77 69 78 65 79 66 80 67 81 68 82 47 83 48 84 56 85 49 86
REMARK SMILES IDX 55 87 57 88 54 89 50 90 51 91 52 92 53 93
REMARK H PARENT 7 13 77 46 45 57
REMARK Flexibility Score: inf
ROOT
ATOM      1  C   UNL A   1      31.054  28.982  24.883  1.00  0.00     0.275 C 
ENDROOT
BRANCH   1   2
ATOM      2  O   UNL A   1      31.031  27.544  24.788  1.00  0.00    -0.458 OA
BRANCH   2   3
ATOM      3  C   UNL A   1      31.903  27.002  23.903  1.00  0.00     0.338 C 
ATOM      4  O   UNL A   1      32.043  27.329  22.734  1.00  0.00    -0.246 OA
BRANCH   3   5
ATOM      5  C   UNL A   1      32.758  25.975  24.551  1.00  0.00     0.060 A 
ATOM      6  C   UNL A   1      34.304  24.040  25.884  1.00  0.00    -0.029 A 
ATOM      7  C   UNL A   1      33.055  24.418  26.389  1.00  0.00     0.006 A 
ATOM      8  C   UNL A   1      34.766  24.633  24.697  1.00  0.00     0.006 A 
ATOM      9  C   UNL A   1      32.305  25.398  25.744  1.00  0.00     0.016 A 
ATOM     10  C   UNL A   1      33.996  25.593  24.029  1.00  0.00     0.016 A 
BRANCH   6  11
ATOM     11  C   UNL A   1      35.112  22.989  26.599  1.00  0.00     0.148 C 
BRANCH  11  12
ATOM     12  N   UNL A   1      35.854  22.206  25.634  1.00  0.00    -0.386 N 
ATOM     13  H   UNL A   1      36.537  22.681  25.107  1.00  0.00     0.160 HD
BRANCH  12  14
ATOM     14  C   UNL A   1      35.699  20.868  25.383  1.00  0.00     0.086 C 
ATOM     15  O   UNL A   1      31.817  18.151  22.727  1.00  0.00    -0.282 OA
ATOM     16  C   UNL A   1      32.664  18.714  23.408  1.00  0.00     0.255 C 
ATOM     17  C   UNL A   1      32.526  20.177  23.668  1.00  0.00     0.060 C 
ATOM     18  C   UNL A   1      33.862  18.055  23.986  1.00  0.00     0.316 C 
ATOM     19  C   UNL A   1      33.481  20.864  24.313  1.00  0.00     0.014 C 
ATOM     20  C   UNL A   1      34.808  18.758  24.634  1.00  0.00     0.099 C 
ATOM     21  C   UNL A   1      34.687  20.204  24.791  1.00  0.00    -0.003 C 
BRANCH  18  22
ATOM     22  N   UNL A   1      34.063  16.624  23.850  1.00  0.00     0.067 N 
ATOM     23  O   UNL A   1      34.394  16.192  22.732  1.00  0.00    -0.258 OA
ATOM     24  O   UNL A   1      33.927  15.901  24.842  1.00  0.00    -0.258 OA
ENDBRANCH  18  22
ENDBRANCH  12  14
ENDBRANCH  11  12
ENDBRANCH   6  11
ENDBRANCH   3   5
ENDBRANCH   2   3
ENDBRANCH   1   2
BRANCH   1  25
ATOM     25  C   UNL A   1      32.418  29.492  25.348  1.00  0.00     0.275 C 
BRANCH  25  26
ATOM     26  O   UNL A   1      32.397  29.806  26.752  1.00  0.00    -0.458 OA
BRANCH  26  27
ATOM     27  C   UNL A   1      32.935  31.002  27.084  1.00  0.00     0.338 C 
ATOM     28  O   UNL A   1      32.410  32.099  27.009  1.00  0.00    -0.246 OA
BRANCH  27  29
ATOM     29  C   UNL A   1      34.299  30.802  27.595  1.00  0.00     0.060 A 
ATOM     30  C   UNL A   1      34.709  29.516  27.937  1.00  0.00     0.016 A 
ATOM     31  C   UNL A   1      35.119  31.896  27.862  1.00  0.00     0.016 A 
ATOM     32  C   UNL A   1      35.906  29.319  28.625  1.00  0.00     0.010 A 
ATOM     33  C   UNL A   1      36.360  31.686  28.472  1.00  0.00     0.010 A 
ATOM     34  C   UNL A   1      36.756  30.400  28.890  1.00  0.00    -0.014 A 
BRANCH  34  35
ATOM     35  C   UNL A   1      38.035  30.218  29.635  1.00  0.00     0.031 A 
ATOM     36  C   UNL A   1      39.100  29.313  29.071  1.00  0.00     0.074 A 
ATOM     37  C   UNL A   1      38.246  30.827  30.820  1.00  0.00     0.049 A 
ATOM     38  N   UNL A   1      40.138  28.779  29.659  1.00  0.00    -0.248 NA
ATOM     39  C   UNL A   1      38.959  28.947  27.653  1.00  0.00     0.031 C 
ATOM     40  C   UNL A   1      37.344  31.792  31.451  1.00  0.00     0.029 A 
ATOM     41  N   UNL A   1      39.283  30.712  31.715  1.00  0.00    -0.354 N 
ATOM     42  C   UNL A   1      40.740  27.962  28.706  1.00  0.00     0.074 A 
ATOM     43  C   UNL A   1      39.944  28.074  27.501  1.00  0.00     0.031 C 
ATOM     44  C   UNL A   1      37.869  32.184  32.622  1.00  0.00     0.029 A 
ATOM     45  C   UNL A   1      39.086  31.424  32.876  1.00  0.00     0.049 A 
ATOM     46  H   UNL A   1      40.088  30.172  31.542  1.00  0.00     0.167 HD
ATOM     47  C   UNL A   1      41.847  27.187  28.833  1.00  0.00     0.034 A 
ATOM     48  C   UNL A   1      39.763  31.417  34.043  1.00  0.00     0.034 A 
ATOM     49  C   UNL A   1      42.646  27.124  30.033  1.00  0.00     0.049 A 
ATOM     50  C   UNL A   1      40.951  30.500  34.190  1.00  0.00     0.074 A 
ATOM     51  C   UNL A   1      43.783  26.372  30.276  1.00  0.00     0.029 A 
ATOM     52  N   UNL A   1      42.396  27.848  31.191  1.00  0.00    -0.354 N 
ATOM     53  N   UNL A   1      41.457  29.662  33.316  1.00  0.00    -0.248 NA
ATOM     54  C   UNL A   1      41.647  30.517  35.483  1.00  0.00     0.031 C 
ATOM     55  C   UNL A   1      44.188  26.601  31.596  1.00  0.00     0.029 A 
ATOM     56  C   UNL A   1      43.347  27.551  32.155  1.00  0.00     0.049 A 
ATOM     57  H   UNL A   1      41.651  28.482  31.311  1.00  0.00     0.167 HD
ATOM     58  C   UNL A   1      42.551  29.076  33.945  1.00  0.00     0.074 A 
ATOM     59  C   UNL A   1      42.631  29.655  35.269  1.00  0.00     0.031 C 
ATOM     60  C   UNL A   1      43.416  28.146  33.467  1.00  0.00     0.034 A 
BRANCH  47  61
ATOM     61  C   UNL A   1      42.214  26.300  27.667  1.00  0.00     0.023 A 
ATOM     62  C   UNL A   1      41.726  24.989  27.544  1.00  0.00     0.031 A 
ATOM     63  C   UNL A   1      43.098  26.768  26.678  1.00  0.00     0.131 A 
ATOM     64  C   UNL A   1      42.181  24.168  26.501  1.00  0.00     0.055 A 
ATOM     65  C   UNL A   1      43.483  25.973  25.596  1.00  0.00     0.041 A 
ATOM     66  F   UNL A   1      43.614  28.005  26.751  1.00  0.00    -0.206 F 
ATOM     67  C   UNL A   1      43.037  24.658  25.512  1.00  0.00     0.022 A 
BRANCH  64  68
ATOM     68  S   UNL A   1      41.755  22.404  26.540  1.00  0.00     0.124 S 
ATOM     69  O   UNL A   1      42.356  21.981  27.802  1.00  0.00    -0.237 OA
ATOM     70  O   UNL A   1      40.297  22.433  26.507  1.00  0.00    -0.237 OA
ATOM     71  O   UNL A   1      42.398  21.871  25.341  1.00  0.00    -0.744 OA
ENDBRANCH  64  68
ENDBRANCH  47  61
BRANCH  48  72
ATOM     72  C   UNL A   1      39.286  32.240  35.191  1.00  0.00     0.023 A 
ATOM     73  C   UNL A   1      38.626  31.652  36.281  1.00  0.00     0.031 A 
ATOM     74  C   UNL A   1      39.463  33.636  35.204  1.00  0.00     0.131 A 
ATOM     75  C   UNL A   1      38.141  32.459  37.322  1.00  0.00     0.055 A 
ATOM     76  C   UNL A   1      39.030  34.428  36.267  1.00  0.00     0.041 A 
ATOM     77  F   UNL A   1      40.085  34.250  34.185  1.00  0.00    -0.206 F 
ATOM     78  C   UNL A   1      38.353  33.841  37.331  1.00  0.00     0.022 A 
BRANCH  75  79
ATOM     79  S   UNL A   1      37.160  31.687  38.637  1.00  0.00     0.124 S 
ATOM     80  O   UNL A   1      35.950  32.503  38.622  1.00  0.00    -0.237 OA
ATOM     81  O   UNL A   1      37.017  30.321  38.145  1.00  0.00    -0.237 OA
ATOM     82  O   UNL A   1      38.000  31.837  39.823  1.00  0.00    -0.744 OA
ENDBRANCH  75  79
ENDBRANCH  48  72
BRANCH  60  83
ATOM     83  C   UNL A   1      44.571  27.761  34.355  1.00  0.00     0.023 A 
ATOM     84  C   UNL A   1      44.487  26.693  35.266  1.00  0.00     0.031 A 
ATOM     85  C   UNL A   1      45.781  28.472  34.271  1.00  0.00     0.131 A 
ATOM     86  C   UNL A   1      45.586  26.390  36.083  1.00  0.00     0.055 A 
ATOM     87  C   UNL A   1      46.885  28.136  35.054  1.00  0.00     0.041 A 
ATOM     88  F   UNL A   1      45.910  29.500  33.417  1.00  0.00    -0.206 F 
ATOM     89  C   UNL A   1      46.788  27.095  35.972  1.00  0.00     0.022 A 
BRANCH  86  90
ATOM     90  S   UNL A   1      45.410  25.092  37.339  1.00  0.00     0.124 S 
ATOM     91  O   UNL A   1      45.279  23.892  36.518  1.00  0.00    -0.237 OA
ATOM     92  O   UNL A   1      46.652  25.215  38.093  1.00  0.00    -0.237 OA
ATOM     93  O   UNL A   1      44.203  25.480  38.067  1.00  0.00    -0.744 OA
ENDBRANCH  86  90
ENDBRANCH  60  83
ENDBRANCH  34  35
ENDBRANCH  27  29
ENDBRANCH  26  27
ENDBRANCH  25  26
ENDBRANCH   1  25
TORSDOF 18
ENDMDL
MODEL 2
REMARK VINA RESULT:     -12.1      5.332     10.530
REMARK SMILES O=C1C=C/C(=C\NCc2ccc(C(=O)OCCOC(=O)c3ccc(-c4c5nc(c(-c6cc(S(=O)(=O)[O-])ccc6F)c6ccc([nH]6)c(-c6cc(S(=O)(=O)[O-])ccc6F)c6nc(c(-c7cc(S(=O)(=O)[O-])ccc7F)c7ccc4[nH]7)C=C6)C=C5)cc3)cc2)C=C1[N+](=O)[O-]
REMARK SMILES IDX 16 1 15 2 13 3 14 4 12 5 9 6 10 7 85 8 11 9 84 10 8 11 7 12
REMARK SMILES IDX 6 14 1 15 2 16 3 17 87 18 4 19 86 20 5 21 88 22 89 23 90 24
REMARK SMILES IDX 17 25 18 26 19 27 20 28 21 29 22 30 83 31 23 32 82 33 24 34
REMARK SMILES IDX 25 35 26 36 76 37 27 38 81 39 75 40 77 41 28 42 80 43 74 44
REMARK SMILES IDX 73 45 29 47 61 48 41 49 60 50 42 51 45 52 59 53 78 54 43 55
REMARK SMILES IDX 44 56 58 58 79 59 46 60 30 61 31 62 39 63 32 64 38 65 40 66
REMARK SMILES IDX 37 67 33 68 34 69 35 70 36 71 62 72 63 73 71 74 64 75 70 76
REMARK SMILES IDX 72 77 69 78 65 79 66 80 67 81 68 82 47 83 48 84 56 85 49 86
REMARK SMILES IDX 55 87 57 88 54 89 50 90 51 91 52 92 53 93
REMARK H PARENT 7 13 77 46 45 57
REMARK Flexibility Score: inf
ROOT
ATOM      1  C   UNL A   1      35.093  22.623  24.847  1.00  0.00     0.275 C 
ENDROOT
BRANCH   1   2
ATOM      2  O   UNL A   1      34.058  22.464  23.856  1.00  0.00    -0.458 OA
BRANCH   2   3
ATOM      3  C   UNL A   1      33.702  23.593  23.195  1.00  0.00     0.338 C 
ATOM      4  O   UNL A   1      33.650  23.734  21.982  1.00  0.00    -0.246 OA
BRANCH   3   5
ATOM      5  C   UNL A   1      33.296  24.664  24.139  1.00  0.00     0.060 A 
ATOM      6  C   UNL A   1      32.642  26.747  25.913  1.00  0.00    -0.029 A 
ATOM      7  C   UNL A   1      33.748  26.862  25.065  1.00  0.00     0.006 A 
ATOM      8  C   UNL A   1      31.859  25.581  25.856  1.00  0.00     0.006 A 
ATOM      9  C   UNL A   1      34.088  25.817  24.209  1.00  0.00     0.016 A 
ATOM     10  C   UNL A   1      32.179  24.545  24.971  1.00  0.00     0.016 A 
BRANCH   6  11
ATOM     11  C   UNL A   1      32.293  27.879  26.844  1.00  0.00     0.148 C 
BRANCH  11  12
ATOM     12  N   UNL A   1      32.510  29.143  26.174  1.00  0.00    -0.386 N 
ATOM     13  H   UNL A   1      33.445  29.423  26.043  1.00  0.00     0.160 HD
BRANCH  12  14
ATOM     14  C   UNL A   1      31.540  29.990  25.704  1.00  0.00     0.086 C 
ATOM     15  O   UNL A   1      28.445  29.762  21.246  1.00  0.00    -0.282 OA
ATOM     16  C   UNL A   1      29.183  29.896  22.213  1.00  0.00     0.255 C 
ATOM     17  C   UNL A   1      30.280  28.907  22.429  1.00  0.00     0.060 C 
ATOM     18  C   UNL A   1      29.058  30.969  23.230  1.00  0.00     0.316 C 
ATOM     19  C   UNL A   1      31.045  28.944  23.530  1.00  0.00     0.014 C 
ATOM     20  C   UNL A   1      29.837  30.995  24.327  1.00  0.00     0.099 C 
ATOM     21  C   UNL A   1      30.839  29.959  24.554  1.00  0.00    -0.003 C 
BRANCH  18  22
ATOM     22  N   UNL A   1      28.068  32.022  23.086  1.00  0.00     0.067 N 
ATOM     23  O   UNL A   1      26.991  31.888  23.693  1.00  0.00    -0.258 OA
ATOM     24  O   UNL A   1      28.339  33.011  22.396  1.00  0.00    -0.258 OA
ENDBRANCH  18  22
ENDBRANCH  12  14
ENDBRANCH  11  12
ENDBRANCH   6  11
ENDBRANCH   3   5
ENDBRANCH   2   3
ENDBRANCH   1   2
BRANCH   1  25
ATOM     25  C   UNL A   1      36.207  21.593  24.667  1.00  0.00     0.275 C 
BRANCH  25  26
ATOM     26  O   UNL A   1      36.947  21.419  25.888  1.00  0.00    -0.458 OA
BRANCH  26  27
ATOM     27  C   UNL A   1      38.288  21.315  25.741  1.00  0.00     0.338 C 
ATOM     28  O   UNL A   1      38.903  20.454  25.136  1.00  0.00    -0.246 OA
BRANCH  27  29
ATOM     29  C   UNL A   1      38.946  22.441  26.418  1.00  0.00     0.060 A 
ATOM     30  C   UNL A   1      38.527  23.738  26.132  1.00  0.00     0.016 A 
ATOM     31  C   UNL A   1      40.059  22.225  27.226  1.00  0.00     0.016 A 
ATOM     32  C   UNL A   1      39.266  24.831  26.581  1.00  0.00     0.010 A 
ATOM     33  C   UNL A   1      40.747  23.324  27.751  1.00  0.00     0.010 A 
ATOM     34  C   UNL A   1      40.380  24.641  27.410  1.00  0.00    -0.014 A 
BRANCH  34  35
ATOM     35  C   UNL A   1      41.194  25.793  27.894  1.00  0.00     0.031 A 
ATOM     36  C   UNL A   1      40.540  26.866  28.726  1.00  0.00     0.074 A 
ATOM     37  C   UNL A   1      42.500  25.906  27.577  1.00  0.00     0.049 A 
ATOM     38  N   UNL A   1      40.954  28.075  29.003  1.00  0.00    -0.248 NA
ATOM     39  C   UNL A   1      39.230  26.532  29.307  1.00  0.00     0.031 C 
ATOM     40  C   UNL A   1      43.287  24.910  26.849  1.00  0.00     0.029 A 
ATOM     41  N   UNL A   1      43.394  26.923  27.814  1.00  0.00    -0.354 N 
ATOM     42  C   UNL A   1      39.931  28.671  29.735  1.00  0.00     0.074 A 
ATOM     43  C   UNL A   1      38.877  27.686  29.855  1.00  0.00     0.031 C 
ATOM     44  C   UNL A   1      44.543  25.359  26.707  1.00  0.00     0.029 A 
ATOM     45  C   UNL A   1      44.626  26.715  27.236  1.00  0.00     0.049 A 
ATOM     46  H   UNL A   1      43.176  27.722  28.346  1.00  0.00     0.167 HD
ATOM     47  C   UNL A   1      39.879  29.927  30.248  1.00  0.00     0.034 A 
ATOM     48  C   UNL A   1      45.681  27.542  27.082  1.00  0.00     0.034 A 
ATOM     49  C   UNL A   1      40.960  30.877  30.148  1.00  0.00     0.049 A 
ATOM     50  C   UNL A   1      45.581  28.954  27.598  1.00  0.00     0.074 A 
ATOM     51  C   UNL A   1      41.016  32.176  30.626  1.00  0.00     0.029 A 
ATOM     52  N   UNL A   1      42.181  30.628  29.536  1.00  0.00    -0.354 N 
ATOM     53  N   UNL A   1      44.575  29.539  28.206  1.00  0.00    -0.248 NA
ATOM     54  C   UNL A   1      46.749  29.820  27.394  1.00  0.00     0.031 C 
ATOM     55  C   UNL A   1      42.248  32.727  30.256  1.00  0.00     0.029 A 
ATOM     56  C   UNL A   1      42.990  31.751  29.611  1.00  0.00     0.049 A 
ATOM     57  H   UNL A   1      42.437  29.777  29.111  1.00  0.00     0.167 HD
ATOM     58  C   UNL A   1      45.004  30.833  28.486  1.00  0.00     0.074 A 
ATOM     59  C   UNL A   1      46.356  30.943  27.981  1.00  0.00     0.031 C 
ATOM     60  C   UNL A   1      44.340  31.839  29.109  1.00  0.00     0.034 A 
BRANCH  47  61
ATOM     61  C   UNL A   1      38.587  30.359  30.900  1.00  0.00     0.023 A 
ATOM     62  C   UNL A   1      37.557  30.980  30.177  1.00  0.00     0.031 A 
ATOM     63  C   UNL A   1      38.401  30.175  32.283  1.00  0.00     0.131 A 
ATOM     64  C   UNL A   1      36.422  31.461  30.848  1.00  0.00     0.055 A 
ATOM     65  C   UNL A   1      37.233  30.582  32.931  1.00  0.00     0.041 A 
ATOM     66  F   UNL A   1      39.360  29.607  33.032  1.00  0.00    -0.206 F 
ATOM     67  C   UNL A   1      36.242  31.245  32.216  1.00  0.00     0.022 A 
BRANCH  64  68
ATOM     68  S   UNL A   1      35.253  32.505  29.932  1.00  0.00     0.124 S 
ATOM     69  O   UNL A   1      34.274  32.831  30.966  1.00  0.00    -0.237 OA
ATOM     70  O   UNL A   1      36.099  33.607  29.487  1.00  0.00    -0.237 OA
ATOM     71  O   UNL A   1      34.764  31.624  28.874  1.00  0.00    -0.744 OA
ENDBRANCH  64  68
ENDBRANCH  47  61
BRANCH  48  72
ATOM     72  C   UNL A   1      46.888  27.085  26.335  1.00  0.00     0.023 A 
ATOM     73  C   UNL A   1      47.984  26.519  27.004  1.00  0.00     0.031 A 
ATOM     74  C   UNL A   1      46.972  27.229  24.937  1.00  0.00     0.131 A 
ATOM     75  C   UNL A   1      49.128  26.147  26.280  1.00  0.00     0.055 A 
ATOM     76  C   UNL A   1      48.088  26.806  24.216  1.00  0.00     0.041 A 
ATOM     77  F   UNL A   1      45.954  27.766  24.248  1.00  0.00    -0.206 F 
ATOM     78  C   UNL A   1      49.181  26.271  24.889  1.00  0.00     0.022 A 
BRANCH  75  79
ATOM     79  S   UNL A   1      50.583  25.565  27.192  1.00  0.00     0.124 S 
ATOM     80  O   UNL A   1      50.151  24.239  27.625  1.00  0.00    -0.237 OA
ATOM     81  O   UNL A   1      51.618  25.598  26.165  1.00  0.00    -0.237 OA
ATOM     82  O   UNL A   1      50.734  26.551  28.260  1.00  0.00    -0.744 OA
ENDBRANCH  75  79
ENDBRANCH  48  72
BRANCH  60  83
ATOM     83  C   UNL A   1      45.100  33.117  29.352  1.00  0.00     0.023 A 
ATOM     84  C   UNL A   1      44.990  34.224  28.493  1.00  0.00     0.031 A 
ATOM     85  C   UNL A   1      45.937  33.226  30.476  1.00  0.00     0.131 A 
ATOM     86  C   UNL A   1      45.736  35.383  28.755  1.00  0.00     0.055 A 
ATOM     87  C   UNL A   1      46.640  34.398  30.757  1.00  0.00     0.041 A 
ATOM     88  F   UNL A   1      46.076  32.196  31.326  1.00  0.00    -0.206 F 
ATOM     89  C   UNL A   1      46.548  35.482  29.889  1.00  0.00     0.022 A 
BRANCH  86  90
ATOM     90  S   UNL A   1      45.674  36.750  27.564  1.00  0.00     0.124 S 
ATOM     91  O   UNL A   1      44.725  36.249  26.575  1.00  0.00    -0.237 OA
ATOM     92  O   UNL A   1      45.210  37.862  28.386  1.00  0.00    -0.237 OA
ATOM     93  O   UNL A   1      47.056  36.862  27.098  1.00  0.00    -0.744 OA
ENDBRANCH  86  90
ENDBRANCH  60  83
ENDBRANCH  34  35
ENDBRANCH  27  29
ENDBRANCH  26  27
ENDBRANCH  25  26
ENDBRANCH   1  25
TORSDOF 18
ENDMDL
MODEL 3
REMARK VINA RESULT:     -12.1      1.954      2.308
REMARK SMILES O=C1C=C/C(=C\NCc2ccc(C(=O)OCCOC(=O)c3ccc(-c4c5nc(c(-c6cc(S(=O)(=O)[O-])ccc6F)c6ccc([nH]6)c(-c6cc(S(=O)(=O)[O-])ccc6F)c6nc(c(-c7cc(S(=O)(=O)[O-])ccc7F)c7ccc4[nH]7)C=C6)C=C5)cc3)cc2)C=C1[N+](=O)[O-]
REMARK SMILES IDX 16 1 15 2 13 3 14 4 12 5 9 6 10 7 85 8 11 9 84 10 8 11 7 12
REMARK SMILES IDX 6 14 1 15 2 16 3 17 87 18 4 19 86 20 5 21 88 22 89 23 90 24
REMARK SMILES IDX 17 25 18 26 19 27 20 28 21 29 22 30 83 31 23 32 82 33 24 34
REMARK SMILES IDX 25 35 26 36 76 37 27 38 81 39 75 40 77 41 28 42 80 43 74 44
REMARK SMILES IDX 73 45 29 47 61 48 41 49 60 50 42 51 45 52 59 53 78 54 43 55
REMARK SMILES IDX 44 56 58 58 79 59 46 60 30 61 31 62 39 63 32 64 38 65 40 66
REMARK SMILES IDX 37 67 33 68 34 69 35 70 36 71 62 72 63 73 71 74 64 75 70 76
REMARK SMILES IDX 72 77 69 78 65 79 66 80 67 81 68 82 47 83 48 84 56 85 49 86
REMARK SMILES IDX 55 87 57 88 54 89 50 90 51 91 52 92 53 93
REMARK H PARENT 7 13 77 46 45 57
REMARK Flexibility Score: inf
ROOT
ATOM      1  C   UNL A   1      31.118  28.747  25.195  1.00  0.00     0.275 C 
ENDROOT
BRANCH   1   2
ATOM      2  O   UNL A   1      31.329  27.516  24.475  1.00  0.00    -0.458 OA
BRANCH   2   3
ATOM      3  C   UNL A   1      31.407  26.398  25.238  1.00  0.00     0.338 C 
ATOM      4  O   UNL A   1      30.569  26.009  26.037  1.00  0.00    -0.246 OA
BRANCH   3   5
ATOM      5  C   UNL A   1      32.637  25.624  24.933  1.00  0.00     0.060 A 
ATOM      6  C   UNL A   1      34.995  24.159  24.480  1.00  0.00    -0.029 A 
ATOM      7  C   UNL A   1      34.486  24.297  25.776  1.00  0.00     0.006 A 
ATOM      8  C   UNL A   1      34.304  24.754  23.411  1.00  0.00     0.006 A 
ATOM      9  C   UNL A   1      33.335  25.048  26.001  1.00  0.00     0.016 A 
ATOM     10  C   UNL A   1      33.127  25.479  23.632  1.00  0.00     0.016 A 
BRANCH   6  11
ATOM     11  C   UNL A   1      36.249  23.356  24.251  1.00  0.00     0.148 C 
BRANCH  11  12
ATOM     12  N   UNL A   1      36.314  22.273  25.209  1.00  0.00    -0.386 N 
ATOM     13  H   UNL A   1      36.462  22.520  26.151  1.00  0.00     0.160 HD
BRANCH  12  14
ATOM     14  C   UNL A   1      36.190  20.936  24.934  1.00  0.00     0.086 C 
ATOM     15  O   UNL A   1      31.818  17.721  24.710  1.00  0.00    -0.282 OA
ATOM     16  C   UNL A   1      32.835  18.391  24.837  1.00  0.00     0.255 C 
ATOM     17  C   UNL A   1      32.717  19.803  25.304  1.00  0.00     0.060 C 
ATOM     18  C   UNL A   1      34.206  17.913  24.531  1.00  0.00     0.316 C 
ATOM     19  C   UNL A   1      33.785  20.613  25.354  1.00  0.00     0.014 C 
ATOM     20  C   UNL A   1      35.268  18.737  24.590  1.00  0.00     0.099 C 
ATOM     21  C   UNL A   1      35.105  20.139  24.962  1.00  0.00    -0.003 C 
BRANCH  18  22
ATOM     22  N   UNL A   1      34.445  16.538  24.131  1.00  0.00     0.067 N 
ATOM     23  O   UNL A   1      34.213  16.232  22.948  1.00  0.00    -0.258 OA
ATOM     24  O   UNL A   1      34.889  15.739  24.963  1.00  0.00    -0.258 OA
ENDBRANCH  18  22
ENDBRANCH  12  14
ENDBRANCH  11  12
ENDBRANCH   6  11
ENDBRANCH   3   5
ENDBRANCH   2   3
ENDBRANCH   1   2
BRANCH   1  25
ATOM     25  C   UNL A   1      32.438  29.457  25.495  1.00  0.00     0.275 C 
BRANCH  25  26
ATOM     26  O   UNL A   1      32.516  29.829  26.882  1.00  0.00    -0.458 OA
BRANCH  26  27
ATOM     27  C   UNL A   1      33.079  31.036  27.125  1.00  0.00     0.338 C 
ATOM     28  O   UNL A   1      32.568  32.134  26.990  1.00  0.00    -0.246 OA
BRANCH  27  29
ATOM     29  C   UNL A   1      34.450  30.848  27.620  1.00  0.00     0.060 A 
ATOM     30  C   UNL A   1      34.873  29.566  27.963  1.00  0.00     0.016 A 
ATOM     31  C   UNL A   1      35.266  31.947  27.870  1.00  0.00     0.016 A 
ATOM     32  C   UNL A   1      36.079  29.380  28.637  1.00  0.00     0.010 A 
ATOM     33  C   UNL A   1      36.517  31.749  28.466  1.00  0.00     0.010 A 
ATOM     34  C   UNL A   1      36.926  30.468  28.886  1.00  0.00    -0.014 A 
BRANCH  34  35
ATOM     35  C   UNL A   1      38.216  30.298  29.616  1.00  0.00     0.031 A 
ATOM     36  C   UNL A   1      39.288  29.414  29.032  1.00  0.00     0.074 A 
ATOM     37  C   UNL A   1      38.430  30.899  30.804  1.00  0.00     0.049 A 
ATOM     38  N   UNL A   1      40.340  28.891  29.604  1.00  0.00    -0.248 NA
ATOM     39  C   UNL A   1      39.138  29.060  27.612  1.00  0.00     0.031 C 
ATOM     40  C   UNL A   1      37.520  31.844  31.454  1.00  0.00     0.029 A 
ATOM     41  N   UNL A   1      39.477  30.790  31.687  1.00  0.00    -0.354 N 
ATOM     42  C   UNL A   1      40.944  28.092  28.637  1.00  0.00     0.074 A 
ATOM     43  C   UNL A   1      40.134  28.203  27.441  1.00  0.00     0.031 C 
ATOM     44  C   UNL A   1      38.051  32.233  32.623  1.00  0.00     0.029 A 
ATOM     45  C   UNL A   1      39.282  31.488  32.858  1.00  0.00     0.049 A 
ATOM     46  H   UNL A   1      40.289  30.265  31.501  1.00  0.00     0.167 HD
ATOM     47  C   UNL A   1      42.064  27.333  28.744  1.00  0.00     0.034 A 
ATOM     48  C   UNL A   1      39.972  31.480  34.017  1.00  0.00     0.034 A 
ATOM     49  C   UNL A   1      42.876  27.270  29.936  1.00  0.00     0.049 A 
ATOM     50  C   UNL A   1      41.174  30.580  34.143  1.00  0.00     0.074 A 
ATOM     51  C   UNL A   1      44.027  26.533  30.160  1.00  0.00     0.029 A 
ATOM     52  N   UNL A   1      42.627  27.980  31.104  1.00  0.00    -0.354 N 
ATOM     53  N   UNL A   1      41.684  29.758  33.255  1.00  0.00    -0.248 NA
ATOM     54  C   UNL A   1      41.883  30.595  35.429  1.00  0.00     0.031 C 
ATOM     55  C   UNL A   1      44.442  26.756  31.477  1.00  0.00     0.029 A 
ATOM     56  C   UNL A   1      43.593  27.687  32.054  1.00  0.00     0.049 A 
ATOM     57  H   UNL A   1      41.875  28.601  31.237  1.00  0.00     0.167 HD
ATOM     58  C   UNL A   1      42.793  29.182  33.867  1.00  0.00     0.074 A 
ATOM     59  C   UNL A   1      42.879  29.750  35.196  1.00  0.00     0.031 C 
ATOM     60  C   UNL A   1      43.667  28.270  33.372  1.00  0.00     0.034 A 
BRANCH  47  61
ATOM     61  C   UNL A   1      42.432  26.462  27.566  1.00  0.00     0.023 A 
ATOM     62  C   UNL A   1      41.904  25.172  27.398  1.00  0.00     0.031 A 
ATOM     63  C   UNL A   1      43.355  26.924  26.611  1.00  0.00     0.131 A 
ATOM     64  C   UNL A   1      42.359  24.362  26.346  1.00  0.00     0.055 A 
ATOM     65  C   UNL A   1      43.742  26.144  25.520  1.00  0.00     0.041 A 
ATOM     66  F   UNL A   1      43.910  28.142  26.729  1.00  0.00    -0.206 F 
ATOM     67  C   UNL A   1      43.256  24.847  25.392  1.00  0.00     0.022 A 
BRANCH  64  68
ATOM     68  S   UNL A   1      41.875  22.613  26.330  1.00  0.00     0.124 S 
ATOM     69  O   UNL A   1      42.491  22.146  25.090  1.00  0.00    -0.237 OA
ATOM     70  O   UNL A   1      42.469  22.111  27.564  1.00  0.00    -0.237 OA
ATOM     71  O   UNL A   1      40.415  22.663  26.313  1.00  0.00    -0.744 OA
ENDBRANCH  64  68
ENDBRANCH  47  61
BRANCH  48  72
ATOM     72  C   UNL A   1      39.494  32.285  35.178  1.00  0.00     0.023 A 
ATOM     73  C   UNL A   1      39.874  33.626  35.337  1.00  0.00     0.031 A 
ATOM     74  C   UNL A   1      38.666  31.714  36.163  1.00  0.00     0.131 A 
ATOM     75  C   UNL A   1      39.452  34.343  36.468  1.00  0.00     0.055 A 
ATOM     76  C   UNL A   1      38.203  32.446  37.256  1.00  0.00     0.041 A 
ATOM     77  F   UNL A   1      38.275  30.434  36.062  1.00  0.00    -0.206 F 
ATOM     78  C   UNL A   1      38.606  33.767  37.420  1.00  0.00     0.022 A 
BRANCH  75  79
ATOM     79  S   UNL A   1      40.087  36.023  36.720  1.00  0.00     0.124 S 
ATOM     80  O   UNL A   1      41.518  35.779  36.871  1.00  0.00    -0.237 OA
ATOM     81  O   UNL A   1      39.677  36.689  35.489  1.00  0.00    -0.237 OA
ATOM     82  O   UNL A   1      39.399  36.469  37.929  1.00  0.00    -0.744 OA
ENDBRANCH  75  79
ENDBRANCH  48  72
BRANCH  60  83
ATOM     83  C   UNL A   1      44.836  27.894  34.243  1.00  0.00     0.023 A 
ATOM     84  C   UNL A   1      46.058  28.588  34.192  1.00  0.00     0.031 A 
ATOM     85  C   UNL A   1      44.713  26.828  35.151  1.00  0.00     0.131 A 
ATOM     86  C   UNL A   1      47.122  28.182  35.011  1.00  0.00     0.055 A 
ATOM     87  C   UNL A   1      45.760  26.458  35.996  1.00  0.00     0.041 A 
ATOM     88  F   UNL A   1      43.567  26.134  35.237  1.00  0.00    -0.206 F 
ATOM     89  C   UNL A   1      46.975  27.132  35.923  1.00  0.00     0.022 A 
BRANCH  86  90
ATOM     90  S   UNL A   1      48.726  29.011  34.835  1.00  0.00     0.124 S 
ATOM     91  O   UNL A   1      48.881  29.651  36.137  1.00  0.00    -0.237 OA
ATOM     92  O   UNL A   1      49.627  27.896  34.562  1.00  0.00    -0.237 OA
ATOM     93  O   UNL A   1      48.519  29.926  33.713  1.00  0.00    -0.744 OA
ENDBRANCH  86  90
ENDBRANCH  60  83
ENDBRANCH  34  35
ENDBRANCH  27  29
ENDBRANCH  26  27
ENDBRANCH  25  26
ENDBRANCH   1  25
TORSDOF 18
ENDMDL
