MODEL 1
REMARK VINA RESULT:     -12.5      0.000      0.000
REMARK SMILES C[C@H](C(=O)OCCOC(=O)c1ccc(-c2c3nc(c(-c4cc(S(=O)(=O)[O-])ccc4F)c4ccc([nH]4)c(-c4cc(S(=O)(=O)[O-])ccc4F)c4nc(c(-c5cc(S(=O)(=O)[O-])ccc5F)c5ccc2[nH]5)C=C4)C=C3)cc1)c1ccc2c(c1)[nH]c1ccc(Cl)cc12
REMARK SMILES IDX 7 1 6 2 5 3 3 4 4 5 2 6 1 7 74 8 75 9 79 10 76 11 78 12
REMARK SMILES IDX 77 13 80 14 87 15 81 16 86 18 82 19 84 20 83 21 85 22 8 23
REMARK SMILES IDX 9 24 10 25 11 26 12 27 73 28 13 29 72 30 14 31 15 32 16 33
REMARK SMILES IDX 66 34 17 35 71 36 65 37 67 38 18 39 70 40 64 41 63 42 19 44
REMARK SMILES IDX 51 45 31 46 50 47 32 48 35 49 49 50 68 51 33 52 34 53 48 55
REMARK SMILES IDX 69 56 36 57 20 58 21 59 29 60 22 61 28 62 30 63 27 64 23 65
REMARK SMILES IDX 24 66 25 67 26 68 52 69 53 70 61 71 54 72 60 73 62 74 59 75
REMARK SMILES IDX 55 76 56 77 57 78 58 79 37 80 38 81 46 82 39 83 45 84 47 85
REMARK SMILES IDX 44 86 40 87 41 88 42 89 43 90
REMARK H PARENT 80 17 67 43 35 54
REMARK Flexibility Score: inf
ROOT
ATOM      1  C   UNL A   1      36.129  21.166  24.632  1.00  0.00     0.275 C 
ENDROOT
BRANCH   1   2
ATOM      2  C   UNL A   1      34.643  21.138  24.973  1.00  0.00     0.274 C 
BRANCH   2   3
ATOM      3  O   UNL A   1      33.881  21.762  23.922  1.00  0.00    -0.462 OA
BRANCH   3   4
ATOM      4  C   UNL A   1      34.215  23.038  23.582  1.00  0.00     0.313 C 
ATOM      5  O   UNL A   1      34.866  23.331  22.585  1.00  0.00    -0.252 OA
BRANCH   4   6
ATOM      6  C   UNL A   1      33.788  24.063  24.636  1.00  0.00     0.126 C 
ATOM      7  C   UNL A   1      34.995  24.628  25.394  1.00  0.00     0.025 C 
BRANCH   6   8
ATOM      8  C   UNL A   1      32.832  25.139  24.123  1.00  0.00    -0.032 A 
ATOM      9  C   UNL A   1      33.251  26.251  23.379  1.00  0.00     0.005 A 
ATOM     10  C   UNL A   1      31.463  24.980  24.405  1.00  0.00     0.031 A 
ATOM     11  C   UNL A   1      32.340  27.233  22.956  1.00  0.00     0.011 A 
ATOM     12  C   UNL A   1      30.570  25.960  23.965  1.00  0.00     0.047 A 
ATOM     13  C   UNL A   1      30.973  27.093  23.265  1.00  0.00     0.007 A 
ATOM     14  N   UNL A   1      29.208  26.032  24.110  1.00  0.00    -0.355 N 
ATOM     15  C   UNL A   1      29.804  27.891  23.042  1.00  0.00     0.009 A 
ATOM     16  C   UNL A   1      28.720  27.206  23.593  1.00  0.00     0.047 A 
ATOM     17  H   UNL A   1      28.654  25.334  24.529  1.00  0.00     0.167 HD
ATOM     18  C   UNL A   1      29.570  29.144  22.437  1.00  0.00     0.031 A 
ATOM     19  C   UNL A   1      27.413  27.704  23.582  1.00  0.00     0.028 A 
ATOM     20  C   UNL A   1      28.270  29.659  22.429  1.00  0.00     0.041 A 
ATOM     21  C   UNL A   1      27.209  28.955  22.993  1.00  0.00     0.022 A 
ATOM     22  Cl  UNL A   1      27.971  31.200  21.720  1.00  0.00    -0.084 Cl
ENDBRANCH   6   8
ENDBRANCH   4   6
ENDBRANCH   3   4
ENDBRANCH   2   3
ENDBRANCH   1   2
BRANCH   1  23
ATOM     23  O   UNL A   1      36.868  21.559  25.799  1.00  0.00    -0.458 OA
BRANCH  23  24
ATOM     24  C   UNL A   1      38.196  21.305  25.772  1.00  0.00     0.338 C 
ATOM     25  O   UNL A   1      38.758  20.315  25.342  1.00  0.00    -0.246 OA
BRANCH  24  26
ATOM     26  C   UNL A   1      38.900  22.449  26.366  1.00  0.00     0.060 A 
ATOM     27  C   UNL A   1      38.452  23.744  26.103  1.00  0.00     0.016 A 
ATOM     28  C   UNL A   1      40.053  22.240  27.117  1.00  0.00     0.016 A 
ATOM     29  C   UNL A   1      39.193  24.841  26.532  1.00  0.00     0.010 A 
ATOM     30  C   UNL A   1      40.751  23.342  27.618  1.00  0.00     0.010 A 
ATOM     31  C   UNL A   1      40.345  24.653  27.307  1.00  0.00    -0.014 A 
BRANCH  31  32
ATOM     32  C   UNL A   1      41.154  25.817  27.756  1.00  0.00     0.031 A 
ATOM     33  C   UNL A   1      40.516  26.881  28.608  1.00  0.00     0.074 A 
ATOM     34  C   UNL A   1      42.450  25.924  27.401  1.00  0.00     0.049 A 
ATOM     35  N   UNL A   1      40.973  28.060  28.944  1.00  0.00    -0.248 NA
ATOM     36  C   UNL A   1      39.178  26.580  29.138  1.00  0.00     0.031 C 
ATOM     37  C   UNL A   1      43.200  24.933  26.626  1.00  0.00     0.029 A 
ATOM     38  N   UNL A   1      43.365  26.918  27.641  1.00  0.00    -0.354 N 
ATOM     39  C   UNL A   1      39.959  28.663  29.682  1.00  0.00     0.074 A 
ATOM     40  C   UNL A   1      38.861  27.720  29.733  1.00  0.00     0.031 C 
ATOM     41  C   UNL A   1      44.463  25.361  26.471  1.00  0.00     0.029 A 
ATOM     42  C   UNL A   1      44.591  26.689  27.060  1.00  0.00     0.049 A 
ATOM     43  H   UNL A   1      43.164  27.718  28.178  1.00  0.00     0.167 HD
ATOM     44  C   UNL A   1      39.948  29.891  30.257  1.00  0.00     0.034 A 
ATOM     45  C   UNL A   1      45.680  27.479  26.969  1.00  0.00     0.034 A 
ATOM     46  C   UNL A   1      41.067  30.803  30.222  1.00  0.00     0.049 A 
ATOM     47  C   UNL A   1      45.627  28.857  27.573  1.00  0.00     0.074 A 
ATOM     48  C   UNL A   1      41.172  32.065  30.781  1.00  0.00     0.029 A 
ATOM     49  N   UNL A   1      42.280  30.545  29.596  1.00  0.00    -0.354 N 
ATOM     50  N   UNL A   1      44.642  29.441  28.216  1.00  0.00    -0.248 NA
ATOM     51  C   UNL A   1      46.829  29.689  27.428  1.00  0.00     0.031 C 
ATOM     52  C   UNL A   1      42.425  32.592  30.447  1.00  0.00     0.029 A 
ATOM     53  C   UNL A   1      43.129  31.633  29.735  1.00  0.00     0.049 A 
ATOM     54  H   UNL A   1      42.505  29.712  29.122  1.00  0.00     0.167 HD
ATOM     55  C   UNL A   1      45.113  30.702  28.566  1.00  0.00     0.074 A 
ATOM     56  C   UNL A   1      46.476  30.786  28.078  1.00  0.00     0.031 C 
ATOM     57  C   UNL A   1      44.479  31.703  29.229  1.00  0.00     0.034 A 
BRANCH  44  58
ATOM     58  C   UNL A   1      38.663  30.339  30.912  1.00  0.00     0.023 A 
ATOM     59  C   UNL A   1      37.650  30.999  30.197  1.00  0.00     0.031 A 
ATOM     60  C   UNL A   1      38.468  30.129  32.289  1.00  0.00     0.131 A 
ATOM     61  C   UNL A   1      36.521  31.486  30.873  1.00  0.00     0.055 A 
ATOM     62  C   UNL A   1      37.308  30.550  32.942  1.00  0.00     0.041 A 
ATOM     63  F   UNL A   1      39.411  29.523  33.028  1.00  0.00    -0.206 F 
ATOM     64  C   UNL A   1      36.332  31.246  32.238  1.00  0.00     0.022 A 
BRANCH  61  65
ATOM     65  S   UNL A   1      35.364  32.556  29.975  1.00  0.00     0.124 S 
ATOM     66  O   UNL A   1      36.172  33.754  29.763  1.00  0.00    -0.237 OA
ATOM     67  O   UNL A   1      35.064  31.769  28.786  1.00  0.00    -0.237 OA
ATOM     68  O   UNL A   1      34.252  32.721  30.911  1.00  0.00    -0.744 OA
ENDBRANCH  61  65
ENDBRANCH  44  58
BRANCH  45  69
ATOM     69  C   UNL A   1      46.886  27.018  26.223  1.00  0.00     0.023 A 
ATOM     70  C   UNL A   1      47.943  26.372  26.880  1.00  0.00     0.031 A 
ATOM     71  C   UNL A   1      47.014  27.255  24.841  1.00  0.00     0.131 A 
ATOM     72  C   UNL A   1      49.097  26.014  26.166  1.00  0.00     0.055 A 
ATOM     73  C   UNL A   1      48.142  26.852  24.125  1.00  0.00     0.041 A 
ATOM     74  F   UNL A   1      46.033  27.872  24.164  1.00  0.00    -0.206 F 
ATOM     75  C   UNL A   1      49.198  26.238  24.790  1.00  0.00     0.022 A 
BRANCH  72  76
ATOM     76  S   UNL A   1      50.504  25.321  27.077  1.00  0.00     0.124 S 
ATOM     77  O   UNL A   1      50.907  26.450  27.906  1.00  0.00    -0.237 OA
ATOM     78  O   UNL A   1      49.889  24.198  27.775  1.00  0.00    -0.237 OA
ATOM     79  O   UNL A   1      51.445  24.955  26.021  1.00  0.00    -0.744 OA
ENDBRANCH  72  76
ENDBRANCH  45  69
BRANCH  57  80
ATOM     80  C   UNL A   1      45.280  32.951  29.496  1.00  0.00     0.023 A 
ATOM     81  C   UNL A   1      45.281  34.032  28.597  1.00  0.00     0.031 A 
ATOM     82  C   UNL A   1      46.072  33.047  30.652  1.00  0.00     0.131 A 
ATOM     83  C   UNL A   1      46.101  35.143  28.845  1.00  0.00     0.055 A 
ATOM     84  C   UNL A   1      46.846  34.176  30.920  1.00  0.00     0.041 A 
ATOM     85  F   UNL A   1      46.108  32.041  31.541  1.00  0.00    -0.206 F 
ATOM     86  C   UNL A   1      46.873  35.227  30.007  1.00  0.00     0.022 A 
BRANCH  83  87
ATOM     87  S   UNL A   1      46.212  36.443  27.585  1.00  0.00     0.124 S 
ATOM     88  O   UNL A   1      45.382  37.497  28.160  1.00  0.00    -0.237 OA
ATOM     89  O   UNL A   1      47.645  36.714  27.539  1.00  0.00    -0.237 OA
ATOM     90  O   UNL A   1      45.665  35.807  26.387  1.00  0.00    -0.744 OA
ENDBRANCH  83  87
ENDBRANCH  57  80
ENDBRANCH  31  32
ENDBRANCH  24  26
ENDBRANCH  23  24
ENDBRANCH   1  23
TORSDOF 15
ENDMDL
MODEL 2
REMARK VINA RESULT:     -12.5      1.481      2.070
REMARK SMILES C[C@H](C(=O)OCCOC(=O)c1ccc(-c2c3nc(c(-c4cc(S(=O)(=O)[O-])ccc4F)c4ccc([nH]4)c(-c4cc(S(=O)(=O)[O-])ccc4F)c4nc(c(-c5cc(S(=O)(=O)[O-])ccc5F)c5ccc2[nH]5)C=C4)C=C3)cc1)c1ccc2c(c1)[nH]c1ccc(Cl)cc12
REMARK SMILES IDX 7 1 6 2 5 3 3 4 4 5 2 6 1 7 74 8 75 9 79 10 76 11 78 12
REMARK SMILES IDX 77 13 80 14 87 15 81 16 86 18 82 19 84 20 83 21 85 22 8 23
REMARK SMILES IDX 9 24 10 25 11 26 12 27 73 28 13 29 72 30 14 31 15 32 16 33
REMARK SMILES IDX 66 34 17 35 71 36 65 37 67 38 18 39 70 40 64 41 63 42 19 44
REMARK SMILES IDX 51 45 31 46 50 47 32 48 35 49 49 50 68 51 33 52 34 53 48 55
REMARK SMILES IDX 69 56 36 57 20 58 21 59 29 60 22 61 28 62 30 63 27 64 23 65
REMARK SMILES IDX 24 66 25 67 26 68 52 69 53 70 61 71 54 72 60 73 62 74 59 75
REMARK SMILES IDX 55 76 56 77 57 78 58 79 37 80 38 81 46 82 39 83 45 84 47 85
REMARK SMILES IDX 44 86 40 87 41 88 42 89 43 90
REMARK H PARENT 80 17 67 43 35 54
REMARK Flexibility Score: inf
ROOT
ATOM      1  C   UNL A   1      36.315  20.486  24.979  1.00  0.00     0.275 C 
ENDROOT
BRANCH   1   2
ATOM      2  C   UNL A   1      34.899  20.548  25.542  1.00  0.00     0.274 C 
BRANCH   2   3
ATOM      3  O   UNL A   1      33.963  20.004  24.593  1.00  0.00    -0.462 OA
BRANCH   3   4
ATOM      4  C   UNL A   1      32.764  20.638  24.463  1.00  0.00     0.313 C 
ATOM      5  O   UNL A   1      31.772  20.365  25.130  1.00  0.00    -0.252 OA
BRANCH   4   6
ATOM      6  C   UNL A   1      32.752  21.653  23.317  1.00  0.00     0.126 C 
ATOM      7  C   UNL A   1      31.852  21.191  22.165  1.00  0.00     0.025 C 
BRANCH   6   8
ATOM      8  C   UNL A   1      32.497  23.094  23.750  1.00  0.00    -0.032 A 
ATOM      9  C   UNL A   1      31.332  23.802  23.424  1.00  0.00     0.005 A 
ATOM     10  C   UNL A   1      33.484  23.723  24.531  1.00  0.00     0.031 A 
ATOM     11  C   UNL A   1      31.155  25.140  23.817  1.00  0.00     0.011 A 
ATOM     12  C   UNL A   1      33.285  25.048  24.924  1.00  0.00     0.047 A 
ATOM     13  C   UNL A   1      32.156  25.782  24.571  1.00  0.00     0.007 A 
ATOM     14  N   UNL A   1      34.085  25.868  25.678  1.00  0.00    -0.355 N 
ATOM     15  C   UNL A   1      32.330  27.105  25.093  1.00  0.00     0.009 A 
ATOM     16  C   UNL A   1      33.551  27.130  25.768  1.00  0.00     0.047 A 
ATOM     17  H   UNL A   1      34.930  25.588  26.099  1.00  0.00     0.167 HD
ATOM     18  C   UNL A   1      31.569  28.291  25.037  1.00  0.00     0.031 A 
ATOM     19  C   UNL A   1      34.062  28.275  26.387  1.00  0.00     0.028 A 
ATOM     20  C   UNL A   1      32.074  29.447  25.641  1.00  0.00     0.041 A 
ATOM     21  C   UNL A   1      33.299  29.443  26.303  1.00  0.00     0.022 A 
ATOM     22  Cl  UNL A   1      31.171  30.913  25.557  1.00  0.00    -0.084 Cl
ENDBRANCH   6   8
ENDBRANCH   4   6
ENDBRANCH   3   4
ENDBRANCH   2   3
ENDBRANCH   1   2
BRANCH   1  23
ATOM     23  O   UNL A   1      37.111  21.504  25.605  1.00  0.00    -0.458 OA
BRANCH  23  24
ATOM     24  C   UNL A   1      38.417  21.205  25.788  1.00  0.00     0.338 C 
ATOM     25  O   UNL A   1      38.986  20.160  25.535  1.00  0.00    -0.246 OA
BRANCH  24  26
ATOM     26  C   UNL A   1      39.085  22.378  26.368  1.00  0.00     0.060 A 
ATOM     27  C   UNL A   1      38.614  23.656  26.068  1.00  0.00     0.016 A 
ATOM     28  C   UNL A   1      40.231  22.211  27.142  1.00  0.00     0.016 A 
ATOM     29  C   UNL A   1      39.324  24.778  26.484  1.00  0.00     0.010 A 
ATOM     30  C   UNL A   1      40.896  23.339  27.629  1.00  0.00     0.010 A 
ATOM     31  C   UNL A   1      40.466  24.634  27.281  1.00  0.00    -0.014 A 
BRANCH  31  32
ATOM     32  C   UNL A   1      41.242  25.825  27.717  1.00  0.00     0.031 A 
ATOM     33  C   UNL A   1      40.569  26.891  28.539  1.00  0.00     0.074 A 
ATOM     34  C   UNL A   1      42.539  25.955  27.377  1.00  0.00     0.049 A 
ATOM     35  N   UNL A   1      40.993  28.086  28.857  1.00  0.00    -0.248 NA
ATOM     36  C   UNL A   1      39.231  26.569  29.058  1.00  0.00     0.031 C 
ATOM     37  C   UNL A   1      43.323  24.967  26.632  1.00  0.00     0.029 A 
ATOM     38  N   UNL A   1      43.429  26.975  27.608  1.00  0.00    -0.354 N 
ATOM     39  C   UNL A   1      39.956  28.681  29.569  1.00  0.00     0.074 A 
ATOM     40  C   UNL A   1      38.879  27.713  29.625  1.00  0.00     0.031 C 
ATOM     41  C   UNL A   1      44.577  25.421  26.484  1.00  0.00     0.029 A 
ATOM     42  C   UNL A   1      44.667  26.763  27.048  1.00  0.00     0.049 A 
ATOM     43  H   UNL A   1      43.202  27.781  28.126  1.00  0.00     0.167 HD
ATOM     44  C   UNL A   1      39.908  29.919  30.119  1.00  0.00     0.034 A 
ATOM     45  C   UNL A   1      45.738  27.576  26.955  1.00  0.00     0.034 A 
ATOM     46  C   UNL A   1      41.006  30.856  30.079  1.00  0.00     0.049 A 
ATOM     47  C   UNL A   1      45.645  28.965  27.529  1.00  0.00     0.074 A 
ATOM     48  C   UNL A   1      41.074  32.131  30.613  1.00  0.00     0.029 A 
ATOM     49  N   UNL A   1      42.233  30.615  29.474  1.00  0.00    -0.354 N 
ATOM     50  N   UNL A   1      44.638  29.538  28.148  1.00  0.00    -0.248 NA
ATOM     51  C   UNL A   1      46.830  29.821  27.383  1.00  0.00     0.031 C 
ATOM     52  C   UNL A   1      42.319  32.681  30.285  1.00  0.00     0.029 A 
ATOM     53  C   UNL A   1      43.055  31.724  29.602  1.00  0.00     0.049 A 
ATOM     54  H   UNL A   1      42.484  29.777  29.021  1.00  0.00     0.167 HD
ATOM     55  C   UNL A   1      45.075  30.817  28.478  1.00  0.00     0.074 A 
ATOM     56  C   UNL A   1      46.442  30.923  28.006  1.00  0.00     0.031 C 
ATOM     57  C   UNL A   1      44.409  31.816  29.112  1.00  0.00     0.034 A 
BRANCH  44  58
ATOM     58  C   UNL A   1      38.605  30.350  30.747  1.00  0.00     0.023 A 
ATOM     59  C   UNL A   1      37.596  30.994  30.011  1.00  0.00     0.031 A 
ATOM     60  C   UNL A   1      38.386  30.140  32.121  1.00  0.00     0.131 A 
ATOM     61  C   UNL A   1      36.447  31.466  30.665  1.00  0.00     0.055 A 
ATOM     62  C   UNL A   1      37.208  30.546  32.751  1.00  0.00     0.041 A 
ATOM     63  F   UNL A   1      39.323  29.549  32.879  1.00  0.00    -0.206 F 
ATOM     64  C   UNL A   1      36.235  31.226  32.026  1.00  0.00     0.022 A 
BRANCH  61  65
ATOM     65  S   UNL A   1      35.293  32.518  29.742  1.00  0.00     0.124 S 
ATOM     66  O   UNL A   1      34.347  32.905  30.786  1.00  0.00    -0.237 OA
ATOM     67  O   UNL A   1      36.160  33.577  29.241  1.00  0.00    -0.237 OA
ATOM     68  O   UNL A   1      34.751  31.620  28.722  1.00  0.00    -0.744 OA
ENDBRANCH  61  65
ENDBRANCH  44  58
BRANCH  45  69
ATOM     69  C   UNL A   1      46.964  27.129  26.234  1.00  0.00     0.023 A 
ATOM     70  C   UNL A   1      47.991  26.446  26.903  1.00  0.00     0.031 A 
ATOM     71  C   UNL A   1      47.144  27.415  24.868  1.00  0.00     0.131 A 
ATOM     72  C   UNL A   1      49.166  26.101  26.216  1.00  0.00     0.055 A 
ATOM     73  C   UNL A   1      48.291  27.026  24.175  1.00  0.00     0.041 A 
ATOM     74  F   UNL A   1      46.194  28.069  24.180  1.00  0.00    -0.206 F 
ATOM     75  C   UNL A   1      49.316  26.374  24.853  1.00  0.00     0.022 A 
BRANCH  72  76
ATOM     76  S   UNL A   1      50.532  25.358  27.148  1.00  0.00     0.124 S 
ATOM     77  O   UNL A   1      50.960  26.470  27.987  1.00  0.00    -0.237 OA
ATOM     78  O   UNL A   1      49.867  24.255  27.833  1.00  0.00    -0.237 OA
ATOM     79  O   UNL A   1      51.478  24.961  26.106  1.00  0.00    -0.744 OA
ENDBRANCH  72  76
ENDBRANCH  45  69
BRANCH  57  80
ATOM     80  C   UNL A   1      45.178  33.087  29.364  1.00  0.00     0.023 A 
ATOM     81  C   UNL A   1      45.161  34.152  28.445  1.00  0.00     0.031 A 
ATOM     82  C   UNL A   1      45.956  33.223  30.526  1.00  0.00     0.131 A 
ATOM     83  C   UNL A   1      45.952  35.286  28.681  1.00  0.00     0.055 A 
ATOM     84  C   UNL A   1      46.700  34.375  30.779  1.00  0.00     0.041 A 
ATOM     85  F   UNL A   1      46.007  32.235  31.432  1.00  0.00    -0.206 F 
ATOM     86  C   UNL A   1      46.711  35.411  29.848  1.00  0.00     0.022 A 
BRANCH  83  87
ATOM     87  S   UNL A   1      46.044  36.566  27.398  1.00  0.00     0.124 S 
ATOM     88  O   UNL A   1      46.802  37.617  28.070  1.00  0.00    -0.237 OA
ATOM     89  O   UNL A   1      46.736  35.875  26.315  1.00  0.00    -0.237 OA
ATOM     90  O   UNL A   1      44.642  36.886  27.131  1.00  0.00    -0.744 OA
ENDBRANCH  83  87
ENDBRANCH  57  80
ENDBRANCH  31  32
ENDBRANCH  24  26
ENDBRANCH  23  24
ENDBRANCH   1  23
TORSDOF 15
ENDMDL
MODEL 3
REMARK VINA RESULT:     -12.4      1.494      1.794
REMARK SMILES C[C@H](C(=O)OCCOC(=O)c1ccc(-c2c3nc(c(-c4cc(S(=O)(=O)[O-])ccc4F)c4ccc([nH]4)c(-c4cc(S(=O)(=O)[O-])ccc4F)c4nc(c(-c5cc(S(=O)(=O)[O-])ccc5F)c5ccc2[nH]5)C=C4)C=C3)cc1)c1ccc2c(c1)[nH]c1ccc(Cl)cc12
REMARK SMILES IDX 7 1 6 2 5 3 3 4 4 5 2 6 1 7 74 8 75 9 79 10 76 11 78 12
REMARK SMILES IDX 77 13 80 14 87 15 81 16 86 18 82 19 84 20 83 21 85 22 8 23
REMARK SMILES IDX 9 24 10 25 11 26 12 27 73 28 13 29 72 30 14 31 15 32 16 33
REMARK SMILES IDX 66 34 17 35 71 36 65 37 67 38 18 39 70 40 64 41 63 42 19 44
REMARK SMILES IDX 51 45 31 46 50 47 32 48 35 49 49 50 68 51 33 52 34 53 48 55
REMARK SMILES IDX 69 56 36 57 20 58 21 59 29 60 22 61 28 62 30 63 27 64 23 65
REMARK SMILES IDX 24 66 25 67 26 68 52 69 53 70 61 71 54 72 60 73 62 74 59 75
REMARK SMILES IDX 55 76 56 77 57 78 58 79 37 80 38 81 46 82 39 83 45 84 47 85
REMARK SMILES IDX 44 86 40 87 41 88 42 89 43 90
REMARK H PARENT 80 17 67 43 35 54
REMARK Flexibility Score: inf
ROOT
ATOM      1  C   UNL A   1      36.433  20.520  25.007  1.00  0.00     0.275 C 
ENDROOT
BRANCH   1   2
ATOM      2  C   UNL A   1      34.978  20.978  25.026  1.00  0.00     0.274 C 
BRANCH   2   3
ATOM      3  O   UNL A   1      34.894  22.376  24.689  1.00  0.00    -0.462 OA
BRANCH   3   4
ATOM      4  C   UNL A   1      33.877  23.093  25.243  1.00  0.00     0.313 C 
ATOM      5  O   UNL A   1      33.978  23.724  26.290  1.00  0.00    -0.252 OA
BRANCH   4   6
ATOM      6  C   UNL A   1      32.558  22.937  24.480  1.00  0.00     0.126 C 
ATOM      7  C   UNL A   1      31.568  22.048  25.243  1.00  0.00     0.025 C 
BRANCH   6   8
ATOM      8  C   UNL A   1      31.949  24.249  23.993  1.00  0.00    -0.032 A 
ATOM      9  C   UNL A   1      32.678  25.228  23.302  1.00  0.00     0.005 A 
ATOM     10  C   UNL A   1      30.581  24.463  24.243  1.00  0.00     0.031 A 
ATOM     11  C   UNL A   1      32.083  26.436  22.903  1.00  0.00     0.011 A 
ATOM     12  C   UNL A   1      30.004  25.665  23.826  1.00  0.00     0.047 A 
ATOM     13  C   UNL A   1      30.721  26.666  23.180  1.00  0.00     0.007 A 
ATOM     14  N   UNL A   1      28.709  26.103  23.948  1.00  0.00    -0.355 N 
ATOM     15  C   UNL A   1      29.823  27.762  22.967  1.00  0.00     0.009 A 
ATOM     16  C   UNL A   1      28.577  27.383  23.469  1.00  0.00     0.047 A 
ATOM     17  H   UNL A   1      27.974  25.570  24.328  1.00  0.00     0.167 HD
ATOM     18  C   UNL A   1      29.957  29.050  22.408  1.00  0.00     0.031 A 
ATOM     19  C   UNL A   1      27.456  28.220  23.453  1.00  0.00     0.028 A 
ATOM     20  C   UNL A   1      28.849  29.902  22.397  1.00  0.00     0.041 A 
ATOM     21  C   UNL A   1      27.619  29.498  22.912  1.00  0.00     0.022 A 
ATOM     22  Cl  UNL A   1      29.004  31.490  21.745  1.00  0.00    -0.084 Cl
ENDBRANCH   6   8
ENDBRANCH   4   6
ENDBRANCH   3   4
ENDBRANCH   2   3
ENDBRANCH   1   2
BRANCH   1  23
ATOM     23  O   UNL A   1      37.265  21.592  25.478  1.00  0.00    -0.458 OA
BRANCH  23  24
ATOM     24  C   UNL A   1      38.525  21.251  25.831  1.00  0.00     0.338 C 
ATOM     25  O   UNL A   1      39.067  20.168  25.711  1.00  0.00    -0.246 OA
BRANCH  24  26
ATOM     26  C   UNL A   1      39.180  22.430  26.412  1.00  0.00     0.060 A 
ATOM     27  C   UNL A   1      38.679  23.702  26.135  1.00  0.00     0.016 A 
ATOM     28  C   UNL A   1      40.342  22.278  27.165  1.00  0.00     0.016 A 
ATOM     29  C   UNL A   1      39.373  24.833  26.551  1.00  0.00     0.010 A 
ATOM     30  C   UNL A   1      40.993  23.414  27.653  1.00  0.00     0.010 A 
ATOM     31  C   UNL A   1      40.531  24.703  27.327  1.00  0.00    -0.014 A 
BRANCH  31  32
ATOM     32  C   UNL A   1      41.291  25.906  27.763  1.00  0.00     0.031 A 
ATOM     33  C   UNL A   1      40.609  26.951  28.603  1.00  0.00     0.074 A 
ATOM     34  C   UNL A   1      42.581  26.062  27.406  1.00  0.00     0.049 A 
ATOM     35  N   UNL A   1      41.015  28.152  28.925  1.00  0.00    -0.248 NA
ATOM     36  C   UNL A   1      39.285  26.601  29.137  1.00  0.00     0.031 C 
ATOM     37  C   UNL A   1      43.373  25.095  26.643  1.00  0.00     0.029 A 
ATOM     38  N   UNL A   1      43.454  27.096  27.635  1.00  0.00    -0.354 N 
ATOM     39  C   UNL A   1      39.977  28.721  29.656  1.00  0.00     0.074 A 
ATOM     40  C   UNL A   1      38.920  27.733  29.718  1.00  0.00     0.031 C 
ATOM     41  C   UNL A   1      44.616  25.573  26.482  1.00  0.00     0.029 A 
ATOM     42  C   UNL A   1      44.689  26.913  27.056  1.00  0.00     0.049 A 
ATOM     43  H   UNL A   1      43.220  27.894  28.162  1.00  0.00     0.167 HD
ATOM     44  C   UNL A   1      39.915  29.954  30.217  1.00  0.00     0.034 A 
ATOM     45  C   UNL A   1      45.743  27.746  26.956  1.00  0.00     0.034 A 
ATOM     46  C   UNL A   1      40.994  30.911  30.171  1.00  0.00     0.049 A 
ATOM     47  C   UNL A   1      45.633  29.128  27.543  1.00  0.00     0.074 A 
ATOM     48  C   UNL A   1      41.046  32.182  30.715  1.00  0.00     0.029 A 
ATOM     49  N   UNL A   1      42.217  30.697  29.548  1.00  0.00    -0.354 N 
ATOM     50  N   UNL A   1      44.624  29.677  28.180  1.00  0.00    -0.248 NA
ATOM     51  C   UNL A   1      46.799  30.007  27.389  1.00  0.00     0.031 C 
ATOM     52  C   UNL A   1      42.276  32.758  30.375  1.00  0.00     0.029 A 
ATOM     53  C   UNL A   1      43.020  31.821  29.675  1.00  0.00     0.049 A 
ATOM     54  H   UNL A   1      42.477  29.869  29.084  1.00  0.00     0.167 HD
ATOM     55  C   UNL A   1      45.041  30.961  28.515  1.00  0.00     0.074 A 
ATOM     56  C   UNL A   1      46.400  31.097  28.027  1.00  0.00     0.031 C 
ATOM     57  C   UNL A   1      44.366  31.942  29.167  1.00  0.00     0.034 A 
BRANCH  44  58
ATOM     58  C   UNL A   1      38.612  30.355  30.867  1.00  0.00     0.023 A 
ATOM     59  C   UNL A   1      37.592  31.009  30.156  1.00  0.00     0.031 A 
ATOM     60  C   UNL A   1      38.405  30.105  32.236  1.00  0.00     0.131 A 
ATOM     61  C   UNL A   1      36.444  31.452  30.831  1.00  0.00     0.055 A 
ATOM     62  C   UNL A   1      37.228  30.482  32.885  1.00  0.00     0.041 A 
ATOM     63  F   UNL A   1      39.354  29.502  32.971  1.00  0.00    -0.206 F 
ATOM     64  C   UNL A   1      36.244  31.173  32.186  1.00  0.00     0.022 A 
BRANCH  61  65
ATOM     65  S   UNL A   1      35.272  32.518  29.946  1.00  0.00     0.124 S 
ATOM     66  O   UNL A   1      36.135  33.618  29.523  1.00  0.00    -0.237 OA
ATOM     67  O   UNL A   1      34.788  31.643  28.885  1.00  0.00    -0.237 OA
ATOM     68  O   UNL A   1      34.285  32.866  30.967  1.00  0.00    -0.744 OA
ENDBRANCH  61  65
ENDBRANCH  44  58
BRANCH  45  69
ATOM     69  C   UNL A   1      46.968  27.328  26.215  1.00  0.00     0.023 A 
ATOM     70  C   UNL A   1      47.170  27.704  24.878  1.00  0.00     0.031 A 
ATOM     71  C   UNL A   1      47.938  26.511  26.824  1.00  0.00     0.131 A 
ATOM     72  C   UNL A   1      48.296  27.236  24.183  1.00  0.00     0.055 A 
ATOM     73  C   UNL A   1      49.082  26.090  26.145  1.00  0.00     0.041 A 
ATOM     74  F   UNL A   1      47.792  26.120  28.101  1.00  0.00    -0.206 F 
ATOM     75  C   UNL A   1      49.261  26.443  24.812  1.00  0.00     0.022 A 
BRANCH  72  76
ATOM     76  S   UNL A   1      48.446  27.614  22.415  1.00  0.00     0.124 S 
ATOM     77  O   UNL A   1      47.172  28.268  22.142  1.00  0.00    -0.237 OA
ATOM     78  O   UNL A   1      49.627  28.471  22.389  1.00  0.00    -0.237 OA
ATOM     79  O   UNL A   1      48.618  26.300  21.800  1.00  0.00    -0.744 OA
ENDBRANCH  72  76
ENDBRANCH  45  69
BRANCH  57  80
ATOM     80  C   UNL A   1      45.114  33.225  29.419  1.00  0.00     0.023 A 
ATOM     81  C   UNL A   1      44.998  34.328  28.555  1.00  0.00     0.031 A 
ATOM     82  C   UNL A   1      45.972  33.336  30.526  1.00  0.00     0.131 A 
ATOM     83  C   UNL A   1      45.771  35.476  28.783  1.00  0.00     0.055 A 
ATOM     84  C   UNL A   1      46.700  34.499  30.777  1.00  0.00     0.041 A 
ATOM     85  F   UNL A   1      46.120  32.311  31.381  1.00  0.00    -0.206 F 
ATOM     86  C   UNL A   1      46.611  35.573  29.896  1.00  0.00     0.022 A 
BRANCH  83  87
ATOM     87  S   UNL A   1      45.730  36.812  27.557  1.00  0.00     0.124 S 
ATOM     88  O   UNL A   1      46.964  36.580  26.812  1.00  0.00    -0.237 OA
ATOM     89  O   UNL A   1      44.490  36.539  26.838  1.00  0.00    -0.237 OA
ATOM     90  O   UNL A   1      45.717  38.026  28.372  1.00  0.00    -0.744 OA
ENDBRANCH  83  87
ENDBRANCH  57  80
ENDBRANCH  31  32
ENDBRANCH  24  26
ENDBRANCH  23  24
ENDBRANCH   1  23
TORSDOF 15
ENDMDL
