MODEL 1
REMARK VINA RESULT:     -10.3      0.000      0.000
REMARK SMILES Cc1ccc(C(c2ccccc2)(c2ccccc2)n2cnc(C[C@H]([NH3+])C(=O)OCCOC(=O)c3ccc(-c4c5nc(c(-c6cc(S(=O)(=O)[O-])ccc6F)c6ccc([nH]6)c(-c6cc(S(=O)(=O)[O-])ccc6F)c6nc(c(-c7cc(S(=O)(=O)[O-])ccc7F)c7ccc4[nH]7)C=C6)C=C5)cc3)c2)cc1
REMARK SMILES IDX 29 1 28 2 26 3 27 4 24 5 23 6 22 7 19 8 20 9 97 10 21 11
REMARK SMILES IDX 6 12 5 13 1 14 2 15 3 16 99 17 4 18 98 19 7 20 8 21 12 22
REMARK SMILES IDX 9 23 11 24 10 25 13 26 14 27 18 28 15 29 17 30 16 31 25 32
REMARK SMILES IDX 30 36 31 37 32 38 33 39 34 40 35 41 96 42 36 43 95 44 37 45
REMARK SMILES IDX 38 46 39 47 89 48 40 49 94 50 88 51 90 52 41 53 93 54 87 55
REMARK SMILES IDX 86 56 42 58 74 59 54 60 73 61 55 62 58 63 72 64 91 65 56 66
REMARK SMILES IDX 57 67 71 69 92 70 59 71 43 72 44 73 52 74 45 75 51 76 53 77
REMARK SMILES IDX 50 78 46 79 47 80 48 81 49 82 75 83 76 84 84 85 77 86 83 87
REMARK SMILES IDX 85 88 82 89 78 90 79 91 80 92 81 93 60 94 61 95 69 96 62 97
REMARK SMILES IDX 68 98 70 99 67 100 63 101 64 102 65 103 66 104
REMARK H PARENT 25 33 25 34 25 35 90 57 58 68
REMARK Flexibility Score: inf
ROOT
ATOM      1  C   UNL A   1      35.859  31.310  30.959  1.00  0.00     0.274 C 
ENDROOT
BRANCH   1   2
ATOM      2  O   UNL A   1      34.724  31.949  31.537  1.00  0.00    -0.458 OA
BRANCH   2   3
ATOM      3  C   UNL A   1      34.726  33.277  31.293  1.00  0.00     0.365 C 
ATOM      4  O   UNL A   1      33.699  33.943  31.437  1.00  0.00    -0.245 OA
BRANCH   3   5
ATOM      5  C   UNL A   1      36.127  34.034  30.990  1.00  0.00     0.297 C 
BRANCH   5   6
ATOM      6  C   UNL A   1      36.628  34.482  32.728  1.00  0.00     0.135 C 
BRANCH   6   7
ATOM      7  C   UNL A   1      37.944  34.194  33.485  1.00  0.00     0.065 A 
ATOM      8  N   UNL A   1      40.108  33.826  34.025  1.00  0.00    -0.319 N 
ATOM      9  C   UNL A   1      39.284  32.878  34.564  1.00  0.00     0.201 A 
ATOM     10  C   UNL A   1      39.234  34.733  33.402  1.00  0.00     0.112 A 
ATOM     11  N   UNL A   1      38.045  33.040  34.189  1.00  0.00    -0.241 NA
BRANCH   8  12
ATOM     12  C   UNL A   1      41.608  33.586  33.874  1.00  0.00     0.121 C 
BRANCH  12  13
ATOM     13  C   UNL A   1      42.038  33.629  32.341  1.00  0.00    -0.013 A 
ATOM     14  C   UNL A   1      43.675  35.293  27.716  1.00  0.00     0.044 C 
ATOM     15  C   UNL A   1      43.001  34.225  29.454  1.00  0.00    -0.051 A 
ATOM     16  C   UNL A   1      41.590  34.000  29.962  1.00  0.00     0.004 A 
ATOM     17  C   UNL A   1      43.766  33.568  30.553  1.00  0.00     0.004 A 
ATOM     18  C   UNL A   1      41.145  33.812  31.304  1.00  0.00     0.007 A 
ATOM     19  C   UNL A   1      43.314  33.291  31.888  1.00  0.00     0.007 A 
ENDBRANCH  12  13
BRANCH  12  20
ATOM     20  C   UNL A   1      42.277  34.819  34.677  1.00  0.00    -0.013 A 
ATOM     21  C   UNL A   1      43.669  35.054  34.645  1.00  0.00     0.007 A 
ATOM     22  C   UNL A   1      41.576  35.599  35.631  1.00  0.00     0.007 A 
ATOM     23  C   UNL A   1      44.291  36.044  35.427  1.00  0.00     0.000 A 
ATOM     24  C   UNL A   1      42.187  36.592  36.412  1.00  0.00     0.000 A 
ATOM     25  C   UNL A   1      43.547  36.821  36.304  1.00  0.00     0.000 A 
ENDBRANCH  12  20
BRANCH  12  26
ATOM     26  C   UNL A   1      41.944  32.134  34.419  1.00  0.00    -0.013 A 
ATOM     27  C   UNL A   1      42.601  31.958  35.665  1.00  0.00     0.007 A 
ATOM     28  C   UNL A   1      41.749  30.959  33.671  1.00  0.00     0.007 A 
ATOM     29  C   UNL A   1      43.076  30.718  36.102  1.00  0.00     0.000 A 
ATOM     30  C   UNL A   1      42.250  29.718  34.093  1.00  0.00     0.000 A 
ATOM     31  C   UNL A   1      42.924  29.599  35.301  1.00  0.00     0.000 A 
ENDBRANCH  12  26
ENDBRANCH   8  12
ENDBRANCH   6   7
ENDBRANCH   5   6
BRANCH   5  32
ATOM     32  N   UNL A   1      37.004  34.517  29.162  1.00  0.00    -0.346 N 
ATOM     33  H   UNL A   1      37.460  33.691  28.776  1.00  0.00     0.345 HD
ATOM     34  H   UNL A   1      37.695  35.253  29.301  1.00  0.00     0.345 HD
ATOM     35  H   UNL A   1      36.284  34.841  28.516  1.00  0.00     0.345 HD
ENDBRANCH   5  32
ENDBRANCH   3   5
ENDBRANCH   2   3
ENDBRANCH   1   2
BRANCH   1  36
ATOM     36  C   UNL A   1      36.636  30.344  31.910  1.00  0.00     0.275 C 
BRANCH  36  37
ATOM     37  O   UNL A   1      37.153  29.017  31.454  1.00  0.00    -0.458 OA
BRANCH  37  38
ATOM     38  C   UNL A   1      38.317  28.491  30.946  1.00  0.00     0.338 C 
ATOM     39  O   UNL A   1      38.883  27.539  31.475  1.00  0.00    -0.246 OA
BRANCH  38  40
ATOM     40  C   UNL A   1      39.050  29.196  29.854  1.00  0.00     0.060 A 
ATOM     41  C   UNL A   1      39.109  28.559  28.099  1.00  0.00     0.016 A 
ATOM     42  C   UNL A   1      40.394  30.179  30.499  1.00  0.00     0.016 A 
ATOM     43  C   UNL A   1      40.664  28.828  27.113  1.00  0.00     0.010 A 
ATOM     44  C   UNL A   1      41.918  30.352  29.591  1.00  0.00     0.010 A 
ATOM     45  C   UNL A   1      42.123  29.611  27.952  1.00  0.00    -0.014 A 
BRANCH  45  46
ATOM     46  C   UNL A   1      43.571  29.545  27.764  1.00  0.00     0.031 A 
ATOM     47  C   UNL A   1      44.320  30.529  26.989  1.00  0.00     0.074 A 
ATOM     48  C   UNL A   1      44.288  28.712  28.589  1.00  0.00     0.049 A 
ATOM     49  N   UNL A   1      45.556  30.353  26.646  1.00  0.00    -0.248 NA
ATOM     50  C   UNL A   1      43.763  31.792  26.515  1.00  0.00     0.031 C 
ATOM     51  C   UNL A   1      45.636  28.949  29.071  1.00  0.00     0.029 A 
ATOM     52  N   UNL A   1      43.983  27.442  29.152  1.00  0.00    -0.354 N 
ATOM     53  C   UNL A   1      46.041  31.612  26.431  1.00  0.00     0.074 A 
ATOM     54  C   UNL A   1      44.876  32.369  26.037  1.00  0.00     0.031 C 
ATOM     55  C   UNL A   1      46.137  27.810  29.560  1.00  0.00     0.029 A 
ATOM     56  C   UNL A   1      45.190  26.735  29.321  1.00  0.00     0.049 A 
ATOM     57  H   UNL A   1      43.083  27.115  29.383  1.00  0.00     0.167 HD
ATOM     58  C   UNL A   1      47.289  31.937  26.883  1.00  0.00     0.034 A 
ATOM     59  C   UNL A   1      45.478  25.457  28.917  1.00  0.00     0.034 A 
ATOM     60  C   UNL A   1      48.066  30.795  27.429  1.00  0.00     0.049 A 
ATOM     61  C   UNL A   1      46.790  25.413  28.135  1.00  0.00     0.074 A 
ATOM     62  C   UNL A   1      48.842  30.565  28.558  1.00  0.00     0.029 A 
ATOM     63  N   UNL A   1      48.011  29.556  26.805  1.00  0.00    -0.354 N 
ATOM     64  N   UNL A   1      47.731  26.320  28.216  1.00  0.00    -0.248 NA
ATOM     65  C   UNL A   1      47.076  24.450  27.069  1.00  0.00     0.031 C 
ATOM     66  C   UNL A   1      49.357  29.228  28.501  1.00  0.00     0.029 A 
ATOM     67  C   UNL A   1      48.912  28.650  27.329  1.00  0.00     0.049 A 
ATOM     68  H   UNL A   1      47.393  29.344  26.068  1.00  0.00     0.167 HD
ATOM     69  C   UNL A   1      48.456  26.305  27.048  1.00  0.00     0.074 A 
ATOM     70  C   UNL A   1      48.096  25.044  26.429  1.00  0.00     0.031 C 
ATOM     71  C   UNL A   1      49.121  27.411  26.590  1.00  0.00     0.034 A 
BRANCH  58  72
ATOM     72  C   UNL A   1      47.815  33.361  26.964  1.00  0.00     0.023 A 
ATOM     73  C   UNL A   1      48.881  33.725  26.116  1.00  0.00     0.031 A 
ATOM     74  C   UNL A   1      47.395  34.372  27.857  1.00  0.00     0.131 A 
ATOM     75  C   UNL A   1      49.466  35.004  26.172  1.00  0.00     0.055 A 
ATOM     76  C   UNL A   1      47.908  35.675  27.842  1.00  0.00     0.041 A 
ATOM     77  F   UNL A   1      46.524  34.151  28.848  1.00  0.00    -0.206 F 
ATOM     78  C   UNL A   1      48.957  35.996  27.001  1.00  0.00     0.022 A 
BRANCH  75  79
ATOM     79  S   UNL A   1      50.971  35.321  25.216  1.00  0.00     0.124 S 
ATOM     80  O   UNL A   1      50.670  36.610  24.600  1.00  0.00    -0.237 OA
ATOM     81  O   UNL A   1      52.002  35.317  26.245  1.00  0.00    -0.237 OA
ATOM     82  O   UNL A   1      51.020  34.194  24.285  1.00  0.00    -0.744 OA
ENDBRANCH  75  79
ENDBRANCH  58  72
BRANCH  59  83
ATOM     83  C   UNL A   1      44.347  24.469  28.814  1.00  0.00     0.023 A 
ATOM     84  C   UNL A   1      43.927  24.064  27.527  1.00  0.00     0.031 A 
ATOM     85  C   UNL A   1      43.753  23.795  29.895  1.00  0.00     0.131 A 
ATOM     86  C   UNL A   1      43.058  22.966  27.353  1.00  0.00     0.055 A 
ATOM     87  C   UNL A   1      42.946  22.660  29.725  1.00  0.00     0.041 A 
ATOM     88  F   UNL A   1      43.937  24.205  31.154  1.00  0.00    -0.206 F 
ATOM     89  C   UNL A   1      42.618  22.220  28.448  1.00  0.00     0.022 A 
BRANCH  86  90
ATOM     90  S   UNL A   1      42.546  22.431  25.690  1.00  0.00     0.124 S 
ATOM     91  O   UNL A   1      43.360  21.235  25.493  1.00  0.00    -0.237 OA
ATOM     92  O   UNL A   1      41.111  22.186  25.825  1.00  0.00    -0.237 OA
ATOM     93  O   UNL A   1      42.892  23.562  24.833  1.00  0.00    -0.744 OA
ENDBRANCH  86  90
ENDBRANCH  59  83
BRANCH  71  94
ATOM     94  C   UNL A   1      49.797  27.522  25.238  1.00  0.00     0.023 A 
ATOM     95  C   UNL A   1      48.906  27.258  23.665  1.00  0.00     0.031 A 
ATOM     96  C   UNL A   1      51.552  28.080  25.160  1.00  0.00     0.131 A 
ATOM     97  C   UNL A   1      49.714  27.585  22.073  1.00  0.00     0.055 A 
ATOM     98  C   UNL A   1      52.318  28.564  23.563  1.00  0.00     0.041 A 
ATOM     99  F   UNL A   1      52.330  28.159  26.247  1.00  0.00    -0.206 F 
ATOM    100  C   UNL A   1      51.402  28.301  22.018  1.00  0.00     0.022 A 
BRANCH  97 101
ATOM    101  S   UNL A   1      48.931  27.004  20.569  1.00  0.00     0.124 S 
ATOM    102  O   UNL A   1      48.881  25.562  20.784  1.00  0.00    -0.237 OA
ATOM    103  O   UNL A   1      47.647  27.698  20.600  1.00  0.00    -0.237 OA
ATOM    104  O   UNL A   1      49.861  27.451  19.535  1.00  0.00    -0.744 OA
ENDBRANCH  97 101
ENDBRANCH  71  94
ENDBRANCH  45  46
ENDBRANCH  38  40
ENDBRANCH  37  38
ENDBRANCH  36  37
ENDBRANCH   1  36
TORSDOF 21
ENDMDL
MODEL 2
REMARK VINA RESULT:     -10.2      5.520     12.999
REMARK SMILES Cc1ccc(C(c2ccccc2)(c2ccccc2)n2cnc(C[C@H]([NH3+])C(=O)OCCOC(=O)c3ccc(-c4c5nc(c(-c6cc(S(=O)(=O)[O-])ccc6F)c6ccc([nH]6)c(-c6cc(S(=O)(=O)[O-])ccc6F)c6nc(c(-c7cc(S(=O)(=O)[O-])ccc7F)c7ccc4[nH]7)C=C6)C=C5)cc3)c2)cc1
REMARK SMILES IDX 29 1 28 2 26 3 27 4 24 5 23 6 22 7 19 8 20 9 97 10 21 11
REMARK SMILES IDX 6 12 5 13 1 14 2 15 3 16 99 17 4 18 98 19 7 20 8 21 12 22
REMARK SMILES IDX 9 23 11 24 10 25 13 26 14 27 18 28 15 29 17 30 16 31 25 32
REMARK SMILES IDX 30 36 31 37 32 38 33 39 34 40 35 41 96 42 36 43 95 44 37 45
REMARK SMILES IDX 38 46 39 47 89 48 40 49 94 50 88 51 90 52 41 53 93 54 87 55
REMARK SMILES IDX 86 56 42 58 74 59 54 60 73 61 55 62 58 63 72 64 91 65 56 66
REMARK SMILES IDX 57 67 71 69 92 70 59 71 43 72 44 73 52 74 45 75 51 76 53 77
REMARK SMILES IDX 50 78 46 79 47 80 48 81 49 82 75 83 76 84 84 85 77 86 83 87
REMARK SMILES IDX 85 88 82 89 78 90 79 91 80 92 81 93 60 94 61 95 69 96 62 97
REMARK SMILES IDX 68 98 70 99 67 100 63 101 64 102 65 103 66 104
REMARK H PARENT 25 33 25 34 25 35 90 57 58 68
REMARK Flexibility Score: inf
ROOT
ATOM      1  C   UNL A   1      47.020  35.204  28.884  1.00  0.00     0.274 C 
ENDROOT
BRANCH   1   2
ATOM      2  O   UNL A   1      48.292  35.543  28.338  1.00  0.00    -0.458 OA
BRANCH   2   3
ATOM      3  C   UNL A   1      48.209  35.801  27.014  1.00  0.00     0.365 C 
ATOM      4  O   UNL A   1      47.207  35.478  26.374  1.00  0.00    -0.245 OA
BRANCH   3   5
ATOM      5  C   UNL A   1      49.348  36.709  26.302  1.00  0.00     0.297 C 
BRANCH   5   6
ATOM      6  C   UNL A   1      49.097  38.311  27.220  1.00  0.00     0.135 C 
BRANCH   6   7
ATOM      7  C   UNL A   1      47.885  39.271  27.223  1.00  0.00     0.065 A 
ATOM      8  N   UNL A   1      45.833  40.183  27.478  1.00  0.00    -0.319 N 
ATOM      9  C   UNL A   1      46.325  40.389  26.220  1.00  0.00     0.201 A 
ATOM     10  C   UNL A   1      46.879  39.539  28.160  1.00  0.00     0.112 A 
ATOM     11  N   UNL A   1      47.474  39.796  26.044  1.00  0.00    -0.241 NA
BRANCH   8  12
ATOM     12  C   UNL A   1      44.342  40.310  27.781  1.00  0.00     0.121 C 
BRANCH  12  13
ATOM     13  C   UNL A   1      43.584  41.052  26.593  1.00  0.00    -0.013 A 
ATOM     14  C   UNL A   1      41.860  42.349  21.883  1.00  0.00     0.044 C 
ATOM     15  C   UNL A   1      42.314  42.111  23.969  1.00  0.00    -0.051 A 
ATOM     16  C   UNL A   1      43.451  42.697  24.783  1.00  0.00     0.004 A 
ATOM     17  C   UNL A   1      41.671  41.265  25.016  1.00  0.00     0.004 A 
ATOM     18  C   UNL A   1      44.087  42.160  25.941  1.00  0.00     0.007 A 
ATOM     19  C   UNL A   1      42.263  40.781  26.233  1.00  0.00     0.007 A 
ENDBRANCH  12  13
BRANCH  12  20
ATOM     20  C   UNL A   1      43.840  38.779  27.895  1.00  0.00    -0.013 A 
ATOM     21  C   UNL A   1      43.320  38.259  29.100  1.00  0.00     0.007 A 
ATOM     22  C   UNL A   1      44.085  37.803  26.896  1.00  0.00     0.007 A 
ATOM     23  C   UNL A   1      42.988  36.902  29.261  1.00  0.00     0.000 A 
ATOM     24  C   UNL A   1      43.752  36.448  27.046  1.00  0.00     0.000 A 
ATOM     25  C   UNL A   1      43.195  35.997  28.229  1.00  0.00     0.000 A 
ENDBRANCH  12  20
BRANCH  12  26
ATOM     26  C   UNL A   1      44.167  41.201  29.083  1.00  0.00    -0.013 A 
ATOM     27  C   UNL A   1      42.981  41.129  29.860  1.00  0.00     0.007 A 
ATOM     28  C   UNL A   1      45.081  42.196  29.473  1.00  0.00     0.007 A 
ATOM     29  C   UNL A   1      42.705  42.016  30.904  1.00  0.00     0.000 A 
ATOM     30  C   UNL A   1      44.796  43.106  30.503  1.00  0.00     0.000 A 
ATOM     31  C   UNL A   1      43.604  43.025  31.209  1.00  0.00     0.000 A 
ENDBRANCH  12  26
ENDBRANCH   8  12
ENDBRANCH   6   7
ENDBRANCH   5   6
BRANCH   5  32
ATOM     32  N   UNL A   1      50.596  36.249  24.699  1.00  0.00    -0.346 N 
ATOM     33  H   UNL A   1      50.578  37.013  24.024  1.00  0.00     0.345 HD
ATOM     34  H   UNL A   1      50.273  35.392  24.252  1.00  0.00     0.345 HD
ATOM     35  H   UNL A   1      51.550  36.118  25.038  1.00  0.00     0.345 HD
ENDBRANCH   5  32
ENDBRANCH   3   5
ENDBRANCH   2   3
ENDBRANCH   1   2
BRANCH   1  36
ATOM     36  C   UNL A   1      46.524  36.131  30.040  1.00  0.00     0.275 C 
BRANCH  36  37
ATOM     37  O   UNL A   1      47.370  36.446  31.232  1.00  0.00    -0.458 OA
BRANCH  37  38
ATOM     38  C   UNL A   1      47.195  36.864  32.530  1.00  0.00     0.338 C 
ATOM     39  O   UNL A   1      47.945  37.683  33.054  1.00  0.00    -0.246 OA
BRANCH  38  40
ATOM     40  C   UNL A   1      46.214  36.175  33.419  1.00  0.00     0.060 A 
ATOM     41  C   UNL A   1      46.496  34.457  34.096  1.00  0.00     0.016 A 
ATOM     42  C   UNL A   1      44.553  36.773  33.147  1.00  0.00     0.016 A 
ATOM     43  C   UNL A   1      45.023  33.339  34.311  1.00  0.00     0.010 A 
ATOM     44  C   UNL A   1      43.157  35.673  33.260  1.00  0.00     0.010 A 
ATOM     45  C   UNL A   1      43.363  33.939  33.737  1.00  0.00    -0.014 A 
BRANCH  45  46
ATOM     46  C   UNL A   1      42.146  33.285  33.260  1.00  0.00     0.031 A 
ATOM     47  C   UNL A   1      41.906  32.976  31.853  1.00  0.00     0.074 A 
ATOM     48  C   UNL A   1      41.343  32.667  34.188  1.00  0.00     0.049 A 
ATOM     49  N   UNL A   1      40.749  32.599  31.410  1.00  0.00    -0.248 NA
ATOM     50  C   UNL A   1      42.922  33.070  30.811  1.00  0.00     0.031 C 
ATOM     51  C   UNL A   1      40.558  31.466  33.967  1.00  0.00     0.029 A 
ATOM     52  N   UNL A   1      41.018  32.999  35.532  1.00  0.00    -0.354 N 
ATOM     53  C   UNL A   1      41.023  31.926  30.253  1.00  0.00     0.074 A 
ATOM     54  C   UNL A   1      42.250  32.527  29.785  1.00  0.00     0.031 C 
ATOM     55  C   UNL A   1      39.659  31.340  34.949  1.00  0.00     0.029 A 
ATOM     56  C   UNL A   1      39.725  32.510  35.806  1.00  0.00     0.049 A 
ATOM     57  H   UNL A   1      41.597  33.486  36.162  1.00  0.00     0.167 HD
ATOM     58  C   UNL A   1      40.358  30.765  29.978  1.00  0.00     0.034 A 
ATOM     59  C   UNL A   1      38.670  33.191  36.355  1.00  0.00     0.034 A 
ATOM     60  C   UNL A   1      39.257  30.444  30.922  1.00  0.00     0.049 A 
ATOM     61  C   UNL A   1      37.409  33.020  35.509  1.00  0.00     0.074 A 
ATOM     62  C   UNL A   1      38.831  29.316  31.612  1.00  0.00     0.029 A 
ATOM     63  N   UNL A   1      38.430  31.454  31.395  1.00  0.00    -0.354 N 
ATOM     64  N   UNL A   1      37.209  32.037  34.667  1.00  0.00    -0.248 NA
ATOM     65  C   UNL A   1      36.351  34.028  35.402  1.00  0.00     0.031 C 
ATOM     66  C   UNL A   1      37.660  29.651  32.369  1.00  0.00     0.029 A 
ATOM     67  C   UNL A   1      37.360  30.976  32.125  1.00  0.00     0.049 A 
ATOM     68  H   UNL A   1      38.591  32.412  31.228  1.00  0.00     0.167 HD
ATOM     69  C   UNL A   1      36.317  32.455  33.708  1.00  0.00     0.074 A 
ATOM     70  C   UNL A   1      35.716  33.643  34.283  1.00  0.00     0.031 C 
ATOM     71  C   UNL A   1      36.297  31.918  32.448  1.00  0.00     0.034 A 
BRANCH  58  72
ATOM     72  C   UNL A   1      40.773  29.789  28.889  1.00  0.00     0.023 A 
ATOM     73  C   UNL A   1      42.144  29.481  28.759  1.00  0.00     0.031 A 
ATOM     74  C   UNL A   1      39.935  29.185  27.924  1.00  0.00     0.131 A 
ATOM     75  C   UNL A   1      42.616  28.635  27.739  1.00  0.00     0.055 A 
ATOM     76  C   UNL A   1      40.394  28.264  26.974  1.00  0.00     0.041 A 
ATOM     77  F   UNL A   1      38.643  29.501  27.784  1.00  0.00    -0.206 F 
ATOM     78  C   UNL A   1      41.744  27.990  26.871  1.00  0.00     0.022 A 
BRANCH  75  79
ATOM     79  S   UNL A   1      44.404  28.469  27.498  1.00  0.00     0.124 S 
ATOM     80  O   UNL A   1      44.607  27.041  27.720  1.00  0.00    -0.237 OA
ATOM     81  O   UNL A   1      44.581  28.947  26.133  1.00  0.00    -0.237 OA
ATOM     82  O   UNL A   1      44.963  29.335  28.535  1.00  0.00    -0.744 OA
ENDBRANCH  75  79
ENDBRANCH  58  72
BRANCH  59  83
ATOM     83  C   UNL A   1      38.965  34.331  37.292  1.00  0.00     0.023 A 
ATOM     84  C   UNL A   1      38.745  34.136  38.674  1.00  0.00     0.031 A 
ATOM     85  C   UNL A   1      39.578  35.543  36.932  1.00  0.00     0.131 A 
ATOM     86  C   UNL A   1      39.230  35.055  39.628  1.00  0.00     0.055 A 
ATOM     87  C   UNL A   1      40.123  36.424  37.879  1.00  0.00     0.041 A 
ATOM     88  F   UNL A   1      39.680  35.917  35.653  1.00  0.00    -0.206 F 
ATOM     89  C   UNL A   1      39.977  36.167  39.237  1.00  0.00     0.022 A 
BRANCH  86  90
ATOM     90  S   UNL A   1      38.969  34.780  41.409  1.00  0.00     0.124 S 
ATOM     91  O   UNL A   1      38.581  36.111  41.868  1.00  0.00    -0.237 OA
ATOM     92  O   UNL A   1      37.907  33.776  41.458  1.00  0.00    -0.237 OA
ATOM     93  O   UNL A   1      40.268  34.315  41.889  1.00  0.00    -0.744 OA
ENDBRANCH  86  90
ENDBRANCH  59  83
BRANCH  71  94
ATOM     94  C   UNL A   1      35.463  32.439  31.295  1.00  0.00     0.023 A 
ATOM     95  C   UNL A   1      34.629  34.064  31.333  1.00  0.00     0.031 A 
ATOM     96  C   UNL A   1      35.397  31.464  29.731  1.00  0.00     0.131 A 
ATOM     97  C   UNL A   1      33.801  34.718  29.857  1.00  0.00     0.055 A 
ATOM     98  C   UNL A   1      34.701  32.191  28.195  1.00  0.00     0.041 A 
ATOM     99  F   UNL A   1      35.848  30.206  29.649  1.00  0.00    -0.206 F 
ATOM    100  C   UNL A   1      33.889  33.813  28.264  1.00  0.00     0.022 A 
BRANCH  97 101
ATOM    101  S   UNL A   1      32.724  36.141  30.028  1.00  0.00     0.124 S 
ATOM    102  O   UNL A   1      33.653  37.181  30.455  1.00  0.00    -0.237 OA
ATOM    103  O   UNL A   1      32.184  36.285  28.679  1.00  0.00    -0.237 OA
ATOM    104  O   UNL A   1      31.771  35.697  31.041  1.00  0.00    -0.744 OA
ENDBRANCH  97 101
ENDBRANCH  71  94
ENDBRANCH  45  46
ENDBRANCH  38  40
ENDBRANCH  37  38
ENDBRANCH  36  37
ENDBRANCH   1  36
TORSDOF 21
ENDMDL
MODEL 3
REMARK VINA RESULT:     -10.1      2.496      3.671
REMARK SMILES Cc1ccc(C(c2ccccc2)(c2ccccc2)n2cnc(C[C@H]([NH3+])C(=O)OCCOC(=O)c3ccc(-c4c5nc(c(-c6cc(S(=O)(=O)[O-])ccc6F)c6ccc([nH]6)c(-c6cc(S(=O)(=O)[O-])ccc6F)c6nc(c(-c7cc(S(=O)(=O)[O-])ccc7F)c7ccc4[nH]7)C=C6)C=C5)cc3)c2)cc1
REMARK SMILES IDX 29 1 28 2 26 3 27 4 24 5 23 6 22 7 19 8 20 9 97 10 21 11
REMARK SMILES IDX 6 12 5 13 1 14 2 15 3 16 99 17 4 18 98 19 7 20 8 21 12 22
REMARK SMILES IDX 9 23 11 24 10 25 13 26 14 27 18 28 15 29 17 30 16 31 25 32
REMARK SMILES IDX 30 36 31 37 32 38 33 39 34 40 35 41 96 42 36 43 95 44 37 45
REMARK SMILES IDX 38 46 39 47 89 48 40 49 94 50 88 51 90 52 41 53 93 54 87 55
REMARK SMILES IDX 86 56 42 58 74 59 54 60 73 61 55 62 58 63 72 64 91 65 56 66
REMARK SMILES IDX 57 67 71 69 92 70 59 71 43 72 44 73 52 74 45 75 51 76 53 77
REMARK SMILES IDX 50 78 46 79 47 80 48 81 49 82 75 83 76 84 84 85 77 86 83 87
REMARK SMILES IDX 85 88 82 89 78 90 79 91 80 92 81 93 60 94 61 95 69 96 62 97
REMARK SMILES IDX 68 98 70 99 67 100 63 101 64 102 65 103 66 104
REMARK H PARENT 25 33 25 34 25 35 90 57 58 68
REMARK Flexibility Score: inf
ROOT
ATOM      1  C   UNL A   1      35.523  31.574  31.103  1.00  0.00     0.274 C 
ENDROOT
BRANCH   1   2
ATOM      2  O   UNL A   1      34.631  32.349  31.899  1.00  0.00    -0.458 OA
BRANCH   2   3
ATOM      3  C   UNL A   1      34.994  33.650  31.925  1.00  0.00     0.365 C 
ATOM      4  O   UNL A   1      34.378  34.460  32.620  1.00  0.00    -0.245 OA
BRANCH   3   5
ATOM      5  C   UNL A   1      36.361  34.115  31.187  1.00  0.00     0.297 C 
BRANCH   5   6
ATOM      6  C   UNL A   1      37.484  34.265  32.667  1.00  0.00     0.135 C 
BRANCH   6   7
ATOM      7  C   UNL A   1      38.979  33.898  32.816  1.00  0.00     0.065 A 
ATOM      8  N   UNL A   1      41.222  33.770  32.576  1.00  0.00    -0.319 N 
ATOM      9  C   UNL A   1      40.646  32.532  32.607  1.00  0.00     0.201 A 
ATOM     10  C   UNL A   1      40.156  34.657  32.805  1.00  0.00     0.112 A 
ATOM     11  N   UNL A   1      39.344  32.603  32.665  1.00  0.00    -0.241 NA
BRANCH   8  12
ATOM     12  C   UNL A   1      42.623  33.984  32.008  1.00  0.00     0.121 C 
BRANCH  12  13
ATOM     13  C   UNL A   1      43.340  32.588  31.730  1.00  0.00    -0.013 A 
ATOM     14  C   UNL A   1      46.768  28.704  31.759  1.00  0.00     0.044 C 
ATOM     15  C   UNL A   1      45.107  30.048  31.530  1.00  0.00    -0.051 A 
ATOM     16  C   UNL A   1      44.883  31.137  30.499  1.00  0.00     0.004 A 
ATOM     17  C   UNL A   1      43.892  30.248  32.371  1.00  0.00     0.004 A 
ATOM     18  C   UNL A   1      44.137  32.346  30.629  1.00  0.00     0.007 A 
ATOM     19  C   UNL A   1      43.073  31.426  32.457  1.00  0.00     0.007 A 
ENDBRANCH  12  13
BRANCH  12  20
ATOM     20  C   UNL A   1      42.361  34.764  30.618  1.00  0.00    -0.013 A 
ATOM     21  C   UNL A   1      41.142  34.638  29.917  1.00  0.00     0.007 A 
ATOM     22  C   UNL A   1      43.382  35.433  29.897  1.00  0.00     0.007 A 
ATOM     23  C   UNL A   1      40.931  35.208  28.649  1.00  0.00     0.000 A 
ATOM     24  C   UNL A   1      43.179  36.010  28.634  1.00  0.00     0.000 A 
ATOM     25  C   UNL A   1      41.949  35.904  28.011  1.00  0.00     0.000 A 
ENDBRANCH  12  20
BRANCH  12  26
ATOM     26  C   UNL A   1      43.493  34.754  33.088  1.00  0.00    -0.013 A 
ATOM     27  C   UNL A   1      43.161  36.078  33.480  1.00  0.00     0.007 A 
ATOM     28  C   UNL A   1      44.696  34.255  33.618  1.00  0.00     0.007 A 
ATOM     29  C   UNL A   1      43.993  36.860  34.287  1.00  0.00     0.000 A 
ATOM     30  C   UNL A   1      45.548  35.046  34.405  1.00  0.00     0.000 A 
ATOM     31  C   UNL A   1      45.202  36.351  34.729  1.00  0.00     0.000 A 
ENDBRANCH  12  26
ENDBRANCH   8  12
ENDBRANCH   6   7
ENDBRANCH   5   6
BRANCH   5  32
ATOM     32  N   UNL A   1      36.692  34.583  29.184  1.00  0.00    -0.346 N 
ATOM     33  H   UNL A   1      36.050  35.322  28.898  1.00  0.00     0.345 HD
ATOM     34  H   UNL A   1      36.533  33.755  28.612  1.00  0.00     0.345 HD
ATOM     35  H   UNL A   1      37.653  34.902  29.065  1.00  0.00     0.345 HD
ENDBRANCH   5  32
ENDBRANCH   3   5
ENDBRANCH   2   3
ENDBRANCH   1   2
BRANCH   1  36
ATOM     36  C   UNL A   1      36.397  30.547  31.891  1.00  0.00     0.275 C 
BRANCH  36  37
ATOM     37  O   UNL A   1      36.772  29.214  31.324  1.00  0.00    -0.458 OA
BRANCH  37  38
ATOM     38  C   UNL A   1      37.897  28.584  30.847  1.00  0.00     0.338 C 
ATOM     39  O   UNL A   1      38.404  27.632  31.434  1.00  0.00    -0.246 OA
BRANCH  38  40
ATOM     40  C   UNL A   1      38.667  29.171  29.711  1.00  0.00     0.060 A 
ATOM     41  C   UNL A   1      38.591  28.484  27.976  1.00  0.00     0.016 A 
ATOM     42  C   UNL A   1      40.136  30.010  30.283  1.00  0.00     0.016 A 
ATOM     43  C   UNL A   1      40.132  28.546  26.933  1.00  0.00     0.010 A 
ATOM     44  C   UNL A   1      41.636  29.982  29.323  1.00  0.00     0.010 A 
ATOM     45  C   UNL A   1      41.699  29.179  27.702  1.00  0.00    -0.014 A 
BRANCH  45  46
ATOM     46  C   UNL A   1      43.122  28.942  27.470  1.00  0.00     0.031 A 
ATOM     47  C   UNL A   1      44.051  29.994  27.068  1.00  0.00     0.074 A 
ATOM     48  C   UNL A   1      43.662  27.769  27.939  1.00  0.00     0.049 A 
ATOM     49  N   UNL A   1      45.253  29.744  26.658  1.00  0.00    -0.248 NA
ATOM     50  C   UNL A   1      43.726  31.417  27.075  1.00  0.00     0.031 C 
ATOM     51  C   UNL A   1      45.012  27.596  28.443  1.00  0.00     0.029 A 
ATOM     52  N   UNL A   1      43.133  26.452  28.033  1.00  0.00    -0.354 N 
ATOM     53  C   UNL A   1      45.946  30.901  26.882  1.00  0.00     0.074 A 
ATOM     54  C   UNL A   1      44.936  31.930  26.801  1.00  0.00     0.031 C 
ATOM     55  C   UNL A   1      45.301  26.292  28.495  1.00  0.00     0.029 A 
ATOM     56  C   UNL A   1      44.201  25.539  27.919  1.00  0.00     0.049 A 
ATOM     57  H   UNL A   1      42.184  26.219  28.156  1.00  0.00     0.167 HD
ATOM     58  C   UNL A   1      47.212  30.837  27.391  1.00  0.00     0.034 A 
ATOM     59  C   UNL A   1      44.290  24.452  27.090  1.00  0.00     0.034 A 
ATOM     60  C   UNL A   1      47.771  29.465  27.489  1.00  0.00     0.049 A 
ATOM     61  C   UNL A   1      45.605  24.463  26.313  1.00  0.00     0.074 A 
ATOM     62  C   UNL A   1      48.456  28.733  28.450  1.00  0.00     0.029 A 
ATOM     63  N   UNL A   1      47.537  28.545  26.476  1.00  0.00    -0.354 N 
ATOM     64  N   UNL A   1      46.679  25.116  26.682  1.00  0.00    -0.248 NA
ATOM     65  C   UNL A   1      45.769  23.895  24.972  1.00  0.00     0.031 C 
ATOM     66  C   UNL A   1      48.747  27.432  27.921  1.00  0.00     0.029 A 
ATOM     67  C   UNL A   1      48.258  27.378  26.632  1.00  0.00     0.049 A 
ATOM     68  H   UNL A   1      46.921  28.708  25.725  1.00  0.00     0.167 HD
ATOM     69  C   UNL A   1      47.435  25.386  25.565  1.00  0.00     0.074 A 
ATOM     70  C   UNL A   1      46.896  24.495  24.556  1.00  0.00     0.031 C 
ATOM     71  C   UNL A   1      48.289  26.455  25.505  1.00  0.00     0.034 A 
BRANCH  58  72
ATOM     72  C   UNL A   1      47.961  32.036  27.950  1.00  0.00     0.023 A 
ATOM     73  C   UNL A   1      48.213  32.075  29.337  1.00  0.00     0.031 A 
ATOM     74  C   UNL A   1      48.390  33.178  27.236  1.00  0.00     0.131 A 
ATOM     75  C   UNL A   1      48.846  33.177  29.941  1.00  0.00     0.055 A 
ATOM     76  C   UNL A   1      49.111  34.227  27.822  1.00  0.00     0.041 A 
ATOM     77  F   UNL A   1      48.078  33.393  25.953  1.00  0.00    -0.206 F 
ATOM     78  C   UNL A   1      49.335  34.235  29.185  1.00  0.00     0.022 A 
BRANCH  75  79
ATOM     79  S   UNL A   1      48.931  33.254  31.749  1.00  0.00     0.124 S 
ATOM     80  O   UNL A   1      49.139  34.680  31.980  1.00  0.00    -0.237 OA
ATOM     81  O   UNL A   1      47.638  32.713  32.146  1.00  0.00    -0.237 OA
ATOM     82  O   UNL A   1      50.081  32.408  32.066  1.00  0.00    -0.744 OA
ENDBRANCH  75  79
ENDBRANCH  58  72
BRANCH  59  83
ATOM     83  C   UNL A   1      43.018  23.762  26.676  1.00  0.00     0.023 A 
ATOM     84  C   UNL A   1      43.029  22.354  26.553  1.00  0.00     0.031 A 
ATOM     85  C   UNL A   1      41.765  24.382  26.532  1.00  0.00     0.131 A 
ATOM     86  C   UNL A   1      41.829  21.623  26.418  1.00  0.00     0.055 A 
ATOM     87  C   UNL A   1      40.566  23.656  26.469  1.00  0.00     0.041 A 
ATOM     88  F   UNL A   1      41.653  25.712  26.454  1.00  0.00    -0.206 F 
ATOM     89  C   UNL A   1      40.591  22.267  26.443  1.00  0.00     0.022 A 
BRANCH  86  90
ATOM     90  S   UNL A   1      41.850  19.807  26.292  1.00  0.00     0.124 S 
ATOM     91  O   UNL A   1      42.158  19.412  27.664  1.00  0.00    -0.237 OA
ATOM     92  O   UNL A   1      40.501  19.471  25.841  1.00  0.00    -0.237 OA
ATOM     93  O   UNL A   1      42.904  19.532  25.319  1.00  0.00    -0.744 OA
ENDBRANCH  86  90
ENDBRANCH  59  83
BRANCH  71  94
ATOM     94  C   UNL A   1      49.022  26.912  24.260  1.00  0.00     0.023 A 
ATOM     95  C   UNL A   1      50.799  26.586  23.986  1.00  0.00     0.031 A 
ATOM     96  C   UNL A   1      48.063  27.706  22.901  1.00  0.00     0.131 A 
ATOM     97  C   UNL A   1      51.583  26.989  22.400  1.00  0.00     0.055 A 
ATOM     98  C   UNL A   1      48.814  27.966  21.245  1.00  0.00     0.041 A 
ATOM     99  F   UNL A   1      46.799  28.117  23.058  1.00  0.00    -0.206 F 
ATOM    100  C   UNL A   1      50.579  27.621  21.001  1.00  0.00     0.022 A 
BRANCH  97 101
ATOM    101  S   UNL A   1      53.372  26.964  22.287  1.00  0.00     0.124 S 
ATOM    102  O   UNL A   1      53.588  26.520  20.914  1.00  0.00    -0.237 OA
ATOM    103  O   UNL A   1      53.720  28.353  22.569  1.00  0.00    -0.237 OA
ATOM    104  O   UNL A   1      53.741  26.003  23.323  1.00  0.00    -0.744 OA
ENDBRANCH  97 101
ENDBRANCH  71  94
ENDBRANCH  45  46
ENDBRANCH  38  40
ENDBRANCH  37  38
ENDBRANCH  36  37
ENDBRANCH   1  36
TORSDOF 21
ENDMDL
