MODEL 1
REMARK VINA RESULT:     -13.4      0.000      0.000
REMARK SMILES CC(=O)Nc1ccc(/C=C2/CCc3oc(C(=O)OCCOC(=O)c4ccc(-c5c6nc(c(-c7cc(S(=O)(=O)[O-])ccc7F)c7ccc([nH]7)c(-c7cc(S(=O)(=O)[O-])ccc7F)c7nc(c(-c8cc(S(=O)(=O)[O-])ccc8F)c8ccc5[nH]8)C=C7)C=C6)cc4)c(C)c3C2=O)cc1
REMARK SMILES IDX 20 1 19 2 18 3 16 4 17 5 15 6 9 7 10 8 11 9 90 10 12 11
REMARK SMILES IDX 89 12 91 13 13 14 87 15 14 16 88 17 8 18 5 19 6 20 93 21
REMARK SMILES IDX 7 22 92 23 4 24 1 25 2 26 3 27 21 29 22 30 23 31 24 32 25 33
REMARK SMILES IDX 86 34 26 35 85 36 27 37 28 38 29 39 79 40 30 41 84 42 78 43
REMARK SMILES IDX 80 44 31 45 83 46 77 47 76 48 32 50 64 51 44 52 63 53 45 54
REMARK SMILES IDX 48 55 62 56 81 57 46 58 47 59 61 61 82 62 49 63 33 64 34 65
REMARK SMILES IDX 42 66 35 67 41 68 43 69 40 70 36 71 37 72 38 73 39 74 65 75
REMARK SMILES IDX 66 76 74 77 67 78 73 79 75 80 72 81 68 82 69 83 70 84 71 85
REMARK SMILES IDX 50 86 51 87 59 88 52 89 58 90 60 91 57 92 53 93 54 94 55 95
REMARK SMILES IDX 56 96
REMARK H PARENT 4 28 80 49 48 60
REMARK Flexibility Score: inf
ROOT
ATOM      1  C   UNL A   1      38.038  19.574  25.032  1.00  0.00     0.275 C 
ENDROOT
BRANCH   1   2
ATOM      2  C   UNL A   1      36.744  20.288  24.661  1.00  0.00     0.275 C 
BRANCH   2   3
ATOM      3  O   UNL A   1      36.835  21.708  24.859  1.00  0.00    -0.456 OA
BRANCH   3   4
ATOM      4  C   UNL A   1      36.209  22.497  23.936  1.00  0.00     0.374 C 
ATOM      5  O   UNL A   1      36.725  22.872  22.883  1.00  0.00    -0.242 OA
BRANCH   4   6
ATOM      6  C   UNL A   1      34.849  22.774  24.347  1.00  0.00     0.215 A 
ATOM      7  C   UNL A   1      30.273  25.490  25.873  1.00  0.00     0.016 C 
ATOM      8  C   UNL A   1      30.801  24.253  25.763  1.00  0.00     0.001 C 
ATOM      9  C   UNL A   1      31.093  23.360  26.965  1.00  0.00     0.048 C 
ATOM     10  C   UNL A   1      31.278  23.651  24.473  1.00  0.00     0.192 C 
ATOM     11  C   UNL A   1      32.607  23.096  27.139  1.00  0.00     0.081 C 
ATOM     12  C   UNL A   1      32.669  23.270  24.580  1.00  0.00     0.067 A 
ATOM     13  O   UNL A   1      30.582  23.514  23.477  1.00  0.00    -0.289 OA
ATOM     14  C   UNL A   1      33.238  23.012  25.803  1.00  0.00     0.116 A 
ATOM     15  C   UNL A   1      33.709  23.122  23.619  1.00  0.00     0.014 A 
ATOM     16  O   UNL A   1      34.545  22.708  25.689  1.00  0.00    -0.453 OA
ATOM     17  C   UNL A   1      33.566  23.327  22.153  1.00  0.00     0.049 C 
BRANCH   7  18
ATOM     18  C   UNL A   1      30.060  26.568  24.876  1.00  0.00    -0.025 A 
ATOM     19  C   UNL A   1      29.444  28.627  23.015  1.00  0.00     0.041 A 
ATOM     20  C   UNL A   1      30.642  28.640  23.717  1.00  0.00     0.027 A 
ATOM     21  C   UNL A   1      28.565  27.564  23.206  1.00  0.00     0.027 A 
ATOM     22  C   UNL A   1      30.919  27.651  24.665  1.00  0.00     0.010 A 
ATOM     23  C   UNL A   1      28.878  26.541  24.117  1.00  0.00     0.010 A 
BRANCH  19  24
ATOM     24  N   UNL A   1      29.219  29.683  22.121  1.00  0.00    -0.326 N 
ATOM     25  C   UNL A   1      27.685  31.043  23.513  1.00  0.00     0.114 C 
ATOM     26  C   UNL A   1      28.362  30.742  22.203  1.00  0.00     0.221 C 
ATOM     27  O   UNL A   1      28.220  31.486  21.233  1.00  0.00    -0.275 OA
ATOM     28  H   UNL A   1      29.768  29.657  21.303  1.00  0.00     0.169 HD
ENDBRANCH  19  24
ENDBRANCH   7  18
ENDBRANCH   4   6
ENDBRANCH   3   4
ENDBRANCH   2   3
ENDBRANCH   1   2
BRANCH   1  29
ATOM     29  O   UNL A   1      38.998  20.484  25.563  1.00  0.00    -0.458 OA
BRANCH  29  30
ATOM     30  C   UNL A   1      40.215  19.946  25.811  1.00  0.00     0.338 C 
ATOM     31  O   UNL A   1      40.539  18.779  25.670  1.00  0.00    -0.246 OA
BRANCH  30  32
ATOM     32  C   UNL A   1      41.056  20.938  26.483  1.00  0.00     0.060 A 
ATOM     33  C   UNL A   1      40.990  20.978  27.878  1.00  0.00     0.016 A 
ATOM     34  C   UNL A   1      41.638  21.970  25.736  1.00  0.00     0.016 A 
ATOM     35  C   UNL A   1      41.327  22.153  28.513  1.00  0.00     0.010 A 
ATOM     36  C   UNL A   1      41.955  23.146  26.369  1.00  0.00     0.010 A 
ATOM     37  C   UNL A   1      41.719  23.249  27.737  1.00  0.00    -0.014 A 
BRANCH  37  38
ATOM     38  C   UNL A   1      42.058  24.485  28.411  1.00  0.00     0.031 A 
ATOM     39  C   UNL A   1      41.011  25.511  28.204  1.00  0.00     0.074 A 
ATOM     40  C   UNL A   1      43.131  24.602  29.218  1.00  0.00     0.049 A 
ATOM     41  N   UNL A   1      41.096  26.583  27.491  1.00  0.00    -0.248 NA
ATOM     42  C   UNL A   1      39.634  25.187  28.626  1.00  0.00     0.031 C 
ATOM     43  C   UNL A   1      44.067  23.560  29.645  1.00  0.00     0.029 A 
ATOM     44  N   UNL A   1      43.562  25.687  29.914  1.00  0.00    -0.354 N 
ATOM     45  C   UNL A   1      39.859  27.204  27.616  1.00  0.00     0.074 A 
ATOM     46  C   UNL A   1      38.953  26.195  28.081  1.00  0.00     0.031 C 
ATOM     47  C   UNL A   1      44.792  24.011  30.697  1.00  0.00     0.029 A 
ATOM     48  C   UNL A   1      44.462  25.406  30.942  1.00  0.00     0.049 A 
ATOM     49  H   UNL A   1      43.263  26.602  29.708  1.00  0.00     0.167 HD
ATOM     50  C   UNL A   1      39.770  28.562  27.635  1.00  0.00     0.034 A 
ATOM     51  C   UNL A   1      44.834  26.245  31.951  1.00  0.00     0.034 A 
ATOM     52  C   UNL A   1      40.955  29.158  27.055  1.00  0.00     0.049 A 
ATOM     53  C   UNL A   1      44.527  27.624  31.483  1.00  0.00     0.074 A 
ATOM     54  C   UNL A   1      41.576  29.057  25.824  1.00  0.00     0.029 A 
ATOM     55  N   UNL A   1      41.909  29.666  27.911  1.00  0.00    -0.354 N 
ATOM     56  N   UNL A   1      45.143  28.183  30.475  1.00  0.00    -0.248 NA
ATOM     57  C   UNL A   1      43.197  28.155  31.761  1.00  0.00     0.031 C 
ATOM     58  C   UNL A   1      42.970  29.018  26.119  1.00  0.00     0.029 A 
ATOM     59  C   UNL A   1      43.135  29.203  27.494  1.00  0.00     0.049 A 
ATOM     60  H   UNL A   1      41.743  30.255  28.681  1.00  0.00     0.167 HD
ATOM     61  C   UNL A   1      44.143  28.799  29.735  1.00  0.00     0.074 A 
ATOM     62  C   UNL A   1      42.974  28.809  30.616  1.00  0.00     0.031 C 
ATOM     63  C   UNL A   1      44.259  28.965  28.383  1.00  0.00     0.034 A 
BRANCH  50  64
ATOM     64  C   UNL A   1      38.839  29.325  28.554  1.00  0.00     0.023 A 
ATOM     65  C   UNL A   1      39.127  29.268  29.929  1.00  0.00     0.031 A 
ATOM     66  C   UNL A   1      37.559  29.831  28.217  1.00  0.00     0.131 A 
ATOM     67  C   UNL A   1      38.142  29.568  30.885  1.00  0.00     0.055 A 
ATOM     68  C   UNL A   1      36.607  30.191  29.173  1.00  0.00     0.041 A 
ATOM     69  F   UNL A   1      37.112  29.929  26.962  1.00  0.00    -0.206 F 
ATOM     70  C   UNL A   1      36.880  30.025  30.517  1.00  0.00     0.022 A 
BRANCH  67  71
ATOM     71  S   UNL A   1      38.483  29.162  32.614  1.00  0.00     0.124 S 
ATOM     72  O   UNL A   1      38.733  30.484  33.178  1.00  0.00    -0.237 OA
ATOM     73  O   UNL A   1      37.241  28.512  33.018  1.00  0.00    -0.237 OA
ATOM     74  O   UNL A   1      39.649  28.285  32.530  1.00  0.00    -0.744 OA
ENDBRANCH  67  71
ENDBRANCH  50  64
BRANCH  51  75
ATOM     75  C   UNL A   1      45.039  25.891  33.394  1.00  0.00     0.023 A 
ATOM     76  C   UNL A   1      44.048  26.053  34.394  1.00  0.00     0.031 A 
ATOM     77  C   UNL A   1      46.179  25.141  33.765  1.00  0.00     0.131 A 
ATOM     78  C   UNL A   1      44.228  25.485  35.685  1.00  0.00     0.055 A 
ATOM     79  C   UNL A   1      46.348  24.583  35.035  1.00  0.00     0.041 A 
ATOM     80  F   UNL A   1      47.139  24.848  32.874  1.00  0.00    -0.206 F 
ATOM     81  C   UNL A   1      45.369  24.745  35.998  1.00  0.00     0.022 A 
BRANCH  78  82
ATOM     82  S   UNL A   1      42.943  25.635  36.977  1.00  0.00     0.124 S 
ATOM     83  O   UNL A   1      43.637  25.152  38.165  1.00  0.00    -0.237 OA
ATOM     84  O   UNL A   1      42.625  27.058  36.943  1.00  0.00    -0.237 OA
ATOM     85  O   UNL A   1      41.871  24.761  36.498  1.00  0.00    -0.744 OA
ENDBRANCH  78  82
ENDBRANCH  51  75
BRANCH  63  86
ATOM     86  C   UNL A   1      45.608  28.715  27.732  1.00  0.00     0.023 A 
ATOM     87  C   UNL A   1      46.006  27.513  27.098  1.00  0.00     0.031 A 
ATOM     88  C   UNL A   1      46.484  29.812  27.653  1.00  0.00     0.131 A 
ATOM     89  C   UNL A   1      47.247  27.448  26.428  1.00  0.00     0.055 A 
ATOM     90  C   UNL A   1      47.697  29.750  26.971  1.00  0.00     0.041 A 
ATOM     91  F   UNL A   1      46.154  30.986  28.215  1.00  0.00    -0.206 F 
ATOM     92  C   UNL A   1      48.086  28.565  26.360  1.00  0.00     0.022 A 
BRANCH  89  93
ATOM     93  S   UNL A   1      47.818  25.899  25.650  1.00  0.00     0.124 S 
ATOM     94  O   UNL A   1      46.953  25.764  24.483  1.00  0.00    -0.237 OA
ATOM     95  O   UNL A   1      49.224  26.181  25.374  1.00  0.00    -0.237 OA
ATOM     96  O   UNL A   1      47.594  24.892  26.690  1.00  0.00    -0.744 OA
ENDBRANCH  89  93
ENDBRANCH  63  86
ENDBRANCH  37  38
ENDBRANCH  30  32
ENDBRANCH  29  30
ENDBRANCH   1  29
TORSDOF 16
ENDMDL
MODEL 2
REMARK VINA RESULT:     -13.3      3.610      8.896
REMARK SMILES CC(=O)Nc1ccc(/C=C2/CCc3oc(C(=O)OCCOC(=O)c4ccc(-c5c6nc(c(-c7cc(S(=O)(=O)[O-])ccc7F)c7ccc([nH]7)c(-c7cc(S(=O)(=O)[O-])ccc7F)c7nc(c(-c8cc(S(=O)(=O)[O-])ccc8F)c8ccc5[nH]8)C=C7)C=C6)cc4)c(C)c3C2=O)cc1
REMARK SMILES IDX 20 1 19 2 18 3 16 4 17 5 15 6 9 7 10 8 11 9 90 10 12 11
REMARK SMILES IDX 89 12 91 13 13 14 87 15 14 16 88 17 8 18 5 19 6 20 93 21
REMARK SMILES IDX 7 22 92 23 4 24 1 25 2 26 3 27 21 29 22 30 23 31 24 32 25 33
REMARK SMILES IDX 86 34 26 35 85 36 27 37 28 38 29 39 79 40 30 41 84 42 78 43
REMARK SMILES IDX 80 44 31 45 83 46 77 47 76 48 32 50 64 51 44 52 63 53 45 54
REMARK SMILES IDX 48 55 62 56 81 57 46 58 47 59 61 61 82 62 49 63 33 64 34 65
REMARK SMILES IDX 42 66 35 67 41 68 43 69 40 70 36 71 37 72 38 73 39 74 65 75
REMARK SMILES IDX 66 76 74 77 67 78 73 79 75 80 72 81 68 82 69 83 70 84 71 85
REMARK SMILES IDX 50 86 51 87 59 88 52 89 58 90 60 91 57 92 53 93 54 94 55 95
REMARK SMILES IDX 56 96
REMARK H PARENT 4 28 80 49 48 60
REMARK Flexibility Score: inf
ROOT
ATOM      1  C   UNL A   1      34.759  29.245  27.417  1.00  0.00     0.275 C 
ENDROOT
BRANCH   1   2
ATOM      2  C   UNL A   1      33.537  30.156  27.434  1.00  0.00     0.275 C 
BRANCH   2   3
ATOM      3  O   UNL A   1      32.523  29.719  26.516  1.00  0.00    -0.456 OA
BRANCH   3   4
ATOM      4  C   UNL A   1      31.929  28.518  26.785  1.00  0.00     0.374 C 
ATOM      5  O   UNL A   1      31.418  28.226  27.867  1.00  0.00    -0.242 OA
BRANCH   4   6
ATOM      6  C   UNL A   1      31.940  27.674  25.609  1.00  0.00     0.215 A 
ATOM      7  C   UNL A   1      33.166  23.578  22.093  1.00  0.00     0.016 C 
ATOM      8  C   UNL A   1      32.507  24.752  22.186  1.00  0.00     0.001 C 
ATOM      9  C   UNL A   1      32.918  26.003  21.419  1.00  0.00     0.048 C 
ATOM     10  C   UNL A   1      31.372  25.009  23.137  1.00  0.00     0.192 C 
ATOM     11  C   UNL A   1      33.387  27.136  22.363  1.00  0.00     0.081 C 
ATOM     12  C   UNL A   1      31.681  26.132  23.995  1.00  0.00     0.067 A 
ATOM     13  O   UNL A   1      30.343  24.351  23.176  1.00  0.00    -0.289 OA
ATOM     14  C   UNL A   1      32.589  27.087  23.608  1.00  0.00     0.116 A 
ATOM     15  C   UNL A   1      31.250  26.499  25.300  1.00  0.00     0.014 A 
ATOM     16  O   UNL A   1      32.758  28.025  24.559  1.00  0.00    -0.453 OA
ATOM     17  C   UNL A   1      30.278  25.743  26.135  1.00  0.00     0.049 C 
BRANCH   7  18
ATOM     18  C   UNL A   1      33.041  22.308  22.851  1.00  0.00    -0.025 A 
ATOM     19  C   UNL A   1      32.804  19.993  24.484  1.00  0.00     0.041 A 
ATOM     20  C   UNL A   1      32.159  20.064  23.256  1.00  0.00     0.027 A 
ATOM     21  C   UNL A   1      33.605  21.058  24.884  1.00  0.00     0.027 A 
ATOM     22  C   UNL A   1      32.240  21.224  22.479  1.00  0.00     0.010 A 
ATOM     23  C   UNL A   1      33.730  22.196  24.070  1.00  0.00     0.010 A 
BRANCH  19  24
ATOM     24  N   UNL A   1      32.630  18.816  25.225  1.00  0.00    -0.326 N 
ATOM     25  C   UNL A   1      34.273  17.379  24.051  1.00  0.00     0.114 C 
ATOM     26  C   UNL A   1      33.150  17.568  25.034  1.00  0.00     0.221 C 
ATOM     27  O   UNL A   1      32.753  16.632  25.728  1.00  0.00    -0.275 OA
ATOM     28  H   UNL A   1      32.039  18.903  26.008  1.00  0.00     0.169 HD
ENDBRANCH  19  24
ENDBRANCH   7  18
ENDBRANCH   4   6
ENDBRANCH   3   4
ENDBRANCH   2   3
ENDBRANCH   1   2
BRANCH   1  29
ATOM     29  O   UNL A   1      35.962  29.991  27.582  1.00  0.00    -0.458 OA
BRANCH  29  30
ATOM     30  C   UNL A   1      36.669  29.689  28.696  1.00  0.00     0.338 C 
ATOM     31  O   UNL A   1      36.475  30.116  29.822  1.00  0.00    -0.246 OA
BRANCH  30  32
ATOM     32  C   UNL A   1      37.856  28.917  28.323  1.00  0.00     0.060 A 
ATOM     33  C   UNL A   1      38.322  27.987  29.255  1.00  0.00     0.016 A 
ATOM     34  C   UNL A   1      38.631  29.328  27.230  1.00  0.00     0.016 A 
ATOM     35  C   UNL A   1      39.649  27.621  29.204  1.00  0.00     0.010 A 
ATOM     36  C   UNL A   1      39.958  28.977  27.192  1.00  0.00     0.010 A 
ATOM     37  C   UNL A   1      40.467  28.194  28.225  1.00  0.00    -0.014 A 
BRANCH  37  38
ATOM     38  C   UNL A   1      41.864  27.816  28.186  1.00  0.00     0.031 A 
ATOM     39  C   UNL A   1      42.042  26.489  27.554  1.00  0.00     0.074 A 
ATOM     40  C   UNL A   1      42.854  28.648  28.567  1.00  0.00     0.049 A 
ATOM     41  N   UNL A   1      42.384  25.386  28.130  1.00  0.00    -0.248 NA
ATOM     42  C   UNL A   1      41.537  26.307  26.178  1.00  0.00     0.031 C 
ATOM     43  C   UNL A   1      42.756  30.050  28.979  1.00  0.00     0.029 A 
ATOM     44  N   UNL A   1      44.195  28.432  28.578  1.00  0.00    -0.354 N 
ATOM     45  C   UNL A   1      42.408  24.436  27.117  1.00  0.00     0.074 A 
ATOM     46  C   UNL A   1      41.639  24.985  26.038  1.00  0.00     0.031 C 
ATOM     47  C   UNL A   1      43.989  30.611  28.961  1.00  0.00     0.029 A 
ATOM     48  C   UNL A   1      44.975  29.586  28.658  1.00  0.00     0.049 A 
ATOM     49  H   UNL A   1      44.587  27.530  28.533  1.00  0.00     0.167 HD
ATOM     50  C   UNL A   1      43.325  23.431  27.138  1.00  0.00     0.034 A 
ATOM     51  C   UNL A   1      46.315  29.682  28.415  1.00  0.00     0.034 A 
ATOM     52  C   UNL A   1      43.848  23.247  28.476  1.00  0.00     0.049 A 
ATOM     53  C   UNL A   1      46.866  28.307  28.555  1.00  0.00     0.074 A 
ATOM     54  C   UNL A   1      43.272  22.962  29.700  1.00  0.00     0.029 A 
ATOM     55  N   UNL A   1      45.091  23.769  28.763  1.00  0.00    -0.354 N 
ATOM     56  N   UNL A   1      46.880  27.663  29.693  1.00  0.00    -0.248 NA
ATOM     57  C   UNL A   1      46.884  27.459  27.370  1.00  0.00     0.031 C 
ATOM     58  C   UNL A   1      43.967  23.787  30.632  1.00  0.00     0.029 A 
ATOM     59  C   UNL A   1      44.994  24.449  29.955  1.00  0.00     0.049 A 
ATOM     60  H   UNL A   1      45.902  23.673  28.215  1.00  0.00     0.167 HD
ATOM     61  C   UNL A   1      46.468  26.374  29.386  1.00  0.00     0.074 A 
ATOM     62  C   UNL A   1      46.555  26.288  27.927  1.00  0.00     0.031 C 
ATOM     63  C   UNL A   1      45.807  25.602  30.300  1.00  0.00     0.034 A 
BRANCH  50  64
ATOM     64  C   UNL A   1      44.049  22.934  25.904  1.00  0.00     0.023 A 
ATOM     65  C   UNL A   1      44.032  21.546  25.681  1.00  0.00     0.031 A 
ATOM     66  C   UNL A   1      44.982  23.667  25.128  1.00  0.00     0.131 A 
ATOM     67  C   UNL A   1      44.982  20.938  24.843  1.00  0.00     0.055 A 
ATOM     68  C   UNL A   1      45.879  23.062  24.245  1.00  0.00     0.041 A 
ATOM     69  F   UNL A   1      45.150  24.988  25.232  1.00  0.00    -0.206 F 
ATOM     70  C   UNL A   1      45.910  21.686  24.127  1.00  0.00     0.022 A 
BRANCH  67  71
ATOM     71  S   UNL A   1      45.101  19.134  24.862  1.00  0.00     0.124 S 
ATOM     72  O   UNL A   1      44.006  18.781  25.760  1.00  0.00    -0.237 OA
ATOM     73  O   UNL A   1      44.909  18.809  23.452  1.00  0.00    -0.237 OA
ATOM     74  O   UNL A   1      46.443  18.890  25.382  1.00  0.00    -0.744 OA
ENDBRANCH  67  71
ENDBRANCH  50  64
BRANCH  51  75
ATOM     75  C   UNL A   1      47.025  30.784  27.687  1.00  0.00     0.023 A 
ATOM     76  C   UNL A   1      46.364  31.858  27.042  1.00  0.00     0.031 A 
ATOM     77  C   UNL A   1      48.427  30.914  27.832  1.00  0.00     0.131 A 
ATOM     78  C   UNL A   1      47.101  32.982  26.576  1.00  0.00     0.055 A 
ATOM     79  C   UNL A   1      49.144  32.022  27.374  1.00  0.00     0.041 A 
ATOM     80  F   UNL A   1      49.144  30.001  28.504  1.00  0.00    -0.206 F 
ATOM     81  C   UNL A   1      48.482  33.065  26.752  1.00  0.00     0.022 A 
BRANCH  78  82
ATOM     82  S   UNL A   1      46.266  34.404  25.787  1.00  0.00     0.124 S 
ATOM     83  O   UNL A   1      47.338  34.995  24.994  1.00  0.00    -0.237 OA
ATOM     84  O   UNL A   1      45.185  33.765  25.046  1.00  0.00    -0.237 OA
ATOM     85  O   UNL A   1      45.828  35.218  26.922  1.00  0.00    -0.744 OA
ENDBRANCH  78  82
ENDBRANCH  51  75
BRANCH  63  86
ATOM     86  C   UNL A   1      45.764  26.064  31.746  1.00  0.00     0.023 A 
ATOM     87  C   UNL A   1      44.646  26.643  32.393  1.00  0.00     0.031 A 
ATOM     88  C   UNL A   1      46.894  25.779  32.534  1.00  0.00     0.131 A 
ATOM     89  C   UNL A   1      44.698  26.923  33.776  1.00  0.00     0.055 A 
ATOM     90  C   UNL A   1      46.932  26.035  33.903  1.00  0.00     0.041 A 
ATOM     91  F   UNL A   1      47.979  25.208  31.984  1.00  0.00    -0.206 F 
ATOM     92  C   UNL A   1      45.836  26.613  34.529  1.00  0.00     0.022 A 
BRANCH  89  93
ATOM     93  S   UNL A   1      43.297  27.722  34.630  1.00  0.00     0.124 S 
ATOM     94  O   UNL A   1      43.437  29.129  34.271  1.00  0.00    -0.237 OA
ATOM     95  O   UNL A   1      42.143  27.030  34.063  1.00  0.00    -0.237 OA
ATOM     96  O   UNL A   1      43.547  27.428  36.043  1.00  0.00    -0.744 OA
ENDBRANCH  89  93
ENDBRANCH  63  86
ENDBRANCH  37  38
ENDBRANCH  30  32
ENDBRANCH  29  30
ENDBRANCH   1  29
TORSDOF 16
ENDMDL
MODEL 3
REMARK VINA RESULT:     -13.2      3.442      7.933
REMARK SMILES CC(=O)Nc1ccc(/C=C2/CCc3oc(C(=O)OCCOC(=O)c4ccc(-c5c6nc(c(-c7cc(S(=O)(=O)[O-])ccc7F)c7ccc([nH]7)c(-c7cc(S(=O)(=O)[O-])ccc7F)c7nc(c(-c8cc(S(=O)(=O)[O-])ccc8F)c8ccc5[nH]8)C=C7)C=C6)cc4)c(C)c3C2=O)cc1
REMARK SMILES IDX 20 1 19 2 18 3 16 4 17 5 15 6 9 7 10 8 11 9 90 10 12 11
REMARK SMILES IDX 89 12 91 13 13 14 87 15 14 16 88 17 8 18 5 19 6 20 93 21
REMARK SMILES IDX 7 22 92 23 4 24 1 25 2 26 3 27 21 29 22 30 23 31 24 32 25 33
REMARK SMILES IDX 86 34 26 35 85 36 27 37 28 38 29 39 79 40 30 41 84 42 78 43
REMARK SMILES IDX 80 44 31 45 83 46 77 47 76 48 32 50 64 51 44 52 63 53 45 54
REMARK SMILES IDX 48 55 62 56 81 57 46 58 47 59 61 61 82 62 49 63 33 64 34 65
REMARK SMILES IDX 42 66 35 67 41 68 43 69 40 70 36 71 37 72 38 73 39 74 65 75
REMARK SMILES IDX 66 76 74 77 67 78 73 79 75 80 72 81 68 82 69 83 70 84 71 85
REMARK SMILES IDX 50 86 51 87 59 88 52 89 58 90 60 91 57 92 53 93 54 94 55 95
REMARK SMILES IDX 56 96
REMARK H PARENT 4 28 80 49 48 60
REMARK Flexibility Score: inf
ROOT
ATOM      1  C   UNL A   1      34.109  30.929  27.342  1.00  0.00     0.275 C 
ENDROOT
BRANCH   1   2
ATOM      2  C   UNL A   1      33.486  29.559  27.587  1.00  0.00     0.275 C 
BRANCH   2   3
ATOM      3  O   UNL A   1      32.279  29.372  26.832  1.00  0.00    -0.456 OA
BRANCH   3   4
ATOM      4  C   UNL A   1      31.635  28.178  26.993  1.00  0.00     0.374 C 
ATOM      5  O   UNL A   1      31.031  27.849  28.014  1.00  0.00    -0.242 OA
BRANCH   4   6
ATOM      6  C   UNL A   1      31.719  27.392  25.780  1.00  0.00     0.215 A 
ATOM      7  C   UNL A   1      33.209  23.503  22.133  1.00  0.00     0.016 C 
ATOM      8  C   UNL A   1      32.514  24.653  22.252  1.00  0.00     0.001 C 
ATOM      9  C   UNL A   1      32.922  25.951  21.563  1.00  0.00     0.048 C 
ATOM     10  C   UNL A   1      31.333  24.835  23.163  1.00  0.00     0.192 C 
ATOM     11  C   UNL A   1      33.318  27.049  22.579  1.00  0.00     0.081 C 
ATOM     12  C   UNL A   1      31.574  25.923  24.085  1.00  0.00     0.067 A 
ATOM     13  O   UNL A   1      30.322  24.150  23.125  1.00  0.00    -0.289 OA
ATOM     14  C   UNL A   1      32.470  26.918  23.784  1.00  0.00     0.116 A 
ATOM     15  C   UNL A   1      31.076  26.216  25.386  1.00  0.00     0.014 A 
ATOM     16  O   UNL A   1      32.572  27.814  24.784  1.00  0.00    -0.453 OA
ATOM     17  C   UNL A   1      30.091  25.395  26.140  1.00  0.00     0.049 C 
BRANCH   7  18
ATOM     18  C   UNL A   1      33.087  22.196  22.824  1.00  0.00    -0.025 A 
ATOM     19  C   UNL A   1      32.889  19.794  24.333  1.00  0.00     0.041 A 
ATOM     20  C   UNL A   1      32.094  19.995  23.212  1.00  0.00     0.027 A 
ATOM     21  C   UNL A   1      33.817  20.771  24.682  1.00  0.00     0.027 A 
ATOM     22  C   UNL A   1      32.162  21.198  22.502  1.00  0.00     0.010 A 
ATOM     23  C   UNL A   1      33.922  21.952  23.927  1.00  0.00     0.010 A 
BRANCH  19  24
ATOM     24  N   UNL A   1      32.725  18.583  25.020  1.00  0.00    -0.326 N 
ATOM     25  C   UNL A   1      34.032  17.110  23.516  1.00  0.00     0.114 C 
ATOM     26  C   UNL A   1      33.093  17.316  24.674  1.00  0.00     0.221 C 
ATOM     27  O   UNL A   1      32.724  16.365  25.364  1.00  0.00    -0.275 OA
ATOM     28  H   UNL A   1      32.271  18.660  25.891  1.00  0.00     0.169 HD
ENDBRANCH  19  24
ENDBRANCH   7  18
ENDBRANCH   4   6
ENDBRANCH   3   4
ENDBRANCH   2   3
ENDBRANCH   1   2
BRANCH   1  29
ATOM     29  O   UNL A   1      35.526  30.838  27.214  1.00  0.00    -0.458 OA
BRANCH  29  30
ATOM     30  C   UNL A   1      36.225  31.606  28.082  1.00  0.00     0.338 C 
ATOM     31  O   UNL A   1      36.227  32.823  28.141  1.00  0.00    -0.246 OA
BRANCH  30  32
ATOM     32  C   UNL A   1      37.161  30.763  28.828  1.00  0.00     0.060 A 
ATOM     33  C   UNL A   1      38.325  31.377  29.297  1.00  0.00     0.016 A 
ATOM     34  C   UNL A   1      37.020  29.369  28.788  1.00  0.00     0.016 A 
ATOM     35  C   UNL A   1      39.429  30.588  29.536  1.00  0.00     0.010 A 
ATOM     36  C   UNL A   1      38.126  28.587  29.008  1.00  0.00     0.010 A 
ATOM     37  C   UNL A   1      39.335  29.212  29.299  1.00  0.00    -0.014 A 
BRANCH  37  38
ATOM     38  C   UNL A   1      40.503  28.391  29.539  1.00  0.00     0.031 A 
ATOM     39  C   UNL A   1      40.820  28.319  30.984  1.00  0.00     0.074 A 
ATOM     40  C   UNL A   1      41.115  27.694  28.561  1.00  0.00     0.049 A 
ATOM     41  N   UNL A   1      41.821  28.858  31.593  1.00  0.00    -0.248 NA
ATOM     42  C   UNL A   1      39.776  27.809  31.894  1.00  0.00     0.031 C 
ATOM     43  C   UNL A   1      40.709  27.541  27.162  1.00  0.00     0.029 A 
ATOM     44  N   UNL A   1      42.204  26.885  28.641  1.00  0.00    -0.354 N 
ATOM     45  C   UNL A   1      41.669  28.504  32.929  1.00  0.00     0.074 A 
ATOM     46  C   UNL A   1      40.298  28.111  33.083  1.00  0.00     0.031 C 
ATOM     47  C   UNL A   1      41.395  26.514  26.605  1.00  0.00     0.029 A 
ATOM     48  C   UNL A   1      42.371  26.017  27.562  1.00  0.00     0.049 A 
ATOM     49  H   UNL A   1      42.828  26.910  29.402  1.00  0.00     0.167 HD
ATOM     50  C   UNL A   1      42.760  28.260  33.704  1.00  0.00     0.034 A 
ATOM     51  C   UNL A   1      43.198  24.933  27.510  1.00  0.00     0.034 A 
ATOM     52  C   UNL A   1      43.942  28.862  33.123  1.00  0.00     0.049 A 
ATOM     53  C   UNL A   1      44.228  25.140  28.564  1.00  0.00     0.074 A 
ATOM     54  C   UNL A   1      44.286  30.152  32.766  1.00  0.00     0.029 A 
ATOM     55  N   UNL A   1      44.815  28.043  32.438  1.00  0.00    -0.354 N 
ATOM     56  N   UNL A   1      45.106  26.107  28.514  1.00  0.00    -0.248 NA
ATOM     57  C   UNL A   1      43.938  24.641  29.903  1.00  0.00     0.031 C 
ATOM     58  C   UNL A   1      44.979  30.018  31.527  1.00  0.00     0.029 A 
ATOM     59  C   UNL A   1      45.116  28.657  31.245  1.00  0.00     0.049 A 
ATOM     60  H   UNL A   1      45.161  27.175  32.748  1.00  0.00     0.167 HD
ATOM     61  C   UNL A   1      45.144  26.628  29.799  1.00  0.00     0.074 A 
ATOM     62  C   UNL A   1      44.457  25.637  30.629  1.00  0.00     0.031 C 
ATOM     63  C   UNL A   1      45.451  27.942  30.026  1.00  0.00     0.034 A 
BRANCH  50  64
ATOM     64  C   UNL A   1      42.831  27.138  34.718  1.00  0.00     0.023 A 
ATOM     65  C   UNL A   1      43.620  26.028  34.373  1.00  0.00     0.031 A 
ATOM     66  C   UNL A   1      41.964  26.952  35.824  1.00  0.00     0.131 A 
ATOM     67  C   UNL A   1      43.440  24.788  35.009  1.00  0.00     0.055 A 
ATOM     68  C   UNL A   1      41.837  25.735  36.496  1.00  0.00     0.041 A 
ATOM     69  F   UNL A   1      41.126  27.892  36.269  1.00  0.00    -0.206 F 
ATOM     70  C   UNL A   1      42.549  24.632  36.067  1.00  0.00     0.022 A 
BRANCH  67  71
ATOM     71  S   UNL A   1      44.254  23.340  34.296  1.00  0.00     0.124 S 
ATOM     72  O   UNL A   1      45.577  23.873  33.989  1.00  0.00    -0.237 OA
ATOM     73  O   UNL A   1      44.183  22.386  35.398  1.00  0.00    -0.237 OA
ATOM     74  O   UNL A   1      43.422  23.021  33.139  1.00  0.00    -0.744 OA
ENDBRANCH  67  71
ENDBRANCH  50  64
BRANCH  51  75
ATOM     75  C   UNL A   1      42.898  23.594  26.902  1.00  0.00     0.023 A 
ATOM     76  C   UNL A   1      43.837  22.838  26.157  1.00  0.00     0.031 A 
ATOM     77  C   UNL A   1      41.710  22.921  27.270  1.00  0.00     0.131 A 
ATOM     78  C   UNL A   1      43.562  21.486  25.813  1.00  0.00     0.055 A 
ATOM     79  C   UNL A   1      41.447  21.591  26.931  1.00  0.00     0.041 A 
ATOM     80  F   UNL A   1      40.791  23.509  28.052  1.00  0.00    -0.206 F 
ATOM     81  C   UNL A   1      42.376  20.865  26.208  1.00  0.00     0.022 A 
BRANCH  78  82
ATOM     82  S   UNL A   1      44.776  20.473  24.896  1.00  0.00     0.124 S 
ATOM     83  O   UNL A   1      44.603  20.942  23.526  1.00  0.00    -0.237 OA
ATOM     84  O   UNL A   1      46.033  20.819  25.548  1.00  0.00    -0.237 OA
ATOM     85  O   UNL A   1      44.326  19.101  25.133  1.00  0.00    -0.744 OA
ENDBRANCH  78  82
ENDBRANCH  51  75
BRANCH  63  86
ATOM     86  C   UNL A   1      46.015  28.764  28.880  1.00  0.00     0.023 A 
ATOM     87  C   UNL A   1      47.368  28.774  28.463  1.00  0.00     0.031 A 
ATOM     88  C   UNL A   1      45.089  29.479  28.100  1.00  0.00     0.131 A 
ATOM     89  C   UNL A   1      47.744  29.494  27.308  1.00  0.00     0.055 A 
ATOM     90  C   UNL A   1      45.461  30.168  26.947  1.00  0.00     0.041 A 
ATOM     91  F   UNL A   1      43.788  29.489  28.429  1.00  0.00    -0.206 F 
ATOM     92  C   UNL A   1      46.791  30.183  26.549  1.00  0.00     0.022 A 
BRANCH  89  93
ATOM     93  S   UNL A   1      49.487  29.576  26.774  1.00  0.00     0.124 S 
ATOM     94  O   UNL A   1      49.521  28.734  25.585  1.00  0.00    -0.237 OA
ATOM     95  O   UNL A   1      49.683  31.006  26.550  1.00  0.00    -0.237 OA
ATOM     96  O   UNL A   1      50.220  29.037  27.922  1.00  0.00    -0.744 OA
ENDBRANCH  89  93
ENDBRANCH  63  86
ENDBRANCH  37  38
ENDBRANCH  30  32
ENDBRANCH  29  30
ENDBRANCH   1  29
TORSDOF 16
ENDMDL
