MODEL 1
REMARK VINA RESULT:     -12.6      0.000      0.000
REMARK SMILES Cc1ccnc(C(=O)c2[nH]c3cc(F)ccc3c2CC(=O)OCCOC(=O)c2ccc(-c3c4nc(c(-c5cc(S(=O)(=O)[O-])ccc5F)c5ccc([nH]5)c(-c5cc(S(=O)(=O)[O-])ccc5F)c5nc(c(-c6cc(S(=O)(=O)[O-])ccc6F)c6ccc3[nH]6)C=C5)C=C4)cc2)c1
REMARK SMILES IDX 23 1 22 2 20 3 21 4 19 5 18 6 9 7 10 8 11 9 17 11 12 12
REMARK SMILES IDX 16 13 13 14 15 15 14 16 7 17 8 18 6 19 1 20 2 21 3 22 91 23
REMARK SMILES IDX 4 24 5 25 24 26 25 27 26 28 27 29 28 30 29 31 90 32 30 33
REMARK SMILES IDX 89 34 31 35 32 36 33 37 83 38 34 39 88 40 82 41 84 42 35 43
REMARK SMILES IDX 87 44 81 45 80 46 36 48 68 49 48 50 67 51 49 52 52 53 66 54
REMARK SMILES IDX 85 55 50 56 51 57 65 59 86 60 53 61 37 62 38 63 46 64 39 65
REMARK SMILES IDX 45 66 47 67 44 68 40 69 41 70 42 71 43 72 69 73 70 74 78 75
REMARK SMILES IDX 71 76 77 77 79 78 76 79 72 80 73 81 74 82 75 83 54 84 55 85
REMARK SMILES IDX 63 86 56 87 62 88 64 89 61 90 57 91 58 92 59 93 60 94
REMARK H PARENT 10 10 84 47 52 58
REMARK Flexibility Score: inf
ROOT
ATOM      1  C   UNL A   1      35.721  21.246  25.502  1.00  0.00     0.274 C 
ENDROOT
BRANCH   1   2
ATOM      2  O   UNL A   1      35.471  22.596  25.049  1.00  0.00    -0.462 OA
BRANCH   2   3
ATOM      3  C   UNL A   1      34.864  23.420  25.937  1.00  0.00     0.310 C 
ATOM      4  O   UNL A   1      34.841  23.214  27.150  1.00  0.00    -0.252 OA
BRANCH   3   5
ATOM      5  C   UNL A   1      34.325  24.712  25.363  1.00  0.00     0.161 C 
BRANCH   5   6
ATOM      6  C   UNL A   1      33.204  25.433  26.045  1.00  0.00     0.000 A 
ATOM      7  C   UNL A   1      31.944  24.945  26.393  1.00  0.00     0.093 A 
ATOM      8  N   UNL A   1      31.224  26.003  26.895  1.00  0.00    -0.351 N 
ATOM      9  C   UNL A   1      31.926  27.172  26.795  1.00  0.00     0.049 A 
ATOM     10  H   UNL A   1      30.321  25.928  27.279  1.00  0.00     0.167 HD
ATOM     11  C   UNL A   1      33.196  26.845  26.322  1.00  0.00     0.004 A 
ATOM     12  C   UNL A   1      31.532  28.480  27.088  1.00  0.00     0.066 A 
ATOM     13  C   UNL A   1      34.139  27.886  26.168  1.00  0.00     0.013 A 
ATOM     14  C   UNL A   1      32.481  29.482  26.909  1.00  0.00     0.125 A 
ATOM     15  C   UNL A   1      33.768  29.202  26.470  1.00  0.00     0.040 A 
ATOM     16  F   UNL A   1      32.141  30.752  27.171  1.00  0.00    -0.207 F 
BRANCH   7  17
ATOM     17  C   UNL A   1      31.332  23.622  26.386  1.00  0.00     0.227 C 
ATOM     18  O   UNL A   1      30.509  23.334  27.255  1.00  0.00    -0.285 OA
BRANCH  17  19
ATOM     19  C   UNL A   1      31.479  22.724  25.173  1.00  0.00     0.113 A 
ATOM     20  C   UNL A   1      32.842  19.308  24.203  1.00  0.00     0.044 C 
ATOM     21  C   UNL A   1      32.281  20.699  24.143  1.00  0.00    -0.047 A 
ATOM     22  C   UNL A   1      32.218  21.350  22.910  1.00  0.00     0.023 A 
ATOM     23  C   UNL A   1      31.883  21.393  25.294  1.00  0.00     0.036 A 
ATOM     24  C   UNL A   1      31.765  22.654  22.874  1.00  0.00     0.112 A 
ATOM     25  N   UNL A   1      31.400  23.355  23.968  1.00  0.00    -0.253 NA
ENDBRANCH  17  19
ENDBRANCH   7  17
ENDBRANCH   5   6
ENDBRANCH   3   5
ENDBRANCH   2   3
ENDBRANCH   1   2
BRANCH   1  26
ATOM     26  C   UNL A   1      37.053  20.696  24.965  1.00  0.00     0.275 C 
BRANCH  26  27
ATOM     27  O   UNL A   1      38.122  21.668  24.994  1.00  0.00    -0.458 OA
BRANCH  27  28
ATOM     28  C   UNL A   1      39.046  21.405  25.941  1.00  0.00     0.338 C 
ATOM     29  O   UNL A   1      39.583  20.324  26.144  1.00  0.00    -0.246 OA
BRANCH  28  30
ATOM     30  C   UNL A   1      39.502  22.577  26.681  1.00  0.00     0.060 A 
ATOM     31  C   UNL A   1      39.029  23.813  26.245  1.00  0.00     0.016 A 
ATOM     32  C   UNL A   1      40.582  22.495  27.561  1.00  0.00     0.016 A 
ATOM     33  C   UNL A   1      39.691  24.974  26.612  1.00  0.00     0.010 A 
ATOM     34  C   UNL A   1      41.195  23.675  27.999  1.00  0.00     0.010 A 
ATOM     35  C   UNL A   1      40.772  24.920  27.504  1.00  0.00    -0.014 A 
BRANCH  35  36
ATOM     36  C   UNL A   1      41.391  26.200  27.925  1.00  0.00     0.031 A 
ATOM     37  C   UNL A   1      42.813  26.533  27.579  1.00  0.00     0.074 A 
ATOM     38  C   UNL A   1      40.609  27.105  28.544  1.00  0.00     0.049 A 
ATOM     39  N   UNL A   1      43.478  27.637  27.809  1.00  0.00    -0.248 NA
ATOM     40  C   UNL A   1      43.586  25.501  26.877  1.00  0.00     0.031 C 
ATOM     41  C   UNL A   1      39.200  26.896  28.892  1.00  0.00     0.029 A 
ATOM     42  N   UNL A   1      40.868  28.382  28.962  1.00  0.00    -0.354 N 
ATOM     43  C   UNL A   1      44.741  27.445  27.261  1.00  0.00     0.074 A 
ATOM     44  C   UNL A   1      44.761  26.099  26.723  1.00  0.00     0.031 C 
ATOM     45  C   UNL A   1      38.712  28.018  29.437  1.00  0.00     0.029 A 
ATOM     46  C   UNL A   1      39.785  28.998  29.542  1.00  0.00     0.049 A 
ATOM     47  H   UNL A   1      41.745  28.817  28.858  1.00  0.00     0.167 HD
ATOM     48  C   UNL A   1      45.780  28.314  27.204  1.00  0.00     0.034 A 
ATOM     49  C   UNL A   1      39.674  30.208  30.119  1.00  0.00     0.034 A 
ATOM     50  C   UNL A   1      45.761  29.635  27.784  1.00  0.00     0.049 A 
ATOM     51  C   UNL A   1      40.877  31.106  30.142  1.00  0.00     0.074 A 
ATOM     52  C   UNL A   1      46.771  30.582  27.818  1.00  0.00     0.029 A 
ATOM     53  N   UNL A   1      44.674  30.195  28.446  1.00  0.00    -0.354 N 
ATOM     54  N   UNL A   1      42.069  30.901  29.630  1.00  0.00    -0.248 NA
ATOM     55  C   UNL A   1      40.720  32.396  30.819  1.00  0.00     0.031 C 
ATOM     56  C   UNL A   1      46.316  31.687  28.550  1.00  0.00     0.029 A 
ATOM     57  C   UNL A   1      45.000  31.457  28.921  1.00  0.00     0.049 A 
ATOM     58  H   UNL A   1      43.800  29.759  28.562  1.00  0.00     0.167 HD
ATOM     59  C   UNL A   1      42.805  32.044  29.923  1.00  0.00     0.074 A 
ATOM     60  C   UNL A   1      41.909  32.945  30.621  1.00  0.00     0.031 C 
ATOM     61  C   UNL A   1      44.105  32.324  29.647  1.00  0.00     0.034 A 
BRANCH  48  62
ATOM     62  C   UNL A   1      47.037  27.842  26.519  1.00  0.00     0.023 A 
ATOM     63  C   UNL A   1      47.219  28.013  25.137  1.00  0.00     0.031 A 
ATOM     64  C   UNL A   1      48.055  27.205  27.247  1.00  0.00     0.131 A 
ATOM     65  C   UNL A   1      48.373  27.512  24.516  1.00  0.00     0.055 A 
ATOM     66  C   UNL A   1      49.227  26.758  26.634  1.00  0.00     0.041 A 
ATOM     67  F   UNL A   1      47.922  26.997  28.567  1.00  0.00    -0.206 F 
ATOM     68  C   UNL A   1      49.388  26.902  25.259  1.00  0.00     0.022 A 
BRANCH  65  69
ATOM     69  S   UNL A   1      48.468  27.558  22.706  1.00  0.00     0.124 S 
ATOM     70  O   UNL A   1      48.516  26.135  22.376  1.00  0.00    -0.237 OA
ATOM     71  O   UNL A   1      47.239  28.254  22.345  1.00  0.00    -0.237 OA
ATOM     72  O   UNL A   1      49.705  28.293  22.446  1.00  0.00    -0.744 OA
ENDBRANCH  65  69
ENDBRANCH  48  62
BRANCH  49  73
ATOM     73  C   UNL A   1      38.400  30.608  30.775  1.00  0.00     0.023 A 
ATOM     74  C   UNL A   1      37.419  31.332  30.083  1.00  0.00     0.031 A 
ATOM     75  C   UNL A   1      38.162  30.295  32.127  1.00  0.00     0.131 A 
ATOM     76  C   UNL A   1      36.260  31.752  30.755  1.00  0.00     0.055 A 
ATOM     77  C   UNL A   1      36.986  30.669  32.776  1.00  0.00     0.041 A 
ATOM     78  F   UNL A   1      39.070  29.602  32.833  1.00  0.00    -0.206 F 
ATOM     79  C   UNL A   1      36.033  31.415  32.092  1.00  0.00     0.022 A 
BRANCH  76  80
ATOM     80  S   UNL A   1      35.093  32.829  29.881  1.00  0.00     0.124 S 
ATOM     81  O   UNL A   1      34.527  31.919  28.892  1.00  0.00    -0.237 OA
ATOM     82  O   UNL A   1      34.200  33.241  30.959  1.00  0.00    -0.237 OA
ATOM     83  O   UNL A   1      35.945  33.886  29.341  1.00  0.00    -0.744 OA
ENDBRANCH  76  80
ENDBRANCH  49  73
BRANCH  61  84
ATOM     84  C   UNL A   1      44.605  33.668  30.109  1.00  0.00     0.023 A 
ATOM     85  C   UNL A   1      44.492  34.806  29.291  1.00  0.00     0.031 A 
ATOM     86  C   UNL A   1      45.262  33.799  31.343  1.00  0.00     0.131 A 
ATOM     87  C   UNL A   1      45.095  36.009  29.682  1.00  0.00     0.055 A 
ATOM     88  C   UNL A   1      45.810  35.015  31.754  1.00  0.00     0.041 A 
ATOM     89  F   UNL A   1      45.399  32.743  32.161  1.00  0.00    -0.206 F 
ATOM     90  C   UNL A   1      45.744  36.123  30.915  1.00  0.00     0.022 A 
BRANCH  87  91
ATOM     91  S   UNL A   1      45.126  37.387  28.503  1.00  0.00     0.124 S 
ATOM     92  O   UNL A   1      44.315  36.869  27.406  1.00  0.00    -0.237 OA
ATOM     93  O   UNL A   1      44.532  38.472  29.279  1.00  0.00    -0.237 OA
ATOM     94  O   UNL A   1      46.547  37.547  28.201  1.00  0.00    -0.744 OA
ENDBRANCH  87  91
ENDBRANCH  61  84
ENDBRANCH  35  36
ENDBRANCH  28  30
ENDBRANCH  27  28
ENDBRANCH  26  27
ENDBRANCH   1  26
TORSDOF 17
ENDMDL
MODEL 2
REMARK VINA RESULT:     -12.5      0.904      7.430
REMARK SMILES Cc1ccnc(C(=O)c2[nH]c3cc(F)ccc3c2CC(=O)OCCOC(=O)c2ccc(-c3c4nc(c(-c5cc(S(=O)(=O)[O-])ccc5F)c5ccc([nH]5)c(-c5cc(S(=O)(=O)[O-])ccc5F)c5nc(c(-c6cc(S(=O)(=O)[O-])ccc6F)c6ccc3[nH]6)C=C5)C=C4)cc2)c1
REMARK SMILES IDX 23 1 22 2 20 3 21 4 19 5 18 6 9 7 10 8 11 9 17 11 12 12
REMARK SMILES IDX 16 13 13 14 15 15 14 16 7 17 8 18 6 19 1 20 2 21 3 22 91 23
REMARK SMILES IDX 4 24 5 25 24 26 25 27 26 28 27 29 28 30 29 31 90 32 30 33
REMARK SMILES IDX 89 34 31 35 32 36 33 37 83 38 34 39 88 40 82 41 84 42 35 43
REMARK SMILES IDX 87 44 81 45 80 46 36 48 68 49 48 50 67 51 49 52 52 53 66 54
REMARK SMILES IDX 85 55 50 56 51 57 65 59 86 60 53 61 37 62 38 63 46 64 39 65
REMARK SMILES IDX 45 66 47 67 44 68 40 69 41 70 42 71 43 72 69 73 70 74 78 75
REMARK SMILES IDX 71 76 77 77 79 78 76 79 72 80 73 81 74 82 75 83 54 84 55 85
REMARK SMILES IDX 63 86 56 87 62 88 64 89 61 90 57 91 58 92 59 93 60 94
REMARK H PARENT 10 10 84 47 52 58
REMARK Flexibility Score: inf
ROOT
ATOM      1  C   UNL A   1      35.532  21.961  25.568  1.00  0.00     0.274 C 
ENDROOT
BRANCH   1   2
ATOM      2  O   UNL A   1      35.115  22.539  24.310  1.00  0.00    -0.462 OA
BRANCH   2   3
ATOM      3  C   UNL A   1      34.821  23.862  24.329  1.00  0.00     0.310 C 
ATOM      4  O   UNL A   1      34.568  24.517  23.319  1.00  0.00    -0.252 OA
BRANCH   3   5
ATOM      5  C   UNL A   1      34.675  24.476  25.704  1.00  0.00     0.161 C 
BRANCH   5   6
ATOM      6  C   UNL A   1      33.415  25.188  26.084  1.00  0.00     0.000 A 
ATOM      7  C   UNL A   1      32.149  24.648  26.315  1.00  0.00     0.093 A 
ATOM      8  N   UNL A   1      31.291  25.701  26.525  1.00  0.00    -0.351 N 
ATOM      9  C   UNL A   1      31.922  26.899  26.342  1.00  0.00     0.049 A 
ATOM     10  H   UNL A   1      30.343  25.603  26.776  1.00  0.00     0.167 HD
ATOM     11  C   UNL A   1      33.270  26.620  26.124  1.00  0.00     0.004 A 
ATOM     12  C   UNL A   1      31.402  28.196  26.357  1.00  0.00     0.066 A 
ATOM     13  C   UNL A   1      34.157  27.706  25.947  1.00  0.00     0.013 A 
ATOM     14  C   UNL A   1      32.301  29.240  26.162  1.00  0.00     0.125 A 
ATOM     15  C   UNL A   1      33.657  29.014  25.972  1.00  0.00     0.040 A 
ATOM     16  F   UNL A   1      31.841  30.500  26.160  1.00  0.00    -0.207 F 
BRANCH   7  17
ATOM     17  C   UNL A   1      31.633  23.289  26.431  1.00  0.00     0.227 C 
ATOM     18  O   UNL A   1      30.949  22.986  27.409  1.00  0.00    -0.285 OA
BRANCH  17  19
ATOM     19  C   UNL A   1      31.685  22.353  25.240  1.00  0.00     0.113 A 
ATOM     20  C   UNL A   1      33.004  18.921  24.266  1.00  0.00     0.044 C 
ATOM     21  C   UNL A   1      32.422  20.303  24.210  1.00  0.00    -0.047 A 
ATOM     22  C   UNL A   1      32.242  20.911  22.967  1.00  0.00     0.023 A 
ATOM     23  C   UNL A   1      32.117  21.031  25.369  1.00  0.00     0.036 A 
ATOM     24  C   UNL A   1      31.770  22.209  22.928  1.00  0.00     0.112 A 
ATOM     25  N   UNL A   1      31.492  22.942  24.026  1.00  0.00    -0.253 NA
ENDBRANCH  17  19
ENDBRANCH   7  17
ENDBRANCH   5   6
ENDBRANCH   3   5
ENDBRANCH   2   3
ENDBRANCH   1   2
BRANCH   1  26
ATOM     26  C   UNL A   1      36.559  20.833  25.372  1.00  0.00     0.275 C 
BRANCH  26  27
ATOM     27  O   UNL A   1      37.840  21.308  24.900  1.00  0.00    -0.458 OA
BRANCH  27  28
ATOM     28  C   UNL A   1      38.831  21.121  25.795  1.00  0.00     0.338 C 
ATOM     29  O   UNL A   1      39.396  20.063  26.036  1.00  0.00    -0.246 OA
BRANCH  28  30
ATOM     30  C   UNL A   1      39.322  22.347  26.416  1.00  0.00     0.060 A 
ATOM     31  C   UNL A   1      38.801  23.545  25.928  1.00  0.00     0.016 A 
ATOM     32  C   UNL A   1      40.463  22.339  27.218  1.00  0.00     0.016 A 
ATOM     33  C   UNL A   1      39.471  24.735  26.163  1.00  0.00     0.010 A 
ATOM     34  C   UNL A   1      41.089  23.553  27.526  1.00  0.00     0.010 A 
ATOM     35  C   UNL A   1      40.614  24.755  26.976  1.00  0.00    -0.014 A 
BRANCH  35  36
ATOM     36  C   UNL A   1      41.244  26.067  27.259  1.00  0.00     0.031 A 
ATOM     37  C   UNL A   1      40.550  27.107  28.090  1.00  0.00     0.074 A 
ATOM     38  C   UNL A   1      42.507  26.265  26.833  1.00  0.00     0.049 A 
ATOM     39  N   UNL A   1      40.994  28.272  28.489  1.00  0.00    -0.248 NA
ATOM     40  C   UNL A   1      39.187  26.797  28.540  1.00  0.00     0.031 C 
ATOM     41  C   UNL A   1      43.287  25.301  26.051  1.00  0.00     0.029 A 
ATOM     42  N   UNL A   1      43.364  27.316  27.016  1.00  0.00    -0.354 N 
ATOM     43  C   UNL A   1      39.977  28.828  29.256  1.00  0.00     0.074 A 
ATOM     44  C   UNL A   1      38.875  27.886  29.231  1.00  0.00     0.031 C 
ATOM     45  C   UNL A   1      44.518  25.792  25.853  1.00  0.00     0.029 A 
ATOM     46  C   UNL A   1      44.593  27.127  26.430  1.00  0.00     0.049 A 
ATOM     47  H   UNL A   1      43.124  28.128  27.518  1.00  0.00     0.167 HD
ATOM     48  C   UNL A   1      39.970  30.007  29.925  1.00  0.00     0.034 A 
ATOM     49  C   UNL A   1      45.654  27.949  26.343  1.00  0.00     0.034 A 
ATOM     50  C   UNL A   1      41.058  30.955  29.903  1.00  0.00     0.049 A 
ATOM     51  C   UNL A   1      45.574  29.298  26.999  1.00  0.00     0.074 A 
ATOM     52  C   UNL A   1      41.139  32.196  30.512  1.00  0.00     0.029 A 
ATOM     53  N   UNL A   1      42.256  30.772  29.223  1.00  0.00    -0.354 N 
ATOM     54  N   UNL A   1      44.596  29.812  27.709  1.00  0.00    -0.248 NA
ATOM     55  C   UNL A   1      46.738  30.175  26.841  1.00  0.00     0.031 C 
ATOM     56  C   UNL A   1      42.358  32.785  30.153  1.00  0.00     0.029 A 
ATOM     57  C   UNL A   1      43.067  31.888  29.369  1.00  0.00     0.049 A 
ATOM     58  H   UNL A   1      42.495  29.966  28.711  1.00  0.00     0.167 HD
ATOM     59  C   UNL A   1      45.033  31.078  28.087  1.00  0.00     0.074 A 
ATOM     60  C   UNL A   1      46.374  31.228  27.557  1.00  0.00     0.031 C 
ATOM     61  C   UNL A   1      44.384  32.033  28.801  1.00  0.00     0.034 A 
BRANCH  48  62
ATOM     62  C   UNL A   1      38.727  30.349  30.705  1.00  0.00     0.023 A 
ATOM     63  C   UNL A   1      37.661  31.042  30.108  1.00  0.00     0.031 A 
ATOM     64  C   UNL A   1      38.608  29.991  32.058  1.00  0.00     0.131 A 
ATOM     65  C   UNL A   1      36.541  31.397  30.874  1.00  0.00     0.055 A 
ATOM     66  C   UNL A   1      37.466  30.297  32.802  1.00  0.00     0.041 A 
ATOM     67  F   UNL A   1      39.606  29.346  32.684  1.00  0.00    -0.206 F 
ATOM     68  C   UNL A   1      36.428  31.013  32.213  1.00  0.00     0.022 A 
BRANCH  65  69
ATOM     69  S   UNL A   1      35.292  32.477  30.125  1.00  0.00     0.124 S 
ATOM     70  O   UNL A   1      34.715  31.600  29.107  1.00  0.00    -0.237 OA
ATOM     71  O   UNL A   1      34.429  32.792  31.257  1.00  0.00    -0.237 OA
ATOM     72  O   UNL A   1      36.075  33.596  29.602  1.00  0.00    -0.744 OA
ENDBRANCH  65  69
ENDBRANCH  48  62
BRANCH  49  73
ATOM     73  C   UNL A   1      46.850  27.544  25.556  1.00  0.00     0.023 A 
ATOM     74  C   UNL A   1      47.001  27.917  24.213  1.00  0.00     0.031 A 
ATOM     75  C   UNL A   1      47.850  26.741  26.137  1.00  0.00     0.131 A 
ATOM     76  C   UNL A   1      48.108  27.457  23.483  1.00  0.00     0.055 A 
ATOM     77  C   UNL A   1      48.974  26.330  25.422  1.00  0.00     0.041 A 
ATOM     78  F   UNL A   1      47.752  26.358  27.420  1.00  0.00    -0.206 F 
ATOM     79  C   UNL A   1      49.100  26.677  24.082  1.00  0.00     0.022 A 
BRANCH  76  80
ATOM     80  S   UNL A   1      48.186  27.817  21.708  1.00  0.00     0.124 S 
ATOM     81  O   UNL A   1      48.622  26.537  21.161  1.00  0.00    -0.237 OA
ATOM     82  O   UNL A   1      46.809  28.203  21.418  1.00  0.00    -0.237 OA
ATOM     83  O   UNL A   1      49.166  28.897  21.623  1.00  0.00    -0.744 OA
ENDBRANCH  76  80
ENDBRANCH  49  73
BRANCH  61  84
ATOM     84  C   UNL A   1      45.145  33.312  29.039  1.00  0.00     0.023 A 
ATOM     85  C   UNL A   1      44.958  34.433  28.210  1.00  0.00     0.031 A 
ATOM     86  C   UNL A   1      46.114  33.389  30.053  1.00  0.00     0.131 A 
ATOM     87  C   UNL A   1      45.781  35.557  28.361  1.00  0.00     0.055 A 
ATOM     88  C   UNL A   1      46.891  34.533  30.236  1.00  0.00     0.041 A 
ATOM     89  F   UNL A   1      46.333  32.346  30.870  1.00  0.00    -0.206 F 
ATOM     90  C   UNL A   1      46.740  35.618  29.376  1.00  0.00     0.022 A 
BRANCH  87  91
ATOM     91  S   UNL A   1      45.667  36.887  27.133  1.00  0.00     0.124 S 
ATOM     92  O   UNL A   1      46.559  36.409  26.082  1.00  0.00    -0.237 OA
ATOM     93  O   UNL A   1      44.243  36.888  26.810  1.00  0.00    -0.237 OA
ATOM     94  O   UNL A   1      46.139  38.065  27.859  1.00  0.00    -0.744 OA
ENDBRANCH  87  91
ENDBRANCH  61  84
ENDBRANCH  35  36
ENDBRANCH  28  30
ENDBRANCH  27  28
ENDBRANCH  26  27
ENDBRANCH   1  26
TORSDOF 17
ENDMDL
MODEL 3
REMARK VINA RESULT:     -12.1      1.302      7.536
REMARK SMILES Cc1ccnc(C(=O)c2[nH]c3cc(F)ccc3c2CC(=O)OCCOC(=O)c2ccc(-c3c4nc(c(-c5cc(S(=O)(=O)[O-])ccc5F)c5ccc([nH]5)c(-c5cc(S(=O)(=O)[O-])ccc5F)c5nc(c(-c6cc(S(=O)(=O)[O-])ccc6F)c6ccc3[nH]6)C=C5)C=C4)cc2)c1
REMARK SMILES IDX 23 1 22 2 20 3 21 4 19 5 18 6 9 7 10 8 11 9 17 11 12 12
REMARK SMILES IDX 16 13 13 14 15 15 14 16 7 17 8 18 6 19 1 20 2 21 3 22 91 23
REMARK SMILES IDX 4 24 5 25 24 26 25 27 26 28 27 29 28 30 29 31 90 32 30 33
REMARK SMILES IDX 89 34 31 35 32 36 33 37 83 38 34 39 88 40 82 41 84 42 35 43
REMARK SMILES IDX 87 44 81 45 80 46 36 48 68 49 48 50 67 51 49 52 52 53 66 54
REMARK SMILES IDX 85 55 50 56 51 57 65 59 86 60 53 61 37 62 38 63 46 64 39 65
REMARK SMILES IDX 45 66 47 67 44 68 40 69 41 70 42 71 43 72 69 73 70 74 78 75
REMARK SMILES IDX 71 76 77 77 79 78 76 79 72 80 73 81 74 82 75 83 54 84 55 85
REMARK SMILES IDX 63 86 56 87 62 88 64 89 61 90 57 91 58 92 59 93 60 94
REMARK H PARENT 10 10 84 47 52 58
REMARK Flexibility Score: inf
ROOT
ATOM      1  C   UNL A   1      35.919  21.353  25.682  1.00  0.00     0.274 C 
ENDROOT
BRANCH   1   2
ATOM      2  O   UNL A   1      35.930  22.796  25.773  1.00  0.00    -0.462 OA
BRANCH   2   3
ATOM      3  C   UNL A   1      34.835  23.368  26.331  1.00  0.00     0.310 C 
ATOM      4  O   UNL A   1      34.399  23.061  27.439  1.00  0.00    -0.252 OA
BRANCH   3   5
ATOM      5  C   UNL A   1      34.246  24.531  25.564  1.00  0.00     0.161 C 
BRANCH   5   6
ATOM      6  C   UNL A   1      33.122  25.330  26.147  1.00  0.00     0.000 A 
ATOM      7  C   UNL A   1      31.813  24.923  26.408  1.00  0.00     0.093 A 
ATOM      8  N   UNL A   1      31.122  26.030  26.837  1.00  0.00    -0.351 N 
ATOM      9  C   UNL A   1      31.897  27.154  26.770  1.00  0.00     0.049 A 
ATOM     10  H   UNL A   1      30.189  26.015  27.152  1.00  0.00     0.167 HD
ATOM     11  C   UNL A   1      33.176  26.745  26.400  1.00  0.00     0.004 A 
ATOM     12  C   UNL A   1      31.559  28.489  27.011  1.00  0.00     0.066 A 
ATOM     13  C   UNL A   1      34.188  27.727  26.300  1.00  0.00     0.013 A 
ATOM     14  C   UNL A   1      32.576  29.431  26.887  1.00  0.00     0.125 A 
ATOM     15  C   UNL A   1      33.874  29.068  26.551  1.00  0.00     0.040 A 
ATOM     16  F   UNL A   1      32.293  30.723  27.101  1.00  0.00    -0.207 F 
BRANCH   7  17
ATOM     17  C   UNL A   1      31.127  23.637  26.377  1.00  0.00     0.227 C 
ATOM     18  O   UNL A   1      30.189  23.436  27.149  1.00  0.00    -0.285 OA
BRANCH  17  19
ATOM     19  C   UNL A   1      31.362  22.678  25.226  1.00  0.00     0.113 A 
ATOM     20  C   UNL A   1      32.971  19.309  24.502  1.00  0.00     0.044 C 
ATOM     21  C   UNL A   1      32.322  20.652  24.343  1.00  0.00    -0.047 A 
ATOM     22  C   UNL A   1      32.247  21.220  23.070  1.00  0.00     0.023 A 
ATOM     23  C   UNL A   1      31.851  21.387  25.440  1.00  0.00     0.036 A 
ATOM     24  C   UNL A   1      31.709  22.486  22.942  1.00  0.00     0.112 A 
ATOM     25  N   UNL A   1      31.271  23.227  23.982  1.00  0.00    -0.253 NA
ENDBRANCH  17  19
ENDBRANCH   7  17
ENDBRANCH   5   6
ENDBRANCH   3   5
ENDBRANCH   2   3
ENDBRANCH   1   2
BRANCH   1  26
ATOM     26  C   UNL A   1      37.207  20.806  25.045  1.00  0.00     0.275 C 
BRANCH  26  27
ATOM     27  O   UNL A   1      38.303  21.747  25.081  1.00  0.00    -0.458 OA
BRANCH  27  28
ATOM     28  C   UNL A   1      39.114  21.567  26.144  1.00  0.00     0.338 C 
ATOM     29  O   UNL A   1      39.582  20.502  26.522  1.00  0.00    -0.246 OA
BRANCH  28  30
ATOM     30  C   UNL A   1      39.542  22.803  26.792  1.00  0.00     0.060 A 
ATOM     31  C   UNL A   1      39.071  23.993  26.239  1.00  0.00     0.016 A 
ATOM     32  C   UNL A   1      40.599  22.808  27.703  1.00  0.00     0.016 A 
ATOM     33  C   UNL A   1      39.715  25.187  26.521  1.00  0.00     0.010 A 
ATOM     34  C   UNL A   1      41.191  24.027  28.053  1.00  0.00     0.010 A 
ATOM     35  C   UNL A   1      40.772  25.220  27.442  1.00  0.00    -0.014 A 
BRANCH  35  36
ATOM     36  C   UNL A   1      41.372  26.537  27.767  1.00  0.00     0.031 A 
ATOM     37  C   UNL A   1      40.603  27.584  28.520  1.00  0.00     0.074 A 
ATOM     38  C   UNL A   1      42.667  26.734  27.455  1.00  0.00     0.049 A 
ATOM     39  N   UNL A   1      41.007  28.754  28.944  1.00  0.00    -0.248 NA
ATOM     40  C   UNL A   1      39.205  27.275  28.847  1.00  0.00     0.031 C 
ATOM     41  C   UNL A   1      43.517  25.764  26.757  1.00  0.00     0.029 A 
ATOM     42  N   UNL A   1      43.502  27.789  27.704  1.00  0.00    -0.354 N 
ATOM     43  C   UNL A   1      39.923  29.315  29.610  1.00  0.00     0.074 A 
ATOM     44  C   UNL A   1      38.830  28.371  29.495  1.00  0.00     0.031 C 
ATOM     45  C   UNL A   1      44.760  26.256  26.667  1.00  0.00     0.029 A 
ATOM     46  C   UNL A   1      44.780  27.598  27.234  1.00  0.00     0.049 A 
ATOM     47  H   UNL A   1      43.216  28.606  28.172  1.00  0.00     0.167 HD
ATOM     48  C   UNL A   1      39.853  30.502  30.262  1.00  0.00     0.034 A 
ATOM     49  C   UNL A   1      45.843  28.422  27.235  1.00  0.00     0.034 A 
ATOM     50  C   UNL A   1      40.937  31.453  30.329  1.00  0.00     0.049 A 
ATOM     51  C   UNL A   1      45.700  29.778  27.866  1.00  0.00     0.074 A 
ATOM     52  C   UNL A   1      40.959  32.700  30.929  1.00  0.00     0.029 A 
ATOM     53  N   UNL A   1      42.192  31.266  29.762  1.00  0.00    -0.354 N 
ATOM     54  N   UNL A   1      44.662  30.297  28.479  1.00  0.00    -0.248 NA
ATOM     55  C   UNL A   1      46.872  30.656  27.805  1.00  0.00     0.031 C 
ATOM     56  C   UNL A   1      42.205  33.289  30.676  1.00  0.00     0.029 A 
ATOM     57  C   UNL A   1      42.983  32.386  29.970  1.00  0.00     0.049 A 
ATOM     58  H   UNL A   1      42.478  30.456  29.283  1.00  0.00     0.167 HD
ATOM     59  C   UNL A   1      45.060  31.567  28.881  1.00  0.00     0.074 A 
ATOM     60  C   UNL A   1      46.443  31.716  28.472  1.00  0.00     0.031 C 
ATOM     61  C   UNL A   1      44.347  32.528  29.523  1.00  0.00     0.034 A 
BRANCH  48  62
ATOM     62  C   UNL A   1      38.543  30.848  30.923  1.00  0.00     0.023 A 
ATOM     63  C   UNL A   1      37.515  31.484  30.209  1.00  0.00     0.031 A 
ATOM     64  C   UNL A   1      38.323  30.552  32.278  1.00  0.00     0.131 A 
ATOM     65  C   UNL A   1      36.329  31.847  30.864  1.00  0.00     0.055 A 
ATOM     66  C   UNL A   1      37.118  30.864  32.912  1.00  0.00     0.041 A 
ATOM     67  F   UNL A   1      39.280  29.963  33.013  1.00  0.00    -0.206 F 
ATOM     68  C   UNL A   1      36.115  31.524  32.207  1.00  0.00     0.022 A 
BRANCH  65  69
ATOM     69  S   UNL A   1      35.122  32.858  29.965  1.00  0.00     0.124 S 
ATOM     70  O   UNL A   1      34.627  31.911  28.967  1.00  0.00    -0.237 OA
ATOM     71  O   UNL A   1      34.179  33.229  31.013  1.00  0.00    -0.237 OA
ATOM     72  O   UNL A   1      35.925  33.955  29.428  1.00  0.00    -0.744 OA
ENDBRANCH  65  69
ENDBRANCH  48  62
BRANCH  49  73
ATOM     73  C   UNL A   1      47.106  28.012  26.564  1.00  0.00     0.023 A 
ATOM     74  C   UNL A   1      47.245  28.071  25.170  1.00  0.00     0.031 A 
ATOM     75  C   UNL A   1      48.189  27.519  27.317  1.00  0.00     0.131 A 
ATOM     76  C   UNL A   1      48.426  27.610  24.568  1.00  0.00     0.055 A 
ATOM     77  C   UNL A   1      49.379  27.111  26.718  1.00  0.00     0.041 A 
ATOM     78  F   UNL A   1      48.106  27.444  28.655  1.00  0.00    -0.206 F 
ATOM     79  C   UNL A   1      49.497  27.142  25.334  1.00  0.00     0.022 A 
BRANCH  76  80
ATOM     80  S   UNL A   1      48.508  27.542  22.758  1.00  0.00     0.124 S 
ATOM     81  O   UNL A   1      47.308  28.276  22.375  1.00  0.00    -0.237 OA
ATOM     82  O   UNL A   1      49.780  28.205  22.490  1.00  0.00    -0.237 OA
ATOM     83  O   UNL A   1      48.481  26.110  22.471  1.00  0.00    -0.744 OA
ENDBRANCH  76  80
ENDBRANCH  49  73
BRANCH  61  84
ATOM     84  C   UNL A   1      45.080  33.812  29.814  1.00  0.00     0.023 A 
ATOM     85  C   UNL A   1      45.819  33.974  30.999  1.00  0.00     0.031 A 
ATOM     86  C   UNL A   1      44.982  34.905  28.937  1.00  0.00     0.131 A 
ATOM     87  C   UNL A   1      46.368  35.225  31.313  1.00  0.00     0.055 A 
ATOM     88  C   UNL A   1      45.580  36.132  29.228  1.00  0.00     0.041 A 
ATOM     89  F   UNL A   1      44.286  34.804  27.793  1.00  0.00    -0.206 F 
ATOM     90  C   UNL A   1      46.263  36.302  30.429  1.00  0.00     0.022 A 
BRANCH  87  91
ATOM     91  S   UNL A   1      47.115  35.458  32.950  1.00  0.00     0.124 S 
ATOM     92  O   UNL A   1      46.590  34.315  33.690  1.00  0.00    -0.237 OA
ATOM     93  O   UNL A   1      48.543  35.420  32.646  1.00  0.00    -0.237 OA
ATOM     94  O   UNL A   1      46.607  36.760  33.376  1.00  0.00    -0.744 OA
ENDBRANCH  87  91
ENDBRANCH  61  84
ENDBRANCH  35  36
ENDBRANCH  28  30
ENDBRANCH  27  28
ENDBRANCH  26  27
ENDBRANCH   1  26
TORSDOF 17
ENDMDL
