MODEL 1
REMARK VINA RESULT:     -12.3      0.000      0.000
REMARK SMILES Cc1c(CC(=O)N[C@H](CO)C(=O)OCCOC(=O)c2ccc(-c3c4nc(c(-c5cc(S(=O)(=O)[O-])ccc5F)c5ccc([nH]5)c(-c5cc(S(=O)(=O)[O-])ccc5F)c5nc(c(-c6cc(S(=O)(=O)[O-])ccc6F)c6ccc3[nH]6)C=C5)C=C4)cc2)cc(-c2ccc(S(C)(=O)=O)cc2)n1-c1ccc(F)cc1
REMARK SMILES IDX 14 1 13 2 11 3 12 4 8 5 7 6 5 7 6 8 4 10 3 11 1 12 2 13
REMARK SMILES IDX 94 14 82 15 83 16 95 17 96 18 101 19 97 20 100 21 98 22
REMARK SMILES IDX 99 23 84 24 85 25 93 26 86 27 92 28 87 29 88 30 89 31 90 32
REMARK SMILES IDX 91 33 9 34 10 35 15 37 16 38 17 39 18 40 19 41 20 42 81 43
REMARK SMILES IDX 21 44 80 45 22 46 23 47 24 48 74 49 25 50 79 51 73 52 75 53
REMARK SMILES IDX 26 54 78 55 72 56 71 57 27 59 59 60 39 61 58 62 40 63 43 64
REMARK SMILES IDX 57 65 76 66 41 67 42 68 56 70 77 71 44 72 28 73 29 74 37 75
REMARK SMILES IDX 30 76 36 77 38 78 35 79 31 80 32 81 33 82 34 83 60 84 61 85
REMARK SMILES IDX 69 86 62 87 68 88 70 89 67 90 63 91 64 92 65 93 66 94 45 95
REMARK SMILES IDX 46 96 54 97 47 98 53 99 55 100 52 101 48 102 49 103 50 104
REMARK SMILES IDX 51 105
REMARK H PARENT 7 9 10 36 75 58 43 69
REMARK Flexibility Score: inf
ROOT
ATOM      1  C   UNL A   1      37.385  21.389  24.553  1.00  0.00     0.274 C 
ENDROOT
BRANCH   1   2
ATOM      2  O   UNL A   1      36.060  21.281  25.145  1.00  0.00    -0.460 OA
BRANCH   2   3
ATOM      3  C   UNL A   1      34.970  21.805  24.536  1.00  0.00     0.331 C 
ATOM      4  O   UNL A   1      35.015  22.567  23.575  1.00  0.00    -0.250 OA
BRANCH   3   5
ATOM      5  C   UNL A   1      33.632  21.307  25.156  1.00  0.00     0.218 C 
BRANCH   5   6
ATOM      6  N   UNL A   1      33.550  21.760  26.569  1.00  0.00    -0.341 N 
ATOM      7  C   UNL A   1      32.618  22.514  27.223  1.00  0.00     0.225 C 
ATOM      8  O   UNL A   1      32.777  22.701  28.434  1.00  0.00    -0.275 OA
ATOM      9  H   UNL A   1      34.301  21.465  27.133  1.00  0.00     0.164 HD
BRANCH   7  10
ATOM     10  C   UNL A   1      31.391  23.074  26.512  1.00  0.00     0.137 C 
BRANCH  10  11
ATOM     11  C   UNL A   1      31.582  24.486  26.061  1.00  0.00    -0.017 A 
ATOM     12  C   UNL A   1      30.262  24.439  23.829  1.00  0.00     0.065 C 
ATOM     13  C   UNL A   1      31.032  25.086  24.934  1.00  0.00     0.024 A 
ATOM     14  N   UNL A   1      31.425  26.419  24.917  1.00  0.00    -0.314 N 
ATOM     15  C   UNL A   1      32.396  25.462  26.694  1.00  0.00     0.033 A 
ATOM     16  C   UNL A   1      32.238  26.659  26.023  1.00  0.00     0.053 A 
BRANCH  14  17
ATOM     17  C   UNL A   1      31.085  27.379  23.926  1.00  0.00     0.046 A 
ATOM     18  C   UNL A   1      32.104  28.005  23.194  1.00  0.00     0.029 A 
ATOM     19  C   UNL A   1      29.749  27.768  23.760  1.00  0.00     0.029 A 
ATOM     20  C   UNL A   1      31.783  29.009  22.282  1.00  0.00     0.041 A 
ATOM     21  C   UNL A   1      29.437  28.775  22.847  1.00  0.00     0.041 A 
ATOM     22  C   UNL A   1      30.454  29.383  22.115  1.00  0.00     0.123 A 
ATOM     23  F   UNL A   1      30.147  30.352  21.244  1.00  0.00    -0.207 F 
ENDBRANCH  14  17
BRANCH  16  24
ATOM     24  C   UNL A   1      32.743  27.984  26.396  1.00  0.00    -0.001 A 
ATOM     25  C   UNL A   1      34.127  28.214  26.452  1.00  0.00     0.011 A 
ATOM     26  C   UNL A   1      31.860  29.013  26.749  1.00  0.00     0.011 A 
ATOM     27  C   UNL A   1      34.622  29.406  26.961  1.00  0.00     0.021 A 
ATOM     28  C   UNL A   1      32.354  30.222  27.242  1.00  0.00     0.021 A 
ATOM     29  C   UNL A   1      33.730  30.388  27.389  1.00  0.00     0.067 A 
BRANCH  29  30
ATOM     30  S   UNL A   1      34.411  31.908  27.963  1.00  0.00     0.175 S 
ATOM     31  C   UNL A   1      34.743  31.693  29.675  1.00  0.00     0.163 C 
ATOM     32  O   UNL A   1      35.696  32.020  27.337  1.00  0.00    -0.224 OA
ATOM     33  O   UNL A   1      33.376  32.937  27.923  1.00  0.00    -0.224 OA
ENDBRANCH  29  30
ENDBRANCH  16  24
ENDBRANCH  10  11
ENDBRANCH   7  10
ENDBRANCH   5   6
BRANCH   5  34
ATOM     34  C   UNL A   1      33.387  19.788  25.043  1.00  0.00     0.193 C 
BRANCH  34  35
ATOM     35  O   UNL A   1      34.542  18.966  24.976  1.00  0.00    -0.394 OA
ATOM     36  H   UNL A   1      35.049  19.053  25.798  1.00  0.00     0.210 HD
ENDBRANCH  34  35
ENDBRANCH   5  34
ENDBRANCH   3   5
ENDBRANCH   2   3
ENDBRANCH   1   2
BRANCH   1  37
ATOM     37  C   UNL A   1      38.325  20.325  25.215  1.00  0.00     0.275 C 
BRANCH  37  38
ATOM     38  O   UNL A   1      39.764  20.625  25.457  1.00  0.00    -0.458 OA
BRANCH  38  39
ATOM     39  C   UNL A   1      40.139  21.069  26.716  1.00  0.00     0.338 C 
ATOM     40  O   UNL A   1      40.584  20.283  27.547  1.00  0.00    -0.246 OA
BRANCH  39  41
ATOM     41  C   UNL A   1      40.065  22.621  26.997  1.00  0.00     0.060 A 
ATOM     42  C   UNL A   1      40.956  23.196  27.893  1.00  0.00     0.016 A 
ATOM     43  C   UNL A   1      39.047  23.533  26.620  1.00  0.00     0.016 A 
ATOM     44  C   UNL A   1      40.881  24.610  28.292  1.00  0.00     0.010 A 
ATOM     45  C   UNL A   1      38.932  24.980  27.105  1.00  0.00     0.010 A 
ATOM     46  C   UNL A   1      39.863  25.611  27.962  1.00  0.00    -0.014 A 
BRANCH  46  47
ATOM     47  C   UNL A   1      39.799  27.078  28.932  1.00  0.00     0.031 A 
ATOM     48  C   UNL A   1      40.828  27.864  28.193  1.00  0.00     0.074 A 
ATOM     49  C   UNL A   1      39.396  27.778  30.138  1.00  0.00     0.049 A 
ATOM     50  N   UNL A   1      42.008  27.322  28.085  1.00  0.00    -0.248 NA
ATOM     51  C   UNL A   1      40.566  28.921  27.217  1.00  0.00     0.031 C 
ATOM     52  C   UNL A   1      38.750  27.231  31.359  1.00  0.00     0.029 A 
ATOM     53  N   UNL A   1      39.495  29.192  30.626  1.00  0.00    -0.354 N 
ATOM     54  C   UNL A   1      42.771  28.172  27.339  1.00  0.00     0.074 A 
ATOM     55  C   UNL A   1      41.772  28.971  26.628  1.00  0.00     0.031 C 
ATOM     56  C   UNL A   1      38.376  28.191  32.277  1.00  0.00     0.029 A 
ATOM     57  C   UNL A   1      38.744  29.562  31.877  1.00  0.00     0.049 A 
ATOM     58  H   UNL A   1      40.034  29.859  30.143  1.00  0.00     0.167 HD
ATOM     59  C   UNL A   1      43.919  28.570  27.970  1.00  0.00     0.034 A 
ATOM     60  C   UNL A   1      38.532  30.795  32.596  1.00  0.00     0.034 A 
ATOM     61  C   UNL A   1      43.759  29.875  28.552  1.00  0.00     0.049 A 
ATOM     62  C   UNL A   1      39.757  31.563  32.417  1.00  0.00     0.074 A 
ATOM     63  C   UNL A   1      43.091  31.017  28.148  1.00  0.00     0.029 A 
ATOM     64  N   UNL A   1      43.878  29.947  29.918  1.00  0.00    -0.354 N 
ATOM     65  N   UNL A   1      40.833  31.295  33.084  1.00  0.00    -0.248 NA
ATOM     66  C   UNL A   1      39.823  32.710  31.525  1.00  0.00     0.031 C 
ATOM     67  C   UNL A   1      42.358  31.400  29.290  1.00  0.00     0.029 A 
ATOM     68  C   UNL A   1      42.964  30.849  30.410  1.00  0.00     0.049 A 
ATOM     69  H   UNL A   1      44.517  29.433  30.461  1.00  0.00     0.167 HD
ATOM     70  C   UNL A   1      41.793  31.783  32.256  1.00  0.00     0.074 A 
ATOM     71  C   UNL A   1      41.149  32.847  31.499  1.00  0.00     0.031 C 
ATOM     72  C   UNL A   1      42.713  30.882  31.831  1.00  0.00     0.034 A 
BRANCH  59  73
ATOM     73  C   UNL A   1      44.694  27.424  28.619  1.00  0.00     0.023 A 
ATOM     74  C   UNL A   1      45.795  26.868  27.957  1.00  0.00     0.031 A 
ATOM     75  C   UNL A   1      44.245  26.750  29.776  1.00  0.00     0.131 A 
ATOM     76  C   UNL A   1      46.249  25.580  28.291  1.00  0.00     0.055 A 
ATOM     77  C   UNL A   1      44.693  25.473  30.112  1.00  0.00     0.041 A 
ATOM     78  F   UNL A   1      43.344  27.314  30.598  1.00  0.00    -0.206 F 
ATOM     79  C   UNL A   1      45.676  24.863  29.343  1.00  0.00     0.022 A 
BRANCH  76  80
ATOM     80  S   UNL A   1      47.577  24.820  27.314  1.00  0.00     0.124 S 
ATOM     81  O   UNL A   1      48.643  24.644  28.297  1.00  0.00    -0.237 OA
ATOM     82  O   UNL A   1      46.953  23.598  26.812  1.00  0.00    -0.237 OA
ATOM     83  O   UNL A   1      47.862  25.818  26.283  1.00  0.00    -0.744 OA
ENDBRANCH  76  80
ENDBRANCH  59  73
BRANCH  60  84
ATOM     84  C   UNL A   1      37.672  31.667  33.709  1.00  0.00     0.023 A 
ATOM     85  C   UNL A   1      37.954  31.711  35.170  1.00  0.00     0.031 A 
ATOM     86  C   UNL A   1      36.908  32.764  33.286  1.00  0.00     0.131 A 
ATOM     87  C   UNL A   1      37.519  32.785  36.046  1.00  0.00     0.055 A 
ATOM     88  C   UNL A   1      36.493  33.819  34.158  1.00  0.00     0.041 A 
ATOM     89  F   UNL A   1      36.620  32.916  31.989  1.00  0.00    -0.206 F 
ATOM     90  C   UNL A   1      36.805  33.848  35.516  1.00  0.00     0.022 A 
BRANCH  87  91
ATOM     91  S   UNL A   1      37.990  32.968  37.858  1.00  0.00     0.124 S 
ATOM     92  O   UNL A   1      39.029  31.961  38.039  1.00  0.00    -0.237 OA
ATOM     93  O   UNL A   1      38.407  34.362  37.956  1.00  0.00    -0.237 OA
ATOM     94  O   UNL A   1      36.743  32.673  38.574  1.00  0.00    -0.744 OA
ENDBRANCH  87  91
ENDBRANCH  60  84
BRANCH  72  95
ATOM     95  C   UNL A   1      43.275  29.895  32.849  1.00  0.00     0.023 A 
ATOM     96  C   UNL A   1      42.623  28.748  33.372  1.00  0.00     0.031 A 
ATOM     97  C   UNL A   1      44.546  30.182  33.374  1.00  0.00     0.131 A 
ATOM     98  C   UNL A   1      43.226  27.973  34.386  1.00  0.00     0.055 A 
ATOM     99  C   UNL A   1      45.164  29.388  34.338  1.00  0.00     0.041 A 
ATOM    100  F   UNL A   1      45.222  31.263  32.950  1.00  0.00    -0.206 F 
ATOM    101  C   UNL A   1      44.499  28.288  34.860  1.00  0.00     0.022 A 
BRANCH  98 102
ATOM    102  S   UNL A   1      42.321  26.592  35.166  1.00  0.00     0.124 S 
ATOM    103  O   UNL A   1      42.585  26.778  36.589  1.00  0.00    -0.237 OA
ATOM    104  O   UNL A   1      40.946  26.827  34.739  1.00  0.00    -0.237 OA
ATOM    105  O   UNL A   1      42.948  25.403  34.586  1.00  0.00    -0.744 OA
ENDBRANCH  98 102
ENDBRANCH  72  95
ENDBRANCH  46  47
ENDBRANCH  39  41
ENDBRANCH  38  39
ENDBRANCH  37  38
ENDBRANCH   1  37
TORSDOF 22
ENDMDL
MODEL 2
REMARK VINA RESULT:     -12.3      1.972      2.372
REMARK SMILES Cc1c(CC(=O)N[C@H](CO)C(=O)OCCOC(=O)c2ccc(-c3c4nc(c(-c5cc(S(=O)(=O)[O-])ccc5F)c5ccc([nH]5)c(-c5cc(S(=O)(=O)[O-])ccc5F)c5nc(c(-c6cc(S(=O)(=O)[O-])ccc6F)c6ccc3[nH]6)C=C5)C=C4)cc2)cc(-c2ccc(S(C)(=O)=O)cc2)n1-c1ccc(F)cc1
REMARK SMILES IDX 14 1 13 2 11 3 12 4 8 5 7 6 5 7 6 8 4 10 3 11 1 12 2 13
REMARK SMILES IDX 94 14 82 15 83 16 95 17 96 18 101 19 97 20 100 21 98 22
REMARK SMILES IDX 99 23 84 24 85 25 93 26 86 27 92 28 87 29 88 30 89 31 90 32
REMARK SMILES IDX 91 33 9 34 10 35 15 37 16 38 17 39 18 40 19 41 20 42 81 43
REMARK SMILES IDX 21 44 80 45 22 46 23 47 24 48 74 49 25 50 79 51 73 52 75 53
REMARK SMILES IDX 26 54 78 55 72 56 71 57 27 59 59 60 39 61 58 62 40 63 43 64
REMARK SMILES IDX 57 65 76 66 41 67 42 68 56 70 77 71 44 72 28 73 29 74 37 75
REMARK SMILES IDX 30 76 36 77 38 78 35 79 31 80 32 81 33 82 34 83 60 84 61 85
REMARK SMILES IDX 69 86 62 87 68 88 70 89 67 90 63 91 64 92 65 93 66 94 45 95
REMARK SMILES IDX 46 96 54 97 47 98 53 99 55 100 52 101 48 102 49 103 50 104
REMARK SMILES IDX 51 105
REMARK H PARENT 7 9 10 36 75 58 43 69
REMARK Flexibility Score: inf
ROOT
ATOM      1  C   UNL A   1      37.547  21.258  24.633  1.00  0.00     0.274 C 
ENDROOT
BRANCH   1   2
ATOM      2  O   UNL A   1      36.241  21.524  25.218  1.00  0.00    -0.460 OA
BRANCH   2   3
ATOM      3  C   UNL A   1      35.253  22.110  24.502  1.00  0.00     0.331 C 
ATOM      4  O   UNL A   1      35.442  22.914  23.593  1.00  0.00    -0.250 OA
BRANCH   3   5
ATOM      5  C   UNL A   1      33.833  21.627  24.920  1.00  0.00     0.218 C 
BRANCH   5   6
ATOM      6  N   UNL A   1      33.612  21.948  26.354  1.00  0.00    -0.341 N 
ATOM      7  C   UNL A   1      32.592  22.598  26.988  1.00  0.00     0.225 C 
ATOM      8  O   UNL A   1      32.641  22.683  28.219  1.00  0.00    -0.275 OA
ATOM      9  H   UNL A   1      34.328  21.637  26.954  1.00  0.00     0.164 HD
BRANCH   7  10
ATOM     10  C   UNL A   1      31.400  23.165  26.224  1.00  0.00     0.137 C 
BRANCH  10  11
ATOM     11  C   UNL A   1      31.583  24.603  25.860  1.00  0.00    -0.017 A 
ATOM     12  C   UNL A   1      30.168  24.711  23.688  1.00  0.00     0.065 C 
ATOM     13  C   UNL A   1      30.989  25.279  24.800  1.00  0.00     0.024 A 
ATOM     14  N   UNL A   1      31.392  26.609  24.853  1.00  0.00    -0.314 N 
ATOM     15  C   UNL A   1      32.430  25.532  26.519  1.00  0.00     0.033 A 
ATOM     16  C   UNL A   1      32.254  26.771  25.937  1.00  0.00     0.053 A 
BRANCH  14  17
ATOM     17  C   UNL A   1      31.016  27.634  23.944  1.00  0.00     0.046 A 
ATOM     18  C   UNL A   1      29.678  28.050  23.888  1.00  0.00     0.029 A 
ATOM     19  C   UNL A   1      31.958  28.146  23.041  1.00  0.00     0.029 A 
ATOM     20  C   UNL A   1      29.286  28.992  22.939  1.00  0.00     0.041 A 
ATOM     21  C   UNL A   1      31.556  29.087  22.093  1.00  0.00     0.041 A 
ATOM     22  C   UNL A   1      30.228  29.504  22.053  1.00  0.00     0.123 A 
ATOM     23  F   UNL A   1      29.849  30.404  21.138  1.00  0.00    -0.207 F 
ENDBRANCH  14  17
BRANCH  16  24
ATOM     24  C   UNL A   1      32.783  28.066  26.375  1.00  0.00    -0.001 A 
ATOM     25  C   UNL A   1      34.169  28.238  26.525  1.00  0.00     0.011 A 
ATOM     26  C   UNL A   1      31.920  29.121  26.695  1.00  0.00     0.011 A 
ATOM     27  C   UNL A   1      34.676  29.398  27.094  1.00  0.00     0.021 A 
ATOM     28  C   UNL A   1      32.427  30.298  27.249  1.00  0.00     0.021 A 
ATOM     29  C   UNL A   1      33.796  30.405  27.489  1.00  0.00     0.067 A 
BRANCH  29  30
ATOM     30  S   UNL A   1      34.497  31.883  28.142  1.00  0.00     0.175 S 
ATOM     31  C   UNL A   1      33.341  33.168  27.823  1.00  0.00     0.163 C 
ATOM     32  O   UNL A   1      34.497  31.718  29.567  1.00  0.00    -0.224 OA
ATOM     33  O   UNL A   1      35.667  32.246  27.349  1.00  0.00    -0.224 OA
ENDBRANCH  29  30
ENDBRANCH  16  24
ENDBRANCH  10  11
ENDBRANCH   7  10
ENDBRANCH   5   6
BRANCH   5  34
ATOM     34  C   UNL A   1      33.539  20.142  24.630  1.00  0.00     0.193 C 
BRANCH  34  35
ATOM     35  O   UNL A   1      34.540  19.212  25.014  1.00  0.00    -0.394 OA
ATOM     36  H   UNL A   1      35.389  19.473  24.626  1.00  0.00     0.210 HD
ENDBRANCH  34  35
ENDBRANCH   5  34
ENDBRANCH   3   5
ENDBRANCH   2   3
ENDBRANCH   1   2
BRANCH   1  37
ATOM     37  C   UNL A   1      38.395  20.417  25.645  1.00  0.00     0.275 C 
BRANCH  37  38
ATOM     38  O   UNL A   1      39.859  20.651  25.792  1.00  0.00    -0.458 OA
BRANCH  38  39
ATOM     39  C   UNL A   1      40.321  21.202  26.978  1.00  0.00     0.338 C 
ATOM     40  O   UNL A   1      40.776  20.485  27.863  1.00  0.00    -0.246 OA
BRANCH  39  41
ATOM     41  C   UNL A   1      40.328  22.776  27.098  1.00  0.00     0.060 A 
ATOM     42  C   UNL A   1      41.162  23.387  28.024  1.00  0.00     0.016 A 
ATOM     43  C   UNL A   1      39.418  23.704  26.528  1.00  0.00     0.016 A 
ATOM     44  C   UNL A   1      41.147  24.837  28.276  1.00  0.00     0.010 A 
ATOM     45  C   UNL A   1      39.357  25.197  26.857  1.00  0.00     0.010 A 
ATOM     46  C   UNL A   1      40.240  25.857  27.743  1.00  0.00    -0.014 A 
BRANCH  46  47
ATOM     47  C   UNL A   1      40.182  27.417  28.555  1.00  0.00     0.031 A 
ATOM     48  C   UNL A   1      41.348  28.051  27.877  1.00  0.00     0.074 A 
ATOM     49  C   UNL A   1      39.700  28.264  29.632  1.00  0.00     0.049 A 
ATOM     50  N   UNL A   1      42.486  27.422  27.966  1.00  0.00    -0.248 NA
ATOM     51  C   UNL A   1      41.285  29.017  26.780  1.00  0.00     0.031 C 
ATOM     52  C   UNL A   1      38.876  27.892  30.811  1.00  0.00     0.029 A 
ATOM     53  N   UNL A   1      39.855  29.711  29.992  1.00  0.00    -0.354 N 
ATOM     54  C   UNL A   1      43.394  28.137  27.242  1.00  0.00     0.074 A 
ATOM     55  C   UNL A   1      42.551  28.924  26.342  1.00  0.00     0.031 C 
ATOM     56  C   UNL A   1      38.477  28.964  31.581  1.00  0.00     0.029 A 
ATOM     57  C   UNL A   1      38.997  30.258  31.102  1.00  0.00     0.049 A 
ATOM     58  H   UNL A   1      40.497  30.286  29.518  1.00  0.00     0.167 HD
ATOM     59  C   UNL A   1      44.490  28.519  27.968  1.00  0.00     0.034 A 
ATOM     60  C   UNL A   1      38.803  31.570  31.669  1.00  0.00     0.034 A 
ATOM     61  C   UNL A   1      44.370  29.885  28.400  1.00  0.00     0.049 A 
ATOM     62  C   UNL A   1      40.098  32.231  31.570  1.00  0.00     0.074 A 
ATOM     63  C   UNL A   1      43.845  31.021  27.811  1.00  0.00     0.029 A 
ATOM     64  N   UNL A   1      44.336  30.089  29.757  1.00  0.00    -0.354 N 
ATOM     65  N   UNL A   1      41.065  31.961  32.386  1.00  0.00    -0.248 NA
ATOM     66  C   UNL A   1      40.356  33.272  30.589  1.00  0.00     0.031 C 
ATOM     67  C   UNL A   1      43.019  31.570  28.814  1.00  0.00     0.029 A 
ATOM     68  C   UNL A   1      43.446  31.097  30.047  1.00  0.00     0.049 A 
ATOM     69  H   UNL A   1      44.866  29.592  30.420  1.00  0.00     0.167 HD
ATOM     70  C   UNL A   1      42.149  32.295  31.639  1.00  0.00     0.074 A 
ATOM     71  C   UNL A   1      41.684  33.316  30.712  1.00  0.00     0.031 C 
ATOM     72  C   UNL A   1      43.038  31.294  31.417  1.00  0.00     0.034 A 
BRANCH  59  73
ATOM     73  C   UNL A   1      45.092  27.396  28.812  1.00  0.00     0.023 A 
ATOM     74  C   UNL A   1      45.533  27.666  30.114  1.00  0.00     0.031 A 
ATOM     75  C   UNL A   1      45.416  26.127  28.284  1.00  0.00     0.131 A 
ATOM     76  C   UNL A   1      46.457  26.812  30.742  1.00  0.00     0.055 A 
ATOM     77  C   UNL A   1      46.331  25.277  28.905  1.00  0.00     0.041 A 
ATOM     78  F   UNL A   1      44.861  25.693  27.141  1.00  0.00    -0.206 F 
ATOM     79  C   UNL A   1      46.888  25.637  30.126  1.00  0.00     0.022 A 
BRANCH  76  80
ATOM     80  S   UNL A   1      47.130  27.266  32.366  1.00  0.00     0.124 S 
ATOM     81  O   UNL A   1      46.114  26.767  33.289  1.00  0.00    -0.237 OA
ATOM     82  O   UNL A   1      48.417  26.576  32.389  1.00  0.00    -0.237 OA
ATOM     83  O   UNL A   1      47.229  28.724  32.303  1.00  0.00    -0.744 OA
ENDBRANCH  76  80
ENDBRANCH  59  73
BRANCH  60  84
ATOM     84  C   UNL A   1      37.893  32.609  32.582  1.00  0.00     0.023 A 
ATOM     85  C   UNL A   1      36.798  33.476  32.064  1.00  0.00     0.031 A 
ATOM     86  C   UNL A   1      37.796  32.409  33.966  1.00  0.00     0.131 A 
ATOM     87  C   UNL A   1      35.735  34.018  32.891  1.00  0.00     0.055 A 
ATOM     88  C   UNL A   1      36.739  32.941  34.768  1.00  0.00     0.041 A 
ATOM     89  F   UNL A   1      38.662  31.599  34.586  1.00  0.00    -0.206 F 
ATOM     90  C   UNL A   1      35.708  33.720  34.244  1.00  0.00     0.022 A 
BRANCH  87  91
ATOM     91  S   UNL A   1      34.246  34.976  32.257  1.00  0.00     0.124 S 
ATOM     92  O   UNL A   1      34.443  36.310  32.810  1.00  0.00    -0.237 OA
ATOM     93  O   UNL A   1      34.356  34.846  30.808  1.00  0.00    -0.237 OA
ATOM     94  O   UNL A   1      33.100  34.257  32.828  1.00  0.00    -0.744 OA
ENDBRANCH  87  91
ENDBRANCH  60  84
BRANCH  72  95
ATOM     95  C   UNL A   1      43.398  30.382  32.584  1.00  0.00     0.023 A 
ATOM     96  C   UNL A   1      42.683  29.236  33.022  1.00  0.00     0.031 A 
ATOM     97  C   UNL A   1      44.519  30.745  33.348  1.00  0.00     0.131 A 
ATOM     98  C   UNL A   1      43.079  28.536  34.182  1.00  0.00     0.055 A 
ATOM     99  C   UNL A   1      44.941  30.025  34.464  1.00  0.00     0.041 A 
ATOM    100  F   UNL A   1      45.239  31.830  33.016  1.00  0.00    -0.206 F 
ATOM    101  C   UNL A   1      44.212  28.926  34.896  1.00  0.00     0.022 A 
BRANCH  98 102
ATOM    102  S   UNL A   1      42.069  27.161  34.831  1.00  0.00     0.124 S 
ATOM    103  O   UNL A   1      40.798  27.316  34.132  1.00  0.00    -0.237 OA
ATOM    104  O   UNL A   1      42.856  25.986  34.468  1.00  0.00    -0.237 OA
ATOM    105  O   UNL A   1      42.006  27.433  36.269  1.00  0.00    -0.744 OA
ENDBRANCH  98 102
ENDBRANCH  72  95
ENDBRANCH  46  47
ENDBRANCH  39  41
ENDBRANCH  38  39
ENDBRANCH  37  38
ENDBRANCH   1  37
TORSDOF 22
ENDMDL
MODEL 3
REMARK VINA RESULT:     -11.3      2.317      3.642
REMARK SMILES Cc1c(CC(=O)N[C@H](CO)C(=O)OCCOC(=O)c2ccc(-c3c4nc(c(-c5cc(S(=O)(=O)[O-])ccc5F)c5ccc([nH]5)c(-c5cc(S(=O)(=O)[O-])ccc5F)c5nc(c(-c6cc(S(=O)(=O)[O-])ccc6F)c6ccc3[nH]6)C=C5)C=C4)cc2)cc(-c2ccc(S(C)(=O)=O)cc2)n1-c1ccc(F)cc1
REMARK SMILES IDX 14 1 13 2 11 3 12 4 8 5 7 6 5 7 6 8 4 10 3 11 1 12 2 13
REMARK SMILES IDX 94 14 82 15 83 16 95 17 96 18 101 19 97 20 100 21 98 22
REMARK SMILES IDX 99 23 84 24 85 25 93 26 86 27 92 28 87 29 88 30 89 31 90 32
REMARK SMILES IDX 91 33 9 34 10 35 15 37 16 38 17 39 18 40 19 41 20 42 81 43
REMARK SMILES IDX 21 44 80 45 22 46 23 47 24 48 74 49 25 50 79 51 73 52 75 53
REMARK SMILES IDX 26 54 78 55 72 56 71 57 27 59 59 60 39 61 58 62 40 63 43 64
REMARK SMILES IDX 57 65 76 66 41 67 42 68 56 70 77 71 44 72 28 73 29 74 37 75
REMARK SMILES IDX 30 76 36 77 38 78 35 79 31 80 32 81 33 82 34 83 60 84 61 85
REMARK SMILES IDX 69 86 62 87 68 88 70 89 67 90 63 91 64 92 65 93 66 94 45 95
REMARK SMILES IDX 46 96 54 97 47 98 53 99 55 100 52 101 48 102 49 103 50 104
REMARK SMILES IDX 51 105
REMARK H PARENT 7 9 10 36 75 58 43 69
REMARK Flexibility Score: inf
ROOT
ATOM      1  C   UNL A   1      37.415  21.330  24.492  1.00  0.00     0.274 C 
ENDROOT
BRANCH   1   2
ATOM      2  O   UNL A   1      36.068  21.025  24.949  1.00  0.00    -0.460 OA
BRANCH   2   3
ATOM      3  C   UNL A   1      35.000  21.741  24.525  1.00  0.00     0.331 C 
ATOM      4  O   UNL A   1      35.071  22.709  23.773  1.00  0.00    -0.250 OA
BRANCH   3   5
ATOM      5  C   UNL A   1      33.647  21.184  25.057  1.00  0.00     0.218 C 
BRANCH   5   6
ATOM      6  N   UNL A   1      33.458  21.624  26.464  1.00  0.00    -0.341 N 
ATOM      7  C   UNL A   1      32.475  22.366  27.054  1.00  0.00     0.225 C 
ATOM      8  O   UNL A   1      32.543  22.543  28.275  1.00  0.00    -0.275 OA
ATOM      9  H   UNL A   1      34.167  21.328  27.079  1.00  0.00     0.164 HD
BRANCH   7  10
ATOM     10  C   UNL A   1      31.300  22.925  26.259  1.00  0.00     0.137 C 
BRANCH  10  11
ATOM     11  C   UNL A   1      31.507  24.348  25.852  1.00  0.00    -0.017 A 
ATOM     12  C   UNL A   1      30.113  24.408  23.664  1.00  0.00     0.065 C 
ATOM     13  C   UNL A   1      30.933  24.999  24.766  1.00  0.00     0.024 A 
ATOM     14  N   UNL A   1      31.354  26.324  24.782  1.00  0.00    -0.314 N 
ATOM     15  C   UNL A   1      32.362  25.284  26.490  1.00  0.00     0.033 A 
ATOM     16  C   UNL A   1      32.208  26.508  25.868  1.00  0.00     0.053 A 
BRANCH  14  17
ATOM     17  C   UNL A   1      31.002  27.325  23.837  1.00  0.00     0.046 A 
ATOM     18  C   UNL A   1      31.995  27.875  23.013  1.00  0.00     0.029 A 
ATOM     19  C   UNL A   1      29.694  27.829  23.807  1.00  0.00     0.029 A 
ATOM     20  C   UNL A   1      31.673  28.918  22.146  1.00  0.00     0.041 A 
ATOM     21  C   UNL A   1      29.383  28.874  22.938  1.00  0.00     0.041 A 
ATOM     22  C   UNL A   1      30.371  29.405  22.114  1.00  0.00     0.123 A 
ATOM     23  F   UNL A   1      30.065  30.411  21.285  1.00  0.00    -0.207 F 
ENDBRANCH  14  17
BRANCH  16  24
ATOM     24  C   UNL A   1      32.753  27.807  26.270  1.00  0.00    -0.001 A 
ATOM     25  C   UNL A   1      34.143  27.988  26.348  1.00  0.00     0.011 A 
ATOM     26  C   UNL A   1      31.901  28.860  26.629  1.00  0.00     0.011 A 
ATOM     27  C   UNL A   1      34.673  29.154  26.884  1.00  0.00     0.021 A 
ATOM     28  C   UNL A   1      32.430  30.043  27.149  1.00  0.00     0.021 A 
ATOM     29  C   UNL A   1      33.809  30.159  27.317  1.00  0.00     0.067 A 
BRANCH  29  30
ATOM     30  S   UNL A   1      34.534  31.644  27.925  1.00  0.00     0.175 S 
ATOM     31  C   UNL A   1      34.622  31.479  29.673  1.00  0.00     0.163 C 
ATOM     32  O   UNL A   1      35.895  31.628  27.473  1.00  0.00    -0.224 OA
ATOM     33  O   UNL A   1      33.603  32.749  27.715  1.00  0.00    -0.224 OA
ENDBRANCH  29  30
ENDBRANCH  16  24
ENDBRANCH  10  11
ENDBRANCH   7  10
ENDBRANCH   5   6
BRANCH   5  34
ATOM     34  C   UNL A   1      33.474  19.657  24.923  1.00  0.00     0.193 C 
BRANCH  34  35
ATOM     35  O   UNL A   1      34.665  18.885  24.904  1.00  0.00    -0.394 OA
ATOM     36  H   UNL A   1      35.241  19.162  25.633  1.00  0.00     0.210 HD
ENDBRANCH  34  35
ENDBRANCH   5  34
ENDBRANCH   3   5
ENDBRANCH   2   3
ENDBRANCH   1   2
BRANCH   1  37
ATOM     37  C   UNL A   1      38.156  22.149  25.602  1.00  0.00     0.275 C 
BRANCH  37  38
ATOM     38  O   UNL A   1      39.400  21.625  26.233  1.00  0.00    -0.458 OA
BRANCH  38  39
ATOM     39  C   UNL A   1      40.480  22.484  26.365  1.00  0.00     0.338 C 
ATOM     40  O   UNL A   1      41.472  22.353  25.654  1.00  0.00    -0.246 OA
BRANCH  39  41
ATOM     41  C   UNL A   1      40.342  23.682  27.384  1.00  0.00     0.060 A 
ATOM     42  C   UNL A   1      39.220  24.498  27.330  1.00  0.00     0.016 A 
ATOM     43  C   UNL A   1      41.329  24.214  28.253  1.00  0.00     0.016 A 
ATOM     44  C   UNL A   1      39.068  25.699  28.167  1.00  0.00     0.010 A 
ATOM     45  C   UNL A   1      41.193  25.508  29.058  1.00  0.00     0.010 A 
ATOM     46  C   UNL A   1      40.035  26.320  29.076  1.00  0.00    -0.014 A 
BRANCH  46  47
ATOM     47  C   UNL A   1      39.737  27.975  29.595  1.00  0.00     0.031 A 
ATOM     48  C   UNL A   1      41.021  28.575  29.134  1.00  0.00     0.074 A 
ATOM     49  C   UNL A   1      38.980  28.936  30.375  1.00  0.00     0.049 A 
ATOM     50  N   UNL A   1      42.115  28.037  29.596  1.00  0.00    -0.248 NA
ATOM     51  C   UNL A   1      41.213  29.366  27.918  1.00  0.00     0.031 C 
ATOM     52  C   UNL A   1      37.895  28.689  31.360  1.00  0.00     0.029 A 
ATOM     53  N   UNL A   1      39.004  30.428  30.533  1.00  0.00    -0.354 N 
ATOM     54  C   UNL A   1      43.159  28.694  29.014  1.00  0.00     0.074 A 
ATOM     55  C   UNL A   1      42.551  29.289  27.824  1.00  0.00     0.031 C 
ATOM     56  C   UNL A   1      37.289  29.834  31.832  1.00  0.00     0.029 A 
ATOM     57  C   UNL A   1      37.883  31.075  31.299  1.00  0.00     0.049 A 
ATOM     58  H   UNL A   1      39.732  30.967  30.147  1.00  0.00     0.167 HD
ATOM     59  C   UNL A   1      44.027  29.245  29.918  1.00  0.00     0.034 A 
ATOM     60  C   UNL A   1      37.520  32.442  31.590  1.00  0.00     0.034 A 
ATOM     61  C   UNL A   1      43.770  30.648  30.089  1.00  0.00     0.049 A 
ATOM     62  C   UNL A   1      38.782  33.159  31.710  1.00  0.00     0.074 A 
ATOM     63  C   UNL A   1      43.383  31.653  29.221  1.00  0.00     0.029 A 
ATOM     64  N   UNL A   1      43.390  31.045  31.348  1.00  0.00    -0.354 N 
ATOM     65  N   UNL A   1      39.520  33.071  32.770  1.00  0.00    -0.248 NA
ATOM     66  C   UNL A   1      39.255  34.062  30.672  1.00  0.00     0.031 C 
ATOM     67  C   UNL A   1      42.318  32.288  29.892  1.00  0.00     0.029 A 
ATOM     68  C   UNL A   1      42.432  32.027  31.250  1.00  0.00     0.049 A 
ATOM     69  H   UNL A   1      43.748  30.683  32.190  1.00  0.00     0.167 HD
ATOM     70  C   UNL A   1      40.748  33.360  32.269  1.00  0.00     0.074 A 
ATOM     71  C   UNL A   1      40.507  34.205  31.108  1.00  0.00     0.031 C 
ATOM     72  C   UNL A   1      41.688  32.395  32.430  1.00  0.00     0.034 A 
BRANCH  59  73
ATOM     73  C   UNL A   1      44.424  28.295  31.049  1.00  0.00     0.023 A 
ATOM     74  C   UNL A   1      44.510  28.776  32.361  1.00  0.00     0.031 A 
ATOM     75  C   UNL A   1      44.906  26.988  30.821  1.00  0.00     0.131 A 
ATOM     76  C   UNL A   1      45.265  28.083  33.324  1.00  0.00     0.055 A 
ATOM     77  C   UNL A   1      45.655  26.296  31.772  1.00  0.00     0.041 A 
ATOM     78  F   UNL A   1      44.674  26.359  29.656  1.00  0.00    -0.206 F 
ATOM     79  C   UNL A   1      45.871  26.862  33.022  1.00  0.00     0.022 A 
BRANCH  76  80
ATOM     80  S   UNL A   1      45.489  28.806  34.973  1.00  0.00     0.124 S 
ATOM     81  O   UNL A   1      45.197  30.220  34.750  1.00  0.00    -0.237 OA
ATOM     82  O   UNL A   1      44.525  28.068  35.786  1.00  0.00    -0.237 OA
ATOM     83  O   UNL A   1      46.888  28.519  35.290  1.00  0.00    -0.744 OA
ENDBRANCH  76  80
ENDBRANCH  59  73
BRANCH  60  84
ATOM     84  C   UNL A   1      36.386  33.543  32.078  1.00  0.00     0.023 A 
ATOM     85  C   UNL A   1      35.526  34.352  31.171  1.00  0.00     0.031 A 
ATOM     86  C   UNL A   1      35.852  33.457  33.372  1.00  0.00     0.131 A 
ATOM     87  C   UNL A   1      34.265  34.950  31.571  1.00  0.00     0.055 A 
ATOM     88  C   UNL A   1      34.604  34.044  33.751  1.00  0.00     0.041 A 
ATOM     89  F   UNL A   1      36.464  32.712  34.299  1.00  0.00    -0.206 F 
ATOM     90  C   UNL A   1      33.805  34.766  32.865  1.00  0.00     0.022 A 
BRANCH  87  91
ATOM     91  S   UNL A   1      33.069  35.836  30.421  1.00  0.00     0.124 S 
ATOM     92  O   UNL A   1      33.922  36.780  29.709  1.00  0.00    -0.237 OA
ATOM     93  O   UNL A   1      32.495  34.751  29.632  1.00  0.00    -0.237 OA
ATOM     94  O   UNL A   1      32.112  36.471  31.335  1.00  0.00    -0.744 OA
ENDBRANCH  87  91
ENDBRANCH  60  84
BRANCH  72  95
ATOM     95  C   UNL A   1      41.764  31.685  33.778  1.00  0.00     0.023 A 
ATOM     96  C   UNL A   1      42.264  32.218  34.994  1.00  0.00     0.031 A 
ATOM     97  C   UNL A   1      41.356  30.341  33.809  1.00  0.00     0.131 A 
ATOM     98  C   UNL A   1      42.366  31.413  36.149  1.00  0.00     0.055 A 
ATOM     99  C   UNL A   1      41.407  29.560  34.962  1.00  0.00     0.041 A 
ATOM    100  F   UNL A   1      40.890  29.752  32.694  1.00  0.00    -0.206 F 
ATOM    101  C   UNL A   1      41.928  30.089  36.134  1.00  0.00     0.022 A 
BRANCH  98 102
ATOM    102  S   UNL A   1      43.154  32.054  37.666  1.00  0.00     0.124 S 
ATOM    103  O   UNL A   1      43.435  30.848  38.436  1.00  0.00    -0.237 OA
ATOM    104  O   UNL A   1      44.320  32.763  37.148  1.00  0.00    -0.237 OA
ATOM    105  O   UNL A   1      42.122  32.916  38.248  1.00  0.00    -0.744 OA
ENDBRANCH  98 102
ENDBRANCH  72  95
ENDBRANCH  46  47
ENDBRANCH  39  41
ENDBRANCH  38  39
ENDBRANCH  37  38
ENDBRANCH   1  37
TORSDOF 22
ENDMDL
