MODEL 1
REMARK VINA RESULT:     -12.5      0.000      0.000
REMARK SMILES Cn1cc(C[C@@H](NC(=O)OCC2c3ccccc3-c3ccccc32)C(=O)OCCOC(=O)c2ccc(-c3c4nc(c(-c5cc(S(=O)(=O)[O-])ccc5F)c5ccc([nH]5)c(-c5cc(S(=O)(=O)[O-])ccc5F)c5nc(c(-c6cc(S(=O)(=O)[O-])ccc6F)c6ccc3[nH]6)C=C5)C=C4)cc2)c2ccccc21
REMARK SMILES IDX 28 1 27 2 25 3 26 4 6 5 5 6 4 7 1 8 2 9 3 10 101 11 96 12
REMARK SMILES IDX 100 13 97 14 99 15 98 16 7 17 8 18 9 20 10 21 11 22 12 23
REMARK SMILES IDX 13 24 24 25 14 26 18 27 19 28 23 29 15 30 17 31 20 32 22 33
REMARK SMILES IDX 16 34 21 35 29 36 30 37 31 38 32 39 33 40 34 41 95 42 35 43
REMARK SMILES IDX 94 44 36 45 37 46 38 47 88 48 39 49 93 50 87 51 89 52 40 53
REMARK SMILES IDX 92 54 86 55 85 56 41 58 73 59 53 60 72 61 54 62 57 63 71 64
REMARK SMILES IDX 90 65 55 66 56 67 70 69 91 70 58 71 42 72 43 73 51 74 44 75
REMARK SMILES IDX 50 76 52 77 49 78 45 79 46 80 47 81 48 82 74 83 75 84 83 85
REMARK SMILES IDX 76 86 82 87 84 88 81 89 77 90 78 91 79 92 80 93 59 94 60 95
REMARK SMILES IDX 68 96 61 97 67 98 69 99 66 100 62 101 63 102 64 103 65 104
REMARK H PARENT 7 19 89 57 57 68
REMARK Flexibility Score: inf
ROOT
ATOM      1  C   UNL A   1      35.980  20.418  25.086  1.00  0.00     0.274 C 
ENDROOT
BRANCH   1   2
ATOM      2  O   UNL A   1      35.695  21.654  25.763  1.00  0.00    -0.461 OA
BRANCH   2   3
ATOM      3  C   UNL A   1      34.383  21.859  26.085  1.00  0.00     0.329 C 
ATOM      4  O   UNL A   1      33.781  21.243  26.958  1.00  0.00    -0.250 OA
BRANCH   3   5
ATOM      5  C   UNL A   1      33.706  22.843  25.125  1.00  0.00     0.200 C 
BRANCH   5   6
ATOM      6  C   UNL A   1      34.378  22.972  23.740  1.00  0.00     0.075 C 
BRANCH   6   7
ATOM      7  C   UNL A   1      33.810  24.116  22.924  1.00  0.00    -0.020 A 
ATOM      8  C   UNL A   1      32.140  25.546  20.027  1.00  0.00     0.149 C 
ATOM      9  N   UNL A   1      32.867  25.257  21.245  1.00  0.00    -0.350 N 
ATOM     10  C   UNL A   1      33.176  24.001  21.699  1.00  0.00     0.090 A 
ATOM     11  C   UNL A   1      33.335  26.207  22.125  1.00  0.00     0.048 A 
ATOM     12  C   UNL A   1      33.848  25.519  23.229  1.00  0.00     0.003 A 
ATOM     13  C   UNL A   1      33.343  27.611  22.045  1.00  0.00     0.027 A 
ATOM     14  C   UNL A   1      34.312  26.276  24.326  1.00  0.00     0.010 A 
ATOM     15  C   UNL A   1      33.878  28.329  23.118  1.00  0.00     0.002 A 
ATOM     16  C   UNL A   1      34.343  27.673  24.251  1.00  0.00     0.001 A 
ENDBRANCH   6   7
ENDBRANCH   5   6
BRANCH   5  17
ATOM     17  N   UNL A   1      32.259  22.653  25.032  1.00  0.00    -0.308 N 
ATOM     18  C   UNL A   1      31.302  23.321  25.726  1.00  0.00     0.407 C 
ATOM     19  H   UNL A   1      31.946  21.967  24.399  1.00  0.00     0.168 HD
ATOM     20  O   UNL A   1      30.277  22.763  26.113  1.00  0.00    -0.225 OA
BRANCH  18  21
ATOM     21  O   UNL A   1      31.521  24.657  25.775  1.00  0.00    -0.449 OA
BRANCH  21  22
ATOM     22  C   UNL A   1      30.843  25.433  24.770  1.00  0.00     0.248 C 
BRANCH  22  23
ATOM     23  C   UNL A   1      30.268  26.769  25.301  1.00  0.00     0.088 C 
ATOM     24  C   UNL A   1      31.296  27.678  25.977  1.00  0.00    -0.029 A 
ATOM     25  C   UNL A   1      29.670  27.709  24.257  1.00  0.00    -0.029 A 
ATOM     26  C   UNL A   1      32.081  27.423  27.094  1.00  0.00     0.005 A 
ATOM     27  C   UNL A   1      31.286  28.954  25.373  1.00  0.00    -0.014 A 
ATOM     28  C   UNL A   1      30.333  28.955  24.286  1.00  0.00    -0.014 A 
ATOM     29  C   UNL A   1      28.641  27.475  23.357  1.00  0.00     0.005 A 
ATOM     30  C   UNL A   1      32.857  28.465  27.609  1.00  0.00     0.000 A 
ATOM     31  C   UNL A   1      32.058  29.986  25.884  1.00  0.00     0.009 A 
ATOM     32  C   UNL A   1      30.023  29.944  23.366  1.00  0.00     0.009 A 
ATOM     33  C   UNL A   1      28.343  28.463  22.417  1.00  0.00     0.000 A 
ATOM     34  C   UNL A   1      32.843  29.737  27.013  1.00  0.00     0.001 A 
ATOM     35  C   UNL A   1      29.034  29.684  22.415  1.00  0.00     0.001 A 
ENDBRANCH  22  23
ENDBRANCH  21  22
ENDBRANCH  18  21
ENDBRANCH   5  17
ENDBRANCH   3   5
ENDBRANCH   2   3
ENDBRANCH   1   2
BRANCH   1  36
ATOM     36  C   UNL A   1      37.482  20.117  25.023  1.00  0.00     0.275 C 
BRANCH  36  37
ATOM     37  O   UNL A   1      38.279  21.289  25.260  1.00  0.00    -0.458 OA
BRANCH  37  38
ATOM     38  C   UNL A   1      39.327  21.095  26.096  1.00  0.00     0.338 C 
ATOM     39  O   UNL A   1      39.944  20.054  26.264  1.00  0.00    -0.246 OA
BRANCH  38  40
ATOM     40  C   UNL A   1      39.760  22.377  26.673  1.00  0.00     0.060 A 
ATOM     41  C   UNL A   1      39.145  23.539  26.193  1.00  0.00     0.016 A 
ATOM     42  C   UNL A   1      40.797  22.453  27.604  1.00  0.00     0.016 A 
ATOM     43  C   UNL A   1      39.570  24.787  26.631  1.00  0.00     0.010 A 
ATOM     44  C   UNL A   1      41.237  23.709  28.029  1.00  0.00     0.010 A 
ATOM     45  C   UNL A   1      40.641  24.879  27.525  1.00  0.00    -0.014 A 
BRANCH  45  46
ATOM     46  C   UNL A   1      41.225  26.210  27.804  1.00  0.00     0.031 A 
ATOM     47  C   UNL A   1      42.606  26.510  27.292  1.00  0.00     0.074 A 
ATOM     48  C   UNL A   1      40.510  27.146  28.450  1.00  0.00     0.049 A 
ATOM     49  N   UNL A   1      43.342  27.576  27.463  1.00  0.00    -0.248 NA
ATOM     50  C   UNL A   1      43.238  25.462  26.477  1.00  0.00     0.031 C 
ATOM     51  C   UNL A   1      39.135  26.979  28.923  1.00  0.00     0.029 A 
ATOM     52  N   UNL A   1      40.839  28.426  28.817  1.00  0.00    -0.354 N 
ATOM     53  C   UNL A   1      44.533  27.323  26.790  1.00  0.00     0.074 A 
ATOM     54  C   UNL A   1      44.427  25.991  26.234  1.00  0.00     0.031 C 
ATOM     55  C   UNL A   1      38.741  28.115  29.524  1.00  0.00     0.029 A 
ATOM     56  C   UNL A   1      39.847  29.069  29.518  1.00  0.00     0.049 A 
ATOM     57  H   UNL A   1      41.703  28.843  28.598  1.00  0.00     0.167 HD
ATOM     58  C   UNL A   1      45.612  28.132  26.651  1.00  0.00     0.034 A 
ATOM     59  C   UNL A   1      39.848  30.279  30.112  1.00  0.00     0.034 A 
ATOM     60  C   UNL A   1      45.694  29.454  27.224  1.00  0.00     0.049 A 
ATOM     61  C   UNL A   1      41.088  31.135  30.004  1.00  0.00     0.074 A 
ATOM     62  C   UNL A   1      46.743  30.355  27.174  1.00  0.00     0.029 A 
ATOM     63  N   UNL A   1      44.684  30.063  27.960  1.00  0.00    -0.354 N 
ATOM     64  N   UNL A   1      42.225  30.873  29.397  1.00  0.00    -0.248 NA
ATOM     65  C   UNL A   1      41.041  32.450  30.654  1.00  0.00     0.031 C 
ATOM     66  C   UNL A   1      46.390  31.481  27.927  1.00  0.00     0.029 A 
ATOM     67  C   UNL A   1      45.091  31.318  28.385  1.00  0.00     0.049 A 
ATOM     68  H   UNL A   1      43.806  29.661  28.152  1.00  0.00     0.167 HD
ATOM     69  C   UNL A   1      43.015  32.007  29.566  1.00  0.00     0.074 A 
ATOM     70  C   UNL A   1      42.218  32.956  30.318  1.00  0.00     0.031 C 
ATOM     71  C   UNL A   1      44.281  32.246  29.139  1.00  0.00     0.034 A 
BRANCH  58  72
ATOM     72  C   UNL A   1      46.801  27.572  25.908  1.00  0.00     0.023 A 
ATOM     73  C   UNL A   1      47.106  27.961  24.591  1.00  0.00     0.031 A 
ATOM     74  C   UNL A   1      47.611  26.591  26.508  1.00  0.00     0.131 A 
ATOM     75  C   UNL A   1      48.142  27.321  23.893  1.00  0.00     0.055 A 
ATOM     76  C   UNL A   1      48.691  26.015  25.836  1.00  0.00     0.041 A 
ATOM     77  F   UNL A   1      47.353  26.159  27.752  1.00  0.00    -0.206 F 
ATOM     78  C   UNL A   1      48.952  26.367  24.515  1.00  0.00     0.022 A 
BRANCH  75  79
ATOM     79  S   UNL A   1      48.323  27.645  22.118  1.00  0.00     0.124 S 
ATOM     80  O   UNL A   1      49.455  28.568  22.098  1.00  0.00    -0.237 OA
ATOM     81  O   UNL A   1      48.575  26.314  21.577  1.00  0.00    -0.237 OA
ATOM     82  O   UNL A   1      47.039  28.236  21.744  1.00  0.00    -0.744 OA
ENDBRANCH  75  79
ENDBRANCH  58  72
BRANCH  59  83
ATOM     83  C   UNL A   1      38.666  30.741  30.894  1.00  0.00     0.023 A 
ATOM     84  C   UNL A   1      37.581  31.373  30.270  1.00  0.00     0.031 A 
ATOM     85  C   UNL A   1      38.631  30.599  32.293  1.00  0.00     0.131 A 
ATOM     86  C   UNL A   1      36.527  31.883  31.047  1.00  0.00     0.055 A 
ATOM     87  C   UNL A   1      37.557  31.060  33.056  1.00  0.00     0.041 A 
ATOM     88  F   UNL A   1      39.645  30.002  32.941  1.00  0.00    -0.206 F 
ATOM     89  C   UNL A   1      36.502  31.718  32.434  1.00  0.00     0.022 A 
BRANCH  86  90
ATOM     90  S   UNL A   1      35.227  32.845  30.225  1.00  0.00     0.124 S 
ATOM     91  O   UNL A   1      34.704  31.880  29.265  1.00  0.00    -0.237 OA
ATOM     92  O   UNL A   1      34.350  33.181  31.341  1.00  0.00    -0.237 OA
ATOM     93  O   UNL A   1      35.954  33.972  29.644  1.00  0.00    -0.744 OA
ENDBRANCH  86  90
ENDBRANCH  59  83
BRANCH  71  94
ATOM     94  C   UNL A   1      44.851  33.614  29.431  1.00  0.00     0.023 A 
ATOM     95  C   UNL A   1      44.768  34.667  28.503  1.00  0.00     0.031 A 
ATOM     96  C   UNL A   1      45.514  33.855  30.648  1.00  0.00     0.131 A 
ATOM     97  C   UNL A   1      45.396  35.891  28.779  1.00  0.00     0.055 A 
ATOM     98  C   UNL A   1      46.081  35.094  30.943  1.00  0.00     0.041 A 
ATOM     99  F   UNL A   1      45.623  32.885  31.570  1.00  0.00    -0.206 F 
ATOM    100  C   UNL A   1      46.039  36.116  29.999  1.00  0.00     0.022 A 
BRANCH  97 101
ATOM    101  S   UNL A   1      45.458  37.151  27.475  1.00  0.00     0.124 S 
ATOM    102  O   UNL A   1      46.016  36.400  26.354  1.00  0.00    -0.237 OA
ATOM    103  O   UNL A   1      44.057  37.538  27.350  1.00  0.00    -0.237 OA
ATOM    104  O   UNL A   1      46.337  38.177  28.031  1.00  0.00    -0.744 OA
ENDBRANCH  97 101
ENDBRANCH  71  94
ENDBRANCH  45  46
ENDBRANCH  38  40
ENDBRANCH  37  38
ENDBRANCH  36  37
ENDBRANCH   1  36
TORSDOF 20
ENDMDL
MODEL 2
REMARK VINA RESULT:     -12.4      4.563      9.528
REMARK SMILES Cn1cc(C[C@@H](NC(=O)OCC2c3ccccc3-c3ccccc32)C(=O)OCCOC(=O)c2ccc(-c3c4nc(c(-c5cc(S(=O)(=O)[O-])ccc5F)c5ccc([nH]5)c(-c5cc(S(=O)(=O)[O-])ccc5F)c5nc(c(-c6cc(S(=O)(=O)[O-])ccc6F)c6ccc3[nH]6)C=C5)C=C4)cc2)c2ccccc21
REMARK SMILES IDX 28 1 27 2 25 3 26 4 6 5 5 6 4 7 1 8 2 9 3 10 101 11 96 12
REMARK SMILES IDX 100 13 97 14 99 15 98 16 7 17 8 18 9 20 10 21 11 22 12 23
REMARK SMILES IDX 13 24 24 25 14 26 18 27 19 28 23 29 15 30 17 31 20 32 22 33
REMARK SMILES IDX 16 34 21 35 29 36 30 37 31 38 32 39 33 40 34 41 95 42 35 43
REMARK SMILES IDX 94 44 36 45 37 46 38 47 88 48 39 49 93 50 87 51 89 52 40 53
REMARK SMILES IDX 92 54 86 55 85 56 41 58 73 59 53 60 72 61 54 62 57 63 71 64
REMARK SMILES IDX 90 65 55 66 56 67 70 69 91 70 58 71 42 72 43 73 51 74 44 75
REMARK SMILES IDX 50 76 52 77 49 78 45 79 46 80 47 81 48 82 74 83 75 84 83 85
REMARK SMILES IDX 76 86 82 87 84 88 81 89 77 90 78 91 79 92 80 93 59 94 60 95
REMARK SMILES IDX 68 96 61 97 67 98 69 99 66 100 62 101 63 102 64 103 65 104
REMARK H PARENT 7 19 89 57 57 68
REMARK Flexibility Score: inf
ROOT
ATOM      1  C   UNL A   1      31.802  29.960  26.040  1.00  0.00     0.274 C 
ENDROOT
BRANCH   1   2
ATOM      2  O   UNL A   1      32.702  28.878  26.339  1.00  0.00    -0.461 OA
BRANCH   2   3
ATOM      3  C   UNL A   1      32.115  27.734  26.798  1.00  0.00     0.329 C 
ATOM      4  O   UNL A   1      31.519  27.643  27.866  1.00  0.00    -0.250 OA
BRANCH   3   5
ATOM      5  C   UNL A   1      32.419  26.533  25.895  1.00  0.00     0.200 C 
BRANCH   5   6
ATOM      6  C   UNL A   1      33.893  26.072  25.895  1.00  0.00     0.075 C 
BRANCH   6   7
ATOM      7  C   UNL A   1      34.072  24.702  25.270  1.00  0.00    -0.020 A 
ATOM      8  C   UNL A   1      32.915  21.750  23.488  1.00  0.00     0.149 C 
ATOM      9  N   UNL A   1      33.614  22.762  24.252  1.00  0.00    -0.350 N 
ATOM     10  C   UNL A   1      33.093  23.977  24.613  1.00  0.00     0.090 A 
ATOM     11  C   UNL A   1      34.909  22.648  24.708  1.00  0.00     0.048 A 
ATOM     12  C   UNL A   1      35.251  23.883  25.269  1.00  0.00     0.003 A 
ATOM     13  C   UNL A   1      35.807  21.567  24.667  1.00  0.00     0.027 A 
ATOM     14  C   UNL A   1      36.573  24.057  25.731  1.00  0.00     0.010 A 
ATOM     15  C   UNL A   1      37.085  21.751  25.202  1.00  0.00     0.002 A 
ATOM     16  C   UNL A   1      37.470  22.983  25.715  1.00  0.00     0.001 A 
ENDBRANCH   6   7
ENDBRANCH   5   6
BRANCH   5  17
ATOM     17  N   UNL A   1      31.483  25.424  26.079  1.00  0.00    -0.308 N 
ATOM     18  C   UNL A   1      30.129  25.501  26.142  1.00  0.00     0.407 C 
ATOM     19  H   UNL A   1      31.877  24.526  26.166  1.00  0.00     0.168 HD
ATOM     20  O   UNL A   1      29.475  24.776  26.888  1.00  0.00    -0.225 OA
BRANCH  18  21
ATOM     21  O   UNL A   1      29.601  26.308  25.190  1.00  0.00    -0.449 OA
BRANCH  21  22
ATOM     22  C   UNL A   1      29.547  25.749  23.865  1.00  0.00     0.248 C 
BRANCH  22  23
ATOM     23  C   UNL A   1      29.834  26.778  22.745  1.00  0.00     0.088 C 
ATOM     24  C   UNL A   1      29.204  28.154  22.970  1.00  0.00    -0.029 A 
ATOM     25  C   UNL A   1      31.299  27.146  22.525  1.00  0.00    -0.029 A 
ATOM     26  C   UNL A   1      27.862  28.484  23.106  1.00  0.00     0.005 A 
ATOM     27  C   UNL A   1      30.195  29.158  22.905  1.00  0.00    -0.014 A 
ATOM     28  C   UNL A   1      31.483  28.536  22.689  1.00  0.00    -0.014 A 
ATOM     29  C   UNL A   1      32.372  26.322  22.219  1.00  0.00     0.005 A 
ATOM     30  C   UNL A   1      27.517  29.837  23.172  1.00  0.00     0.000 A 
ATOM     31  C   UNL A   1      29.851  30.499  22.972  1.00  0.00     0.009 A 
ATOM     32  C   UNL A   1      32.748  29.097  22.626  1.00  0.00     0.009 A 
ATOM     33  C   UNL A   1      33.650  26.882  22.176  1.00  0.00     0.000 A 
ATOM     34  C   UNL A   1      28.501  30.836  23.101  1.00  0.00     0.001 A 
ATOM     35  C   UNL A   1      33.839  28.256  22.387  1.00  0.00     0.001 A 
ENDBRANCH  22  23
ENDBRANCH  21  22
ENDBRANCH  18  21
ENDBRANCH   5  17
ENDBRANCH   3   5
ENDBRANCH   2   3
ENDBRANCH   1   2
BRANCH   1  36
ATOM     36  C   UNL A   1      32.174  31.252  26.775  1.00  0.00     0.275 C 
BRANCH  36  37
ATOM     37  O   UNL A   1      33.186  31.036  27.772  1.00  0.00    -0.458 OA
BRANCH  37  38
ATOM     38  C   UNL A   1      34.141  31.996  27.818  1.00  0.00     0.338 C 
ATOM     39  O   UNL A   1      33.968  33.203  27.746  1.00  0.00    -0.246 OA
BRANCH  38  40
ATOM     40  C   UNL A   1      35.444  31.399  28.151  1.00  0.00     0.060 A 
ATOM     41  C   UNL A   1      35.479  30.022  28.393  1.00  0.00     0.016 A 
ATOM     42  C   UNL A   1      36.594  32.177  28.301  1.00  0.00     0.016 A 
ATOM     43  C   UNL A   1      36.659  29.412  28.799  1.00  0.00     0.010 A 
ATOM     44  C   UNL A   1      37.776  31.567  28.728  1.00  0.00     0.010 A 
ATOM     45  C   UNL A   1      37.805  30.187  29.001  1.00  0.00    -0.014 A 
BRANCH  45  46
ATOM     46  C   UNL A   1      38.982  29.565  29.646  1.00  0.00     0.031 A 
ATOM     47  C   UNL A   1      39.382  30.033  31.017  1.00  0.00     0.074 A 
ATOM     48  C   UNL A   1      39.641  28.562  29.040  1.00  0.00     0.049 A 
ATOM     49  N   UNL A   1      40.405  29.682  31.750  1.00  0.00    -0.248 NA
ATOM     50  C   UNL A   1      38.505  31.035  31.642  1.00  0.00     0.031 C 
ATOM     51  C   UNL A   1      39.288  27.985  27.743  1.00  0.00     0.029 A 
ATOM     52  N   UNL A   1      40.742  27.849  29.438  1.00  0.00    -0.354 N 
ATOM     53  C   UNL A   1      40.305  30.431  32.918  1.00  0.00     0.074 A 
ATOM     54  C   UNL A   1      39.137  31.275  32.780  1.00  0.00     0.031 C 
ATOM     55  C   UNL A   1      40.163  27.008  27.450  1.00  0.00     0.029 A 
ATOM     56  C   UNL A   1      41.160  26.922  28.514  1.00  0.00     0.049 A 
ATOM     57  H   UNL A   1      41.190  27.987  30.304  1.00  0.00     0.167 HD
ATOM     58  C   UNL A   1      41.116  30.411  34.005  1.00  0.00     0.034 A 
ATOM     59  C   UNL A   1      42.243  26.119  28.517  1.00  0.00     0.034 A 
ATOM     60  C   UNL A   1      42.281  29.566  34.113  1.00  0.00     0.049 A 
ATOM     61  C   UNL A   1      43.172  26.166  29.707  1.00  0.00     0.074 A 
ATOM     62  C   UNL A   1      43.193  29.477  35.150  1.00  0.00     0.029 A 
ATOM     63  N   UNL A   1      42.698  28.663  33.141  1.00  0.00    -0.354 N 
ATOM     64  N   UNL A   1      43.092  26.904  30.792  1.00  0.00    -0.248 NA
ATOM     65  C   UNL A   1      44.331  25.267  29.675  1.00  0.00     0.031 C 
ATOM     66  C   UNL A   1      44.189  28.566  34.782  1.00  0.00     0.029 A 
ATOM     67  C   UNL A   1      43.861  28.027  33.547  1.00  0.00     0.049 A 
ATOM     68  H   UNL A   1      42.233  28.498  32.289  1.00  0.00     0.167 HD
ATOM     69  C   UNL A   1      44.174  26.531  31.585  1.00  0.00     0.074 A 
ATOM     70  C   UNL A   1      44.880  25.494  30.858  1.00  0.00     0.031 C 
ATOM     71  C   UNL A   1      44.552  26.999  32.803  1.00  0.00     0.034 A 
BRANCH  58  72
ATOM     72  C   UNL A   1      40.800  31.380  35.118  1.00  0.00     0.023 A 
ATOM     73  C   UNL A   1      39.717  31.181  35.994  1.00  0.00     0.031 A 
ATOM     74  C   UNL A   1      41.560  32.554  35.271  1.00  0.00     0.131 A 
ATOM     75  C   UNL A   1      39.381  32.170  36.931  1.00  0.00     0.055 A 
ATOM     76  C   UNL A   1      41.269  33.498  36.258  1.00  0.00     0.041 A 
ATOM     77  F   UNL A   1      42.589  32.814  34.448  1.00  0.00    -0.206 F 
ATOM     78  C   UNL A   1      40.165  33.317  37.085  1.00  0.00     0.022 A 
BRANCH  75  79
ATOM     79  S   UNL A   1      37.822  32.009  37.844  1.00  0.00     0.124 S 
ATOM     80  O   UNL A   1      36.989  33.014  37.188  1.00  0.00    -0.237 OA
ATOM     81  O   UNL A   1      37.455  30.618  37.600  1.00  0.00    -0.237 OA
ATOM     82  O   UNL A   1      38.197  32.322  39.221  1.00  0.00    -0.744 OA
ENDBRANCH  75  79
ENDBRANCH  58  72
BRANCH  59  83
ATOM     83  C   UNL A   1      42.538  25.239  27.350  1.00  0.00     0.023 A 
ATOM     84  C   UNL A   1      42.101  23.907  27.314  1.00  0.00     0.031 A 
ATOM     85  C   UNL A   1      43.310  25.710  26.273  1.00  0.00     0.131 A 
ATOM     86  C   UNL A   1      42.478  23.076  26.246  1.00  0.00     0.055 A 
ATOM     87  C   UNL A   1      43.637  24.896  25.187  1.00  0.00     0.041 A 
ATOM     88  F   UNL A   1      43.755  26.977  26.258  1.00  0.00    -0.206 F 
ATOM     89  C   UNL A   1      43.232  23.566  25.176  1.00  0.00     0.022 A 
BRANCH  86  90
ATOM     90  S   UNL A   1      42.042  21.317  26.316  1.00  0.00     0.124 S 
ATOM     91  O   UNL A   1      42.385  20.980  27.693  1.00  0.00    -0.237 OA
ATOM     92  O   UNL A   1      40.618  21.346  25.998  1.00  0.00    -0.237 OA
ATOM     93  O   UNL A   1      42.895  20.714  25.294  1.00  0.00    -0.744 OA
ENDBRANCH  86  90
ENDBRANCH  59  83
BRANCH  71  94
ATOM     94  C   UNL A   1      45.753  26.343  33.441  1.00  0.00     0.023 A 
ATOM     95  C   UNL A   1      45.628  25.220  34.277  1.00  0.00     0.031 A 
ATOM     96  C   UNL A   1      47.038  26.872  33.230  1.00  0.00     0.131 A 
ATOM     97  C   UNL A   1      46.760  24.703  34.926  1.00  0.00     0.055 A 
ATOM     98  C   UNL A   1      48.169  26.315  33.827  1.00  0.00     0.041 A 
ATOM     99  F   UNL A   1      47.215  27.945  32.442  1.00  0.00    -0.206 F 
ATOM    100  C   UNL A   1      48.032  25.235  34.694  1.00  0.00     0.022 A 
BRANCH  97 101
ATOM    101  S   UNL A   1      46.535  23.397  36.164  1.00  0.00     0.124 S 
ATOM    102  O   UNL A   1      46.552  24.155  37.411  1.00  0.00    -0.237 OA
ATOM    103  O   UNL A   1      45.248  22.825  35.782  1.00  0.00    -0.237 OA
ATOM    104  O   UNL A   1      47.687  22.523  35.954  1.00  0.00    -0.744 OA
ENDBRANCH  97 101
ENDBRANCH  71  94
ENDBRANCH  45  46
ENDBRANCH  38  40
ENDBRANCH  37  38
ENDBRANCH  36  37
ENDBRANCH   1  36
TORSDOF 20
ENDMDL
MODEL 3
REMARK VINA RESULT:     -12.4      4.656      9.865
REMARK SMILES Cn1cc(C[C@@H](NC(=O)OCC2c3ccccc3-c3ccccc32)C(=O)OCCOC(=O)c2ccc(-c3c4nc(c(-c5cc(S(=O)(=O)[O-])ccc5F)c5ccc([nH]5)c(-c5cc(S(=O)(=O)[O-])ccc5F)c5nc(c(-c6cc(S(=O)(=O)[O-])ccc6F)c6ccc3[nH]6)C=C5)C=C4)cc2)c2ccccc21
REMARK SMILES IDX 28 1 27 2 25 3 26 4 6 5 5 6 4 7 1 8 2 9 3 10 101 11 96 12
REMARK SMILES IDX 100 13 97 14 99 15 98 16 7 17 8 18 9 20 10 21 11 22 12 23
REMARK SMILES IDX 13 24 24 25 14 26 18 27 19 28 23 29 15 30 17 31 20 32 22 33
REMARK SMILES IDX 16 34 21 35 29 36 30 37 31 38 32 39 33 40 34 41 95 42 35 43
REMARK SMILES IDX 94 44 36 45 37 46 38 47 88 48 39 49 93 50 87 51 89 52 40 53
REMARK SMILES IDX 92 54 86 55 85 56 41 58 73 59 53 60 72 61 54 62 57 63 71 64
REMARK SMILES IDX 90 65 55 66 56 67 70 69 91 70 58 71 42 72 43 73 51 74 44 75
REMARK SMILES IDX 50 76 52 77 49 78 45 79 46 80 47 81 48 82 74 83 75 84 83 85
REMARK SMILES IDX 76 86 82 87 84 88 81 89 77 90 78 91 79 92 80 93 59 94 60 95
REMARK SMILES IDX 68 96 61 97 67 98 69 99 66 100 62 101 63 102 64 103 65 104
REMARK H PARENT 7 19 89 57 57 68
REMARK Flexibility Score: inf
ROOT
ATOM      1  C   UNL A   1      31.762  30.712  26.830  1.00  0.00     0.274 C 
ENDROOT
BRANCH   1   2
ATOM      2  O   UNL A   1      32.612  29.763  27.499  1.00  0.00    -0.461 OA
BRANCH   2   3
ATOM      3  C   UNL A   1      32.231  28.455  27.393  1.00  0.00     0.329 C 
ATOM      4  O   UNL A   1      31.272  27.964  27.980  1.00  0.00    -0.250 OA
BRANCH   3   5
ATOM      5  C   UNL A   1      33.231  27.633  26.573  1.00  0.00     0.200 C 
BRANCH   5   6
ATOM      6  C   UNL A   1      32.669  26.323  25.979  1.00  0.00     0.075 C 
BRANCH   6   7
ATOM      7  C   UNL A   1      33.699  25.211  25.949  1.00  0.00    -0.020 A 
ATOM      8  C   UNL A   1      36.916  23.763  25.066  1.00  0.00     0.149 C 
ATOM      9  N   UNL A   1      35.565  24.063  25.489  1.00  0.00    -0.350 N 
ATOM     10  C   UNL A   1      34.956  25.287  25.377  1.00  0.00     0.090 A 
ATOM     11  C   UNL A   1      34.707  23.160  26.080  1.00  0.00     0.048 A 
ATOM     12  C   UNL A   1      33.567  23.875  26.461  1.00  0.00     0.003 A 
ATOM     13  C   UNL A   1      34.844  21.781  26.316  1.00  0.00     0.027 A 
ATOM     14  C   UNL A   1      32.563  23.189  27.178  1.00  0.00     0.010 A 
ATOM     15  C   UNL A   1      33.798  21.117  26.963  1.00  0.00     0.002 A 
ATOM     16  C   UNL A   1      32.678  21.813  27.402  1.00  0.00     0.001 A 
ENDBRANCH   6   7
ENDBRANCH   5   6
BRANCH   5  17
ATOM     17  N   UNL A   1      33.958  28.431  25.585  1.00  0.00    -0.308 N 
ATOM     18  C   UNL A   1      33.661  28.566  24.267  1.00  0.00     0.407 C 
ATOM     19  H   UNL A   1      34.746  28.922  25.911  1.00  0.00     0.168 HD
ATOM     20  O   UNL A   1      34.541  28.654  23.413  1.00  0.00    -0.225 OA
BRANCH  18  21
ATOM     21  O   UNL A   1      32.341  28.767  24.041  1.00  0.00    -0.449 OA
BRANCH  21  22
ATOM     22  C   UNL A   1      31.966  28.925  22.661  1.00  0.00     0.248 C 
BRANCH  22  23
ATOM     23  C   UNL A   1      30.986  27.838  22.156  1.00  0.00     0.088 C 
ATOM     24  C   UNL A   1      31.350  26.412  22.570  1.00  0.00    -0.029 A 
ATOM     25  C   UNL A   1      29.547  27.942  22.655  1.00  0.00    -0.029 A 
ATOM     26  C   UNL A   1      32.501  25.690  22.282  1.00  0.00     0.005 A 
ATOM     27  C   UNL A   1      30.262  25.806  23.235  1.00  0.00    -0.014 A 
ATOM     28  C   UNL A   1      29.180  26.760  23.336  1.00  0.00    -0.014 A 
ATOM     29  C   UNL A   1      28.650  28.993  22.529  1.00  0.00     0.005 A 
ATOM     30  C   UNL A   1      32.552  24.345  22.661  1.00  0.00     0.000 A 
ATOM     31  C   UNL A   1      30.314  24.473  23.612  1.00  0.00     0.009 A 
ATOM     32  C   UNL A   1      27.947  26.654  23.958  1.00  0.00     0.009 A 
ATOM     33  C   UNL A   1      27.415  28.894  23.173  1.00  0.00     0.000 A 
ATOM     34  C   UNL A   1      31.467  23.741  23.316  1.00  0.00     0.001 A 
ATOM     35  C   UNL A   1      27.069  27.739  23.889  1.00  0.00     0.001 A 
ENDBRANCH  22  23
ENDBRANCH  21  22
ENDBRANCH  18  21
ENDBRANCH   5  17
ENDBRANCH   3   5
ENDBRANCH   2   3
ENDBRANCH   1   2
BRANCH   1  36
ATOM     36  C   UNL A   1      32.329  32.135  26.870  1.00  0.00     0.275 C 
BRANCH  36  37
ATOM     37  O   UNL A   1      33.133  32.365  28.038  1.00  0.00    -0.458 OA
BRANCH  37  38
ATOM     38  C   UNL A   1      34.197  33.179  27.835  1.00  0.00     0.338 C 
ATOM     39  O   UNL A   1      34.164  34.360  27.525  1.00  0.00    -0.246 OA
BRANCH  38  40
ATOM     40  C   UNL A   1      35.441  32.492  28.216  1.00  0.00     0.060 A 
ATOM     41  C   UNL A   1      35.364  31.120  28.478  1.00  0.00     0.016 A 
ATOM     42  C   UNL A   1      36.641  33.183  28.388  1.00  0.00     0.016 A 
ATOM     43  C   UNL A   1      36.483  30.430  28.927  1.00  0.00     0.010 A 
ATOM     44  C   UNL A   1      37.761  32.493  28.858  1.00  0.00     0.010 A 
ATOM     45  C   UNL A   1      37.678  31.120  29.152  1.00  0.00    -0.014 A 
BRANCH  45  46
ATOM     46  C   UNL A   1      38.786  30.422  29.841  1.00  0.00     0.031 A 
ATOM     47  C   UNL A   1      39.080  30.777  31.272  1.00  0.00     0.074 A 
ATOM     48  C   UNL A   1      39.473  29.451  29.216  1.00  0.00     0.049 A 
ATOM     49  N   UNL A   1      40.032  30.346  32.056  1.00  0.00    -0.248 NA
ATOM     50  C   UNL A   1      38.174  31.751  31.898  1.00  0.00     0.031 C 
ATOM     51  C   UNL A   1      39.218  28.981  27.854  1.00  0.00     0.029 A 
ATOM     52  N   UNL A   1      40.524  28.683  29.646  1.00  0.00    -0.354 N 
ATOM     53  C   UNL A   1      39.851  31.008  33.266  1.00  0.00     0.074 A 
ATOM     54  C   UNL A   1      38.715  31.889  33.099  1.00  0.00     0.031 C 
ATOM     55  C   UNL A   1      40.095  28.007  27.559  1.00  0.00     0.029 A 
ATOM     56  C   UNL A   1      40.999  27.817  28.690  1.00  0.00     0.049 A 
ATOM     57  H   UNL A   1      40.902  28.745  30.553  1.00  0.00     0.167 HD
ATOM     58  C   UNL A   1      40.569  30.887  34.410  1.00  0.00     0.034 A 
ATOM     59  C   UNL A   1      42.063  26.989  28.719  1.00  0.00     0.034 A 
ATOM     60  C   UNL A   1      41.705  30.007  34.547  1.00  0.00     0.049 A 
ATOM     61  C   UNL A   1      42.891  26.924  29.980  1.00  0.00     0.074 A 
ATOM     62  C   UNL A   1      42.526  29.818  35.644  1.00  0.00     0.029 A 
ATOM     63  N   UNL A   1      42.183  29.168  33.546  1.00  0.00    -0.354 N 
ATOM     64  N   UNL A   1      42.736  27.581  31.108  1.00  0.00    -0.248 NA
ATOM     65  C   UNL A   1      44.032  26.000  29.973  1.00  0.00     0.031 C 
ATOM     66  C   UNL A   1      43.532  28.912  35.289  1.00  0.00     0.029 A 
ATOM     67  C   UNL A   1      43.297  28.475  33.994  1.00  0.00     0.049 A 
ATOM     68  H   UNL A   1      41.788  29.079  32.649  1.00  0.00     0.167 HD
ATOM     69  C   UNL A   1      43.742  27.123  31.955  1.00  0.00     0.074 A 
ATOM     70  C   UNL A   1      44.485  26.125  31.211  1.00  0.00     0.031 C 
ATOM     71  C   UNL A   1      44.027  27.489  33.232  1.00  0.00     0.034 A 
BRANCH  58  72
ATOM     72  C   UNL A   1      40.181  31.778  35.565  1.00  0.00     0.023 A 
ATOM     73  C   UNL A   1      39.227  31.385  36.521  1.00  0.00     0.031 A 
ATOM     74  C   UNL A   1      40.732  33.067  35.679  1.00  0.00     0.131 A 
ATOM     75  C   UNL A   1      38.801  32.293  37.502  1.00  0.00     0.055 A 
ATOM     76  C   UNL A   1      40.363  33.939  36.706  1.00  0.00     0.041 A 
ATOM     77  F   UNL A   1      41.627  33.510  34.781  1.00  0.00    -0.206 F 
ATOM     78  C   UNL A   1      39.380  33.560  37.616  1.00  0.00     0.022 A 
BRANCH  75  79
ATOM     79  S   UNL A   1      37.376  31.852  38.534  1.00  0.00     0.124 S 
ATOM     80  O   UNL A   1      36.403  32.870  38.147  1.00  0.00    -0.237 OA
ATOM     81  O   UNL A   1      37.082  30.491  38.103  1.00  0.00    -0.237 OA
ATOM     82  O   UNL A   1      37.889  31.977  39.898  1.00  0.00    -0.744 OA
ENDBRANCH  75  79
ENDBRANCH  58  72
BRANCH  59  83
ATOM     83  C   UNL A   1      42.436  26.191  27.516  1.00  0.00     0.023 A 
ATOM     84  C   UNL A   1      42.052  24.849  27.384  1.00  0.00     0.031 A 
ATOM     85  C   UNL A   1      43.231  26.753  26.501  1.00  0.00     0.131 A 
ATOM     86  C   UNL A   1      42.501  24.098  26.286  1.00  0.00     0.055 A 
ATOM     87  C   UNL A   1      43.631  26.018  25.384  1.00  0.00     0.041 A 
ATOM     88  F   UNL A   1      43.628  28.033  26.578  1.00  0.00    -0.206 F 
ATOM     89  C   UNL A   1      43.277  24.677  25.278  1.00  0.00     0.022 A 
BRANCH  86  90
ATOM     90  S   UNL A   1      42.129  22.323  26.236  1.00  0.00     0.124 S 
ATOM     91  O   UNL A   1      40.672  22.325  26.184  1.00  0.00    -0.237 OA
ATOM     92  O   UNL A   1      42.815  21.906  25.017  1.00  0.00    -0.237 OA
ATOM     93  O   UNL A   1      42.710  21.818  27.479  1.00  0.00    -0.744 OA
ENDBRANCH  86  90
ENDBRANCH  59  83
BRANCH  71  94
ATOM     94  C   UNL A   1      45.158  26.756  33.913  1.00  0.00     0.023 A 
ATOM     95  C   UNL A   1      44.937  25.604  34.687  1.00  0.00     0.031 A 
ATOM     96  C   UNL A   1      46.474  27.242  33.808  1.00  0.00     0.131 A 
ATOM     97  C   UNL A   1      46.005  25.014  35.381  1.00  0.00     0.055 A 
ATOM     98  C   UNL A   1      47.542  26.613  34.448  1.00  0.00     0.041 A 
ATOM     99  F   UNL A   1      46.742  28.339  33.083  1.00  0.00    -0.206 F 
ATOM    100  C   UNL A   1      47.309  25.502  35.254  1.00  0.00     0.022 A 
BRANCH  97 101
ATOM    101  S   UNL A   1      45.651  23.665  36.540  1.00  0.00     0.124 S 
ATOM    102  O   UNL A   1      46.992  23.243  36.934  1.00  0.00    -0.237 OA
ATOM    103  O   UNL A   1      44.866  24.338  37.570  1.00  0.00    -0.237 OA
ATOM    104  O   UNL A   1      44.911  22.701  35.730  1.00  0.00    -0.744 OA
ENDBRANCH  97 101
ENDBRANCH  71  94
ENDBRANCH  45  46
ENDBRANCH  38  40
ENDBRANCH  37  38
ENDBRANCH  36  37
ENDBRANCH   1  36
TORSDOF 20
ENDMDL
