MODEL 1
REMARK VINA RESULT:     -12.1      0.000      0.000
REMARK SMILES O=C(Cc1ccccc1-c1ccn(C(F)F)c(=O)c1)OCCOC(=O)c1ccc(-c2c3nc(c(-c4cc(S(=O)(=O)[O-])ccc4F)c4ccc([nH]4)c(-c4cc(S(=O)(=O)[O-])ccc4F)c4nc(c(-c5cc(S(=O)(=O)[O-])ccc5F)c5ccc2[nH]5)C=C4)C=C3)cc1
REMARK SMILES IDX 21 1 20 2 2 3 1 4 3 5 4 6 5 7 9 8 6 9 8 10 7 11 10 12 11 13
REMARK SMILES IDX 19 14 12 15 17 16 13 17 18 18 14 19 15 20 16 21 22 22 23 23
REMARK SMILES IDX 24 24 25 25 26 26 27 27 88 28 28 29 87 30 29 31 30 32 31 33
REMARK SMILES IDX 81 34 32 35 86 36 80 37 82 38 33 39 85 40 79 41 78 42 34 44
REMARK SMILES IDX 66 45 46 46 65 47 47 48 50 49 64 50 83 51 48 52 49 53 63 55
REMARK SMILES IDX 84 56 51 57 35 58 36 59 44 60 37 61 43 62 45 63 42 64 38 65
REMARK SMILES IDX 39 66 40 67 41 68 67 69 68 70 76 71 69 72 75 73 77 74 74 75
REMARK SMILES IDX 70 76 71 77 72 78 73 79 52 80 53 81 61 82 54 83 60 84 62 85
REMARK SMILES IDX 59 86 55 87 56 88 57 89 58 90
REMARK H PARENT 82 43 50 54
REMARK Flexibility Score: inf
ROOT
ATOM      1  C   UNL A   1      36.140  20.500  25.014  1.00  0.00     0.274 C 
ENDROOT
BRANCH   1   2
ATOM      2  O   UNL A   1      35.853  21.841  25.460  1.00  0.00    -0.462 OA
BRANCH   2   3
ATOM      3  C   UNL A   1      35.596  22.896  24.651  1.00  0.00     0.310 C 
ATOM      4  O   UNL A   1      36.069  23.998  24.928  1.00  0.00    -0.252 OA
BRANCH   3   5
ATOM      5  C   UNL A   1      34.735  22.712  23.424  1.00  0.00     0.158 C 
BRANCH   5   6
ATOM      6  C   UNL A   1      33.321  23.263  23.424  1.00  0.00    -0.029 A 
ATOM      7  C   UNL A   1      33.180  24.634  23.125  1.00  0.00     0.005 A 
ATOM      8  C   UNL A   1      32.156  22.482  23.591  1.00  0.00    -0.014 A 
ATOM      9  C   UNL A   1      31.923  25.226  23.035  1.00  0.00     0.000 A 
ATOM     10  C   UNL A   1      30.896  23.093  23.505  1.00  0.00     0.009 A 
ATOM     11  C   UNL A   1      30.782  24.458  23.229  1.00  0.00     0.001 A 
BRANCH   8  12
ATOM     12  C   UNL A   1      32.223  21.032  23.849  1.00  0.00    -0.011 A 
ATOM     13  C   UNL A   1      32.470  20.492  25.172  1.00  0.00     0.027 A 
ATOM     14  C   UNL A   1      32.196  20.202  22.791  1.00  0.00     0.080 A 
ATOM     15  C   UNL A   1      32.914  19.236  25.304  1.00  0.00     0.095 A 
ATOM     16  C   UNL A   1      32.536  18.760  22.958  1.00  0.00     0.255 A 
ATOM     17  N   UNL A   1      33.025  18.405  24.204  1.00  0.00    -0.258 N 
ATOM     18  O   UNL A   1      32.401  18.008  21.998  1.00  0.00    -0.269 OA
BRANCH  17  19
ATOM     19  C   UNL A   1      33.619  17.101  24.344  1.00  0.00     0.451 C 
ATOM     20  F   UNL A   1      32.660  16.141  24.347  1.00  0.00    -0.185 F 
ATOM     21  F   UNL A   1      34.492  16.814  23.350  1.00  0.00    -0.185 F 
ENDBRANCH  17  19
ENDBRANCH   8  12
ENDBRANCH   5   6
ENDBRANCH   3   5
ENDBRANCH   2   3
ENDBRANCH   1   2
BRANCH   1  22
ATOM     22  C   UNL A   1      37.647  20.294  24.879  1.00  0.00     0.275 C 
BRANCH  22  23
ATOM     23  O   UNL A   1      38.329  21.374  25.533  1.00  0.00    -0.458 OA
BRANCH  23  24
ATOM     24  C   UNL A   1      39.460  21.042  26.212  1.00  0.00     0.338 C 
ATOM     25  O   UNL A   1      40.013  19.963  26.221  1.00  0.00    -0.246 OA
BRANCH  24  26
ATOM     26  C   UNL A   1      40.028  22.298  26.752  1.00  0.00     0.060 A 
ATOM     27  C   UNL A   1      39.517  23.521  26.293  1.00  0.00     0.016 A 
ATOM     28  C   UNL A   1      40.996  22.266  27.761  1.00  0.00     0.016 A 
ATOM     29  C   UNL A   1      39.984  24.719  26.839  1.00  0.00     0.010 A 
ATOM     30  C   UNL A   1      41.470  23.461  28.293  1.00  0.00     0.010 A 
ATOM     31  C   UNL A   1      40.984  24.692  27.820  1.00  0.00    -0.014 A 
BRANCH  31  32
ATOM     32  C   UNL A   1      41.709  25.921  28.213  1.00  0.00     0.031 A 
ATOM     33  C   UNL A   1      40.920  27.002  28.891  1.00  0.00     0.074 A 
ATOM     34  C   UNL A   1      42.995  26.115  27.875  1.00  0.00     0.049 A 
ATOM     35  N   UNL A   1      41.246  28.240  29.146  1.00  0.00    -0.248 NA
ATOM     36  C   UNL A   1      39.558  26.632  29.307  1.00  0.00     0.031 C 
ATOM     37  C   UNL A   1      43.859  25.129  27.229  1.00  0.00     0.029 A 
ATOM     38  N   UNL A   1      43.782  27.233  27.991  1.00  0.00    -0.354 N 
ATOM     39  C   UNL A   1      40.125  28.805  29.743  1.00  0.00     0.074 A 
ATOM     40  C   UNL A   1      39.101  27.782  29.773  1.00  0.00     0.031 C 
ATOM     41  C   UNL A   1      45.047  25.702  26.965  1.00  0.00     0.029 A 
ATOM     42  C   UNL A   1      45.010  27.102  27.387  1.00  0.00     0.049 A 
ATOM     43  H   UNL A   1      43.495  28.049  28.460  1.00  0.00     0.167 HD
ATOM     44  C   UNL A   1      39.964  30.064  30.221  1.00  0.00     0.034 A 
ATOM     45  C   UNL A   1      45.971  28.021  27.162  1.00  0.00     0.034 A 
ATOM     46  C   UNL A   1      40.986  31.077  30.144  1.00  0.00     0.049 A 
ATOM     47  C   UNL A   1      45.755  29.439  27.635  1.00  0.00     0.074 A 
ATOM     48  C   UNL A   1      40.949  32.381  30.604  1.00  0.00     0.029 A 
ATOM     49  N   UNL A   1      42.227  30.903  29.542  1.00  0.00    -0.354 N 
ATOM     50  N   UNL A   1      44.702  29.964  28.221  1.00  0.00    -0.248 NA
ATOM     51  C   UNL A   1      46.856  30.387  27.419  1.00  0.00     0.031 C 
ATOM     52  C   UNL A   1      42.137  33.013  30.220  1.00  0.00     0.029 A 
ATOM     53  C   UNL A   1      42.950  32.083  29.587  1.00  0.00     0.049 A 
ATOM     54  H   UNL A   1      42.546  30.062  29.141  1.00  0.00     0.167 HD
ATOM     55  C   UNL A   1      45.027  31.295  28.471  1.00  0.00     0.074 A 
ATOM     56  C   UNL A   1      46.372  31.494  27.968  1.00  0.00     0.031 C 
ATOM     57  C   UNL A   1      44.288  32.262  29.072  1.00  0.00     0.034 A 
BRANCH  44  58
ATOM     58  C   UNL A   1      38.609  30.405  30.791  1.00  0.00     0.023 A 
ATOM     59  C   UNL A   1      37.590  30.953  29.992  1.00  0.00     0.031 A 
ATOM     60  C   UNL A   1      38.366  30.276  32.170  1.00  0.00     0.131 A 
ATOM     61  C   UNL A   1      36.423  31.452  30.590  1.00  0.00     0.055 A 
ATOM     62  C   UNL A   1      37.162  30.688  32.746  1.00  0.00     0.041 A 
ATOM     63  F   UNL A   1      39.309  29.784  32.988  1.00  0.00    -0.206 F 
ATOM     64  C   UNL A   1      36.192  31.301  31.959  1.00  0.00     0.022 A 
BRANCH  61  65
ATOM     65  S   UNL A   1      35.310  32.477  29.588  1.00  0.00     0.124 S 
ATOM     66  O   UNL A   1      34.926  31.546  28.529  1.00  0.00    -0.237 OA
ATOM     67  O   UNL A   1      34.263  32.827  30.541  1.00  0.00    -0.237 OA
ATOM     68  O   UNL A   1      36.159  33.584  29.155  1.00  0.00    -0.744 OA
ENDBRANCH  61  65
ENDBRANCH  44  58
BRANCH  45  69
ATOM     69  C   UNL A   1      47.195  27.648  26.401  1.00  0.00     0.023 A 
ATOM     70  C   UNL A   1      47.284  27.851  25.014  1.00  0.00     0.031 A 
ATOM     71  C   UNL A   1      48.294  27.063  27.055  1.00  0.00     0.131 A 
ATOM     72  C   UNL A   1      48.437  27.447  24.323  1.00  0.00     0.055 A 
ATOM     73  C   UNL A   1      49.454  26.699  26.368  1.00  0.00     0.041 A 
ATOM     74  F   UNL A   1      48.261  26.852  28.381  1.00  0.00    -0.206 F 
ATOM     75  C   UNL A   1      49.527  26.884  24.992  1.00  0.00     0.022 A 
BRANCH  72  76
ATOM     76  S   UNL A   1      48.480  27.628  22.518  1.00  0.00     0.124 S 
ATOM     77  O   UNL A   1      49.673  28.446  22.332  1.00  0.00    -0.237 OA
ATOM     78  O   UNL A   1      48.577  26.242  22.075  1.00  0.00    -0.237 OA
ATOM     79  O   UNL A   1      47.213  28.290  22.213  1.00  0.00    -0.744 OA
ENDBRANCH  72  76
ENDBRANCH  45  69
BRANCH  57  80
ATOM     80  C   UNL A   1      44.938  33.609  29.273  1.00  0.00     0.023 A 
ATOM     81  C   UNL A   1      44.819  34.643  28.329  1.00  0.00     0.031 A 
ATOM     82  C   UNL A   1      45.662  33.866  30.451  1.00  0.00     0.131 A 
ATOM     83  C   UNL A   1      45.443  35.878  28.566  1.00  0.00     0.055 A 
ATOM     84  C   UNL A   1      46.239  35.109  30.704  1.00  0.00     0.041 A 
ATOM     85  F   UNL A   1      45.804  32.911  31.385  1.00  0.00    -0.206 F 
ATOM     86  C   UNL A   1      46.138  36.123  29.756  1.00  0.00     0.022 A 
BRANCH  83  87
ATOM     87  S   UNL A   1      45.382  37.153  27.277  1.00  0.00     0.124 S 
ATOM     88  O   UNL A   1      46.245  36.586  26.247  1.00  0.00    -0.237 OA
ATOM     89  O   UNL A   1      43.959  37.209  26.959  1.00  0.00    -0.237 OA
ATOM     90  O   UNL A   1      45.912  38.341  27.945  1.00  0.00    -0.744 OA
ENDBRANCH  83  87
ENDBRANCH  57  80
ENDBRANCH  31  32
ENDBRANCH  24  26
ENDBRANCH  23  24
ENDBRANCH  22  23
ENDBRANCH   1  22
TORSDOF 17
ENDMDL
MODEL 2
REMARK VINA RESULT:     -11.9      5.135     10.657
REMARK SMILES O=C(Cc1ccccc1-c1ccn(C(F)F)c(=O)c1)OCCOC(=O)c1ccc(-c2c3nc(c(-c4cc(S(=O)(=O)[O-])ccc4F)c4ccc([nH]4)c(-c4cc(S(=O)(=O)[O-])ccc4F)c4nc(c(-c5cc(S(=O)(=O)[O-])ccc5F)c5ccc2[nH]5)C=C4)C=C3)cc1
REMARK SMILES IDX 21 1 20 2 2 3 1 4 3 5 4 6 5 7 9 8 6 9 8 10 7 11 10 12 11 13
REMARK SMILES IDX 19 14 12 15 17 16 13 17 18 18 14 19 15 20 16 21 22 22 23 23
REMARK SMILES IDX 24 24 25 25 26 26 27 27 88 28 28 29 87 30 29 31 30 32 31 33
REMARK SMILES IDX 81 34 32 35 86 36 80 37 82 38 33 39 85 40 79 41 78 42 34 44
REMARK SMILES IDX 66 45 46 46 65 47 47 48 50 49 64 50 83 51 48 52 49 53 63 55
REMARK SMILES IDX 84 56 51 57 35 58 36 59 44 60 37 61 43 62 45 63 42 64 38 65
REMARK SMILES IDX 39 66 40 67 41 68 67 69 68 70 76 71 69 72 75 73 77 74 74 75
REMARK SMILES IDX 70 76 71 77 72 78 73 79 52 80 53 81 61 82 54 83 60 84 62 85
REMARK SMILES IDX 59 86 55 87 56 88 57 89 58 90
REMARK H PARENT 82 43 50 54
REMARK Flexibility Score: inf
ROOT
ATOM      1  C   UNL A   1      42.345  21.246  26.140  1.00  0.00     0.274 C 
ENDROOT
BRANCH   1   2
ATOM      2  O   UNL A   1      42.393  22.168  25.033  1.00  0.00    -0.462 OA
BRANCH   2   3
ATOM      3  C   UNL A   1      43.430  22.988  24.741  1.00  0.00     0.310 C 
ATOM      4  O   UNL A   1      44.302  22.604  23.961  1.00  0.00    -0.252 OA
BRANCH   3   5
ATOM      5  C   UNL A   1      43.509  24.357  25.372  1.00  0.00     0.158 C 
BRANCH   5   6
ATOM      6  C   UNL A   1      44.286  24.532  26.664  1.00  0.00    -0.029 A 
ATOM      7  C   UNL A   1      43.711  23.974  27.824  1.00  0.00     0.005 A 
ATOM      8  C   UNL A   1      45.572  25.108  26.755  1.00  0.00    -0.014 A 
ATOM      9  C   UNL A   1      44.370  24.021  29.049  1.00  0.00     0.000 A 
ATOM     10  C   UNL A   1      46.222  25.155  27.997  1.00  0.00     0.009 A 
ATOM     11  C   UNL A   1      45.623  24.615  29.138  1.00  0.00     0.001 A 
BRANCH   8  12
ATOM     12  C   UNL A   1      46.262  25.659  25.574  1.00  0.00    -0.011 A 
ATOM     13  C   UNL A   1      47.262  24.906  24.840  1.00  0.00     0.027 A 
ATOM     14  C   UNL A   1      46.054  26.952  25.268  1.00  0.00     0.080 A 
ATOM     15  C   UNL A   1      48.132  25.550  24.053  1.00  0.00     0.095 A 
ATOM     16  C   UNL A   1      46.922  27.638  24.269  1.00  0.00     0.255 A 
ATOM     17  N   UNL A   1      48.017  26.910  23.834  1.00  0.00    -0.258 N 
ATOM     18  O   UNL A   1      46.642  28.785  23.934  1.00  0.00    -0.269 OA
BRANCH  17  19
ATOM     19  C   UNL A   1      49.030  27.607  23.085  1.00  0.00     0.451 C 
ATOM     20  F   UNL A   1      50.076  26.783  22.821  1.00  0.00    -0.185 F 
ATOM     21  F   UNL A   1      48.572  28.087  21.905  1.00  0.00    -0.185 F 
ENDBRANCH  17  19
ENDBRANCH   8  12
ENDBRANCH   5   6
ENDBRANCH   3   5
ENDBRANCH   2   3
ENDBRANCH   1   2
BRANCH   1  22
ATOM     22  C   UNL A   1      40.900  21.001  26.568  1.00  0.00     0.275 C 
BRANCH  22  23
ATOM     23  O   UNL A   1      40.426  22.146  27.294  1.00  0.00    -0.458 OA
BRANCH  23  24
ATOM     24  C   UNL A   1      39.515  22.926  26.651  1.00  0.00     0.338 C 
ATOM     25  O   UNL A   1      38.583  22.547  25.973  1.00  0.00    -0.246 OA
BRANCH  24  26
ATOM     26  C   UNL A   1      39.726  24.315  27.117  1.00  0.00     0.060 A 
ATOM     27  C   UNL A   1      40.278  25.247  26.227  1.00  0.00     0.016 A 
ATOM     28  C   UNL A   1      39.307  24.710  28.391  1.00  0.00     0.016 A 
ATOM     29  C   UNL A   1      40.420  26.581  26.617  1.00  0.00     0.010 A 
ATOM     30  C   UNL A   1      39.463  26.036  28.782  1.00  0.00     0.010 A 
ATOM     31  C   UNL A   1      40.040  26.972  27.907  1.00  0.00    -0.014 A 
BRANCH  31  32
ATOM     32  C   UNL A   1      40.435  28.286  28.461  1.00  0.00     0.031 A 
ATOM     33  C   UNL A   1      41.881  28.480  28.815  1.00  0.00     0.074 A 
ATOM     34  C   UNL A   1      39.523  29.230  28.748  1.00  0.00     0.049 A 
ATOM     35  N   UNL A   1      42.453  29.435  29.499  1.00  0.00    -0.248 NA
ATOM     36  C   UNL A   1      42.798  27.426  28.355  1.00  0.00     0.031 C 
ATOM     37  C   UNL A   1      38.098  29.152  28.434  1.00  0.00     0.029 A 
ATOM     38  N   UNL A   1      39.661  30.423  29.411  1.00  0.00    -0.354 N 
ATOM     39  C   UNL A   1      43.798  29.090  29.563  1.00  0.00     0.074 A 
ATOM     40  C   UNL A   1      43.943  27.821  28.882  1.00  0.00     0.031 C 
ATOM     41  C   UNL A   1      37.483  30.234  28.945  1.00  0.00     0.029 A 
ATOM     42  C   UNL A   1      38.465  31.055  29.653  1.00  0.00     0.049 A 
ATOM     43  H   UNL A   1      40.532  30.791  29.686  1.00  0.00     0.167 HD
ATOM     44  C   UNL A   1      44.820  29.771  30.140  1.00  0.00     0.034 A 
ATOM     45  C   UNL A   1      38.193  32.144  30.401  1.00  0.00     0.034 A 
ATOM     46  C   UNL A   1      44.642  31.014  30.847  1.00  0.00     0.049 A 
ATOM     47  C   UNL A   1      39.327  32.857  31.098  1.00  0.00     0.074 A 
ATOM     48  C   UNL A   1      45.597  31.805  31.460  1.00  0.00     0.029 A 
ATOM     49  N   UNL A   1      43.417  31.636  31.057  1.00  0.00    -0.354 N 
ATOM     50  N   UNL A   1      40.602  32.542  31.137  1.00  0.00    -0.248 NA
ATOM     51  C   UNL A   1      38.986  34.072  31.850  1.00  0.00     0.031 C 
ATOM     52  C   UNL A   1      44.943  32.865  32.098  1.00  0.00     0.029 A 
ATOM     53  C   UNL A   1      43.586  32.781  31.819  1.00  0.00     0.049 A 
ATOM     54  H   UNL A   1      42.553  31.311  30.714  1.00  0.00     0.167 HD
ATOM     55  C   UNL A   1      41.219  33.537  31.891  1.00  0.00     0.074 A 
ATOM     56  C   UNL A   1      40.175  34.460  32.291  1.00  0.00     0.031 C 
ATOM     57  C   UNL A   1      42.530  33.684  32.214  1.00  0.00     0.034 A 
BRANCH  44  58
ATOM     58  C   UNL A   1      46.184  29.128  30.079  1.00  0.00     0.023 A 
ATOM     59  C   UNL A   1      47.098  29.436  29.056  1.00  0.00     0.031 A 
ATOM     60  C   UNL A   1      46.535  28.120  30.994  1.00  0.00     0.131 A 
ATOM     61  C   UNL A   1      48.265  28.673  28.907  1.00  0.00     0.055 A 
ATOM     62  C   UNL A   1      47.743  27.427  30.896  1.00  0.00     0.041 A 
ATOM     63  F   UNL A   1      45.692  27.763  31.976  1.00  0.00    -0.206 F 
ATOM     64  C   UNL A   1      48.606  27.685  29.834  1.00  0.00     0.022 A 
BRANCH  61  65
ATOM     65  S   UNL A   1      49.223  28.850  27.376  1.00  0.00     0.124 S 
ATOM     66  O   UNL A   1      48.371  29.746  26.597  1.00  0.00    -0.237 OA
ATOM     67  O   UNL A   1      50.478  29.417  27.855  1.00  0.00    -0.237 OA
ATOM     68  O   UNL A   1      49.308  27.484  26.865  1.00  0.00    -0.744 OA
ENDBRANCH  61  65
ENDBRANCH  44  58
BRANCH  45  69
ATOM     69  C   UNL A   1      36.783  32.591  30.580  1.00  0.00     0.023 A 
ATOM     70  C   UNL A   1      36.111  33.309  29.579  1.00  0.00     0.031 A 
ATOM     71  C   UNL A   1      36.091  32.314  31.773  1.00  0.00     0.131 A 
ATOM     72  C   UNL A   1      34.797  33.751  29.802  1.00  0.00     0.055 A 
ATOM     73  C   UNL A   1      34.771  32.721  31.973  1.00  0.00     0.041 A 
ATOM     74  F   UNL A   1      36.689  31.625  32.760  1.00  0.00    -0.206 F 
ATOM     75  C   UNL A   1      34.119  33.452  30.986  1.00  0.00     0.022 A 
BRANCH  72  76
ATOM     76  S   UNL A   1      33.991  34.766  28.531  1.00  0.00     0.124 S 
ATOM     77  O   UNL A   1      34.091  36.101  29.112  1.00  0.00    -0.237 OA
ATOM     78  O   UNL A   1      34.826  34.510  27.363  1.00  0.00    -0.237 OA
ATOM     79  O   UNL A   1      32.640  34.214  28.462  1.00  0.00    -0.744 OA
ENDBRANCH  72  76
ENDBRANCH  45  69
BRANCH  57  80
ATOM     80  C   UNL A   1      42.920  34.916  32.991  1.00  0.00     0.023 A 
ATOM     81  C   UNL A   1      43.181  36.145  32.360  1.00  0.00     0.031 A 
ATOM     82  C   UNL A   1      42.998  34.861  34.394  1.00  0.00     0.131 A 
ATOM     83  C   UNL A   1      43.539  37.262  33.132  1.00  0.00     0.055 A 
ATOM     84  C   UNL A   1      43.306  35.985  35.159  1.00  0.00     0.041 A 
ATOM     85  F   UNL A   1      42.756  33.711  35.045  1.00  0.00    -0.206 F 
ATOM     86  C   UNL A   1      43.586  37.194  34.528  1.00  0.00     0.022 A 
BRANCH  83  87
ATOM     87  S   UNL A   1      43.993  38.802  32.287  1.00  0.00     0.124 S 
ATOM     88  O   UNL A   1      43.863  38.428  30.882  1.00  0.00    -0.237 OA
ATOM     89  O   UNL A   1      42.999  39.742  32.792  1.00  0.00    -0.237 OA
ATOM     90  O   UNL A   1      45.362  39.050  32.738  1.00  0.00    -0.744 OA
ENDBRANCH  83  87
ENDBRANCH  57  80
ENDBRANCH  31  32
ENDBRANCH  24  26
ENDBRANCH  23  24
ENDBRANCH  22  23
ENDBRANCH   1  22
TORSDOF 17
ENDMDL
MODEL 3
REMARK VINA RESULT:     -11.8      1.004      7.612
REMARK SMILES O=C(Cc1ccccc1-c1ccn(C(F)F)c(=O)c1)OCCOC(=O)c1ccc(-c2c3nc(c(-c4cc(S(=O)(=O)[O-])ccc4F)c4ccc([nH]4)c(-c4cc(S(=O)(=O)[O-])ccc4F)c4nc(c(-c5cc(S(=O)(=O)[O-])ccc5F)c5ccc2[nH]5)C=C4)C=C3)cc1
REMARK SMILES IDX 21 1 20 2 2 3 1 4 3 5 4 6 5 7 9 8 6 9 8 10 7 11 10 12 11 13
REMARK SMILES IDX 19 14 12 15 17 16 13 17 18 18 14 19 15 20 16 21 22 22 23 23
REMARK SMILES IDX 24 24 25 25 26 26 27 27 88 28 28 29 87 30 29 31 30 32 31 33
REMARK SMILES IDX 81 34 32 35 86 36 80 37 82 38 33 39 85 40 79 41 78 42 34 44
REMARK SMILES IDX 66 45 46 46 65 47 47 48 50 49 64 50 83 51 48 52 49 53 63 55
REMARK SMILES IDX 84 56 51 57 35 58 36 59 44 60 37 61 43 62 45 63 42 64 38 65
REMARK SMILES IDX 39 66 40 67 41 68 67 69 68 70 76 71 69 72 75 73 77 74 74 75
REMARK SMILES IDX 70 76 71 77 72 78 73 79 52 80 53 81 61 82 54 83 60 84 62 85
REMARK SMILES IDX 59 86 55 87 56 88 57 89 58 90
REMARK H PARENT 82 43 50 54
REMARK Flexibility Score: inf
ROOT
ATOM      1  C   UNL A   1      37.795  19.678  24.920  1.00  0.00     0.274 C 
ENDROOT
BRANCH   1   2
ATOM      2  O   UNL A   1      37.602  21.086  24.679  1.00  0.00    -0.462 OA
BRANCH   2   3
ATOM      3  C   UNL A   1      36.403  21.712  24.617  1.00  0.00     0.310 C 
ATOM      4  O   UNL A   1      36.161  22.462  23.672  1.00  0.00    -0.252 OA
BRANCH   3   5
ATOM      5  C   UNL A   1      35.379  21.487  25.704  1.00  0.00     0.158 C 
BRANCH   5   6
ATOM      6  C   UNL A   1      34.093  22.292  25.686  1.00  0.00    -0.029 A 
ATOM      7  C   UNL A   1      34.207  23.665  25.987  1.00  0.00     0.005 A 
ATOM      8  C   UNL A   1      32.836  21.787  25.287  1.00  0.00    -0.014 A 
ATOM      9  C   UNL A   1      33.100  24.508  25.935  1.00  0.00     0.000 A 
ATOM     10  C   UNL A   1      31.727  22.646  25.246  1.00  0.00     0.009 A 
ATOM     11  C   UNL A   1      31.860  23.999  25.570  1.00  0.00     0.001 A 
BRANCH   8  12
ATOM     12  C   UNL A   1      32.652  20.377  24.901  1.00  0.00    -0.011 A 
ATOM     13  C   UNL A   1      32.830  19.287  25.843  1.00  0.00     0.027 A 
ATOM     14  C   UNL A   1      32.456  20.099  23.600  1.00  0.00     0.080 A 
ATOM     15  C   UNL A   1      33.048  18.047  25.389  1.00  0.00     0.095 A 
ATOM     16  C   UNL A   1      32.541  18.693  23.110  1.00  0.00     0.255 A 
ATOM     17  N   UNL A   1      32.987  17.766  24.037  1.00  0.00    -0.258 N 
ATOM     18  O   UNL A   1      32.254  18.459  21.940  1.00  0.00    -0.269 OA
BRANCH  17  19
ATOM     19  C   UNL A   1      33.345  16.457  23.557  1.00  0.00     0.451 C 
ATOM     20  F   UNL A   1      34.464  16.521  22.793  1.00  0.00    -0.185 F 
ATOM     21  F   UNL A   1      33.578  15.577  24.561  1.00  0.00    -0.185 F 
ENDBRANCH  17  19
ENDBRANCH   8  12
ENDBRANCH   5   6
ENDBRANCH   3   5
ENDBRANCH   2   3
ENDBRANCH   1   2
BRANCH   1  22
ATOM     22  C   UNL A   1      39.109  19.439  25.662  1.00  0.00     0.275 C 
BRANCH  22  23
ATOM     23  O   UNL A   1      39.743  20.702  25.911  1.00  0.00    -0.458 OA
BRANCH  23  24
ATOM     24  C   UNL A   1      40.443  20.801  27.074  1.00  0.00     0.338 C 
ATOM     25  O   UNL A   1      40.953  19.891  27.695  1.00  0.00    -0.246 OA
BRANCH  24  26
ATOM     26  C   UNL A   1      40.673  22.241  27.323  1.00  0.00     0.060 A 
ATOM     27  C   UNL A   1      39.927  23.179  26.595  1.00  0.00     0.016 A 
ATOM     28  C   UNL A   1      41.556  22.658  28.324  1.00  0.00     0.016 A 
ATOM     29  C   UNL A   1      40.072  24.542  26.862  1.00  0.00     0.010 A 
ATOM     30  C   UNL A   1      41.710  24.018  28.578  1.00  0.00     0.010 A 
ATOM     31  C   UNL A   1      40.987  24.966  27.834  1.00  0.00    -0.014 A 
BRANCH  31  32
ATOM     32  C   UNL A   1      41.386  26.386  27.948  1.00  0.00     0.031 A 
ATOM     33  C   UNL A   1      42.778  26.750  27.520  1.00  0.00     0.074 A 
ATOM     34  C   UNL A   1      40.581  27.298  28.520  1.00  0.00     0.049 A 
ATOM     35  N   UNL A   1      43.448  27.855  27.707  1.00  0.00    -0.248 NA
ATOM     36  C   UNL A   1      43.522  25.698  26.811  1.00  0.00     0.031 C 
ATOM     37  C   UNL A   1      39.207  27.058  28.958  1.00  0.00     0.029 A 
ATOM     38  N   UNL A   1      40.827  28.602  28.869  1.00  0.00    -0.354 N 
ATOM     39  C   UNL A   1      44.700  27.629  27.148  1.00  0.00     0.074 A 
ATOM     40  C   UNL A   1      44.704  26.268  26.654  1.00  0.00     0.031 C 
ATOM     41  C   UNL A   1      38.745  28.168  29.559  1.00  0.00     0.029 A 
ATOM     42  C   UNL A   1      39.803  29.179  29.583  1.00  0.00     0.049 A 
ATOM     43  H   UNL A   1      41.655  29.077  28.633  1.00  0.00     0.167 HD
ATOM     44  C   UNL A   1      45.753  28.480  27.057  1.00  0.00     0.034 A 
ATOM     45  C   UNL A   1      39.748  30.366  30.220  1.00  0.00     0.034 A 
ATOM     46  C   UNL A   1      45.737  29.818  27.593  1.00  0.00     0.049 A 
ATOM     47  C   UNL A   1      40.950  31.279  30.174  1.00  0.00     0.074 A 
ATOM     48  C   UNL A   1      46.733  30.777  27.552  1.00  0.00     0.029 A 
ATOM     49  N   UNL A   1      44.675  30.376  28.293  1.00  0.00    -0.354 N 
ATOM     50  N   UNL A   1      42.126  31.072  29.623  1.00  0.00    -0.248 NA
ATOM     51  C   UNL A   1      40.818  32.586  30.832  1.00  0.00     0.031 C 
ATOM     52  C   UNL A   1      46.298  31.888  28.285  1.00  0.00     0.029 A 
ATOM     53  C   UNL A   1      45.002  31.653  28.719  1.00  0.00     0.049 A 
ATOM     54  H   UNL A   1      43.814  29.930  28.463  1.00  0.00     0.167 HD
ATOM     55  C   UNL A   1      42.861  32.234  29.843  1.00  0.00     0.074 A 
ATOM     56  C   UNL A   1      41.999  33.136  30.579  1.00  0.00     0.031 C 
ATOM     57  C   UNL A   1      44.129  32.534  29.460  1.00  0.00     0.034 A 
BRANCH  44  58
ATOM     58  C   UNL A   1      47.010  27.939  26.420  1.00  0.00     0.023 A 
ATOM     59  C   UNL A   1      47.301  28.161  25.062  1.00  0.00     0.031 A 
ATOM     60  C   UNL A   1      47.874  27.105  27.151  1.00  0.00     0.131 A 
ATOM     61  C   UNL A   1      48.360  27.473  24.453  1.00  0.00     0.055 A 
ATOM     62  C   UNL A   1      48.984  26.497  26.560  1.00  0.00     0.041 A 
ATOM     63  F   UNL A   1      47.633  26.834  28.443  1.00  0.00    -0.206 F 
ATOM     64  C   UNL A   1      49.219  26.661  25.198  1.00  0.00     0.022 A 
BRANCH  61  65
ATOM     65  S   UNL A   1      48.476  27.495  22.642  1.00  0.00     0.124 S 
ATOM     66  O   UNL A   1      49.771  28.140  22.437  1.00  0.00    -0.237 OA
ATOM     67  O   UNL A   1      48.407  26.078  22.305  1.00  0.00    -0.237 OA
ATOM     68  O   UNL A   1      47.321  28.292  22.234  1.00  0.00    -0.744 OA
ENDBRANCH  61  65
ENDBRANCH  44  58
BRANCH  45  69
ATOM     69  C   UNL A   1      38.539  30.734  31.007  1.00  0.00     0.023 A 
ATOM     70  C   UNL A   1      37.474  31.439  30.424  1.00  0.00     0.031 A 
ATOM     71  C   UNL A   1      38.440  30.394  32.368  1.00  0.00     0.131 A 
ATOM     72  C   UNL A   1      36.369  31.806  31.209  1.00  0.00     0.055 A 
ATOM     73  C   UNL A   1      37.321  30.726  33.134  1.00  0.00     0.041 A 
ATOM     74  F   UNL A   1      39.430  29.715  32.971  1.00  0.00    -0.206 F 
ATOM     75  C   UNL A   1      36.280  31.444  32.555  1.00  0.00     0.022 A 
BRANCH  72  76
ATOM     76  S   UNL A   1      35.056  32.806  30.453  1.00  0.00     0.124 S 
ATOM     77  O   UNL A   1      34.119  32.950  31.562  1.00  0.00    -0.237 OA
ATOM     78  O   UNL A   1      35.779  34.011  30.063  1.00  0.00    -0.237 OA
ATOM     79  O   UNL A   1      34.591  31.974  29.345  1.00  0.00    -0.744 OA
ENDBRANCH  72  76
ENDBRANCH  45  69
BRANCH  57  80
ATOM     80  C   UNL A   1      44.641  33.917  29.780  1.00  0.00     0.023 A 
ATOM     81  C   UNL A   1      44.344  35.028  28.972  1.00  0.00     0.031 A 
ATOM     82  C   UNL A   1      45.414  34.124  30.936  1.00  0.00     0.131 A 
ATOM     83  C   UNL A   1      44.845  36.294  29.317  1.00  0.00     0.055 A 
ATOM     84  C   UNL A   1      45.869  35.391  31.300  1.00  0.00     0.041 A 
ATOM     85  F   UNL A   1      45.725  33.096  31.742  1.00  0.00    -0.206 F 
ATOM     86  C   UNL A   1      45.591  36.484  30.485  1.00  0.00     0.022 A 
BRANCH  83  87
ATOM     87  S   UNL A   1      44.554  37.687  28.193  1.00  0.00     0.124 S 
ATOM     88  O   UNL A   1      45.734  38.515  28.424  1.00  0.00    -0.237 OA
ATOM     89  O   UNL A   1      44.479  37.032  26.892  1.00  0.00    -0.237 OA
ATOM     90  O   UNL A   1      43.295  38.256  28.671  1.00  0.00    -0.744 OA
ENDBRANCH  83  87
ENDBRANCH  57  80
ENDBRANCH  31  32
ENDBRANCH  24  26
ENDBRANCH  23  24
ENDBRANCH  22  23
ENDBRANCH   1  22
TORSDOF 17
ENDMDL
