MODEL 1
REMARK VINA RESULT:     -13.5      0.000      0.000
REMARK SMILES Cc1ccc(S(=O)(=O)n2cc(C(=O)C(=O)N[C@@H](Cc3c[nH]c4ccccc34)C(=O)NCC(=O)OCCOC(=O)c3ccc(-c4c5nc(c(-c6cc(S(=O)(=O)[O-])ccc6F)c6ccc([nH]6)c(-c6cc(S(=O)(=O)[O-])ccc6F)c6nc(c(-c7cc(S(=O)(=O)[O-])ccc7F)c7ccc4[nH]7)C=C6)C=C5)cc3)c3ccccc32)cc1
REMARK SMILES IDX 32 1 33 2 31 3 30 4 28 5 29 6 17 8 16 9 14 10 15 11 12 13
REMARK SMILES IDX 13 14 11 15 9 16 10 17 108 18 103 19 107 20 104 21 106 22
REMARK SMILES IDX 105 23 6 24 7 25 8 26 5 27 1 28 2 29 3 30 110 31 4 32 109 33
REMARK SMILES IDX 18 34 19 35 20 36 27 37 21 38 22 39 26 40 23 42 25 43 24 44
REMARK SMILES IDX 34 45 35 46 36 47 37 48 38 49 39 50 40 51 41 52 102 53 42 54
REMARK SMILES IDX 101 55 43 56 44 57 45 58 95 59 46 60 100 61 94 62 96 63
REMARK SMILES IDX 47 64 99 65 93 66 92 67 48 69 80 70 60 71 79 72 61 73 64 74
REMARK SMILES IDX 78 75 97 76 62 77 63 78 77 80 98 81 65 82 49 83 50 84 58 85
REMARK SMILES IDX 51 86 57 87 59 88 56 89 52 90 53 91 54 92 55 93 81 94 82 95
REMARK SMILES IDX 90 96 83 97 89 98 91 99 88 100 84 101 85 102 86 103 87 104
REMARK SMILES IDX 66 105 67 106 75 107 68 108 74 109 76 110 73 111 69 112
REMARK SMILES IDX 70 113 71 114 72 115
REMARK H PARENT 30 7 16 12 21 41 96 68 64 79
REMARK Flexibility Score: inf
ROOT
ATOM      1  C   UNL A   1      35.378  32.722  27.947  1.00  0.00     0.325 C 
ATOM      2  O   UNL A   1      36.522  32.737  28.375  1.00  0.00    -0.250 OA
ENDROOT
BRANCH   1   3
ATOM      3  C   UNL A   1      34.465  31.483  27.900  1.00  0.00     0.238 C 
BRANCH   3   4
ATOM      4  N   UNL A   1      33.067  31.705  27.550  1.00  0.00    -0.343 N 
ATOM      5  C   UNL A   1      32.178  30.901  26.886  1.00  0.00     0.243 C 
ATOM      6  O   UNL A   1      31.034  31.352  26.731  1.00  0.00    -0.273 OA
ATOM      7  H   UNL A   1      32.702  32.573  27.838  1.00  0.00     0.164 HD
BRANCH   5   8
ATOM      8  C   UNL A   1      32.572  29.535  26.221  1.00  0.00     0.176 C 
BRANCH   8   9
ATOM      9  N   UNL A   1      31.879  28.340  26.691  1.00  0.00    -0.337 N 
ATOM     10  C   UNL A   1      32.114  26.993  26.595  1.00  0.00     0.293 C 
ATOM     11  O   UNL A   1      31.330  26.169  27.047  1.00  0.00    -0.265 OA
ATOM     12  H   UNL A   1      31.056  28.549  27.188  1.00  0.00     0.164 HD
BRANCH  10  13
ATOM     13  C   UNL A   1      33.430  26.513  26.029  1.00  0.00     0.252 C 
ATOM     14  O   UNL A   1      34.429  27.074  26.484  1.00  0.00    -0.283 OA
BRANCH  13  15
ATOM     15  C   UNL A   1      33.516  25.525  24.954  1.00  0.00     0.054 A 
ATOM     16  N   UNL A   1      33.207  24.181  23.163  1.00  0.00    -0.240 N 
ATOM     17  C   UNL A   1      32.680  25.269  23.862  1.00  0.00     0.117 A 
ATOM     18  C   UNL A   1      34.510  23.970  23.644  1.00  0.00     0.065 A 
ATOM     19  C   UNL A   1      34.544  24.541  24.911  1.00  0.00     0.012 A 
ATOM     20  C   UNL A   1      35.537  23.118  23.199  1.00  0.00     0.028 A 
ATOM     21  C   UNL A   1      35.526  24.111  25.828  1.00  0.00     0.011 A 
ATOM     22  C   UNL A   1      36.468  22.670  24.139  1.00  0.00     0.002 A 
ATOM     23  C   UNL A   1      36.439  23.128  25.449  1.00  0.00     0.001 A 
BRANCH  16  24
ATOM     24  S   UNL A   1      32.347  22.666  22.937  1.00  0.00     0.268 S 
ATOM     25  O   UNL A   1      32.666  22.291  21.569  1.00  0.00    -0.201 OA
ATOM     26  O   UNL A   1      30.980  23.001  23.315  1.00  0.00    -0.201 OA
BRANCH  24  27
ATOM     27  C   UNL A   1      32.640  21.229  23.906  1.00  0.00     0.088 A 
ATOM     28  C   UNL A   1      32.812  17.258  25.603  1.00  0.00     0.044 C 
ATOM     29  C   UNL A   1      32.805  18.646  25.030  1.00  0.00    -0.051 A 
ATOM     30  C   UNL A   1      32.396  18.795  23.712  1.00  0.00     0.005 A 
ATOM     31  C   UNL A   1      33.136  19.800  25.775  1.00  0.00     0.005 A 
ATOM     32  C   UNL A   1      32.329  20.063  23.163  1.00  0.00     0.022 A 
ATOM     33  C   UNL A   1      33.053  21.104  25.222  1.00  0.00     0.022 A 
ENDBRANCH  24  27
ENDBRANCH  16  24
ENDBRANCH  13  15
ENDBRANCH  10  13
ENDBRANCH   8   9
BRANCH   8  34
ATOM     34  C   UNL A   1      32.486  29.620  24.659  1.00  0.00     0.072 C 
BRANCH  34  35
ATOM     35  C   UNL A   1      31.130  29.415  23.993  1.00  0.00    -0.020 A 
ATOM     36  C   UNL A   1      30.684  28.155  23.550  1.00  0.00     0.087 A 
ATOM     37  C   UNL A   1      30.108  30.379  23.635  1.00  0.00     0.003 A 
ATOM     38  N   UNL A   1      29.521  28.146  22.779  1.00  0.00    -0.361 N 
ATOM     39  C   UNL A   1      29.107  29.426  22.503  1.00  0.00     0.046 A 
ATOM     40  C   UNL A   1      29.754  32.177  23.822  1.00  0.00     0.010 A 
ATOM     41  H   UNL A   1      29.059  27.333  22.473  1.00  0.00     0.166 HD
ATOM     42  C   UNL A   1      28.050  30.285  21.280  1.00  0.00     0.026 A 
ATOM     43  C   UNL A   1      28.464  33.012  22.833  1.00  0.00     0.001 A 
ATOM     44  C   UNL A   1      27.738  32.102  21.439  1.00  0.00     0.002 A 
ENDBRANCH  34  35
ENDBRANCH   8  34
ENDBRANCH   5   8
ENDBRANCH   3   4
ENDBRANCH   1   3
BRANCH   1  45
ATOM     45  O   UNL A   1      34.688  33.810  27.499  1.00  0.00    -0.461 OA
BRANCH  45  46
ATOM     46  C   UNL A   1      34.577  35.009  28.290  1.00  0.00     0.274 C 
BRANCH  46  47
ATOM     47  C   UNL A   1      33.182  35.632  28.550  1.00  0.00     0.275 C 
BRANCH  47  48
ATOM     48  O   UNL A   1      32.521  35.243  29.766  1.00  0.00    -0.458 OA
BRANCH  48  49
ATOM     49  C   UNL A   1      32.886  35.653  31.018  1.00  0.00     0.338 C 
ATOM     50  O   UNL A   1      32.144  36.357  31.694  1.00  0.00    -0.246 OA
BRANCH  49  51
ATOM     51  C   UNL A   1      34.011  34.925  31.649  1.00  0.00     0.060 A 
ATOM     52  C   UNL A   1      34.788  35.512  32.615  1.00  0.00     0.016 A 
ATOM     53  C   UNL A   1      34.224  33.595  31.455  1.00  0.00     0.016 A 
ATOM     54  C   UNL A   1      35.843  34.751  33.201  1.00  0.00     0.010 A 
ATOM     55  C   UNL A   1      34.968  32.838  32.365  1.00  0.00     0.010 A 
ATOM     56  C   UNL A   1      36.261  33.268  32.952  1.00  0.00    -0.014 A 
BRANCH  56  57
ATOM     57  C   UNL A   1      38.123  32.230  32.997  1.00  0.00     0.031 A 
ATOM     58  C   UNL A   1      38.536  30.663  32.373  1.00  0.00     0.074 A 
ATOM     59  C   UNL A   1      39.523  32.556  33.339  1.00  0.00     0.049 A 
ATOM     60  N   UNL A   1      39.008  30.394  31.172  1.00  0.00    -0.248 NA
ATOM     61  C   UNL A   1      38.349  29.439  33.186  1.00  0.00     0.031 C 
ATOM     62  C   UNL A   1      40.800  32.005  32.842  1.00  0.00     0.029 A 
ATOM     63  N   UNL A   1      40.044  33.610  34.139  1.00  0.00    -0.354 N 
ATOM     64  C   UNL A   1      39.153  29.011  31.059  1.00  0.00     0.074 A 
ATOM     65  C   UNL A   1      38.560  28.482  32.284  1.00  0.00     0.031 C 
ATOM     66  C   UNL A   1      41.840  32.530  33.522  1.00  0.00     0.029 A 
ATOM     67  C   UNL A   1      41.301  33.328  34.598  1.00  0.00     0.049 A 
ATOM     68  H   UNL A   1      39.559  34.443  34.338  1.00  0.00     0.167 HD
ATOM     69  C   UNL A   1      40.334  28.436  30.680  1.00  0.00     0.034 A 
ATOM     70  C   UNL A   1      41.492  33.240  35.941  1.00  0.00     0.034 A 
ATOM     71  C   UNL A   1      41.487  28.760  31.499  1.00  0.00     0.049 A 
ATOM     72  C   UNL A   1      42.000  31.864  36.224  1.00  0.00     0.074 A 
ATOM     73  C   UNL A   1      42.677  29.423  31.257  1.00  0.00     0.029 A 
ATOM     74  N   UNL A   1      41.482  28.457  32.858  1.00  0.00    -0.354 N 
ATOM     75  N   UNL A   1      41.718  30.839  35.465  1.00  0.00    -0.248 NA
ATOM     76  C   UNL A   1      42.968  31.564  37.265  1.00  0.00     0.031 C 
ATOM     77  C   UNL A   1      43.339  29.593  32.505  1.00  0.00     0.029 A 
ATOM     78  C   UNL A   1      42.569  29.005  33.498  1.00  0.00     0.049 A 
ATOM     79  H   UNL A   1      40.789  27.920  33.304  1.00  0.00     0.167 HD
ATOM     80  C   UNL A   1      42.605  29.847  35.746  1.00  0.00     0.074 A 
ATOM     81  C   UNL A   1      43.299  30.302  36.943  1.00  0.00     0.031 C 
ATOM     82  C   UNL A   1      42.806  28.783  34.918  1.00  0.00     0.034 A 
BRANCH  69  83
ATOM     83  C   UNL A   1      40.347  27.697  29.361  1.00  0.00     0.023 A 
ATOM     84  C   UNL A   1      41.257  28.028  28.334  1.00  0.00     0.031 A 
ATOM     85  C   UNL A   1      39.477  26.612  29.091  1.00  0.00     0.131 A 
ATOM     86  C   UNL A   1      41.259  27.326  27.109  1.00  0.00     0.055 A 
ATOM     87  C   UNL A   1      39.485  25.915  27.876  1.00  0.00     0.041 A 
ATOM     88  F   UNL A   1      38.601  26.175  30.010  1.00  0.00    -0.206 F 
ATOM     89  C   UNL A   1      40.376  26.273  26.875  1.00  0.00     0.022 A 
BRANCH  86  90
ATOM     90  S   UNL A   1      42.426  27.807  25.799  1.00  0.00     0.124 S 
ATOM     91  O   UNL A   1      41.813  29.020  25.268  1.00  0.00    -0.237 OA
ATOM     92  O   UNL A   1      43.670  27.981  26.539  1.00  0.00    -0.237 OA
ATOM     93  O   UNL A   1      42.408  26.661  24.889  1.00  0.00    -0.744 OA
ENDBRANCH  86  90
ENDBRANCH  69  83
BRANCH  70  94
ATOM     94  C   UNL A   1      40.572  34.095  36.776  1.00  0.00     0.023 A 
ATOM     95  C   UNL A   1      39.812  33.450  37.789  1.00  0.00     0.031 A 
ATOM     96  C   UNL A   1      40.637  35.493  36.831  1.00  0.00     0.131 A 
ATOM     97  C   UNL A   1      39.296  34.167  38.883  1.00  0.00     0.055 A 
ATOM     98  C   UNL A   1      40.042  36.218  37.882  1.00  0.00     0.041 A 
ATOM     99  F   UNL A   1      41.356  36.181  35.933  1.00  0.00    -0.206 F 
ATOM    100  C   UNL A   1      39.402  35.556  38.934  1.00  0.00     0.022 A 
BRANCH  97 101
ATOM    101  S   UNL A   1      38.768  33.265  40.380  1.00  0.00     0.124 S 
ATOM    102  O   UNL A   1      37.333  33.127  40.162  1.00  0.00    -0.237 OA
ATOM    103  O   UNL A   1      39.544  32.028  40.317  1.00  0.00    -0.237 OA
ATOM    104  O   UNL A   1      39.161  34.167  41.461  1.00  0.00    -0.744 OA
ENDBRANCH  97 101
ENDBRANCH  70  94
BRANCH  82 105
ATOM    105  C   UNL A   1      43.428  27.502  35.387  1.00  0.00     0.023 A 
ATOM    106  C   UNL A   1      44.815  27.370  35.507  1.00  0.00     0.031 A 
ATOM    107  C   UNL A   1      42.655  26.413  35.840  1.00  0.00     0.131 A 
ATOM    108  C   UNL A   1      45.396  26.163  35.903  1.00  0.00     0.055 A 
ATOM    109  C   UNL A   1      43.233  25.237  36.320  1.00  0.00     0.041 A 
ATOM    110  F   UNL A   1      41.315  26.458  35.864  1.00  0.00    -0.206 F 
ATOM    111  C   UNL A   1      44.614  25.094  36.326  1.00  0.00     0.022 A 
BRANCH 108 112
ATOM    112  S   UNL A   1      47.191  26.023  35.762  1.00  0.00     0.124 S 
ATOM    113  O   UNL A   1      47.343  24.660  35.257  1.00  0.00    -0.237 OA
ATOM    114  O   UNL A   1      47.513  27.085  34.815  1.00  0.00    -0.237 OA
ATOM    115  O   UNL A   1      47.659  26.239  37.128  1.00  0.00    -0.744 OA
ENDBRANCH 108 112
ENDBRANCH  82 105
ENDBRANCH  56  57
ENDBRANCH  49  51
ENDBRANCH  48  49
ENDBRANCH  47  48
ENDBRANCH  46  47
ENDBRANCH  45  46
ENDBRANCH   1  45
TORSDOF 23
ENDMDL
MODEL 2
REMARK VINA RESULT:     -13.3      1.401      2.071
REMARK SMILES Cc1ccc(S(=O)(=O)n2cc(C(=O)C(=O)N[C@@H](Cc3c[nH]c4ccccc34)C(=O)NCC(=O)OCCOC(=O)c3ccc(-c4c5nc(c(-c6cc(S(=O)(=O)[O-])ccc6F)c6ccc([nH]6)c(-c6cc(S(=O)(=O)[O-])ccc6F)c6nc(c(-c7cc(S(=O)(=O)[O-])ccc7F)c7ccc4[nH]7)C=C6)C=C5)cc3)c3ccccc32)cc1
REMARK SMILES IDX 32 1 33 2 31 3 30 4 28 5 29 6 17 8 16 9 14 10 15 11 12 13
REMARK SMILES IDX 13 14 11 15 9 16 10 17 108 18 103 19 107 20 104 21 106 22
REMARK SMILES IDX 105 23 6 24 7 25 8 26 5 27 1 28 2 29 3 30 110 31 4 32 109 33
REMARK SMILES IDX 18 34 19 35 20 36 27 37 21 38 22 39 26 40 23 42 25 43 24 44
REMARK SMILES IDX 34 45 35 46 36 47 37 48 38 49 39 50 40 51 41 52 102 53 42 54
REMARK SMILES IDX 101 55 43 56 44 57 45 58 95 59 46 60 100 61 94 62 96 63
REMARK SMILES IDX 47 64 99 65 93 66 92 67 48 69 80 70 60 71 79 72 61 73 64 74
REMARK SMILES IDX 78 75 97 76 62 77 63 78 77 80 98 81 65 82 49 83 50 84 58 85
REMARK SMILES IDX 51 86 57 87 59 88 56 89 52 90 53 91 54 92 55 93 81 94 82 95
REMARK SMILES IDX 90 96 83 97 89 98 91 99 88 100 84 101 85 102 86 103 87 104
REMARK SMILES IDX 66 105 67 106 75 107 68 108 74 109 76 110 73 111 69 112
REMARK SMILES IDX 70 113 71 114 72 115
REMARK H PARENT 30 7 16 12 21 41 96 68 64 79
REMARK Flexibility Score: inf
ROOT
ATOM      1  C   UNL A   1      34.303  31.890  28.026  1.00  0.00     0.325 C 
ATOM      2  O   UNL A   1      34.891  31.340  28.945  1.00  0.00    -0.250 OA
ENDROOT
BRANCH   1   3
ATOM      3  C   UNL A   1      33.413  31.177  26.991  1.00  0.00     0.238 C 
BRANCH   3   4
ATOM      4  N   UNL A   1      33.091  29.777  27.249  1.00  0.00    -0.343 N 
ATOM      5  C   UNL A   1      32.424  28.862  26.479  1.00  0.00     0.243 C 
ATOM      6  O   UNL A   1      32.298  27.725  26.956  1.00  0.00    -0.273 OA
ATOM      7  H   UNL A   1      33.405  29.436  28.118  1.00  0.00     0.164 HD
BRANCH   5   8
ATOM      8  C   UNL A   1      31.722  29.216  25.122  1.00  0.00     0.176 C 
BRANCH   8   9
ATOM      9  N   UNL A   1      32.564  29.287  23.933  1.00  0.00    -0.337 N 
ATOM     10  C   UNL A   1      33.080  28.361  23.063  1.00  0.00     0.293 C 
ATOM     11  O   UNL A   1      33.822  28.684  22.144  1.00  0.00    -0.265 OA
ATOM     12  H   UNL A   1      32.821  30.209  23.703  1.00  0.00     0.164 HD
BRANCH  10  13
ATOM     13  C   UNL A   1      32.628  26.924  23.164  1.00  0.00     0.252 C 
ATOM     14  O   UNL A   1      31.715  26.609  22.398  1.00  0.00    -0.283 OA
BRANCH  13  15
ATOM     15  C   UNL A   1      33.162  25.993  24.160  1.00  0.00     0.054 A 
ATOM     16  N   UNL A   1      34.424  24.743  25.557  1.00  0.00    -0.240 N 
ATOM     17  C   UNL A   1      34.462  25.792  24.635  1.00  0.00     0.117 A 
ATOM     18  C   UNL A   1      33.073  24.512  25.868  1.00  0.00     0.065 A 
ATOM     19  C   UNL A   1      32.345  25.016  24.797  1.00  0.00     0.012 A 
ATOM     20  C   UNL A   1      32.473  23.687  26.836  1.00  0.00     0.028 A 
ATOM     21  C   UNL A   1      31.035  24.542  24.578  1.00  0.00     0.011 A 
ATOM     22  C   UNL A   1      31.193  23.194  26.572  1.00  0.00     0.002 A 
ATOM     23  C   UNL A   1      30.497  23.583  25.435  1.00  0.00     0.001 A 
BRANCH  16  24
ATOM     24  S   UNL A   1      35.308  23.239  25.351  1.00  0.00     0.268 S 
ATOM     25  O   UNL A   1      35.845  22.972  26.675  1.00  0.00    -0.201 OA
ATOM     26  O   UNL A   1      36.198  23.528  24.233  1.00  0.00    -0.201 OA
BRANCH  24  27
ATOM     27  C   UNL A   1      34.560  21.737  24.828  1.00  0.00     0.088 A 
ATOM     28  C   UNL A   1      32.060  18.644  23.136  1.00  0.00     0.044 C 
ATOM     29  C   UNL A   1      32.974  19.688  23.712  1.00  0.00    -0.051 A 
ATOM     30  C   UNL A   1      32.828  20.991  23.257  1.00  0.00     0.005 A 
ATOM     31  C   UNL A   1      33.923  19.421  24.725  1.00  0.00     0.005 A 
ATOM     32  C   UNL A   1      33.618  21.989  23.799  1.00  0.00     0.022 A 
ATOM     33  C   UNL A   1      34.724  20.444  25.295  1.00  0.00     0.022 A 
ENDBRANCH  24  27
ENDBRANCH  16  24
ENDBRANCH  13  15
ENDBRANCH  10  13
ENDBRANCH   8   9
BRANCH   8  34
ATOM     34  C   UNL A   1      30.501  28.273  24.852  1.00  0.00     0.072 C 
BRANCH  34  35
ATOM     35  C   UNL A   1      29.398  28.760  23.918  1.00  0.00    -0.020 A 
ATOM     36  C   UNL A   1      28.583  27.880  23.181  1.00  0.00     0.087 A 
ATOM     37  C   UNL A   1      29.009  30.109  23.553  1.00  0.00     0.003 A 
ATOM     38  N   UNL A   1      27.759  28.462  22.216  1.00  0.00    -0.361 N 
ATOM     39  C   UNL A   1      28.013  29.806  22.101  1.00  0.00     0.046 A 
ATOM     40  C   UNL A   1      29.422  31.850  23.990  1.00  0.00     0.010 A 
ATOM     41  H   UNL A   1      27.086  27.975  21.689  1.00  0.00     0.166 HD
ATOM     42  C   UNL A   1      27.762  31.143  20.877  1.00  0.00     0.026 A 
ATOM     43  C   UNL A   1      28.901  33.254  22.943  1.00  0.00     0.001 A 
ATOM     44  C   UNL A   1      28.226  32.884  21.297  1.00  0.00     0.002 A 
ENDBRANCH  34  35
ENDBRANCH   8  34
ENDBRANCH   5   8
ENDBRANCH   3   4
ENDBRANCH   1   3
BRANCH   1  45
ATOM     45  O   UNL A   1      34.279  33.233  27.795  1.00  0.00    -0.461 OA
BRANCH  45  46
ATOM     46  C   UNL A   1      33.095  34.017  28.039  1.00  0.00     0.274 C 
BRANCH  46  47
ATOM     47  C   UNL A   1      33.190  35.310  28.889  1.00  0.00     0.275 C 
BRANCH  47  48
ATOM     48  O   UNL A   1      32.488  35.307  30.144  1.00  0.00    -0.458 OA
BRANCH  48  49
ATOM     49  C   UNL A   1      33.011  35.737  31.331  1.00  0.00     0.338 C 
ATOM     50  O   UNL A   1      32.426  36.569  32.015  1.00  0.00    -0.246 OA
BRANCH  49  51
ATOM     51  C   UNL A   1      34.087  34.903  31.918  1.00  0.00     0.060 A 
ATOM     52  C   UNL A   1      34.774  35.308  33.033  1.00  0.00     0.016 A 
ATOM     53  C   UNL A   1      34.328  33.627  31.512  1.00  0.00     0.016 A 
ATOM     54  C   UNL A   1      35.783  34.451  33.564  1.00  0.00     0.010 A 
ATOM     55  C   UNL A   1      35.001  32.719  32.335  1.00  0.00     0.010 A 
ATOM     56  C   UNL A   1      36.236  33.033  33.096  1.00  0.00    -0.014 A 
BRANCH  56  57
ATOM     57  C   UNL A   1      38.097  31.994  33.117  1.00  0.00     0.031 A 
ATOM     58  C   UNL A   1      38.518  30.455  32.431  1.00  0.00     0.074 A 
ATOM     59  C   UNL A   1      39.494  32.305  33.486  1.00  0.00     0.049 A 
ATOM     60  N   UNL A   1      39.002  30.237  31.224  1.00  0.00    -0.248 NA
ATOM     61  C   UNL A   1      38.323  29.198  33.189  1.00  0.00     0.031 C 
ATOM     62  C   UNL A   1      40.776  31.776  32.979  1.00  0.00     0.029 A 
ATOM     63  N   UNL A   1      40.006  33.325  34.335  1.00  0.00    -0.354 N 
ATOM     64  C   UNL A   1      39.149  28.860  31.054  1.00  0.00     0.074 A 
ATOM     65  C   UNL A   1      38.544  28.280  32.249  1.00  0.00     0.031 C 
ATOM     66  C   UNL A   1      41.809  32.272  33.691  1.00  0.00     0.029 A 
ATOM     67  C   UNL A   1      41.259  33.023  34.794  1.00  0.00     0.049 A 
ATOM     68  H   UNL A   1      39.519  34.149  34.564  1.00  0.00     0.167 HD
ATOM     69  C   UNL A   1      40.334  28.302  30.663  1.00  0.00     0.034 A 
ATOM     70  C   UNL A   1      41.436  32.879  36.134  1.00  0.00     0.034 A 
ATOM     71  C   UNL A   1      41.479  28.592  31.506  1.00  0.00     0.049 A 
ATOM     72  C   UNL A   1      41.942  31.493  36.364  1.00  0.00     0.074 A 
ATOM     73  C   UNL A   1      42.671  29.264  31.305  1.00  0.00     0.029 A 
ATOM     74  N   UNL A   1      41.460  28.231  32.851  1.00  0.00    -0.354 N 
ATOM     75  N   UNL A   1      41.668  30.500  35.560  1.00  0.00    -0.248 NA
ATOM     76  C   UNL A   1      42.900  31.149  37.401  1.00  0.00     0.031 C 
ATOM     77  C   UNL A   1      43.320  29.381  32.566  1.00  0.00     0.029 A 
ATOM     78  C   UNL A   1      42.540  28.752  33.525  1.00  0.00     0.049 A 
ATOM     79  H   UNL A   1      40.763  27.675  33.267  1.00  0.00     0.167 HD
ATOM     80  C   UNL A   1      42.552  29.498  35.807  1.00  0.00     0.074 A 
ATOM     81  C   UNL A   1      43.234  29.901  37.029  1.00  0.00     0.031 C 
ATOM     82  C   UNL A   1      42.763  28.469  34.937  1.00  0.00     0.034 A 
BRANCH  69  83
ATOM     83  C   UNL A   1      40.361  27.620  29.314  1.00  0.00     0.023 A 
ATOM     84  C   UNL A   1      41.269  28.007  28.305  1.00  0.00     0.031 A 
ATOM     85  C   UNL A   1      39.507  26.535  28.996  1.00  0.00     0.131 A 
ATOM     86  C   UNL A   1      41.283  27.357  27.051  1.00  0.00     0.055 A 
ATOM     87  C   UNL A   1      39.528  25.889  27.753  1.00  0.00     0.041 A 
ATOM     88  F   UNL A   1      38.635  26.046  29.893  1.00  0.00    -0.206 F 
ATOM     89  C   UNL A   1      40.416  26.302  26.771  1.00  0.00     0.022 A 
BRANCH  86  90
ATOM     90  S   UNL A   1      42.446  27.910  25.766  1.00  0.00     0.124 S 
ATOM     91  O   UNL A   1      43.730  27.838  26.457  1.00  0.00    -0.237 OA
ATOM     92  O   UNL A   1      42.226  26.934  24.706  1.00  0.00    -0.237 OA
ATOM     93  O   UNL A   1      41.992  29.267  25.457  1.00  0.00    -0.744 OA
ENDBRANCH  86  90
ENDBRANCH  69  83
BRANCH  70  94
ATOM     94  C   UNL A   1      40.507  33.698  36.995  1.00  0.00     0.023 A 
ATOM     95  C   UNL A   1      39.556  32.999  37.789  1.00  0.00     0.031 A 
ATOM     96  C   UNL A   1      40.709  35.050  37.299  1.00  0.00     0.131 A 
ATOM     97  C   UNL A   1      38.978  33.591  38.925  1.00  0.00     0.055 A 
ATOM     98  C   UNL A   1      40.058  35.667  38.386  1.00  0.00     0.041 A 
ATOM     99  F   UNL A   1      41.608  35.778  36.621  1.00  0.00    -0.206 F 
ATOM    100  C   UNL A   1      39.219  34.930  39.227  1.00  0.00     0.022 A 
BRANCH  97 101
ATOM    101  S   UNL A   1      38.165  32.535  40.173  1.00  0.00     0.124 S 
ATOM    102  O   UNL A   1      37.319  33.492  40.877  1.00  0.00    -0.237 OA
ATOM    103  O   UNL A   1      37.463  31.540  39.364  1.00  0.00    -0.237 OA
ATOM    104  O   UNL A   1      39.292  32.004  40.935  1.00  0.00    -0.744 OA
ENDBRANCH  97 101
ENDBRANCH  70  94
BRANCH  82 105
ATOM    105  C   UNL A   1      43.380  27.170  35.357  1.00  0.00     0.023 A 
ATOM    106  C   UNL A   1      44.727  27.093  35.730  1.00  0.00     0.031 A 
ATOM    107  C   UNL A   1      42.621  25.992  35.513  1.00  0.00     0.131 A 
ATOM    108  C   UNL A   1      45.312  25.874  36.081  1.00  0.00     0.055 A 
ATOM    109  C   UNL A   1      43.186  24.792  35.948  1.00  0.00     0.041 A 
ATOM    110  F   UNL A   1      41.301  25.966  35.279  1.00  0.00    -0.206 F 
ATOM    111  C   UNL A   1      44.548  24.720  36.207  1.00  0.00     0.022 A 
BRANCH 108 112
ATOM    112  S   UNL A   1      47.107  25.846  36.278  1.00  0.00     0.124 S 
ATOM    113  O   UNL A   1      47.338  27.059  37.060  1.00  0.00    -0.237 OA
ATOM    114  O   UNL A   1      47.323  24.589  36.988  1.00  0.00    -0.237 OA
ATOM    115  O   UNL A   1      47.603  25.884  34.906  1.00  0.00    -0.744 OA
ENDBRANCH 108 112
ENDBRANCH  82 105
ENDBRANCH  56  57
ENDBRANCH  49  51
ENDBRANCH  48  49
ENDBRANCH  47  48
ENDBRANCH  46  47
ENDBRANCH  45  46
ENDBRANCH   1  45
TORSDOF 23
ENDMDL
MODEL 3
REMARK VINA RESULT:     -13.2      4.674      6.732
REMARK SMILES Cc1ccc(S(=O)(=O)n2cc(C(=O)C(=O)N[C@@H](Cc3c[nH]c4ccccc34)C(=O)NCC(=O)OCCOC(=O)c3ccc(-c4c5nc(c(-c6cc(S(=O)(=O)[O-])ccc6F)c6ccc([nH]6)c(-c6cc(S(=O)(=O)[O-])ccc6F)c6nc(c(-c7cc(S(=O)(=O)[O-])ccc7F)c7ccc4[nH]7)C=C6)C=C5)cc3)c3ccccc32)cc1
REMARK SMILES IDX 32 1 33 2 31 3 30 4 28 5 29 6 17 8 16 9 14 10 15 11 12 13
REMARK SMILES IDX 13 14 11 15 9 16 10 17 108 18 103 19 107 20 104 21 106 22
REMARK SMILES IDX 105 23 6 24 7 25 8 26 5 27 1 28 2 29 3 30 110 31 4 32 109 33
REMARK SMILES IDX 18 34 19 35 20 36 27 37 21 38 22 39 26 40 23 42 25 43 24 44
REMARK SMILES IDX 34 45 35 46 36 47 37 48 38 49 39 50 40 51 41 52 102 53 42 54
REMARK SMILES IDX 101 55 43 56 44 57 45 58 95 59 46 60 100 61 94 62 96 63
REMARK SMILES IDX 47 64 99 65 93 66 92 67 48 69 80 70 60 71 79 72 61 73 64 74
REMARK SMILES IDX 78 75 97 76 62 77 63 78 77 80 98 81 65 82 49 83 50 84 58 85
REMARK SMILES IDX 51 86 57 87 59 88 56 89 52 90 53 91 54 92 55 93 81 94 82 95
REMARK SMILES IDX 90 96 83 97 89 98 91 99 88 100 84 101 85 102 86 103 87 104
REMARK SMILES IDX 66 105 67 106 75 107 68 108 74 109 76 110 73 111 69 112
REMARK SMILES IDX 70 113 71 114 72 115
REMARK H PARENT 30 7 16 12 21 41 96 68 64 79
REMARK Flexibility Score: inf
ROOT
ATOM      1  C   UNL A   1      34.566  31.048  27.881  1.00  0.00     0.325 C 
ATOM      2  O   UNL A   1      35.343  30.123  28.062  1.00  0.00    -0.250 OA
ENDROOT
BRANCH   1   3
ATOM      3  C   UNL A   1      33.150  30.913  27.292  1.00  0.00     0.238 C 
BRANCH   3   4
ATOM      4  N   UNL A   1      32.422  29.686  27.597  1.00  0.00    -0.343 N 
ATOM      5  C   UNL A   1      31.723  28.840  26.777  1.00  0.00     0.243 C 
ATOM      6  O   UNL A   1      31.200  27.854  27.316  1.00  0.00    -0.273 OA
ATOM      7  H   UNL A   1      32.437  29.423  28.546  1.00  0.00     0.164 HD
BRANCH   5   8
ATOM      8  C   UNL A   1      31.453  29.128  25.258  1.00  0.00     0.176 C 
BRANCH   8   9
ATOM      9  N   UNL A   1      32.613  29.189  24.375  1.00  0.00    -0.337 N 
ATOM     10  C   UNL A   1      33.744  28.431  24.219  1.00  0.00     0.293 C 
ATOM     11  O   UNL A   1      34.615  28.731  23.413  1.00  0.00    -0.265 OA
ATOM     12  H   UNL A   1      32.573  29.948  23.749  1.00  0.00     0.164 HD
BRANCH  10  13
ATOM     13  C   UNL A   1      33.866  27.127  24.972  1.00  0.00     0.252 C 
ATOM     14  O   UNL A   1      34.214  27.235  26.149  1.00  0.00    -0.283 OA
BRANCH  13  15
ATOM     15  C   UNL A   1      33.678  25.824  24.334  1.00  0.00     0.054 A 
ATOM     16  N   UNL A   1      32.963  24.010  23.189  1.00  0.00    -0.240 N 
ATOM     17  C   UNL A   1      32.685  25.350  23.469  1.00  0.00     0.117 A 
ATOM     18  C   UNL A   1      34.273  23.757  23.629  1.00  0.00     0.065 A 
ATOM     19  C   UNL A   1      34.544  24.723  24.591  1.00  0.00     0.012 A 
ATOM     20  C   UNL A   1      35.106  22.636  23.465  1.00  0.00     0.028 A 
ATOM     21  C   UNL A   1      35.562  24.479  25.537  1.00  0.00     0.011 A 
ATOM     22  C   UNL A   1      36.074  22.392  24.442  1.00  0.00     0.002 A 
ATOM     23  C   UNL A   1      36.273  23.281  25.489  1.00  0.00     0.001 A 
BRANCH  16  24
ATOM     24  S   UNL A   1      31.877  22.690  23.594  1.00  0.00     0.268 S 
ATOM     25  O   UNL A   1      31.309  22.308  22.312  1.00  0.00    -0.201 OA
ATOM     26  O   UNL A   1      31.036  23.262  24.639  1.00  0.00    -0.201 OA
BRANCH  24  27
ATOM     27  C   UNL A   1      32.408  21.193  24.347  1.00  0.00     0.088 A 
ATOM     28  C   UNL A   1      33.276  17.099  25.423  1.00  0.00     0.044 C 
ATOM     29  C   UNL A   1      33.025  18.537  25.070  1.00  0.00    -0.051 A 
ATOM     30  C   UNL A   1      32.633  18.819  23.768  1.00  0.00     0.005 A 
ATOM     31  C   UNL A   1      33.109  19.596  26.001  1.00  0.00     0.005 A 
ATOM     32  C   UNL A   1      32.344  20.125  23.417  1.00  0.00     0.022 A 
ATOM     33  C   UNL A   1      32.798  20.935  25.650  1.00  0.00     0.022 A 
ENDBRANCH  24  27
ENDBRANCH  16  24
ENDBRANCH  13  15
ENDBRANCH  10  13
ENDBRANCH   8   9
BRANCH   8  34
ATOM     34  C   UNL A   1      30.391  28.137  24.673  1.00  0.00     0.072 C 
BRANCH  34  35
ATOM     35  C   UNL A   1      29.283  28.699  23.788  1.00  0.00    -0.020 A 
ATOM     36  C   UNL A   1      28.415  27.877  23.044  1.00  0.00     0.087 A 
ATOM     37  C   UNL A   1      28.936  30.073  23.482  1.00  0.00     0.003 A 
ATOM     38  N   UNL A   1      27.589  28.523  22.124  1.00  0.00    -0.361 N 
ATOM     39  C   UNL A   1      27.890  29.860  22.050  1.00  0.00     0.046 A 
ATOM     40  C   UNL A   1      29.425  31.781  23.969  1.00  0.00     0.010 A 
ATOM     41  H   UNL A   1      26.884  28.081  21.599  1.00  0.00     0.166 HD
ATOM     42  C   UNL A   1      27.657  31.250  20.881  1.00  0.00     0.026 A 
ATOM     43  C   UNL A   1      28.930  33.240  22.987  1.00  0.00     0.001 A 
ATOM     44  C   UNL A   1      28.198  32.956  21.350  1.00  0.00     0.002 A 
ENDBRANCH  34  35
ENDBRANCH   8  34
ENDBRANCH   5   8
ENDBRANCH   3   4
ENDBRANCH   1   3
BRANCH   1  45
ATOM     45  O   UNL A   1      34.792  32.347  28.227  1.00  0.00    -0.461 OA
BRANCH  45  46
ATOM     46  C   UNL A   1      34.546  32.823  29.564  1.00  0.00     0.274 C 
BRANCH  46  47
ATOM     47  C   UNL A   1      35.589  32.554  30.679  1.00  0.00     0.275 C 
BRANCH  47  48
ATOM     48  O   UNL A   1      35.696  31.198  31.146  1.00  0.00    -0.458 OA
BRANCH  48  49
ATOM     49  C   UNL A   1      36.761  30.694  31.839  1.00  0.00     0.338 C 
ATOM     50  O   UNL A   1      36.773  30.692  33.065  1.00  0.00    -0.246 OA
BRANCH  49  51
ATOM     51  C   UNL A   1      37.697  29.835  31.077  1.00  0.00     0.060 A 
ATOM     52  C   UNL A   1      38.074  28.602  31.544  1.00  0.00     0.016 A 
ATOM     53  C   UNL A   1      38.085  30.124  29.805  1.00  0.00     0.016 A 
ATOM     54  C   UNL A   1      38.961  27.813  30.753  1.00  0.00     0.010 A 
ATOM     55  C   UNL A   1      38.576  29.130  28.953  1.00  0.00     0.010 A 
ATOM     56  C   UNL A   1      39.575  28.106  29.348  1.00  0.00    -0.014 A 
BRANCH  56  57
ATOM     57  C   UNL A   1      41.419  27.599  28.407  1.00  0.00     0.031 A 
ATOM     58  C   UNL A   1      42.247  26.073  28.334  1.00  0.00     0.074 A 
ATOM     59  C   UNL A   1      42.353  28.245  27.462  1.00  0.00     0.049 A 
ATOM     60  N   UNL A   1      42.115  25.151  27.402  1.00  0.00    -0.248 NA
ATOM     61  C   UNL A   1      43.194  25.663  29.395  1.00  0.00     0.031 C 
ATOM     62  C   UNL A   1      43.268  27.674  26.453  1.00  0.00     0.029 A 
ATOM     63  N   UNL A   1      42.523  29.622  27.146  1.00  0.00    -0.354 N 
ATOM     64  C   UNL A   1      42.915  24.062  27.749  1.00  0.00     0.074 A 
ATOM     65  C   UNL A   1      43.414  24.387  29.082  1.00  0.00     0.031 C 
ATOM     66  C   UNL A   1      44.017  28.643  25.889  1.00  0.00     0.029 A 
ATOM     67  C   UNL A   1      43.752  29.871  26.600  1.00  0.00     0.049 A 
ATOM     68  H   UNL A   1      41.838  30.312  27.301  1.00  0.00     0.167 HD
ATOM     69  C   UNL A   1      43.837  23.537  26.887  1.00  0.00     0.034 A 
ATOM     70  C   UNL A   1      44.595  30.705  27.265  1.00  0.00     0.034 A 
ATOM     71  C   UNL A   1      44.842  24.461  26.395  1.00  0.00     0.049 A 
ATOM     72  C   UNL A   1      45.832  29.926  27.573  1.00  0.00     0.074 A 
ATOM     73  C   UNL A   1      45.160  24.953  25.143  1.00  0.00     0.029 A 
ATOM     74  N   UNL A   1      45.679  25.119  27.293  1.00  0.00    -0.354 N 
ATOM     75  N   UNL A   1      45.827  28.629  27.726  1.00  0.00    -0.248 NA
ATOM     76  C   UNL A   1      47.165  30.504  27.578  1.00  0.00     0.031 C 
ATOM     77  C   UNL A   1      46.131  25.978  25.313  1.00  0.00     0.029 A 
ATOM     78  C   UNL A   1      46.428  26.085  26.664  1.00  0.00     0.049 A 
ATOM     79  H   UNL A   1      45.728  24.918  28.255  1.00  0.00     0.167 HD
ATOM     80  C   UNL A   1      47.107  28.184  27.614  1.00  0.00     0.074 A 
ATOM     81  C   UNL A   1      47.919  29.393  27.625  1.00  0.00     0.031 C 
ATOM     82  C   UNL A   1      47.415  26.874  27.390  1.00  0.00     0.034 A 
BRANCH  69  83
ATOM     83  C   UNL A   1      43.596  22.127  26.396  1.00  0.00     0.023 A 
ATOM     84  C   UNL A   1      44.616  21.369  25.784  1.00  0.00     0.031 A 
ATOM     85  C   UNL A   1      42.349  21.473  26.554  1.00  0.00     0.131 A 
ATOM     86  C   UNL A   1      44.375  20.053  25.335  1.00  0.00     0.055 A 
ATOM     87  C   UNL A   1      42.115  20.164  26.112  1.00  0.00     0.041 A 
ATOM     88  F   UNL A   1      41.316  22.076  27.167  1.00  0.00    -0.206 F 
ATOM     89  C   UNL A   1      43.129  19.448  25.495  1.00  0.00     0.022 A 
BRANCH  86  90
ATOM     90  S   UNL A   1      45.710  19.123  24.519  1.00  0.00     0.124 S 
ATOM     91  O   UNL A   1      45.174  18.924  23.177  1.00  0.00    -0.237 OA
ATOM     92  O   UNL A   1      46.841  20.035  24.636  1.00  0.00    -0.237 OA
ATOM     93  O   UNL A   1      45.817  17.905  25.324  1.00  0.00    -0.744 OA
ENDBRANCH  86  90
ENDBRANCH  69  83
BRANCH  70  94
ATOM     94  C   UNL A   1      43.921  31.769  28.094  1.00  0.00     0.023 A 
ATOM     95  C   UNL A   1      43.820  31.549  29.495  1.00  0.00     0.031 A 
ATOM     96  C   UNL A   1      43.666  33.070  27.642  1.00  0.00     0.131 A 
ATOM     97  C   UNL A   1      43.642  32.617  30.391  1.00  0.00     0.055 A 
ATOM     98  C   UNL A   1      43.398  34.124  28.538  1.00  0.00     0.041 A 
ATOM     99  F   UNL A   1      43.767  33.375  26.340  1.00  0.00    -0.206 F 
ATOM    100  C   UNL A   1      43.423  33.909  29.919  1.00  0.00     0.022 A 
BRANCH  97 101
ATOM    101  S   UNL A   1      44.005  32.372  32.164  1.00  0.00     0.124 S 
ATOM    102  O   UNL A   1      42.815  32.929  32.798  1.00  0.00    -0.237 OA
ATOM    103  O   UNL A   1      44.167  30.924  32.276  1.00  0.00    -0.237 OA
ATOM    104  O   UNL A   1      45.238  33.132  32.353  1.00  0.00    -0.744 OA
ENDBRANCH  97 101
ENDBRANCH  70  94
BRANCH  82 105
ATOM    105  C   UNL A   1      48.768  26.302  27.686  1.00  0.00     0.023 A 
ATOM    106  C   UNL A   1      49.169  26.030  28.999  1.00  0.00     0.031 A 
ATOM    107  C   UNL A   1      49.654  25.901  26.666  1.00  0.00     0.131 A 
ATOM    108  C   UNL A   1      50.447  25.536  29.276  1.00  0.00     0.055 A 
ATOM    109  C   UNL A   1      50.896  25.326  26.939  1.00  0.00     0.041 A 
ATOM    110  F   UNL A   1      49.339  26.022  25.368  1.00  0.00    -0.206 F 
ATOM    111  C   UNL A   1      51.313  25.166  28.254  1.00  0.00     0.022 A 
BRANCH 108 112
ATOM    112  S   UNL A   1      50.952  25.479  31.010  1.00  0.00     0.124 S 
ATOM    113  O   UNL A   1      50.064  26.473  31.609  1.00  0.00    -0.237 OA
ATOM    114  O   UNL A   1      50.677  24.091  31.369  1.00  0.00    -0.237 OA
ATOM    115  O   UNL A   1      52.363  25.848  30.967  1.00  0.00    -0.744 OA
ENDBRANCH 108 112
ENDBRANCH  82 105
ENDBRANCH  56  57
ENDBRANCH  49  51
ENDBRANCH  48  49
ENDBRANCH  47  48
ENDBRANCH  46  47
ENDBRANCH  45  46
ENDBRANCH   1  45
TORSDOF 23
ENDMDL
