MODEL 1
REMARK VINA RESULT:     -12.6      0.000      0.000
REMARK SMILES O=C(OCCOC(=O)c1ccc(N2C(=O)/C(=C\C3=Cc4ccccc4OC3)SC2=S)cc1)c1ccc(-c2c3nc(c(-c4cc(S(=O)(=O)[O-])ccc4F)c4ccc([nH]4)c(-c4cc(S(=O)(=O)[O-])ccc4F)c4nc(c(-c5cc(S(=O)(=O)[O-])ccc5F)c5ccc2[nH]5)C=C4)C=C3)cc1
REMARK SMILES IDX 4 1 3 2 2 3 1 4 33 5 34 6 95 7 35 8 94 9 36 10 37 11 38 12
REMARK SMILES IDX 88 13 39 14 93 15 87 16 89 17 40 18 92 19 86 20 85 21 41 23
REMARK SMILES IDX 73 24 53 25 72 26 54 27 57 28 71 29 90 30 55 31 56 32 70 34
REMARK SMILES IDX 91 35 58 36 42 37 43 38 51 39 44 40 50 41 52 42 49 43 45 44
REMARK SMILES IDX 46 45 47 46 48 47 74 48 75 49 83 50 76 51 82 52 84 53 81 54
REMARK SMILES IDX 77 55 78 56 79 57 80 58 59 59 60 60 68 61 61 62 67 63 69 64
REMARK SMILES IDX 66 65 62 66 63 67 64 68 65 69 5 70 6 71 7 72 8 73 9 74 10 75
REMARK SMILES IDX 32 76 11 77 31 78 12 79 13 80 14 81 29 82 15 83 16 84 28 85
REMARK SMILES IDX 30 86 17 87 18 88 19 89 27 90 20 91 26 92 21 93 25 94 22 95
REMARK SMILES IDX 24 96 23 97
REMARK H PARENT 89 22 57 33
REMARK Flexibility Score: inf
ROOT
ATOM      1  C   UNL A   1      39.110  19.167  25.778  1.00  0.00     0.275 C 
ENDROOT
BRANCH   1   2
ATOM      2  O   UNL A   1      40.483  19.552  25.689  1.00  0.00    -0.458 OA
BRANCH   2   3
ATOM      3  C   UNL A   1      41.289  20.027  26.664  1.00  0.00     0.338 C 
ATOM      4  O   UNL A   1      42.045  19.221  27.210  1.00  0.00    -0.246 OA
BRANCH   3   5
ATOM      5  C   UNL A   1      41.285  21.445  27.175  1.00  0.00     0.060 A 
ATOM      6  C   UNL A   1      41.871  21.957  28.340  1.00  0.00     0.016 A 
ATOM      7  C   UNL A   1      40.681  22.375  26.325  1.00  0.00     0.016 A 
ATOM      8  C   UNL A   1      41.976  23.337  28.586  1.00  0.00     0.010 A 
ATOM      9  C   UNL A   1      40.796  23.745  26.566  1.00  0.00     0.010 A 
ATOM     10  C   UNL A   1      41.520  24.257  27.653  1.00  0.00    -0.014 A 
BRANCH  10  11
ATOM     11  C   UNL A   1      41.830  25.722  27.744  1.00  0.00     0.031 A 
ATOM     12  C   UNL A   1      43.231  26.186  27.432  1.00  0.00     0.074 A 
ATOM     13  C   UNL A   1      40.949  26.592  28.302  1.00  0.00     0.049 A 
ATOM     14  N   UNL A   1      43.809  27.327  27.704  1.00  0.00    -0.248 NA
ATOM     15  C   UNL A   1      44.113  25.203  26.783  1.00  0.00     0.031 C 
ATOM     16  C   UNL A   1      39.598  26.264  28.775  1.00  0.00     0.029 A 
ATOM     17  N   UNL A   1      41.093  27.916  28.665  1.00  0.00    -0.354 N 
ATOM     18  C   UNL A   1      45.127  27.181  27.284  1.00  0.00     0.074 A 
ATOM     19  C   UNL A   1      45.286  25.810  26.855  1.00  0.00     0.031 C 
ATOM     20  C   UNL A   1      39.065  27.329  29.401  1.00  0.00     0.029 A 
ATOM     21  C   UNL A   1      40.036  28.416  29.401  1.00  0.00     0.049 A 
ATOM     22  H   UNL A   1      41.879  28.457  28.420  1.00  0.00     0.167 HD
ATOM     23  C   UNL A   1      46.101  28.118  27.190  1.00  0.00     0.034 A 
ATOM     24  C   UNL A   1      39.877  29.597  30.039  1.00  0.00     0.034 A 
ATOM     25  C   UNL A   1      45.914  29.494  27.557  1.00  0.00     0.049 A 
ATOM     26  C   UNL A   1      40.984  30.619  29.965  1.00  0.00     0.074 A 
ATOM     27  C   UNL A   1      46.756  30.568  27.335  1.00  0.00     0.029 A 
ATOM     28  N   UNL A   1      44.807  29.982  28.235  1.00  0.00    -0.354 N 
ATOM     29  N   UNL A   1      42.170  30.507  29.414  1.00  0.00    -0.248 NA
ATOM     30  C   UNL A   1      40.728  31.931  30.579  1.00  0.00     0.031 C 
ATOM     31  C   UNL A   1      46.178  31.699  27.920  1.00  0.00     0.029 A 
ATOM     32  C   UNL A   1      44.953  31.341  28.459  1.00  0.00     0.049 A 
ATOM     33  H   UNL A   1      44.033  29.444  28.514  1.00  0.00     0.167 HD
ATOM     34  C   UNL A   1      42.774  31.752  29.565  1.00  0.00     0.074 A 
ATOM     35  C   UNL A   1      41.830  32.595  30.267  1.00  0.00     0.031 C 
ATOM     36  C   UNL A   1      43.994  32.168  29.145  1.00  0.00     0.034 A 
BRANCH  23  37
ATOM     37  C   UNL A   1      47.423  27.685  26.610  1.00  0.00     0.023 A 
ATOM     38  C   UNL A   1      47.668  27.780  25.228  1.00  0.00     0.031 A 
ATOM     39  C   UNL A   1      48.430  27.142  27.422  1.00  0.00     0.131 A 
ATOM     40  C   UNL A   1      48.845  27.248  24.686  1.00  0.00     0.055 A 
ATOM     41  C   UNL A   1      49.640  26.694  26.887  1.00  0.00     0.041 A 
ATOM     42  F   UNL A   1      48.249  27.018  28.747  1.00  0.00    -0.206 F 
ATOM     43  C   UNL A   1      49.845  26.729  25.509  1.00  0.00     0.022 A 
BRANCH  40  44
ATOM     44  S   UNL A   1      48.978  27.122  22.883  1.00  0.00     0.124 S 
ATOM     45  O   UNL A   1      48.219  28.293  22.451  1.00  0.00    -0.237 OA
ATOM     46  O   UNL A   1      50.420  27.183  22.665  1.00  0.00    -0.237 OA
ATOM     47  O   UNL A   1      48.354  25.835  22.583  1.00  0.00    -0.744 OA
ENDBRANCH  40  44
ENDBRANCH  23  37
BRANCH  24  48
ATOM     48  C   UNL A   1      38.661  29.893  30.859  1.00  0.00     0.023 A 
ATOM     49  C   UNL A   1      37.606  30.670  30.351  1.00  0.00     0.031 A 
ATOM     50  C   UNL A   1      38.603  29.513  32.211  1.00  0.00     0.131 A 
ATOM     51  C   UNL A   1      36.580  31.109  31.207  1.00  0.00     0.055 A 
ATOM     52  C   UNL A   1      37.553  29.908  33.045  1.00  0.00     0.041 A 
ATOM     53  F   UNL A   1      39.587  28.768  32.742  1.00  0.00    -0.206 F 
ATOM     54  C   UNL A   1      36.544  30.727  32.549  1.00  0.00     0.022 A 
BRANCH  51  55
ATOM     55  S   UNL A   1      35.364  32.297  30.568  1.00  0.00     0.124 S 
ATOM     56  O   UNL A   1      34.940  31.650  29.333  1.00  0.00    -0.237 OA
ATOM     57  O   UNL A   1      34.381  32.327  31.646  1.00  0.00    -0.237 OA
ATOM     58  O   UNL A   1      36.140  33.523  30.398  1.00  0.00    -0.744 OA
ENDBRANCH  51  55
ENDBRANCH  24  48
BRANCH  36  59
ATOM     59  C   UNL A   1      44.335  33.618  29.354  1.00  0.00     0.023 A 
ATOM     60  C   UNL A   1      44.146  34.575  28.344  1.00  0.00     0.031 A 
ATOM     61  C   UNL A   1      44.850  34.045  30.591  1.00  0.00     0.131 A 
ATOM     62  C   UNL A   1      44.509  35.909  28.576  1.00  0.00     0.055 A 
ATOM     63  C   UNL A   1      45.153  35.384  30.835  1.00  0.00     0.041 A 
ATOM     64  F   UNL A   1      45.053  33.166  31.586  1.00  0.00    -0.206 F 
ATOM     65  C   UNL A   1      44.991  36.323  29.821  1.00  0.00     0.022 A 
BRANCH  62  66
ATOM     66  S   UNL A   1      44.399  37.091  27.206  1.00  0.00     0.124 S 
ATOM     67  O   UNL A   1      43.095  36.769  26.635  1.00  0.00    -0.237 OA
ATOM     68  O   UNL A   1      44.494  38.376  27.890  1.00  0.00    -0.237 OA
ATOM     69  O   UNL A   1      45.546  36.750  26.367  1.00  0.00    -0.744 OA
ENDBRANCH  62  66
ENDBRANCH  36  59
ENDBRANCH  10  11
ENDBRANCH   3   5
ENDBRANCH   2   3
ENDBRANCH   1   2
BRANCH   1  70
ATOM     70  C   UNL A   1      38.224  19.822  24.705  1.00  0.00     0.275 C 
BRANCH  70  71
ATOM     71  O   UNL A   1      37.168  20.662  25.228  1.00  0.00    -0.458 OA
BRANCH  71  72
ATOM     72  C   UNL A   1      35.901  20.200  25.020  1.00  0.00     0.338 C 
ATOM     73  O   UNL A   1      35.604  19.062  24.712  1.00  0.00    -0.246 OA
BRANCH  72  74
ATOM     74  C   UNL A   1      34.876  21.248  25.293  1.00  0.00     0.060 A 
ATOM     75  C   UNL A   1      33.960  21.556  24.281  1.00  0.00     0.018 A 
ATOM     76  C   UNL A   1      34.836  21.983  26.475  1.00  0.00     0.018 A 
ATOM     77  C   UNL A   1      33.009  22.586  24.446  1.00  0.00     0.028 A 
ATOM     78  C   UNL A   1      33.889  23.023  26.628  1.00  0.00     0.028 A 
ATOM     79  C   UNL A   1      32.959  23.360  25.615  1.00  0.00     0.051 A 
BRANCH  79  80
ATOM     80  N   UNL A   1      31.958  24.390  25.833  1.00  0.00    -0.261 N 
ATOM     81  C   UNL A   1      32.260  25.761  25.858  1.00  0.00     0.270 C 
ATOM     82  C   UNL A   1      30.645  24.116  26.185  1.00  0.00     0.152 C 
ATOM     83  O   UNL A   1      33.312  26.274  26.223  1.00  0.00    -0.268 OA
ATOM     84  C   UNL A   1      31.014  26.580  25.625  1.00  0.00     0.081 C 
ATOM     85  S   UNL A   1      29.669  25.582  26.098  1.00  0.00    -0.054 SA
ATOM     86  S   UNL A   1      29.991  22.712  26.832  1.00  0.00    -0.051 S 
ATOM     87  C   UNL A   1      30.768  27.791  25.079  1.00  0.00     0.028 C 
BRANCH  87  88
ATOM     88  C   UNL A   1      31.577  28.780  24.321  1.00  0.00    -0.009 C 
ATOM     89  C   UNL A   1      32.857  28.629  23.919  1.00  0.00     0.019 C 
ATOM     90  C   UNL A   1      30.755  29.330  23.136  1.00  0.00     0.265 C 
ATOM     91  C   UNL A   1      32.852  27.595  22.853  1.00  0.00     0.017 A 
ATOM     92  O   UNL A   1      30.605  28.290  22.143  1.00  0.00    -0.488 OA
ATOM     93  C   UNL A   1      33.875  26.660  22.841  1.00  0.00     0.012 A 
ATOM     94  C   UNL A   1      31.653  27.390  22.127  1.00  0.00     0.127 A 
ATOM     95  C   UNL A   1      33.584  25.405  22.342  1.00  0.00     0.001 A 
ATOM     96  C   UNL A   1      31.391  26.147  21.590  1.00  0.00     0.047 A 
ATOM     97  C   UNL A   1      32.324  25.138  21.794  1.00  0.00     0.004 A 
ENDBRANCH  87  88
ENDBRANCH  79  80
ENDBRANCH  72  74
ENDBRANCH  71  72
ENDBRANCH  70  71
ENDBRANCH   1  70
TORSDOF 16
ENDMDL
MODEL 2
REMARK VINA RESULT:     -11.9      0.973      7.272
REMARK SMILES O=C(OCCOC(=O)c1ccc(N2C(=O)/C(=C\C3=Cc4ccccc4OC3)SC2=S)cc1)c1ccc(-c2c3nc(c(-c4cc(S(=O)(=O)[O-])ccc4F)c4ccc([nH]4)c(-c4cc(S(=O)(=O)[O-])ccc4F)c4nc(c(-c5cc(S(=O)(=O)[O-])ccc5F)c5ccc2[nH]5)C=C4)C=C3)cc1
REMARK SMILES IDX 4 1 3 2 2 3 1 4 33 5 34 6 95 7 35 8 94 9 36 10 37 11 38 12
REMARK SMILES IDX 88 13 39 14 93 15 87 16 89 17 40 18 92 19 86 20 85 21 41 23
REMARK SMILES IDX 73 24 53 25 72 26 54 27 57 28 71 29 90 30 55 31 56 32 70 34
REMARK SMILES IDX 91 35 58 36 42 37 43 38 51 39 44 40 50 41 52 42 49 43 45 44
REMARK SMILES IDX 46 45 47 46 48 47 74 48 75 49 83 50 76 51 82 52 84 53 81 54
REMARK SMILES IDX 77 55 78 56 79 57 80 58 59 59 60 60 68 61 61 62 67 63 69 64
REMARK SMILES IDX 66 65 62 66 63 67 64 68 65 69 5 70 6 71 7 72 8 73 9 74 10 75
REMARK SMILES IDX 32 76 11 77 31 78 12 79 13 80 14 81 29 82 15 83 16 84 28 85
REMARK SMILES IDX 30 86 17 87 18 88 19 89 27 90 20 91 26 92 21 93 25 94 22 95
REMARK SMILES IDX 24 96 23 97
REMARK H PARENT 89 22 57 33
REMARK Flexibility Score: inf
ROOT
ATOM      1  C   UNL A   1      37.700  19.787  24.841  1.00  0.00     0.275 C 
ENDROOT
BRANCH   1   2
ATOM      2  O   UNL A   1      38.416  20.912  25.354  1.00  0.00    -0.458 OA
BRANCH   2   3
ATOM      3  C   UNL A   1      39.561  20.924  26.069  1.00  0.00     0.338 C 
ATOM      4  O   UNL A   1      40.239  19.895  26.065  1.00  0.00    -0.246 OA
BRANCH   3   5
ATOM      5  C   UNL A   1      40.037  22.075  26.920  1.00  0.00     0.060 A 
ATOM      6  C   UNL A   1      41.014  22.076  27.925  1.00  0.00     0.016 A 
ATOM      7  C   UNL A   1      39.477  23.315  26.600  1.00  0.00     0.016 A 
ATOM      8  C   UNL A   1      41.512  23.263  28.489  1.00  0.00     0.010 A 
ATOM      9  C   UNL A   1      39.980  24.492  27.153  1.00  0.00     0.010 A 
ATOM     10  C   UNL A   1      41.066  24.498  28.042  1.00  0.00    -0.014 A 
BRANCH  10  11
ATOM     11  C   UNL A   1      41.736  25.786  28.423  1.00  0.00     0.031 A 
ATOM     12  C   UNL A   1      40.884  26.922  28.929  1.00  0.00     0.074 A 
ATOM     13  C   UNL A   1      43.040  26.014  28.119  1.00  0.00     0.049 A 
ATOM     14  N   UNL A   1      41.177  28.191  29.050  1.00  0.00    -0.248 NA
ATOM     15  C   UNL A   1      39.496  26.588  29.284  1.00  0.00     0.031 C 
ATOM     16  C   UNL A   1      43.963  25.051  27.504  1.00  0.00     0.029 A 
ATOM     17  N   UNL A   1      43.796  27.167  28.190  1.00  0.00    -0.354 N 
ATOM     18  C   UNL A   1      39.999  28.803  29.467  1.00  0.00     0.074 A 
ATOM     19  C   UNL A   1      38.970  27.788  29.459  1.00  0.00     0.031 C 
ATOM     20  C   UNL A   1      45.127  25.659  27.213  1.00  0.00     0.029 A 
ATOM     21  C   UNL A   1      45.039  27.063  27.595  1.00  0.00     0.049 A 
ATOM     22  H   UNL A   1      43.478  27.990  28.627  1.00  0.00     0.167 HD
ATOM     23  C   UNL A   1      39.802  30.073  29.891  1.00  0.00     0.034 A 
ATOM     24  C   UNL A   1      45.986  27.994  27.346  1.00  0.00     0.034 A 
ATOM     25  C   UNL A   1      40.846  31.057  29.959  1.00  0.00     0.049 A 
ATOM     26  C   UNL A   1      45.740  29.417  27.784  1.00  0.00     0.074 A 
ATOM     27  C   UNL A   1      40.815  32.310  30.541  1.00  0.00     0.029 A 
ATOM     28  N   UNL A   1      42.111  30.897  29.413  1.00  0.00    -0.354 N 
ATOM     29  N   UNL A   1      44.664  29.934  28.330  1.00  0.00    -0.248 NA
ATOM     30  C   UNL A   1      46.839  30.376  27.594  1.00  0.00     0.031 C 
ATOM     31  C   UNL A   1      42.048  32.928  30.307  1.00  0.00     0.029 A 
ATOM     32  C   UNL A   1      42.865  32.039  29.626  1.00  0.00     0.049 A 
ATOM     33  H   UNL A   1      42.427  30.092  28.945  1.00  0.00     0.167 HD
ATOM     34  C   UNL A   1      44.981  31.263  28.599  1.00  0.00     0.074 A 
ATOM     35  C   UNL A   1      46.341  31.471  28.147  1.00  0.00     0.031 C 
ATOM     36  C   UNL A   1      44.223  32.223  29.184  1.00  0.00     0.034 A 
BRANCH  23  37
ATOM     37  C   UNL A   1      38.420  30.435  30.372  1.00  0.00     0.023 A 
ATOM     38  C   UNL A   1      37.465  30.966  29.486  1.00  0.00     0.031 A 
ATOM     39  C   UNL A   1      38.058  30.287  31.720  1.00  0.00     0.131 A 
ATOM     40  C   UNL A   1      36.235  31.425  29.973  1.00  0.00     0.055 A 
ATOM     41  C   UNL A   1      36.796  30.664  32.184  1.00  0.00     0.041 A 
ATOM     42  F   UNL A   1      38.931  29.793  32.614  1.00  0.00    -0.206 F 
ATOM     43  C   UNL A   1      35.882  31.254  31.313  1.00  0.00     0.022 A 
BRANCH  40  44
ATOM     44  S   UNL A   1      35.169  32.372  28.855  1.00  0.00     0.124 S 
ATOM     45  O   UNL A   1      36.155  33.064  28.028  1.00  0.00    -0.237 OA
ATOM     46  O   UNL A   1      34.400  31.327  28.187  1.00  0.00    -0.237 OA
ATOM     47  O   UNL A   1      34.404  33.232  29.756  1.00  0.00    -0.744 OA
ENDBRANCH  40  44
ENDBRANCH  23  37
BRANCH  24  48
ATOM     48  C   UNL A   1      47.241  27.664  26.600  1.00  0.00     0.023 A 
ATOM     49  C   UNL A   1      47.358  27.902  25.221  1.00  0.00     0.031 A 
ATOM     50  C   UNL A   1      48.289  26.979  27.239  1.00  0.00     0.131 A 
ATOM     51  C   UNL A   1      48.457  27.391  24.510  1.00  0.00     0.055 A 
ATOM     52  C   UNL A   1      49.406  26.519  26.536  1.00  0.00     0.041 A 
ATOM     53  F   UNL A   1      48.224  26.730  28.557  1.00  0.00    -0.206 F 
ATOM     54  C   UNL A   1      49.486  26.707  25.159  1.00  0.00     0.022 A 
BRANCH  51  55
ATOM     55  S   UNL A   1      48.457  27.520  22.698  1.00  0.00     0.124 S 
ATOM     56  O   UNL A   1      49.700  28.242  22.453  1.00  0.00    -0.237 OA
ATOM     57  O   UNL A   1      48.442  26.116  22.299  1.00  0.00    -0.237 OA
ATOM     58  O   UNL A   1      47.234  28.263  22.408  1.00  0.00    -0.744 OA
ENDBRANCH  51  55
ENDBRANCH  24  48
BRANCH  36  59
ATOM     59  C   UNL A   1      44.879  33.550  29.450  1.00  0.00     0.023 A 
ATOM     60  C   UNL A   1      44.875  34.580  28.496  1.00  0.00     0.031 A 
ATOM     61  C   UNL A   1      45.511  33.783  30.684  1.00  0.00     0.131 A 
ATOM     62  C   UNL A   1      45.528  35.788  28.778  1.00  0.00     0.055 A 
ATOM     63  C   UNL A   1      46.108  35.009  30.981  1.00  0.00     0.041 A 
ATOM     64  F   UNL A   1      45.546  32.827  31.625  1.00  0.00    -0.206 F 
ATOM     65  C   UNL A   1      46.126  36.016  30.021  1.00  0.00     0.022 A 
BRANCH  62  66
ATOM     66  S   UNL A   1      45.639  37.041  27.473  1.00  0.00     0.124 S 
ATOM     67  O   UNL A   1      44.286  37.587  27.464  1.00  0.00    -0.237 OA
ATOM     68  O   UNL A   1      46.680  37.930  27.978  1.00  0.00    -0.237 OA
ATOM     69  O   UNL A   1      46.007  36.270  26.287  1.00  0.00    -0.744 OA
ENDBRANCH  62  66
ENDBRANCH  36  59
ENDBRANCH  10  11
ENDBRANCH   3   5
ENDBRANCH   2   3
ENDBRANCH   1   2
BRANCH   1  70
ATOM     70  C   UNL A   1      36.177  19.900  25.023  1.00  0.00     0.275 C 
BRANCH  70  71
ATOM     71  O   UNL A   1      35.413  18.864  24.362  1.00  0.00    -0.458 OA
BRANCH  71  72
ATOM     72  C   UNL A   1      34.143  18.692  24.826  1.00  0.00     0.338 C 
ATOM     73  O   UNL A   1      33.591  17.621  25.000  1.00  0.00    -0.246 OA
BRANCH  72  74
ATOM     74  C   UNL A   1      33.501  19.989  25.185  1.00  0.00     0.060 A 
ATOM     75  C   UNL A   1      32.708  20.623  24.222  1.00  0.00     0.018 A 
ATOM     76  C   UNL A   1      33.715  20.632  26.402  1.00  0.00     0.018 A 
ATOM     77  C   UNL A   1      32.129  21.887  24.471  1.00  0.00     0.028 A 
ATOM     78  C   UNL A   1      33.142  21.904  26.638  1.00  0.00     0.028 A 
ATOM     79  C   UNL A   1      32.345  22.570  25.676  1.00  0.00     0.051 A 
BRANCH  79  80
ATOM     80  N   UNL A   1      31.721  23.846  25.978  1.00  0.00    -0.261 N 
ATOM     81  C   UNL A   1      32.431  25.056  26.029  1.00  0.00     0.270 C 
ATOM     82  C   UNL A   1      30.403  23.971  26.392  1.00  0.00     0.152 C 
ATOM     83  O   UNL A   1      33.604  25.205  26.353  1.00  0.00    -0.268 OA
ATOM     84  C   UNL A   1      31.489  26.227  25.888  1.00  0.00     0.081 C 
ATOM     85  S   UNL A   1      29.923  25.669  26.402  1.00  0.00    -0.054 SA
ATOM     86  S   UNL A   1      29.376  22.808  27.031  1.00  0.00    -0.051 S 
ATOM     87  C   UNL A   1      31.605  27.479  25.393  1.00  0.00     0.028 C 
BRANCH  87  88
ATOM     88  C   UNL A   1      32.647  28.206  24.623  1.00  0.00    -0.009 C 
ATOM     89  C   UNL A   1      33.800  27.689  24.147  1.00  0.00     0.019 C 
ATOM     90  C   UNL A   1      31.986  29.036  23.502  1.00  0.00     0.265 C 
ATOM     91  C   UNL A   1      33.431  26.756  23.052  1.00  0.00     0.017 A 
ATOM     92  O   UNL A   1      31.480  28.139  22.487  1.00  0.00    -0.488 OA
ATOM     93  C   UNL A   1      34.114  25.554  22.955  1.00  0.00     0.012 A 
ATOM     94  C   UNL A   1      32.197  26.963  22.387  1.00  0.00     0.127 A 
ATOM     95  C   UNL A   1      33.429  24.474  22.435  1.00  0.00     0.001 A 
ATOM     96  C   UNL A   1      31.542  25.886  21.827  1.00  0.00     0.047 A 
ATOM     97  C   UNL A   1      32.126  24.631  21.947  1.00  0.00     0.004 A 
ENDBRANCH  87  88
ENDBRANCH  79  80
ENDBRANCH  72  74
ENDBRANCH  71  72
ENDBRANCH  70  71
ENDBRANCH   1  70
TORSDOF 16
ENDMDL
MODEL 3
REMARK VINA RESULT:     -11.9      5.155     12.642
REMARK SMILES O=C(OCCOC(=O)c1ccc(N2C(=O)/C(=C\C3=Cc4ccccc4OC3)SC2=S)cc1)c1ccc(-c2c3nc(c(-c4cc(S(=O)(=O)[O-])ccc4F)c4ccc([nH]4)c(-c4cc(S(=O)(=O)[O-])ccc4F)c4nc(c(-c5cc(S(=O)(=O)[O-])ccc5F)c5ccc2[nH]5)C=C4)C=C3)cc1
REMARK SMILES IDX 4 1 3 2 2 3 1 4 33 5 34 6 95 7 35 8 94 9 36 10 37 11 38 12
REMARK SMILES IDX 88 13 39 14 93 15 87 16 89 17 40 18 92 19 86 20 85 21 41 23
REMARK SMILES IDX 73 24 53 25 72 26 54 27 57 28 71 29 90 30 55 31 56 32 70 34
REMARK SMILES IDX 91 35 58 36 42 37 43 38 51 39 44 40 50 41 52 42 49 43 45 44
REMARK SMILES IDX 46 45 47 46 48 47 74 48 75 49 83 50 76 51 82 52 84 53 81 54
REMARK SMILES IDX 77 55 78 56 79 57 80 58 59 59 60 60 68 61 61 62 67 63 69 64
REMARK SMILES IDX 66 65 62 66 63 67 64 68 65 69 5 70 6 71 7 72 8 73 9 74 10 75
REMARK SMILES IDX 32 76 11 77 31 78 12 79 13 80 14 81 29 82 15 83 16 84 28 85
REMARK SMILES IDX 30 86 17 87 18 88 19 89 27 90 20 91 26 92 21 93 25 94 22 95
REMARK SMILES IDX 24 96 23 97
REMARK H PARENT 89 22 57 33
REMARK Flexibility Score: inf
ROOT
ATOM      1  C   UNL A   1      34.953  34.222  29.451  1.00  0.00     0.275 C 
ENDROOT
BRANCH   1   2
ATOM      2  O   UNL A   1      34.043  33.352  28.774  1.00  0.00    -0.458 OA
BRANCH   2   3
ATOM      3  C   UNL A   1      34.314  32.218  28.092  1.00  0.00     0.338 C 
ATOM      4  O   UNL A   1      33.456  31.819  27.302  1.00  0.00    -0.246 OA
BRANCH   3   5
ATOM      5  C   UNL A   1      35.551  31.375  28.271  1.00  0.00     0.060 A 
ATOM      6  C   UNL A   1      36.888  31.722  28.035  1.00  0.00     0.016 A 
ATOM      7  C   UNL A   1      35.327  30.110  28.819  1.00  0.00     0.016 A 
ATOM      8  C   UNL A   1      37.960  30.913  28.449  1.00  0.00     0.010 A 
ATOM      9  C   UNL A   1      36.393  29.312  29.239  1.00  0.00     0.010 A 
ATOM     10  C   UNL A   1      37.727  29.734  29.143  1.00  0.00    -0.014 A 
BRANCH  10  11
ATOM     11  C   UNL A   1      38.823  28.967  29.823  1.00  0.00     0.031 A 
ATOM     12  C   UNL A   1      39.390  29.505  31.112  1.00  0.00     0.074 A 
ATOM     13  C   UNL A   1      39.449  27.937  29.199  1.00  0.00     0.049 A 
ATOM     14  N   UNL A   1      40.500  29.191  31.728  1.00  0.00    -0.248 NA
ATOM     15  C   UNL A   1      38.631  30.589  31.756  1.00  0.00     0.031 C 
ATOM     16  C   UNL A   1      39.096  27.384  27.885  1.00  0.00     0.029 A 
ATOM     17  N   UNL A   1      40.585  27.230  29.539  1.00  0.00    -0.354 N 
ATOM     18  C   UNL A   1      40.580  30.061  32.811  1.00  0.00     0.074 A 
ATOM     19  C   UNL A   1      39.474  30.984  32.695  1.00  0.00     0.031 C 
ATOM     20  C   UNL A   1      40.014  26.473  27.514  1.00  0.00     0.029 A 
ATOM     21  C   UNL A   1      41.040  26.383  28.546  1.00  0.00     0.049 A 
ATOM     22  H   UNL A   1      41.032  27.321  30.412  1.00  0.00     0.167 HD
ATOM     23  C   UNL A   1      41.446  30.050  33.852  1.00  0.00     0.034 A 
ATOM     24  C   UNL A   1      42.170  25.649  28.452  1.00  0.00     0.034 A 
ATOM     25  C   UNL A   1      42.503  29.086  33.993  1.00  0.00     0.049 A 
ATOM     26  C   UNL A   1      43.151  25.675  29.598  1.00  0.00     0.074 A 
ATOM     27  C   UNL A   1      43.321  28.856  35.083  1.00  0.00     0.029 A 
ATOM     28  N   UNL A   1      42.892  28.198  33.002  1.00  0.00    -0.354 N 
ATOM     29  N   UNL A   1      43.114  26.395  30.695  1.00  0.00    -0.248 NA
ATOM     30  C   UNL A   1      44.314  24.778  29.506  1.00  0.00     0.031 C 
ATOM     31  C   UNL A   1      44.237  27.859  34.734  1.00  0.00     0.029 A 
ATOM     32  C   UNL A   1      43.955  27.430  33.447  1.00  0.00     0.049 A 
ATOM     33  H   UNL A   1      42.474  28.123  32.114  1.00  0.00     0.167 HD
ATOM     34  C   UNL A   1      44.216  25.993  31.446  1.00  0.00     0.074 A 
ATOM     35  C   UNL A   1      44.903  24.979  30.674  1.00  0.00     0.031 C 
ATOM     36  C   UNL A   1      44.616  26.412  32.672  1.00  0.00     0.034 A 
BRANCH  23  37
ATOM     37  C   UNL A   1      41.235  31.072  34.939  1.00  0.00     0.023 A 
ATOM     38  C   UNL A   1      40.080  31.042  35.741  1.00  0.00     0.031 A 
ATOM     39  C   UNL A   1      42.163  32.102  35.157  1.00  0.00     0.131 A 
ATOM     40  C   UNL A   1      39.831  32.076  36.652  1.00  0.00     0.055 A 
ATOM     41  C   UNL A   1      41.952  33.082  36.130  1.00  0.00     0.041 A 
ATOM     42  F   UNL A   1      43.280  32.187  34.417  1.00  0.00    -0.206 F 
ATOM     43  C   UNL A   1      40.772  33.083  36.871  1.00  0.00     0.022 A 
BRANCH  40  44
ATOM     44  S   UNL A   1      38.199  32.155  37.436  1.00  0.00     0.124 S 
ATOM     45  O   UNL A   1      38.542  32.617  38.779  1.00  0.00    -0.237 OA
ATOM     46  O   UNL A   1      37.488  33.113  36.596  1.00  0.00    -0.237 OA
ATOM     47  O   UNL A   1      37.716  30.778  37.359  1.00  0.00    -0.744 OA
ENDBRANCH  40  44
ENDBRANCH  23  37
BRANCH  24  48
ATOM     48  C   UNL A   1      42.499  24.858  27.225  1.00  0.00     0.023 A 
ATOM     49  C   UNL A   1      42.130  23.508  27.103  1.00  0.00     0.031 A 
ATOM     50  C   UNL A   1      43.306  25.412  26.216  1.00  0.00     0.131 A 
ATOM     51  C   UNL A   1      42.632  22.735  26.041  1.00  0.00     0.055 A 
ATOM     52  C   UNL A   1      43.760  24.651  25.134  1.00  0.00     0.041 A 
ATOM     53  F   UNL A   1      43.682  26.698  26.287  1.00  0.00    -0.206 F 
ATOM     54  C   UNL A   1      43.439  23.300  25.052  1.00  0.00     0.022 A 
BRANCH  51  55
ATOM     55  S   UNL A   1      42.322  20.946  26.046  1.00  0.00     0.124 S 
ATOM     56  O   UNL A   1      40.953  20.882  25.549  1.00  0.00    -0.237 OA
ATOM     57  O   UNL A   1      43.357  20.460  25.138  1.00  0.00    -0.237 OA
ATOM     58  O   UNL A   1      42.497  20.571  27.447  1.00  0.00    -0.744 OA
ENDBRANCH  51  55
ENDBRANCH  24  48
BRANCH  36  59
ATOM     59  C   UNL A   1      45.794  25.709  33.288  1.00  0.00     0.023 A 
ATOM     60  C   UNL A   1      45.643  24.532  34.037  1.00  0.00     0.031 A 
ATOM     61  C   UNL A   1      47.089  26.228  33.112  1.00  0.00     0.131 A 
ATOM     62  C   UNL A   1      46.768  23.930  34.618  1.00  0.00     0.055 A 
ATOM     63  C   UNL A   1      48.211  25.593  33.643  1.00  0.00     0.041 A 
ATOM     64  F   UNL A   1      47.283  27.355  32.408  1.00  0.00    -0.206 F 
ATOM     65  C   UNL A   1      48.053  24.442  34.409  1.00  0.00     0.022 A 
BRANCH  62  66
ATOM     66  S   UNL A   1      46.526  22.501  35.706  1.00  0.00     0.124 S 
ATOM     67  O   UNL A   1      45.911  23.115  36.878  1.00  0.00    -0.237 OA
ATOM     68  O   UNL A   1      45.657  21.642  34.908  1.00  0.00    -0.237 OA
ATOM     69  O   UNL A   1      47.881  21.992  35.909  1.00  0.00    -0.744 OA
ENDBRANCH  62  66
ENDBRANCH  36  59
ENDBRANCH  10  11
ENDBRANCH   3   5
ENDBRANCH   2   3
ENDBRANCH   1   2
BRANCH   1  70
ATOM     70  C   UNL A   1      34.895  34.090  30.982  1.00  0.00     0.275 C 
BRANCH  70  71
ATOM     71  O   UNL A   1      36.058  33.467  31.575  1.00  0.00    -0.458 OA
BRANCH  71  72
ATOM     72  C   UNL A   1      36.902  34.316  32.229  1.00  0.00     0.338 C 
ATOM     73  O   UNL A   1      36.622  34.975  33.213  1.00  0.00    -0.246 OA
BRANCH  72  74
ATOM     74  C   UNL A   1      38.273  34.298  31.643  1.00  0.00     0.060 A 
ATOM     75  C   UNL A   1      39.359  34.536  32.494  1.00  0.00     0.018 A 
ATOM     76  C   UNL A   1      38.516  34.132  30.282  1.00  0.00     0.018 A 
ATOM     77  C   UNL A   1      40.677  34.604  31.992  1.00  0.00     0.028 A 
ATOM     78  C   UNL A   1      39.838  34.215  29.786  1.00  0.00     0.028 A 
ATOM     79  C   UNL A   1      40.951  34.464  30.624  1.00  0.00     0.051 A 
BRANCH  79  80
ATOM     80  N   UNL A   1      42.301  34.477  30.088  1.00  0.00    -0.261 N 
ATOM     81  C   UNL A   1      43.383  33.838  30.716  1.00  0.00     0.270 C 
ATOM     82  C   UNL A   1      42.681  35.242  28.996  1.00  0.00     0.152 C 
ATOM     83  O   UNL A   1      43.533  33.663  31.919  1.00  0.00    -0.268 OA
ATOM     84  C   UNL A   1      44.505  33.614  29.732  1.00  0.00     0.081 C 
ATOM     85  S   UNL A   1      44.306  34.799  28.473  1.00  0.00    -0.054 SA
ATOM     86  S   UNL A   1      41.916  36.570  28.312  1.00  0.00    -0.051 S 
ATOM     87  C   UNL A   1      45.484  32.691  29.610  1.00  0.00     0.028 C 
BRANCH  87  88
ATOM     88  C   UNL A   1      45.796  31.403  30.281  1.00  0.00    -0.009 C 
ATOM     89  C   UNL A   1      44.911  30.442  30.624  1.00  0.00     0.019 C 
ATOM     90  C   UNL A   1      47.001  30.731  29.590  1.00  0.00     0.265 C 
ATOM     91  C   UNL A   1      44.425  29.836  29.357  1.00  0.00     0.017 A 
ATOM     92  O   UNL A   1      46.594  30.261  28.284  1.00  0.00    -0.488 OA
ATOM     93  C   UNL A   1      43.079  29.524  29.253  1.00  0.00     0.012 A 
ATOM     94  C   UNL A   1      45.256  29.924  28.214  1.00  0.00     0.127 A 
ATOM     95  C   UNL A   1      42.508  29.585  27.997  1.00  0.00     0.001 A 
ATOM     96  C   UNL A   1      44.682  29.936  26.960  1.00  0.00     0.047 A 
ATOM     97  C   UNL A   1      43.297  29.865  26.875  1.00  0.00     0.004 A 
ENDBRANCH  87  88
ENDBRANCH  79  80
ENDBRANCH  72  74
ENDBRANCH  71  72
ENDBRANCH  70  71
ENDBRANCH   1  70
TORSDOF 16
ENDMDL
