MODEL 1
REMARK VINA RESULT:     -12.8      0.000      0.000
REMARK SMILES O=C(OCCOC(=O)[C@H]1Cc2c([nH]c3ccccc23)[C@H](c2c[nH]c3ccccc23)[NH2+]1)c1ccc(-c2c3nc(c(-c4cc(S(=O)(=O)[O-])ccc4F)c4ccc([nH]4)c(-c4cc(S(=O)(=O)[O-])ccc4F)c4nc(c(-c5cc(S(=O)(=O)[O-])ccc5F)c5ccc2[nH]5)C=C4)C=C3)cc1
REMARK SMILES IDX 4 1 3 2 2 3 1 4 31 5 32 6 93 7 33 8 92 9 34 10 35 11 36 12
REMARK SMILES IDX 86 13 37 14 91 15 85 16 87 17 38 18 90 19 84 20 83 21 39 23
REMARK SMILES IDX 71 24 51 25 70 26 52 27 55 28 69 29 88 30 53 31 54 32 68 34
REMARK SMILES IDX 89 35 56 36 40 37 41 38 49 39 42 40 48 41 50 42 47 43 43 44
REMARK SMILES IDX 44 45 45 46 46 47 72 48 73 49 81 50 74 51 80 52 82 53 79 54
REMARK SMILES IDX 75 55 76 56 77 57 78 58 57 59 58 60 66 61 59 62 65 63 67 64
REMARK SMILES IDX 64 65 60 66 61 67 62 68 63 69 5 70 6 71 7 72 8 73 9 74 10 75
REMARK SMILES IDX 30 76 11 77 20 78 12 81 19 82 13 83 14 84 18 85 15 87 17 88
REMARK SMILES IDX 16 89 21 90 22 91 29 92 23 93 24 94 28 95 25 97 27 98 26 99
REMARK H PARENT 87 22 55 33 30 79 30 80 13 86 23 96
REMARK Flexibility Score: inf
ROOT
ATOM      1  C   UNL A   1      32.457  29.380  25.196  1.00  0.00     0.275 C 
ENDROOT
BRANCH   1   2
ATOM      2  O   UNL A   1      32.274  30.055  26.445  1.00  0.00    -0.458 OA
BRANCH   2   3
ATOM      3  C   UNL A   1      32.968  31.093  26.956  1.00  0.00     0.338 C 
ATOM      4  O   UNL A   1      32.477  32.217  26.830  1.00  0.00    -0.246 OA
BRANCH   3   5
ATOM      5  C   UNL A   1      34.329  30.985  27.595  1.00  0.00     0.060 A 
ATOM      6  C   UNL A   1      35.358  31.927  27.650  1.00  0.00     0.016 A 
ATOM      7  C   UNL A   1      34.545  29.789  28.287  1.00  0.00     0.016 A 
ATOM      8  C   UNL A   1      36.518  31.694  28.406  1.00  0.00     0.010 A 
ATOM      9  C   UNL A   1      35.644  29.581  29.118  1.00  0.00     0.010 A 
ATOM     10  C   UNL A   1      36.671  30.518  29.145  1.00  0.00    -0.014 A 
BRANCH  10  11
ATOM     11  C   UNL A   1      37.976  30.182  29.757  1.00  0.00     0.031 A 
ATOM     12  C   UNL A   1      38.256  30.694  31.146  1.00  0.00     0.074 A 
ATOM     13  C   UNL A   1      38.856  29.391  29.114  1.00  0.00     0.049 A 
ATOM     14  N   UNL A   1      39.261  30.434  31.940  1.00  0.00    -0.248 NA
ATOM     15  C   UNL A   1      37.280  31.639  31.716  1.00  0.00     0.031 C 
ATOM     16  C   UNL A   1      38.698  28.878  27.752  1.00  0.00     0.029 A 
ATOM     17  N   UNL A   1      40.050  28.859  29.528  1.00  0.00    -0.354 N 
ATOM     18  C   UNL A   1      39.024  31.170  33.095  1.00  0.00     0.074 A 
ATOM     19  C   UNL A   1      37.849  31.972  32.859  1.00  0.00     0.031 C 
ATOM     20  C   UNL A   1      39.735  28.073  27.459  1.00  0.00     0.029 A 
ATOM     21  C   UNL A   1      40.638  28.028  28.602  1.00  0.00     0.049 A 
ATOM     22  H   UNL A   1      40.449  29.054  30.406  1.00  0.00     0.167 HD
ATOM     23  C   UNL A   1      39.694  31.142  34.271  1.00  0.00     0.034 A 
ATOM     24  C   UNL A   1      41.771  27.303  28.683  1.00  0.00     0.034 A 
ATOM     25  C   UNL A   1      40.872  30.344  34.476  1.00  0.00     0.049 A 
ATOM     26  C   UNL A   1      42.541  27.337  29.978  1.00  0.00     0.074 A 
ATOM     27  C   UNL A   1      41.644  30.214  35.613  1.00  0.00     0.029 A 
ATOM     28  N   UNL A   1      41.457  29.545  33.499  1.00  0.00    -0.354 N 
ATOM     29  N   UNL A   1      42.272  27.994  31.084  1.00  0.00    -0.248 NA
ATOM     30  C   UNL A   1      43.750  26.509  30.041  1.00  0.00     0.031 C 
ATOM     31  C   UNL A   1      42.736  29.396  35.304  1.00  0.00     0.029 A 
ATOM     32  C   UNL A   1      42.597  28.943  33.999  1.00  0.00     0.049 A 
ATOM     33  H   UNL A   1      41.109  29.425  32.586  1.00  0.00     0.167 HD
ATOM     34  C   UNL A   1      43.259  27.624  31.990  1.00  0.00     0.074 A 
ATOM     35  C   UNL A   1      44.119  26.682  31.301  1.00  0.00     0.031 C 
ATOM     36  C   UNL A   1      43.437  28.016  33.279  1.00  0.00     0.034 A 
BRANCH  23  37
ATOM     37  C   UNL A   1      39.171  32.030  35.375  1.00  0.00     0.023 A 
ATOM     38  C   UNL A   1      39.613  33.361  35.522  1.00  0.00     0.031 A 
ATOM     39  C   UNL A   1      38.304  31.516  36.353  1.00  0.00     0.131 A 
ATOM     40  C   UNL A   1      39.271  34.090  36.671  1.00  0.00     0.055 A 
ATOM     41  C   UNL A   1      37.892  32.282  37.446  1.00  0.00     0.041 A 
ATOM     42  F   UNL A   1      37.874  30.246  36.285  1.00  0.00    -0.206 F 
ATOM     43  C   UNL A   1      38.393  33.569  37.621  1.00  0.00     0.022 A 
BRANCH  40  44
ATOM     44  S   UNL A   1      40.140  35.651  36.996  1.00  0.00     0.124 S 
ATOM     45  O   UNL A   1      39.651  36.493  35.908  1.00  0.00    -0.237 OA
ATOM     46  O   UNL A   1      39.675  36.000  38.333  1.00  0.00    -0.237 OA
ATOM     47  O   UNL A   1      41.552  35.282  36.903  1.00  0.00    -0.744 OA
ENDBRANCH  40  44
ENDBRANCH  23  37
BRANCH  24  48
ATOM     48  C   UNL A   1      42.263  26.493  27.532  1.00  0.00     0.023 A 
ATOM     49  C   UNL A   1      42.225  25.088  27.546  1.00  0.00     0.031 A 
ATOM     50  C   UNL A   1      42.873  27.123  26.435  1.00  0.00     0.131 A 
ATOM     51  C   UNL A   1      42.820  24.361  26.501  1.00  0.00     0.055 A 
ATOM     52  C   UNL A   1      43.416  26.396  25.373  1.00  0.00     0.041 A 
ATOM     53  F   UNL A   1      42.970  28.461  26.393  1.00  0.00    -0.206 F 
ATOM     54  C   UNL A   1      43.398  25.006  25.405  1.00  0.00     0.022 A 
BRANCH  51  55
ATOM     55  S   UNL A   1      42.929  22.554  26.639  1.00  0.00     0.124 S 
ATOM     56  O   UNL A   1      42.136  22.300  27.835  1.00  0.00    -0.237 OA
ATOM     57  O   UNL A   1      42.344  22.116  25.375  1.00  0.00    -0.237 OA
ATOM     58  O   UNL A   1      44.364  22.309  26.775  1.00  0.00    -0.744 OA
ENDBRANCH  51  55
ENDBRANCH  24  48
BRANCH  36  59
ATOM     59  C   UNL A   1      44.572  27.369  34.028  1.00  0.00     0.023 A 
ATOM     60  C   UNL A   1      44.402  26.165  34.730  1.00  0.00     0.031 A 
ATOM     61  C   UNL A   1      45.833  27.988  34.060  1.00  0.00     0.131 A 
ATOM     62  C   UNL A   1      45.457  25.658  35.500  1.00  0.00     0.055 A 
ATOM     63  C   UNL A   1      46.902  27.435  34.763  1.00  0.00     0.041 A 
ATOM     64  F   UNL A   1      46.046  29.144  33.408  1.00  0.00    -0.206 F 
ATOM     65  C   UNL A   1      46.712  26.273  35.503  1.00  0.00     0.022 A 
BRANCH  62  66
ATOM     66  S   UNL A   1      45.125  24.256  36.600  1.00  0.00     0.124 S 
ATOM     67  O   UNL A   1      46.471  23.766  36.878  1.00  0.00    -0.237 OA
ATOM     68  O   UNL A   1      44.436  24.894  37.718  1.00  0.00    -0.237 OA
ATOM     69  O   UNL A   1      44.297  23.370  35.785  1.00  0.00    -0.744 OA
ENDBRANCH  62  66
ENDBRANCH  36  59
ENDBRANCH  10  11
ENDBRANCH   3   5
ENDBRANCH   2   3
ENDBRANCH   1   2
BRANCH   1  70
ATOM     70  C   UNL A   1      31.565  28.145  25.019  1.00  0.00     0.274 C 
BRANCH  70  71
ATOM     71  O   UNL A   1      32.299  26.927  24.783  1.00  0.00    -0.458 OA
BRANCH  71  72
ATOM     72  C   UNL A   1      31.979  25.832  25.548  1.00  0.00     0.365 C 
ATOM     73  O   UNL A   1      31.097  25.834  26.399  1.00  0.00    -0.245 OA
BRANCH  72  74
ATOM     74  C   UNL A   1      32.891  24.633  25.192  1.00  0.00     0.298 C 
ATOM     75  C   UNL A   1      34.255  24.929  25.847  1.00  0.00     0.115 C 
ATOM     76  N   UNL A   1      32.241  23.337  25.570  1.00  0.00    -0.323 N 
ATOM     77  C   UNL A   1      35.091  23.711  25.847  1.00  0.00    -0.006 A 
ATOM     78  C   UNL A   1      33.060  22.111  25.523  1.00  0.00     0.264 C 
ATOM     79  H   UNL A   1      31.450  23.199  24.940  1.00  0.00     0.347 HD
ATOM     80  H   UNL A   1      32.005  23.449  26.557  1.00  0.00     0.347 HD
ATOM     81  C   UNL A   1      34.524  22.458  25.709  1.00  0.00     0.083 A 
ATOM     82  C   UNL A   1      36.499  23.566  25.981  1.00  0.00     0.003 A 
ATOM     83  N   UNL A   1      35.551  21.559  25.825  1.00  0.00    -0.353 N 
ATOM     84  C   UNL A   1      36.760  22.199  25.947  1.00  0.00     0.046 A 
ATOM     85  C   UNL A   1      37.583  24.453  26.126  1.00  0.00     0.010 A 
ATOM     86  H   UNL A   1      35.437  20.581  25.822  1.00  0.00     0.166 HD
ATOM     87  C   UNL A   1      38.048  21.663  26.032  1.00  0.00     0.026 A 
ATOM     88  C   UNL A   1      38.880  23.934  26.223  1.00  0.00     0.001 A 
ATOM     89  C   UNL A   1      39.106  22.561  26.174  1.00  0.00     0.002 A 
BRANCH  78  90
ATOM     90  C   UNL A   1      32.806  21.150  24.338  1.00  0.00     0.041 A 
ATOM     91  C   UNL A   1      32.185  21.560  23.156  1.00  0.00     0.093 A 
ATOM     92  C   UNL A   1      33.196  19.778  24.042  1.00  0.00     0.009 A 
ATOM     93  N   UNL A   1      31.871  20.475  22.397  1.00  0.00    -0.361 N 
ATOM     94  C   UNL A   1      32.472  19.366  22.913  1.00  0.00     0.046 A 
ATOM     95  C   UNL A   1      34.062  18.810  24.596  1.00  0.00     0.011 A 
ATOM     96  H   UNL A   1      31.296  20.490  21.596  1.00  0.00     0.166 HD
ATOM     97  C   UNL A   1      32.428  18.050  22.433  1.00  0.00     0.026 A 
ATOM     98  C   UNL A   1      34.055  17.484  24.109  1.00  0.00     0.001 A 
ATOM     99  C   UNL A   1      33.214  17.102  23.074  1.00  0.00     0.002 A 
ENDBRANCH  78  90
ENDBRANCH  72  74
ENDBRANCH  71  72
ENDBRANCH  70  71
ENDBRANCH   1  70
TORSDOF 15
ENDMDL
MODEL 2
REMARK VINA RESULT:     -12.7      5.565     11.728
REMARK SMILES O=C(OCCOC(=O)[C@H]1Cc2c([nH]c3ccccc23)[C@H](c2c[nH]c3ccccc23)[NH2+]1)c1ccc(-c2c3nc(c(-c4cc(S(=O)(=O)[O-])ccc4F)c4ccc([nH]4)c(-c4cc(S(=O)(=O)[O-])ccc4F)c4nc(c(-c5cc(S(=O)(=O)[O-])ccc5F)c5ccc2[nH]5)C=C4)C=C3)cc1
REMARK SMILES IDX 4 1 3 2 2 3 1 4 31 5 32 6 93 7 33 8 92 9 34 10 35 11 36 12
REMARK SMILES IDX 86 13 37 14 91 15 85 16 87 17 38 18 90 19 84 20 83 21 39 23
REMARK SMILES IDX 71 24 51 25 70 26 52 27 55 28 69 29 88 30 53 31 54 32 68 34
REMARK SMILES IDX 89 35 56 36 40 37 41 38 49 39 42 40 48 41 50 42 47 43 43 44
REMARK SMILES IDX 44 45 45 46 46 47 72 48 73 49 81 50 74 51 80 52 82 53 79 54
REMARK SMILES IDX 75 55 76 56 77 57 78 58 57 59 58 60 66 61 59 62 65 63 67 64
REMARK SMILES IDX 64 65 60 66 61 67 62 68 63 69 5 70 6 71 7 72 8 73 9 74 10 75
REMARK SMILES IDX 30 76 11 77 20 78 12 81 19 82 13 83 14 84 18 85 15 87 17 88
REMARK SMILES IDX 16 89 21 90 22 91 29 92 23 93 24 94 28 95 25 97 27 98 26 99
REMARK H PARENT 87 22 55 33 30 79 30 80 13 86 23 96
REMARK Flexibility Score: inf
ROOT
ATOM      1  C   UNL A   1      40.805  20.299  26.446  1.00  0.00     0.275 C 
ENDROOT
BRANCH   1   2
ATOM      2  O   UNL A   1      40.349  21.474  27.124  1.00  0.00    -0.458 OA
BRANCH   2   3
ATOM      3  C   UNL A   1      39.707  22.548  26.619  1.00  0.00     0.338 C 
ATOM      4  O   UNL A   1      38.835  22.338  25.774  1.00  0.00    -0.246 OA
BRANCH   3   5
ATOM      5  C   UNL A   1      40.035  23.980  26.956  1.00  0.00     0.060 A 
ATOM      6  C   UNL A   1      40.217  25.070  26.102  1.00  0.00     0.016 A 
ATOM      7  C   UNL A   1      40.088  24.251  28.327  1.00  0.00     0.016 A 
ATOM      8  C   UNL A   1      40.392  26.368  26.607  1.00  0.00     0.010 A 
ATOM      9  C   UNL A   1      40.164  25.542  28.843  1.00  0.00     0.010 A 
ATOM     10  C   UNL A   1      40.369  26.614  27.982  1.00  0.00    -0.014 A 
BRANCH  10  11
ATOM     11  C   UNL A   1      40.769  27.937  28.513  1.00  0.00     0.031 A 
ATOM     12  C   UNL A   1      42.225  28.315  28.440  1.00  0.00     0.074 A 
ATOM     13  C   UNL A   1      39.847  28.797  28.988  1.00  0.00     0.049 A 
ATOM     14  N   UNL A   1      42.802  29.455  28.719  1.00  0.00    -0.248 NA
ATOM     15  C   UNL A   1      43.164  27.265  28.009  1.00  0.00     0.031 C 
ATOM     16  C   UNL A   1      38.419  28.511  29.139  1.00  0.00     0.029 A 
ATOM     17  N   UNL A   1      39.968  30.096  29.409  1.00  0.00    -0.354 N 
ATOM     18  C   UNL A   1      44.157  29.254  28.481  1.00  0.00     0.074 A 
ATOM     19  C   UNL A   1      44.333  27.862  28.149  1.00  0.00     0.031 C 
ATOM     20  C   UNL A   1      37.792  29.616  29.580  1.00  0.00     0.029 A 
ATOM     21  C   UNL A   1      38.772  30.679  29.761  1.00  0.00     0.049 A 
ATOM     22  H   UNL A   1      40.831  30.567  29.456  1.00  0.00     0.167 HD
ATOM     23  C   UNL A   1      45.162  30.161  28.486  1.00  0.00     0.034 A 
ATOM     24  C   UNL A   1      38.507  31.936  30.166  1.00  0.00     0.034 A 
ATOM     25  C   UNL A   1      44.963  31.541  28.835  1.00  0.00     0.049 A 
ATOM     26  C   UNL A   1      39.650  32.915  30.230  1.00  0.00     0.074 A 
ATOM     27  C   UNL A   1      45.885  32.567  28.875  1.00  0.00     0.029 A 
ATOM     28  N   UNL A   1      43.741  32.083  29.222  1.00  0.00    -0.354 N 
ATOM     29  N   UNL A   1      40.919  32.725  29.947  1.00  0.00    -0.248 NA
ATOM     30  C   UNL A   1      39.317  34.283  30.643  1.00  0.00     0.031 C 
ATOM     31  C   UNL A   1      45.240  33.711  29.357  1.00  0.00     0.029 A 
ATOM     32  C   UNL A   1      43.894  33.421  29.532  1.00  0.00     0.049 A 
ATOM     33  H   UNL A   1      42.893  31.585  29.269  1.00  0.00     0.167 HD
ATOM     34  C   UNL A   1      41.529  33.964  30.106  1.00  0.00     0.074 A 
ATOM     35  C   UNL A   1      40.485  34.889  30.503  1.00  0.00     0.031 C 
ATOM     36  C   UNL A   1      42.831  34.312  29.933  1.00  0.00     0.034 A 
BRANCH  23  37
ATOM     37  C   UNL A   1      46.542  29.651  28.142  1.00  0.00     0.023 A 
ATOM     38  C   UNL A   1      47.372  29.058  29.116  1.00  0.00     0.031 A 
ATOM     39  C   UNL A   1      47.077  29.851  26.859  1.00  0.00     0.131 A 
ATOM     40  C   UNL A   1      48.716  28.787  28.819  1.00  0.00     0.055 A 
ATOM     41  C   UNL A   1      48.388  29.491  26.545  1.00  0.00     0.041 A 
ATOM     42  F   UNL A   1      46.345  30.440  25.899  1.00  0.00    -0.206 F 
ATOM     43  C   UNL A   1      49.223  28.975  27.532  1.00  0.00     0.022 A 
BRANCH  40  44
ATOM     44  S   UNL A   1      49.837  28.365  30.184  1.00  0.00     0.124 S 
ATOM     45  O   UNL A   1      49.799  26.905  30.156  1.00  0.00    -0.237 OA
ATOM     46  O   UNL A   1      51.091  28.980  29.766  1.00  0.00    -0.237 OA
ATOM     47  O   UNL A   1      49.200  28.976  31.350  1.00  0.00    -0.744 OA
ENDBRANCH  40  44
ENDBRANCH  23  37
BRANCH  24  48
ATOM     48  C   UNL A   1      37.128  32.357  30.549  1.00  0.00     0.023 A 
ATOM     49  C   UNL A   1      36.212  32.841  29.599  1.00  0.00     0.031 A 
ATOM     50  C   UNL A   1      36.743  32.371  31.899  1.00  0.00     0.131 A 
ATOM     51  C   UNL A   1      34.972  33.353  30.020  1.00  0.00     0.055 A 
ATOM     52  C   UNL A   1      35.489  32.832  32.306  1.00  0.00     0.041 A 
ATOM     53  F   UNL A   1      37.597  31.957  32.849  1.00  0.00    -0.206 F 
ATOM     54  C   UNL A   1      34.597  33.334  31.365  1.00  0.00     0.022 A 
BRANCH  51  55
ATOM     55  S   UNL A   1      33.891  34.149  28.798  1.00  0.00     0.124 S 
ATOM     56  O   UNL A   1      32.800  34.631  29.637  1.00  0.00    -0.237 OA
ATOM     57  O   UNL A   1      34.767  35.171  28.234  1.00  0.00    -0.237 OA
ATOM     58  O   UNL A   1      33.545  33.059  27.888  1.00  0.00    -0.744 OA
ENDBRANCH  51  55
ENDBRANCH  24  48
BRANCH  36  59
ATOM     59  C   UNL A   1      43.167  35.769  30.115  1.00  0.00     0.023 A 
ATOM     60  C   UNL A   1      42.998  36.700  29.078  1.00  0.00     0.031 A 
ATOM     61  C   UNL A   1      43.692  36.220  31.337  1.00  0.00     0.131 A 
ATOM     62  C   UNL A   1      43.424  38.023  29.258  1.00  0.00     0.055 A 
ATOM     63  C   UNL A   1      44.040  37.555  31.537  1.00  0.00     0.041 A 
ATOM     64  F   UNL A   1      43.878  35.367  32.360  1.00  0.00    -0.206 F 
ATOM     65  C   UNL A   1      43.924  38.461  30.488  1.00  0.00     0.022 A 
BRANCH  62  66
ATOM     66  S   UNL A   1      43.439  39.127  27.821  1.00  0.00     0.124 S 
ATOM     67  O   UNL A   1      44.380  40.160  28.244  1.00  0.00    -0.237 OA
ATOM     68  O   UNL A   1      43.899  38.245  26.754  1.00  0.00    -0.237 OA
ATOM     69  O   UNL A   1      42.048  39.563  27.710  1.00  0.00    -0.744 OA
ENDBRANCH  62  66
ENDBRANCH  36  59
ENDBRANCH  10  11
ENDBRANCH   3   5
ENDBRANCH   2   3
ENDBRANCH   1   2
BRANCH   1  70
ATOM     70  C   UNL A   1      42.328  20.227  26.278  1.00  0.00     0.274 C 
BRANCH  70  71
ATOM     71  O   UNL A   1      43.016  21.418  26.710  1.00  0.00    -0.458 OA
BRANCH  71  72
ATOM     72  C   UNL A   1      43.351  22.343  25.751  1.00  0.00     0.365 C 
ATOM     73  O   UNL A   1      42.981  22.275  24.583  1.00  0.00    -0.245 OA
BRANCH  72  74
ATOM     74  C   UNL A   1      44.258  23.446  26.349  1.00  0.00     0.298 C 
ATOM     75  C   UNL A   1      43.990  23.437  27.867  1.00  0.00     0.115 C 
ATOM     76  N   UNL A   1      45.682  23.254  25.925  1.00  0.00    -0.323 N 
ATOM     77  C   UNL A   1      45.030  24.217  28.568  1.00  0.00    -0.006 A 
ATOM     78  C   UNL A   1      46.718  24.068  26.589  1.00  0.00     0.264 C 
ATOM     79  H   UNL A   1      45.731  23.455  24.926  1.00  0.00     0.347 HD
ATOM     80  H   UNL A   1      45.900  22.294  26.193  1.00  0.00     0.347 HD
ATOM     81  C   UNL A   1      46.250  24.476  27.972  1.00  0.00     0.083 A 
ATOM     82  C   UNL A   1      45.020  24.801  29.864  1.00  0.00     0.003 A 
ATOM     83  N   UNL A   1      46.998  25.144  28.904  1.00  0.00    -0.353 N 
ATOM     84  C   UNL A   1      46.268  25.394  30.041  1.00  0.00     0.046 A 
ATOM     85  C   UNL A   1      44.080  24.894  30.908  1.00  0.00     0.010 A 
ATOM     86  H   UNL A   1      47.937  25.412  28.777  1.00  0.00     0.166 HD
ATOM     87  C   UNL A   1      46.628  26.090  31.197  1.00  0.00     0.026 A 
ATOM     88  C   UNL A   1      44.426  25.579  32.079  1.00  0.00     0.001 A 
ATOM     89  C   UNL A   1      45.680  26.169  32.218  1.00  0.00     0.002 A 
BRANCH  78  90
ATOM     90  C   UNL A   1      47.309  25.241  25.773  1.00  0.00     0.041 A 
ATOM     91  C   UNL A   1      46.510  26.179  25.116  1.00  0.00     0.093 A 
ATOM     92  C   UNL A   1      48.655  25.764  25.576  1.00  0.00     0.009 A 
ATOM     93  N   UNL A   1      47.274  26.941  24.286  1.00  0.00    -0.361 N 
ATOM     94  C   UNL A   1      48.594  26.710  24.540  1.00  0.00     0.046 A 
ATOM     95  C   UNL A   1      49.936  25.550  26.130  1.00  0.00     0.011 A 
ATOM     96  H   UNL A   1      46.928  27.563  23.606  1.00  0.00     0.166 HD
ATOM     97  C   UNL A   1      49.713  27.293  23.931  1.00  0.00     0.026 A 
ATOM     98  C   UNL A   1      51.073  26.151  25.549  1.00  0.00     0.001 A 
ATOM     99  C   UNL A   1      50.965  26.973  24.436  1.00  0.00     0.002 A 
ENDBRANCH  78  90
ENDBRANCH  72  74
ENDBRANCH  71  72
ENDBRANCH  70  71
ENDBRANCH   1  70
TORSDOF 15
ENDMDL
MODEL 3
REMARK VINA RESULT:     -12.7      1.826      2.077
REMARK SMILES O=C(OCCOC(=O)[C@H]1Cc2c([nH]c3ccccc23)[C@H](c2c[nH]c3ccccc23)[NH2+]1)c1ccc(-c2c3nc(c(-c4cc(S(=O)(=O)[O-])ccc4F)c4ccc([nH]4)c(-c4cc(S(=O)(=O)[O-])ccc4F)c4nc(c(-c5cc(S(=O)(=O)[O-])ccc5F)c5ccc2[nH]5)C=C4)C=C3)cc1
REMARK SMILES IDX 4 1 3 2 2 3 1 4 31 5 32 6 93 7 33 8 92 9 34 10 35 11 36 12
REMARK SMILES IDX 86 13 37 14 91 15 85 16 87 17 38 18 90 19 84 20 83 21 39 23
REMARK SMILES IDX 71 24 51 25 70 26 52 27 55 28 69 29 88 30 53 31 54 32 68 34
REMARK SMILES IDX 89 35 56 36 40 37 41 38 49 39 42 40 48 41 50 42 47 43 43 44
REMARK SMILES IDX 44 45 45 46 46 47 72 48 73 49 81 50 74 51 80 52 82 53 79 54
REMARK SMILES IDX 75 55 76 56 77 57 78 58 57 59 58 60 66 61 59 62 65 63 67 64
REMARK SMILES IDX 64 65 60 66 61 67 62 68 63 69 5 70 6 71 7 72 8 73 9 74 10 75
REMARK SMILES IDX 30 76 11 77 20 78 12 81 19 82 13 83 14 84 18 85 15 87 17 88
REMARK SMILES IDX 16 89 21 90 22 91 29 92 23 93 24 94 28 95 25 97 27 98 26 99
REMARK H PARENT 87 22 55 33 30 79 30 80 13 86 23 96
REMARK Flexibility Score: inf
ROOT
ATOM      1  C   UNL A   1      33.465  28.679  25.419  1.00  0.00     0.275 C 
ENDROOT
BRANCH   1   2
ATOM      2  O   UNL A   1      33.349  30.072  25.723  1.00  0.00    -0.458 OA
BRANCH   2   3
ATOM      3  C   UNL A   1      33.603  30.710  26.885  1.00  0.00     0.338 C 
ATOM      4  O   UNL A   1      32.717  31.439  27.335  1.00  0.00    -0.246 OA
BRANCH   3   5
ATOM      5  C   UNL A   1      34.916  30.658  27.624  1.00  0.00     0.060 A 
ATOM      6  C   UNL A   1      35.918  31.626  27.718  1.00  0.00     0.016 A 
ATOM      7  C   UNL A   1      35.107  29.493  28.374  1.00  0.00     0.016 A 
ATOM      8  C   UNL A   1      37.024  31.448  28.564  1.00  0.00     0.010 A 
ATOM      9  C   UNL A   1      36.147  29.341  29.288  1.00  0.00     0.010 A 
ATOM     10  C   UNL A   1      37.148  30.303  29.355  1.00  0.00    -0.014 A 
BRANCH  10  11
ATOM     11  C   UNL A   1      38.412  30.021  30.072  1.00  0.00     0.031 A 
ATOM     12  C   UNL A   1      38.593  30.616  31.444  1.00  0.00     0.074 A 
ATOM     13  C   UNL A   1      39.342  29.206  29.536  1.00  0.00     0.049 A 
ATOM     14  N   UNL A   1      39.545  30.416  32.317  1.00  0.00    -0.248 NA
ATOM     15  C   UNL A   1      37.571  31.579  31.891  1.00  0.00     0.031 C 
ATOM     16  C   UNL A   1      39.281  28.614  28.199  1.00  0.00     0.029 A 
ATOM     17  N   UNL A   1      40.510  28.716  30.059  1.00  0.00    -0.354 N 
ATOM     18  C   UNL A   1      39.223  31.214  33.409  1.00  0.00     0.074 A 
ATOM     19  C   UNL A   1      38.059  31.985  33.049  1.00  0.00     0.031 C 
ATOM     20  C   UNL A   1      40.344  27.808  28.024  1.00  0.00     0.029 A 
ATOM     21  C   UNL A   1      41.167  27.841  29.225  1.00  0.00     0.049 A 
ATOM     22  H   UNL A   1      40.847  28.967  30.950  1.00  0.00     0.167 HD
ATOM     23  C   UNL A   1      39.812  31.263  34.627  1.00  0.00     0.034 A 
ATOM     24  C   UNL A   1      42.300  27.138  29.424  1.00  0.00     0.034 A 
ATOM     25  C   UNL A   1      40.981  30.495  34.956  1.00  0.00     0.049 A 
ATOM     26  C   UNL A   1      42.979  27.256  30.763  1.00  0.00     0.074 A 
ATOM     27  C   UNL A   1      41.676  30.441  36.148  1.00  0.00     0.029 A 
ATOM     28  N   UNL A   1      41.639  29.648  34.069  1.00  0.00    -0.354 N 
ATOM     29  N   UNL A   1      42.630  27.972  31.808  1.00  0.00    -0.248 NA
ATOM     30  C   UNL A   1      44.190  26.450  30.955  1.00  0.00     0.031 C 
ATOM     31  C   UNL A   1      42.795  29.622  35.960  1.00  0.00     0.029 A 
ATOM     32  C   UNL A   1      42.748  29.092  34.679  1.00  0.00     0.049 A 
ATOM     33  H   UNL A   1      41.355  29.471  33.143  1.00  0.00     0.167 HD
ATOM     34  C   UNL A   1      43.557  27.668  32.799  1.00  0.00     0.074 A 
ATOM     35  C   UNL A   1      44.472  26.700  32.224  1.00  0.00     0.031 C 
ATOM     36  C   UNL A   1      43.644  28.137  34.071  1.00  0.00     0.034 A 
BRANCH  23  37
ATOM     37  C   UNL A   1      39.207  32.206  35.640  1.00  0.00     0.023 A 
ATOM     38  C   UNL A   1      39.616  33.553  35.729  1.00  0.00     0.031 A 
ATOM     39  C   UNL A   1      38.291  31.735  36.594  1.00  0.00     0.131 A 
ATOM     40  C   UNL A   1      39.192  34.344  36.807  1.00  0.00     0.055 A 
ATOM     41  C   UNL A   1      37.800  32.557  37.610  1.00  0.00     0.041 A 
ATOM     42  F   UNL A   1      37.888  30.454  36.580  1.00  0.00    -0.206 F 
ATOM     43  C   UNL A   1      38.266  33.863  37.734  1.00  0.00     0.022 A 
BRANCH  40  44
ATOM     44  S   UNL A   1      40.011  35.939  37.085  1.00  0.00     0.124 S 
ATOM     45  O   UNL A   1      39.711  36.646  35.842  1.00  0.00    -0.237 OA
ATOM     46  O   UNL A   1      39.340  36.436  38.281  1.00  0.00    -0.237 OA
ATOM     47  O   UNL A   1      41.417  35.576  37.263  1.00  0.00    -0.744 OA
ENDBRANCH  40  44
ENDBRANCH  23  37
BRANCH  24  48
ATOM     48  C   UNL A   1      42.876  26.269  28.357  1.00  0.00     0.023 A 
ATOM     49  C   UNL A   1      43.977  26.678  27.585  1.00  0.00     0.031 A 
ATOM     50  C   UNL A   1      42.262  25.049  28.032  1.00  0.00     0.131 A 
ATOM     51  C   UNL A   1      44.404  25.890  26.502  1.00  0.00     0.055 A 
ATOM     52  C   UNL A   1      42.724  24.244  26.987  1.00  0.00     0.041 A 
ATOM     53  F   UNL A   1      41.183  24.633  28.713  1.00  0.00    -0.206 F 
ATOM     54  C   UNL A   1      43.797  24.666  26.211  1.00  0.00     0.022 A 
BRANCH  51  55
ATOM     55  S   UNL A   1      45.699  26.534  25.404  1.00  0.00     0.124 S 
ATOM     56  O   UNL A   1      46.737  26.907  26.357  1.00  0.00    -0.237 OA
ATOM     57  O   UNL A   1      45.986  25.378  24.561  1.00  0.00    -0.237 OA
ATOM     58  O   UNL A   1      45.044  27.650  24.723  1.00  0.00    -0.744 OA
ENDBRANCH  51  55
ENDBRANCH  24  48
BRANCH  36  59
ATOM     59  C   UNL A   1      44.732  27.550  34.931  1.00  0.00     0.023 A 
ATOM     60  C   UNL A   1      46.007  28.132  35.008  1.00  0.00     0.031 A 
ATOM     61  C   UNL A   1      44.491  26.373  35.660  1.00  0.00     0.131 A 
ATOM     62  C   UNL A   1      47.018  27.492  35.736  1.00  0.00     0.055 A 
ATOM     63  C   UNL A   1      45.479  25.785  36.447  1.00  0.00     0.041 A 
ATOM     64  F   UNL A   1      43.289  25.774  35.616  1.00  0.00    -0.206 F 
ATOM     65  C   UNL A   1      46.756  26.334  36.474  1.00  0.00     0.022 A 
BRANCH  62  66
ATOM     66  S   UNL A   1      48.712  28.122  35.597  1.00  0.00     0.124 S 
ATOM     67  O   UNL A   1      49.421  26.965  35.060  1.00  0.00    -0.237 OA
ATOM     68  O   UNL A   1      48.551  29.250  34.686  1.00  0.00    -0.237 OA
ATOM     69  O   UNL A   1      49.058  28.479  36.972  1.00  0.00    -0.744 OA
ENDBRANCH  62  66
ENDBRANCH  36  59
ENDBRANCH  10  11
ENDBRANCH   3   5
ENDBRANCH   2   3
ENDBRANCH   1   2
BRANCH   1  70
ATOM     70  C   UNL A   1      32.225  27.855  25.786  1.00  0.00     0.274 C 
BRANCH  70  71
ATOM     71  O   UNL A   1      32.165  26.572  25.130  1.00  0.00    -0.458 OA
BRANCH  71  72
ATOM     72  C   UNL A   1      31.989  25.462  25.919  1.00  0.00     0.365 C 
ATOM     73  O   UNL A   1      31.201  25.414  26.858  1.00  0.00    -0.245 OA
BRANCH  72  74
ATOM     74  C   UNL A   1      32.926  24.317  25.466  1.00  0.00     0.298 C 
ATOM     75  C   UNL A   1      34.306  24.631  26.076  1.00  0.00     0.115 C 
ATOM     76  N   UNL A   1      32.339  22.980  25.806  1.00  0.00    -0.323 N 
ATOM     77  C   UNL A   1      35.184  23.448  25.978  1.00  0.00    -0.006 A 
ATOM     78  C   UNL A   1      33.199  21.789  25.661  1.00  0.00     0.264 C 
ATOM     79  H   UNL A   1      31.527  22.844  25.204  1.00  0.00     0.347 HD
ATOM     80  H   UNL A   1      32.144  23.035  26.805  1.00  0.00     0.347 HD
ATOM     81  C   UNL A   1      34.657  22.182  25.802  1.00  0.00     0.083 A 
ATOM     82  C   UNL A   1      36.601  23.348  26.045  1.00  0.00     0.003 A 
ATOM     83  N   UNL A   1      35.719  21.317  25.829  1.00  0.00    -0.353 N 
ATOM     84  C   UNL A   1      36.909  21.996  25.931  1.00  0.00     0.046 A 
ATOM     85  C   UNL A   1      37.658  24.267  26.188  1.00  0.00     0.010 A 
ATOM     86  H   UNL A   1      35.640  20.337  25.781  1.00  0.00     0.166 HD
ATOM     87  C   UNL A   1      38.217  21.505  25.934  1.00  0.00     0.026 A 
ATOM     88  C   UNL A   1      38.976  23.794  26.203  1.00  0.00     0.001 A 
ATOM     89  C   UNL A   1      39.248  22.434  26.075  1.00  0.00     0.002 A 
BRANCH  78  90
ATOM     90  C   UNL A   1      32.926  20.879  24.442  1.00  0.00     0.041 A 
ATOM     91  C   UNL A   1      32.249  21.325  23.305  1.00  0.00     0.093 A 
ATOM     92  C   UNL A   1      33.344  19.534  24.066  1.00  0.00     0.009 A 
ATOM     93  N   UNL A   1      31.936  20.269  22.507  1.00  0.00    -0.361 N 
ATOM     94  C   UNL A   1      32.588  19.155  22.946  1.00  0.00     0.046 A 
ATOM     95  C   UNL A   1      34.258  18.568  24.539  1.00  0.00     0.011 A 
ATOM     96  H   UNL A   1      31.330  20.303  21.730  1.00  0.00     0.166 HD
ATOM     97  C   UNL A   1      32.563  17.862  22.405  1.00  0.00     0.026 A 
ATOM     98  C   UNL A   1      34.269  17.267  23.990  1.00  0.00     0.001 A 
ATOM     99  C   UNL A   1      33.400  16.909  22.969  1.00  0.00     0.002 A 
ENDBRANCH  78  90
ENDBRANCH  72  74
ENDBRANCH  71  72
ENDBRANCH  70  71
ENDBRANCH   1  70
TORSDOF 15
ENDMDL
