MODEL 1
REMARK VINA RESULT:     -11.5      0.000      0.000
REMARK SMILES C[C@@]1(C(=O)OCCOC(=O)c2ccc(-c3c4nc(c(-c5cc(S(=O)(=O)[O-])ccc5F)c5ccc([nH]5)c(-c5cc(S(=O)(=O)[O-])ccc5F)c5nc(c(-c6cc(S(=O)(=O)[O-])ccc6F)c6ccc3[nH]6)C=C5)C=C4)cc2)COC[C@H]1NC(=O)C[C@@H]1C[NH2+]CCO1
REMARK SMILES IDX 6 1 5 2 3 3 4 4 2 5 1 6 74 7 77 8 75 9 76 10 78 11 79 12
REMARK SMILES IDX 80 14 81 15 82 16 83 17 87 18 84 19 86 20 85 21 7 24 8 25
REMARK SMILES IDX 9 26 10 27 11 28 12 29 73 30 13 31 72 32 14 33 15 34 16 35
REMARK SMILES IDX 66 36 17 37 71 38 65 39 67 40 18 41 70 42 64 43 63 44 19 46
REMARK SMILES IDX 51 47 31 48 50 49 32 50 35 51 49 52 68 53 33 54 34 55 48 57
REMARK SMILES IDX 69 58 36 59 20 60 21 61 29 62 22 63 28 64 30 65 27 66 23 67
REMARK SMILES IDX 24 68 25 69 26 70 52 71 53 72 61 73 54 74 60 75 62 76 59 77
REMARK SMILES IDX 55 78 56 79 57 80 58 81 37 82 38 83 46 84 39 85 45 86 47 87
REMARK SMILES IDX 44 88 40 89 41 90 42 91 43 92
REMARK H PARENT 78 13 84 22 84 23 67 45 35 56
REMARK Flexibility Score: inf
ROOT
ATOM      1  C   UNL A   1      36.211  19.673  24.998  1.00  0.00     0.274 C 
ENDROOT
BRANCH   1   2
ATOM      2  O   UNL A   1      35.645  20.897  25.512  1.00  0.00    -0.462 OA
BRANCH   2   3
ATOM      3  C   UNL A   1      34.701  21.482  24.726  1.00  0.00     0.316 C 
ATOM      4  O   UNL A   1      33.710  20.893  24.306  1.00  0.00    -0.251 OA
BRANCH   3   5
ATOM      5  C   UNL A   1      35.018  22.931  24.346  1.00  0.00     0.111 C 
ATOM      6  C   UNL A   1      36.123  22.920  23.277  1.00  0.00     0.028 C 
ATOM      7  C   UNL A   1      35.504  23.608  25.620  1.00  0.00     0.181 C 
ATOM      8  C   UNL A   1      33.790  23.768  23.967  1.00  0.00     0.127 C 
ATOM      9  O   UNL A   1      34.351  24.140  26.281  1.00  0.00    -0.378 OA
ATOM     10  C   UNL A   1      33.314  24.335  25.310  1.00  0.00     0.186 C 
BRANCH   8  11
ATOM     11  N   UNL A   1      34.106  24.855  23.034  1.00  0.00    -0.350 N 
ATOM     12  C   UNL A   1      33.296  25.669  22.310  1.00  0.00     0.223 C 
ATOM     13  H   UNL A   1      35.069  25.020  22.911  1.00  0.00     0.163 HD
ATOM     14  O   UNL A   1      33.838  26.546  21.637  1.00  0.00    -0.275 OA
BRANCH  12  15
ATOM     15  C   UNL A   1      31.792  25.542  22.366  1.00  0.00     0.138 C 
BRANCH  15  16
ATOM     16  C   UNL A   1      31.044  26.568  23.215  1.00  0.00     0.182 C 
ATOM     17  C   UNL A   1      30.339  27.670  22.398  1.00  0.00     0.293 C 
ATOM     18  O   UNL A   1      32.011  27.142  24.124  1.00  0.00    -0.366 OA
ATOM     19  N   UNL A   1      29.664  28.622  23.298  1.00  0.00    -0.342 N 
ATOM     20  C   UNL A   1      31.422  28.135  24.976  1.00  0.00     0.222 C 
ATOM     21  C   UNL A   1      30.681  29.216  24.182  1.00  0.00     0.289 C 
ATOM     22  H   UNL A   1      28.966  28.132  23.857  1.00  0.00     0.346 HD
ATOM     23  H   UNL A   1      29.198  29.349  22.757  1.00  0.00     0.346 HD
ENDBRANCH  15  16
ENDBRANCH  12  15
ENDBRANCH   8  11
ENDBRANCH   3   5
ENDBRANCH   2   3
ENDBRANCH   1   2
BRANCH   1  24
ATOM     24  C   UNL A   1      37.732  19.742  24.881  1.00  0.00     0.275 C 
BRANCH  24  25
ATOM     25  O   UNL A   1      38.239  20.986  25.395  1.00  0.00    -0.458 OA
BRANCH  25  26
ATOM     26  C   UNL A   1      39.369  20.872  26.127  1.00  0.00     0.338 C 
ATOM     27  O   UNL A   1      40.109  19.903  26.197  1.00  0.00    -0.246 OA
BRANCH  26  28
ATOM     28  C   UNL A   1      39.714  22.127  26.809  1.00  0.00     0.060 A 
ATOM     29  C   UNL A   1      39.119  23.300  26.353  1.00  0.00     0.016 A 
ATOM     30  C   UNL A   1      40.851  22.179  27.620  1.00  0.00     0.016 A 
ATOM     31  C   UNL A   1      39.737  24.524  26.600  1.00  0.00     0.010 A 
ATOM     32  C   UNL A   1      41.416  23.419  27.943  1.00  0.00     0.010 A 
ATOM     33  C   UNL A   1      40.899  24.602  27.389  1.00  0.00    -0.014 A 
BRANCH  33  34
ATOM     34  C   UNL A   1      41.543  25.924  27.634  1.00  0.00     0.031 A 
ATOM     35  C   UNL A   1      40.853  27.012  28.421  1.00  0.00     0.074 A 
ATOM     36  C   UNL A   1      42.789  26.133  27.168  1.00  0.00     0.049 A 
ATOM     37  N   UNL A   1      41.273  28.221  28.710  1.00  0.00    -0.248 NA
ATOM     38  C   UNL A   1      39.523  26.706  28.961  1.00  0.00     0.031 C 
ATOM     39  C   UNL A   1      43.580  25.155  26.417  1.00  0.00     0.029 A 
ATOM     40  N   UNL A   1      43.610  27.227  27.257  1.00  0.00    -0.354 N 
ATOM     41  C   UNL A   1      40.267  28.810  29.472  1.00  0.00     0.074 A 
ATOM     42  C   UNL A   1      39.200  27.837  29.575  1.00  0.00     0.031 C 
ATOM     43  C   UNL A   1      44.779  25.684  26.136  1.00  0.00     0.029 A 
ATOM     44  C   UNL A   1      44.812  27.061  26.613  1.00  0.00     0.049 A 
ATOM     45  H   UNL A   1      43.363  28.050  27.738  1.00  0.00     0.167 HD
ATOM     46  C   UNL A   1      40.234  30.046  30.032  1.00  0.00     0.034 A 
ATOM     47  C   UNL A   1      45.816  27.928  26.384  1.00  0.00     0.034 A 
ATOM     48  C   UNL A   1      41.292  31.022  29.901  1.00  0.00     0.049 A 
ATOM     49  C   UNL A   1      45.706  29.330  26.911  1.00  0.00     0.074 A 
ATOM     50  C   UNL A   1      41.366  32.292  30.450  1.00  0.00     0.029 A 
ATOM     51  N   UNL A   1      42.448  30.850  29.152  1.00  0.00    -0.354 N 
ATOM     52  N   UNL A   1      44.743  29.872  27.619  1.00  0.00    -0.248 NA
ATOM     53  C   UNL A   1      46.818  30.235  26.602  1.00  0.00     0.031 C 
ATOM     54  C   UNL A   1      42.527  32.914  29.970  1.00  0.00     0.029 A 
ATOM     55  C   UNL A   1      43.216  32.006  29.182  1.00  0.00     0.049 A 
ATOM     56  H   UNL A   1      42.689  30.026  28.671  1.00  0.00     0.167 HD
ATOM     57  C   UNL A   1      45.135  31.187  27.843  1.00  0.00     0.074 A 
ATOM     58  C   UNL A   1      46.434  31.344  27.216  1.00  0.00     0.031 C 
ATOM     59  C   UNL A   1      44.482  32.173  28.507  1.00  0.00     0.034 A 
BRANCH  46  60
ATOM     60  C   UNL A   1      38.988  30.447  30.789  1.00  0.00     0.023 A 
ATOM     61  C   UNL A   1      37.924  31.131  30.174  1.00  0.00     0.031 A 
ATOM     62  C   UNL A   1      38.856  30.105  32.147  1.00  0.00     0.131 A 
ATOM     63  C   UNL A   1      36.786  31.473  30.926  1.00  0.00     0.055 A 
ATOM     64  C   UNL A   1      37.702  30.402  32.875  1.00  0.00     0.041 A 
ATOM     65  F   UNL A   1      39.849  29.470  32.790  1.00  0.00    -0.206 F 
ATOM     66  C   UNL A   1      36.661  31.094  32.266  1.00  0.00     0.022 A 
BRANCH  63  67
ATOM     67  S   UNL A   1      35.494  32.491  30.158  1.00  0.00     0.124 S 
ATOM     68  O   UNL A   1      35.296  31.808  28.883  1.00  0.00    -0.237 OA
ATOM     69  O   UNL A   1      34.402  32.391  31.119  1.00  0.00    -0.237 OA
ATOM     70  O   UNL A   1      36.113  33.811  30.056  1.00  0.00    -0.744 OA
ENDBRANCH  63  67
ENDBRANCH  46  60
BRANCH  47  71
ATOM     71  C   UNL A   1      46.970  27.504  25.546  1.00  0.00     0.023 A 
ATOM     72  C   UNL A   1      47.057  27.858  24.193  1.00  0.00     0.031 A 
ATOM     73  C   UNL A   1      48.014  26.746  26.107  1.00  0.00     0.131 A 
ATOM     74  C   UNL A   1      48.165  27.439  23.439  1.00  0.00     0.055 A 
ATOM     75  C   UNL A   1      49.133  26.372  25.366  1.00  0.00     0.041 A 
ATOM     76  F   UNL A   1      47.974  26.388  27.401  1.00  0.00    -0.206 F 
ATOM     77  C   UNL A   1      49.210  26.715  24.020  1.00  0.00     0.022 A 
BRANCH  74  78
ATOM     78  S   UNL A   1      48.207  27.823  21.668  1.00  0.00     0.124 S 
ATOM     79  O   UNL A   1      49.283  28.805  21.600  1.00  0.00    -0.237 OA
ATOM     80  O   UNL A   1      48.489  26.517  21.081  1.00  0.00    -0.237 OA
ATOM     81  O   UNL A   1      46.867  28.345  21.402  1.00  0.00    -0.744 OA
ENDBRANCH  74  78
ENDBRANCH  47  71
BRANCH  59  82
ATOM     82  C   UNL A   1      45.183  33.506  28.582  1.00  0.00     0.023 A 
ATOM     83  C   UNL A   1      46.106  33.789  29.604  1.00  0.00     0.031 A 
ATOM     84  C   UNL A   1      44.874  34.528  27.668  1.00  0.00     0.131 A 
ATOM     85  C   UNL A   1      46.633  35.082  29.733  1.00  0.00     0.055 A 
ATOM     86  C   UNL A   1      45.448  35.796  27.764  1.00  0.00     0.041 A 
ATOM     87  F   UNL A   1      43.995  34.315  26.675  1.00  0.00    -0.206 F 
ATOM     88  C   UNL A   1      46.318  36.085  28.812  1.00  0.00     0.022 A 
BRANCH  85  89
ATOM     89  S   UNL A   1      47.634  35.473  31.195  1.00  0.00     0.124 S 
ATOM     90  O   UNL A   1      48.330  34.211  31.433  1.00  0.00    -0.237 OA
ATOM     91  O   UNL A   1      48.461  36.577  30.721  1.00  0.00    -0.237 OA
ATOM     92  O   UNL A   1      46.641  35.830  32.206  1.00  0.00    -0.744 OA
ENDBRANCH  85  89
ENDBRANCH  59  82
ENDBRANCH  33  34
ENDBRANCH  26  28
ENDBRANCH  25  26
ENDBRANCH  24  25
ENDBRANCH   1  24
TORSDOF 17
ENDMDL
MODEL 2
REMARK VINA RESULT:     -11.5      4.986     10.275
REMARK SMILES C[C@@]1(C(=O)OCCOC(=O)c2ccc(-c3c4nc(c(-c5cc(S(=O)(=O)[O-])ccc5F)c5ccc([nH]5)c(-c5cc(S(=O)(=O)[O-])ccc5F)c5nc(c(-c6cc(S(=O)(=O)[O-])ccc6F)c6ccc3[nH]6)C=C5)C=C4)cc2)COC[C@H]1NC(=O)C[C@@H]1C[NH2+]CCO1
REMARK SMILES IDX 6 1 5 2 3 3 4 4 2 5 1 6 74 7 77 8 75 9 76 10 78 11 79 12
REMARK SMILES IDX 80 14 81 15 82 16 83 17 87 18 84 19 86 20 85 21 7 24 8 25
REMARK SMILES IDX 9 26 10 27 11 28 12 29 73 30 13 31 72 32 14 33 15 34 16 35
REMARK SMILES IDX 66 36 17 37 71 38 65 39 67 40 18 41 70 42 64 43 63 44 19 46
REMARK SMILES IDX 51 47 31 48 50 49 32 50 35 51 49 52 68 53 33 54 34 55 48 57
REMARK SMILES IDX 69 58 36 59 20 60 21 61 29 62 22 63 28 64 30 65 27 66 23 67
REMARK SMILES IDX 24 68 25 69 26 70 52 71 53 72 61 73 54 74 60 75 62 76 59 77
REMARK SMILES IDX 55 78 56 79 57 80 58 81 37 82 38 83 46 84 39 85 45 86 47 87
REMARK SMILES IDX 44 88 40 89 41 90 42 91 43 92
REMARK H PARENT 78 13 84 22 84 23 67 45 35 56
REMARK Flexibility Score: inf
ROOT
ATOM      1  C   UNL A   1      31.399  29.279  25.236  1.00  0.00     0.274 C 
ENDROOT
BRANCH   1   2
ATOM      2  O   UNL A   1      31.715  27.899  24.957  1.00  0.00    -0.462 OA
BRANCH   2   3
ATOM      3  C   UNL A   1      31.247  26.996  25.861  1.00  0.00     0.316 C 
ATOM      4  O   UNL A   1      31.111  27.242  27.055  1.00  0.00    -0.251 OA
BRANCH   3   5
ATOM      5  C   UNL A   1      30.968  25.612  25.270  1.00  0.00     0.111 C 
ATOM      6  C   UNL A   1      30.214  25.795  23.942  1.00  0.00     0.028 C 
ATOM      7  C   UNL A   1      30.100  24.882  26.286  1.00  0.00     0.181 C 
ATOM      8  C   UNL A   1      32.202  24.707  25.168  1.00  0.00     0.127 C 
ATOM      9  O   UNL A   1      30.986  24.206  27.188  1.00  0.00    -0.378 OA
ATOM     10  C   UNL A   1      32.243  24.001  26.529  1.00  0.00     0.186 C 
BRANCH   8  11
ATOM     11  N   UNL A   1      32.102  23.725  24.083  1.00  0.00    -0.350 N 
ATOM     12  C   UNL A   1      33.019  23.309  23.173  1.00  0.00     0.223 C 
ATOM     13  H   UNL A   1      31.219  23.296  24.002  1.00  0.00     0.163 HD
ATOM     14  O   UNL A   1      32.675  22.417  22.396  1.00  0.00    -0.275 OA
BRANCH  12  15
ATOM     15  C   UNL A   1      34.419  23.875  23.144  1.00  0.00     0.138 C 
BRANCH  15  16
ATOM     16  C   UNL A   1      35.399  23.346  24.190  1.00  0.00     0.182 C 
ATOM     17  C   UNL A   1      36.804  23.034  23.637  1.00  0.00     0.293 C 
ATOM     18  O   UNL A   1      34.799  22.162  24.763  1.00  0.00    -0.366 OA
ATOM     19  N   UNL A   1      37.671  22.512  24.708  1.00  0.00    -0.342 N 
ATOM     20  C   UNL A   1      35.638  21.565  25.762  1.00  0.00     0.222 C 
ATOM     21  C   UNL A   1      37.052  21.287  25.242  1.00  0.00     0.289 C 
ATOM     22  H   UNL A   1      37.759  23.206  25.451  1.00  0.00     0.346 HD
ATOM     23  H   UNL A   1      38.600  22.307  24.342  1.00  0.00     0.346 HD
ENDBRANCH  15  16
ENDBRANCH  12  15
ENDBRANCH   8  11
ENDBRANCH   3   5
ENDBRANCH   2   3
ENDBRANCH   1   2
BRANCH   1  24
ATOM     24  C   UNL A   1      32.622  30.074  25.687  1.00  0.00     0.275 C 
BRANCH  24  25
ATOM     25  O   UNL A   1      32.477  30.528  27.045  1.00  0.00    -0.458 OA
BRANCH  25  26
ATOM     26  C   UNL A   1      33.272  31.569  27.376  1.00  0.00     0.338 C 
ATOM     27  O   UNL A   1      32.939  32.735  27.521  1.00  0.00    -0.246 OA
BRANCH  26  28
ATOM     28  C   UNL A   1      34.649  31.143  27.659  1.00  0.00     0.060 A 
ATOM     29  C   UNL A   1      34.853  29.825  28.058  1.00  0.00     0.016 A 
ATOM     30  C   UNL A   1      35.638  32.108  27.871  1.00  0.00     0.016 A 
ATOM     31  C   UNL A   1      35.994  29.498  28.788  1.00  0.00     0.010 A 
ATOM     32  C   UNL A   1      36.824  31.753  28.524  1.00  0.00     0.010 A 
ATOM     33  C   UNL A   1      36.992  30.458  29.041  1.00  0.00    -0.014 A 
BRANCH  33  34
ATOM     34  C   UNL A   1      38.200  30.082  29.829  1.00  0.00     0.031 A 
ATOM     35  C   UNL A   1      39.229  29.114  29.295  1.00  0.00     0.074 A 
ATOM     36  C   UNL A   1      38.391  30.655  31.032  1.00  0.00     0.049 A 
ATOM     37  N   UNL A   1      40.327  28.675  29.863  1.00  0.00    -0.248 NA
ATOM     38  C   UNL A   1      39.003  28.571  27.950  1.00  0.00     0.031 C 
ATOM     39  C   UNL A   1      37.490  31.629  31.652  1.00  0.00     0.029 A 
ATOM     40  N   UNL A   1      39.401  30.507  31.947  1.00  0.00    -0.354 N 
ATOM     41  C   UNL A   1      40.925  27.818  28.941  1.00  0.00     0.074 A 
ATOM     42  C   UNL A   1      40.051  27.774  27.788  1.00  0.00     0.031 C 
ATOM     43  C   UNL A   1      38.000  32.008  32.832  1.00  0.00     0.029 A 
ATOM     44  C   UNL A   1      39.217  31.248  33.089  1.00  0.00     0.049 A 
ATOM     45  H   UNL A   1      40.184  29.928  31.799  1.00  0.00     0.167 HD
ATOM     46  C   UNL A   1      42.091  27.132  29.046  1.00  0.00     0.034 A 
ATOM     47  C   UNL A   1      39.915  31.284  34.239  1.00  0.00     0.034 A 
ATOM     48  C   UNL A   1      42.945  27.160  30.212  1.00  0.00     0.049 A 
ATOM     49  C   UNL A   1      41.138  30.425  34.379  1.00  0.00     0.074 A 
ATOM     50  C   UNL A   1      44.158  26.521  30.408  1.00  0.00     0.029 A 
ATOM     51  N   UNL A   1      42.666  27.844  31.387  1.00  0.00    -0.354 N 
ATOM     52  N   UNL A   1      41.680  29.613  33.503  1.00  0.00    -0.248 NA
ATOM     53  C   UNL A   1      41.837  30.485  35.667  1.00  0.00     0.031 C 
ATOM     54  C   UNL A   1      44.572  26.754  31.726  1.00  0.00     0.029 A 
ATOM     55  C   UNL A   1      43.657  27.601  32.330  1.00  0.00     0.049 A 
ATOM     56  H   UNL A   1      41.881  28.419  31.532  1.00  0.00     0.167 HD
ATOM     57  C   UNL A   1      42.791  29.065  34.134  1.00  0.00     0.074 A 
ATOM     58  C   UNL A   1      42.852  29.661  35.455  1.00  0.00     0.031 C 
ATOM     59  C   UNL A   1      43.680  28.154  33.664  1.00  0.00     0.034 A 
BRANCH  46  60
ATOM     60  C   UNL A   1      42.491  26.237  27.895  1.00  0.00     0.023 A 
ATOM     61  C   UNL A   1      41.975  24.938  27.741  1.00  0.00     0.031 A 
ATOM     62  C   UNL A   1      43.384  26.713  26.918  1.00  0.00     0.131 A 
ATOM     63  C   UNL A   1      42.377  24.151  26.646  1.00  0.00     0.055 A 
ATOM     64  C   UNL A   1      43.739  25.947  25.806  1.00  0.00     0.041 A 
ATOM     65  F   UNL A   1      43.923  27.938  27.025  1.00  0.00    -0.206 F 
ATOM     66  C   UNL A   1      43.240  24.656  25.668  1.00  0.00     0.022 A 
BRANCH  63  67
ATOM     67  S   UNL A   1      41.824  22.425  26.549  1.00  0.00     0.124 S 
ATOM     68  O   UNL A   1      42.366  21.869  27.786  1.00  0.00    -0.237 OA
ATOM     69  O   UNL A   1      40.373  22.562  26.486  1.00  0.00    -0.237 OA
ATOM     70  O   UNL A   1      42.455  21.931  25.327  1.00  0.00    -0.744 OA
ENDBRANCH  63  67
ENDBRANCH  46  60
BRANCH  47  71
ATOM     71  C   UNL A   1      39.414  32.108  35.372  1.00  0.00     0.023 A 
ATOM     72  C   UNL A   1      38.665  31.541  36.412  1.00  0.00     0.031 A 
ATOM     73  C   UNL A   1      39.700  33.485  35.429  1.00  0.00     0.131 A 
ATOM     74  C   UNL A   1      38.214  32.355  37.463  1.00  0.00     0.055 A 
ATOM     75  C   UNL A   1      39.289  34.279  36.498  1.00  0.00     0.041 A 
ATOM     76  F   UNL A   1      40.418  34.070  34.456  1.00  0.00    -0.206 F 
ATOM     77  C   UNL A   1      38.536  33.714  37.522  1.00  0.00     0.022 A 
BRANCH  74  78
ATOM     78  S   UNL A   1      37.163  31.618  38.743  1.00  0.00     0.124 S 
ATOM     79  O   UNL A   1      37.000  30.256  38.249  1.00  0.00    -0.237 OA
ATOM     80  O   UNL A   1      37.986  31.775  39.939  1.00  0.00    -0.237 OA
ATOM     81  O   UNL A   1      35.957  32.443  38.709  1.00  0.00    -0.744 OA
ENDBRANCH  74  78
ENDBRANCH  47  71
BRANCH  59  82
ATOM     82  C   UNL A   1      44.793  27.759  34.602  1.00  0.00     0.023 A 
ATOM     83  C   UNL A   1      44.644  26.687  35.500  1.00  0.00     0.031 A 
ATOM     84  C   UNL A   1      45.984  28.503  34.650  1.00  0.00     0.131 A 
ATOM     85  C   UNL A   1      45.637  26.434  36.458  1.00  0.00     0.055 A 
ATOM     86  C   UNL A   1      46.996  28.208  35.565  1.00  0.00     0.041 A 
ATOM     87  F   UNL A   1      46.177  29.540  33.819  1.00  0.00    -0.206 F 
ATOM     88  C   UNL A   1      46.818  27.181  36.488  1.00  0.00     0.022 A 
BRANCH  85  89
ATOM     89  S   UNL A   1      45.309  25.200  37.746  1.00  0.00     0.124 S 
ATOM     90  O   UNL A   1      46.575  25.176  38.474  1.00  0.00    -0.237 OA
ATOM     91  O   UNL A   1      44.176  25.784  38.456  1.00  0.00    -0.237 OA
ATOM     92  O   UNL A   1      45.009  23.986  36.990  1.00  0.00    -0.744 OA
ENDBRANCH  85  89
ENDBRANCH  59  82
ENDBRANCH  33  34
ENDBRANCH  26  28
ENDBRANCH  25  26
ENDBRANCH  24  25
ENDBRANCH   1  24
TORSDOF 17
ENDMDL
MODEL 3
REMARK VINA RESULT:     -11.1      1.559      7.815
REMARK SMILES C[C@@]1(C(=O)OCCOC(=O)c2ccc(-c3c4nc(c(-c5cc(S(=O)(=O)[O-])ccc5F)c5ccc([nH]5)c(-c5cc(S(=O)(=O)[O-])ccc5F)c5nc(c(-c6cc(S(=O)(=O)[O-])ccc6F)c6ccc3[nH]6)C=C5)C=C4)cc2)COC[C@H]1NC(=O)C[C@@H]1C[NH2+]CCO1
REMARK SMILES IDX 6 1 5 2 3 3 4 4 2 5 1 6 74 7 77 8 75 9 76 10 78 11 79 12
REMARK SMILES IDX 80 14 81 15 82 16 83 17 87 18 84 19 86 20 85 21 7 24 8 25
REMARK SMILES IDX 9 26 10 27 11 28 12 29 73 30 13 31 72 32 14 33 15 34 16 35
REMARK SMILES IDX 66 36 17 37 71 38 65 39 67 40 18 41 70 42 64 43 63 44 19 46
REMARK SMILES IDX 51 47 31 48 50 49 32 50 35 51 49 52 68 53 33 54 34 55 48 57
REMARK SMILES IDX 69 58 36 59 20 60 21 61 29 62 22 63 28 64 30 65 27 66 23 67
REMARK SMILES IDX 24 68 25 69 26 70 52 71 53 72 61 73 54 74 60 75 62 76 59 77
REMARK SMILES IDX 55 78 56 79 57 80 58 81 37 82 38 83 46 84 39 85 45 86 47 87
REMARK SMILES IDX 44 88 40 89 41 90 42 91 43 92
REMARK H PARENT 78 13 84 22 84 23 67 45 35 56
REMARK Flexibility Score: inf
ROOT
ATOM      1  C   UNL A   1      35.796  20.382  24.983  1.00  0.00     0.274 C 
ENDROOT
BRANCH   1   2
ATOM      2  O   UNL A   1      35.476  21.499  25.840  1.00  0.00    -0.462 OA
BRANCH   2   3
ATOM      3  C   UNL A   1      34.855  22.546  25.232  1.00  0.00     0.316 C 
ATOM      4  O   UNL A   1      35.377  23.227  24.355  1.00  0.00    -0.251 OA
BRANCH   3   5
ATOM      5  C   UNL A   1      33.462  22.851  25.789  1.00  0.00     0.111 C 
ATOM      6  C   UNL A   1      33.580  23.043  27.310  1.00  0.00     0.028 C 
ATOM      7  C   UNL A   1      32.599  21.639  25.463  1.00  0.00     0.181 C 
ATOM      8  C   UNL A   1      32.729  23.990  25.070  1.00  0.00     0.127 C 
ATOM      9  O   UNL A   1      32.022  21.868  24.172  1.00  0.00    -0.378 OA
ATOM     10  C   UNL A   1      32.000  23.280  23.923  1.00  0.00     0.186 C 
BRANCH   8  11
ATOM     11  N   UNL A   1      31.771  24.687  25.935  1.00  0.00    -0.350 N 
ATOM     12  C   UNL A   1      31.560  26.013  26.141  1.00  0.00     0.223 C 
ATOM     13  H   UNL A   1      31.182  24.093  26.453  1.00  0.00     0.163 HD
ATOM     14  O   UNL A   1      30.637  26.324  26.895  1.00  0.00    -0.275 OA
BRANCH  12  15
ATOM     15  C   UNL A   1      32.386  27.064  25.439  1.00  0.00     0.138 C 
BRANCH  15  16
ATOM     16  C   UNL A   1      31.901  27.517  24.063  1.00  0.00     0.182 C 
ATOM     17  C   UNL A   1      32.513  28.850  23.587  1.00  0.00     0.293 C 
ATOM     18  O   UNL A   1      30.460  27.612  24.139  1.00  0.00    -0.366 OA
ATOM     19  N   UNL A   1      31.973  29.218  22.265  1.00  0.00    -0.342 N 
ATOM     20  C   UNL A   1      29.885  28.042  22.897  1.00  0.00     0.222 C 
ATOM     21  C   UNL A   1      30.511  29.345  22.387  1.00  0.00     0.289 C 
ATOM     22  H   UNL A   1      32.201  28.492  21.586  1.00  0.00     0.346 HD
ATOM     23  H   UNL A   1      32.378  30.099  21.951  1.00  0.00     0.346 HD
ENDBRANCH  15  16
ENDBRANCH  12  15
ENDBRANCH   8  11
ENDBRANCH   3   5
ENDBRANCH   2   3
ENDBRANCH   1   2
BRANCH   1  24
ATOM     24  C   UNL A   1      37.292  20.080  24.957  1.00  0.00     0.275 C 
BRANCH  24  25
ATOM     25  O   UNL A   1      38.069  21.277  25.142  1.00  0.00    -0.458 OA
BRANCH  25  26
ATOM     26  C   UNL A   1      39.144  21.129  25.947  1.00  0.00     0.338 C 
ATOM     27  O   UNL A   1      39.842  20.134  26.071  1.00  0.00    -0.246 OA
BRANCH  26  28
ATOM     28  C   UNL A   1      39.489  22.376  26.643  1.00  0.00     0.060 A 
ATOM     29  C   UNL A   1      38.948  23.563  26.157  1.00  0.00     0.016 A 
ATOM     30  C   UNL A   1      40.586  22.400  27.508  1.00  0.00     0.016 A 
ATOM     31  C   UNL A   1      39.586  24.771  26.431  1.00  0.00     0.010 A 
ATOM     32  C   UNL A   1      41.168  23.625  27.856  1.00  0.00     0.010 A 
ATOM     33  C   UNL A   1      40.711  24.819  27.276  1.00  0.00    -0.014 A 
BRANCH  33  34
ATOM     34  C   UNL A   1      41.377  26.125  27.549  1.00  0.00     0.031 A 
ATOM     35  C   UNL A   1      42.760  26.438  27.028  1.00  0.00     0.074 A 
ATOM     36  C   UNL A   1      40.707  27.060  28.249  1.00  0.00     0.049 A 
ATOM     37  N   UNL A   1      43.481  27.521  27.189  1.00  0.00    -0.248 NA
ATOM     38  C   UNL A   1      43.417  25.407  26.216  1.00  0.00     0.031 C 
ATOM     39  C   UNL A   1      39.353  26.898  28.785  1.00  0.00     0.029 A 
ATOM     40  N   UNL A   1      41.065  28.328  28.627  1.00  0.00    -0.354 N 
ATOM     41  C   UNL A   1      44.667  27.305  26.491  1.00  0.00     0.074 A 
ATOM     42  C   UNL A   1      44.582  25.974  25.929  1.00  0.00     0.031 C 
ATOM     43  C   UNL A   1      38.987  28.031  29.400  1.00  0.00     0.029 A 
ATOM     44  C   UNL A   1      40.105  28.967  29.374  1.00  0.00     0.049 A 
ATOM     45  H   UNL A   1      41.925  28.741  28.385  1.00  0.00     0.167 HD
ATOM     46  C   UNL A   1      45.728  28.137  26.333  1.00  0.00     0.034 A 
ATOM     47  C   UNL A   1      40.128  30.152  30.012  1.00  0.00     0.034 A 
ATOM     48  C   UNL A   1      45.817  29.455  26.920  1.00  0.00     0.049 A 
ATOM     49  C   UNL A   1      41.360  31.005  29.923  1.00  0.00     0.074 A 
ATOM     50  C   UNL A   1      46.837  30.385  26.800  1.00  0.00     0.029 A 
ATOM     51  N   UNL A   1      44.865  30.021  27.756  1.00  0.00    -0.354 N 
ATOM     52  N   UNL A   1      42.474  30.780  29.268  1.00  0.00    -0.248 NA
ATOM     53  C   UNL A   1      41.335  32.270  30.664  1.00  0.00     0.031 C 
ATOM     54  C   UNL A   1      46.537  31.478  27.625  1.00  0.00     0.029 A 
ATOM     55  C   UNL A   1      45.295  31.265  28.201  1.00  0.00     0.049 A 
ATOM     56  H   UNL A   1      44.007  29.603  27.998  1.00  0.00     0.167 HD
ATOM     57  C   UNL A   1      43.286  31.880  29.518  1.00  0.00     0.074 A 
ATOM     58  C   UNL A   1      42.520  32.778  30.361  1.00  0.00     0.031 C 
ATOM     59  C   UNL A   1      44.549  32.127  29.087  1.00  0.00     0.034 A 
BRANCH  46  60
ATOM     60  C   UNL A   1      46.914  27.630  25.544  1.00  0.00     0.023 A 
ATOM     61  C   UNL A   1      47.091  27.930  24.182  1.00  0.00     0.031 A 
ATOM     62  C   UNL A   1      47.900  26.858  26.184  1.00  0.00     0.131 A 
ATOM     63  C   UNL A   1      48.218  27.438  23.498  1.00  0.00     0.055 A 
ATOM     64  C   UNL A   1      49.042  26.415  25.513  1.00  0.00     0.041 A 
ATOM     65  F   UNL A   1      47.772  26.524  27.478  1.00  0.00    -0.206 F 
ATOM     66  C   UNL A   1      49.203  26.700  24.161  1.00  0.00     0.022 A 
BRANCH  63  67
ATOM     67  S   UNL A   1      48.350  27.703  21.707  1.00  0.00     0.124 S 
ATOM     68  O   UNL A   1      48.673  26.361  21.231  1.00  0.00    -0.237 OA
ATOM     69  O   UNL A   1      47.023  28.206  21.365  1.00  0.00    -0.237 OA
ATOM     70  O   UNL A   1      49.433  28.676  21.583  1.00  0.00    -0.744 OA
ENDBRANCH  63  67
ENDBRANCH  46  60
BRANCH  47  71
ATOM     71  C   UNL A   1      38.969  30.550  30.855  1.00  0.00     0.023 A 
ATOM     72  C   UNL A   1      37.986  31.427  30.378  1.00  0.00     0.031 A 
ATOM     73  C   UNL A   1      38.829  30.034  32.158  1.00  0.00     0.131 A 
ATOM     74  C   UNL A   1      36.907  31.774  31.206  1.00  0.00     0.055 A 
ATOM     75  C   UNL A   1      37.732  30.347  32.958  1.00  0.00     0.041 A 
ATOM     76  F   UNL A   1      39.745  29.188  32.655  1.00  0.00    -0.206 F 
ATOM     77  C   UNL A   1      36.765  31.227  32.484  1.00  0.00     0.022 A 
BRANCH  74  78
ATOM     78  S   UNL A   1      35.703  32.987  30.602  1.00  0.00     0.124 S 
ATOM     79  O   UNL A   1      35.829  34.052  31.591  1.00  0.00    -0.237 OA
ATOM     80  O   UNL A   1      36.215  33.285  29.268  1.00  0.00    -0.237 OA
ATOM     81  O   UNL A   1      34.438  32.255  30.630  1.00  0.00    -0.744 OA
ENDBRANCH  74  78
ENDBRANCH  47  71
BRANCH  59  82
ATOM     82  C   UNL A   1      45.165  33.430  29.532  1.00  0.00     0.023 A 
ATOM     83  C   UNL A   1      45.016  34.604  28.772  1.00  0.00     0.031 A 
ATOM     84  C   UNL A   1      45.965  33.485  30.685  1.00  0.00     0.131 A 
ATOM     85  C   UNL A   1      45.716  35.764  29.133  1.00  0.00     0.055 A 
ATOM     86  C   UNL A   1      46.612  34.659  31.074  1.00  0.00     0.041 A 
ATOM     87  F   UNL A   1      46.146  32.393  31.445  1.00  0.00    -0.206 F 
ATOM     88  C   UNL A   1      46.505  35.802  30.286  1.00  0.00     0.022 A 
BRANCH  85  89
ATOM     89  S   UNL A   1      45.687  37.184  28.005  1.00  0.00     0.124 S 
ATOM     90  O   UNL A   1      44.390  37.029  27.353  1.00  0.00    -0.237 OA
ATOM     91  O   UNL A   1      45.809  38.313  28.922  1.00  0.00    -0.237 OA
ATOM     92  O   UNL A   1      46.843  36.960  27.140  1.00  0.00    -0.744 OA
ENDBRANCH  85  89
ENDBRANCH  59  82
ENDBRANCH  33  34
ENDBRANCH  26  28
ENDBRANCH  25  26
ENDBRANCH  24  25
ENDBRANCH   1  24
TORSDOF 17
ENDMDL
