MODEL 1
REMARK VINA RESULT:     -10.4      0.000      0.000
REMARK SMILES CCC(CC)N(CC(C)C)C(=O)N1CC[C@@H](C(=O)OCCOC(=O)c2ccc(-c3c4nc(c(-c5cc(S(=O)(=O)[O-])ccc5F)c5ccc([nH]5)c(-c5cc(S(=O)(=O)[O-])ccc5F)c5nc(c(-c6cc(S(=O)(=O)[O-])ccc6F)c6ccc3[nH]6)C=C5)C=C4)cc2)[C@@H]1C
REMARK SMILES IDX 20 1 19 2 17 3 18 4 16 5 13 6 14 7 88 8 15 9 89 10 11 11
REMARK SMILES IDX 12 12 6 13 3 14 2 15 1 16 4 17 5 18 7 19 8 20 9 21 10 22
REMARK SMILES IDX 21 23 22 24 23 25 24 26 25 27 26 28 87 29 27 30 86 31 28 32
REMARK SMILES IDX 29 33 30 34 80 35 31 36 85 37 79 38 81 39 32 40 84 41 78 42
REMARK SMILES IDX 77 43 33 45 65 46 45 47 64 48 46 49 49 50 63 51 82 52 47 53
REMARK SMILES IDX 48 54 62 56 83 57 50 58 34 59 35 60 43 61 36 62 42 63 44 64
REMARK SMILES IDX 41 65 37 66 38 67 39 68 40 69 66 70 67 71 75 72 68 73 74 74
REMARK SMILES IDX 76 75 73 76 69 77 70 78 71 79 72 80 51 81 52 82 60 83 53 84
REMARK SMILES IDX 59 85 61 86 58 87 54 88 55 89 56 90 57 91
REMARK H PARENT 81 44 49 55
REMARK Flexibility Score: inf
ROOT
ATOM      1  C   UNL A   1      32.055  29.789  25.070  1.00  0.00     0.274 C 
ENDROOT
BRANCH   1   2
ATOM      2  O   UNL A   1      30.882  28.997  24.793  1.00  0.00    -0.462 OA
BRANCH   2   3
ATOM      3  C   UNL A   1      31.013  27.657  24.972  1.00  0.00     0.311 C 
ATOM      4  O   UNL A   1      31.035  27.107  26.068  1.00  0.00    -0.252 OA
BRANCH   3   5
ATOM      5  C   UNL A   1      31.230  26.882  23.687  1.00  0.00     0.123 C 
ATOM      6  N   UNL A   1      32.437  24.853  23.368  1.00  0.00    -0.321 N 
ATOM      7  C   UNL A   1      31.073  24.605  22.948  1.00  0.00     0.122 C 
ATOM      8  C   UNL A   1      32.647  26.304  23.468  1.00  0.00     0.098 C 
ATOM      9  C   UNL A   1      30.278  25.682  23.650  1.00  0.00     0.039 C 
ATOM     10  C   UNL A   1      33.259  26.831  22.161  1.00  0.00     0.032 C 
BRANCH   6  11
ATOM     11  C   UNL A   1      33.366  23.857  23.175  1.00  0.00     0.320 C 
ATOM     12  O   UNL A   1      33.465  23.370  22.045  1.00  0.00    -0.248 OA
BRANCH  11  13
ATOM     13  N   UNL A   1      34.103  23.370  24.248  1.00  0.00    -0.321 N 
BRANCH  13  14
ATOM     14  C   UNL A   1      33.527  22.272  25.082  1.00  0.00     0.086 C 
BRANCH  14  15
ATOM     15  C   UNL A   1      32.583  22.780  26.199  1.00  0.00     0.022 C 
ATOM     16  C   UNL A   1      31.105  22.591  25.887  1.00  0.00     0.006 C 
ENDBRANCH  14  15
BRANCH  14  17
ATOM     17  C   UNL A   1      32.990  21.077  24.264  1.00  0.00     0.022 C 
ATOM     18  C   UNL A   1      32.952  19.729  24.960  1.00  0.00     0.006 C 
ENDBRANCH  14  17
ENDBRANCH  13  14
BRANCH  13  19
ATOM     19  C   UNL A   1      35.242  24.076  24.852  1.00  0.00     0.124 C 
BRANCH  19  20
ATOM     20  C   UNL A   1      36.626  23.417  24.642  1.00  0.00     0.002 C 
ATOM     21  C   UNL A   1      37.041  22.431  25.731  1.00  0.00     0.009 C 
ATOM     22  C   UNL A   1      36.655  22.721  23.278  1.00  0.00     0.009 C 
ENDBRANCH  19  20
ENDBRANCH  13  19
ENDBRANCH  11  13
ENDBRANCH   6  11
ENDBRANCH   3   5
ENDBRANCH   2   3
ENDBRANCH   1   2
BRANCH   1  23
ATOM     23  C   UNL A   1      31.837  30.800  26.201  1.00  0.00     0.275 C 
BRANCH  23  24
ATOM     24  O   UNL A   1      32.739  30.594  27.301  1.00  0.00    -0.458 OA
BRANCH  24  25
ATOM     25  C   UNL A   1      33.523  31.663  27.577  1.00  0.00     0.338 C 
ATOM     26  O   UNL A   1      33.178  32.831  27.605  1.00  0.00    -0.246 OA
BRANCH  25  27
ATOM     27  C   UNL A   1      34.861  31.234  27.999  1.00  0.00     0.060 A 
ATOM     28  C   UNL A   1      35.018  29.891  28.346  1.00  0.00     0.016 A 
ATOM     29  C   UNL A   1      35.899  32.143  28.187  1.00  0.00     0.016 A 
ATOM     30  C   UNL A   1      36.200  29.452  28.927  1.00  0.00     0.010 A 
ATOM     31  C   UNL A   1      37.102  31.696  28.747  1.00  0.00     0.010 A 
ATOM     32  C   UNL A   1      37.248  30.354  29.142  1.00  0.00    -0.014 A 
BRANCH  32  33
ATOM     33  C   UNL A   1      38.470  29.879  29.834  1.00  0.00     0.031 A 
ATOM     34  C   UNL A   1      38.781  30.366  31.219  1.00  0.00     0.074 A 
ATOM     35  C   UNL A   1      39.264  28.977  29.231  1.00  0.00     0.049 A 
ATOM     36  N   UNL A   1      39.815  30.108  31.976  1.00  0.00    -0.248 NA
ATOM     37  C   UNL A   1      37.796  31.270  31.830  1.00  0.00     0.031 C 
ATOM     38  C   UNL A   1      39.030  28.405  27.903  1.00  0.00     0.029 A 
ATOM     39  N   UNL A   1      40.421  28.378  29.654  1.00  0.00    -0.354 N 
ATOM     40  C   UNL A   1      39.621  30.833  33.146  1.00  0.00     0.074 A 
ATOM     41  C   UNL A   1      38.378  31.561  32.983  1.00  0.00     0.031 C 
ATOM     42  C   UNL A   1      40.014  27.535  27.623  1.00  0.00     0.029 A 
ATOM     43  C   UNL A   1      40.968  27.524  28.728  1.00  0.00     0.049 A 
ATOM     44  H   UNL A   1      40.822  28.545  30.538  1.00  0.00     0.167 HD
ATOM     45  C   UNL A   1      40.406  30.884  34.251  1.00  0.00     0.034 A 
ATOM     46  C   UNL A   1      42.122  26.830  28.756  1.00  0.00     0.034 A 
ATOM     47  C   UNL A   1      41.641  30.146  34.391  1.00  0.00     0.049 A 
ATOM     48  C   UNL A   1      42.999  26.930  29.975  1.00  0.00     0.074 A 
ATOM     49  C   UNL A   1      42.516  30.117  35.462  1.00  0.00     0.029 A 
ATOM     50  N   UNL A   1      42.177  29.306  33.421  1.00  0.00    -0.354 N 
ATOM     51  N   UNL A   1      42.816  27.637  31.067  1.00  0.00    -0.248 NA
ATOM     52  C   UNL A   1      44.230  26.134  29.969  1.00  0.00     0.031 C 
ATOM     53  C   UNL A   1      43.607  29.309  35.119  1.00  0.00     0.029 A 
ATOM     54  C   UNL A   1      43.383  28.777  33.859  1.00  0.00     0.049 A 
ATOM     55  H   UNL A   1      41.763  29.115  32.548  1.00  0.00     0.167 HD
ATOM     56  C   UNL A   1      43.906  27.360  31.884  1.00  0.00     0.074 A 
ATOM     57  C   UNL A   1      44.729  26.406  31.166  1.00  0.00     0.031 C 
ATOM     58  C   UNL A   1      44.201  27.846  33.118  1.00  0.00     0.034 A 
BRANCH  45  59
ATOM     59  C   UNL A   1      39.978  31.822  35.355  1.00  0.00     0.023 A 
ATOM     60  C   UNL A   1      39.153  31.400  36.413  1.00  0.00     0.031 A 
ATOM     61  C   UNL A   1      40.353  33.177  35.315  1.00  0.00     0.131 A 
ATOM     62  C   UNL A   1      38.664  32.338  37.336  1.00  0.00     0.055 A 
ATOM     63  C   UNL A   1      39.927  34.090  36.282  1.00  0.00     0.041 A 
ATOM     64  F   UNL A   1      41.120  33.644  34.317  1.00  0.00    -0.206 F 
ATOM     65  C   UNL A   1      39.062  33.675  37.291  1.00  0.00     0.022 A 
BRANCH  62  66
ATOM     66  S   UNL A   1      37.371  31.818  38.498  1.00  0.00     0.124 S 
ATOM     67  O   UNL A   1      37.118  30.445  38.065  1.00  0.00    -0.237 OA
ATOM     68  O   UNL A   1      38.027  31.971  39.790  1.00  0.00    -0.237 OA
ATOM     69  O   UNL A   1      36.279  32.753  38.237  1.00  0.00    -0.744 OA
ENDBRANCH  62  66
ENDBRANCH  45  59
BRANCH  46  70
ATOM     70  C   UNL A   1      42.534  26.025  27.574  1.00  0.00     0.023 A 
ATOM     71  C   UNL A   1      42.147  24.684  27.434  1.00  0.00     0.031 A 
ATOM     72  C   UNL A   1      43.335  26.592  26.567  1.00  0.00     0.131 A 
ATOM     73  C   UNL A   1      42.585  23.945  26.324  1.00  0.00     0.055 A 
ATOM     74  C   UNL A   1      43.733  25.866  25.445  1.00  0.00     0.041 A 
ATOM     75  F   UNL A   1      43.724  27.875  26.653  1.00  0.00    -0.206 F 
ATOM     76  C   UNL A   1      43.365  24.531  25.324  1.00  0.00     0.022 A 
BRANCH  73  77
ATOM     77  S   UNL A   1      42.161  22.184  26.228  1.00  0.00     0.124 S 
ATOM     78  O   UNL A   1      42.835  21.781  25.000  1.00  0.00    -0.237 OA
ATOM     79  O   UNL A   1      42.725  21.668  27.470  1.00  0.00    -0.237 OA
ATOM     80  O   UNL A   1      40.700  22.190  26.167  1.00  0.00    -0.744 OA
ENDBRANCH  73  77
ENDBRANCH  46  70
BRANCH  58  81
ATOM     81  C   UNL A   1      45.455  27.319  33.768  1.00  0.00     0.023 A 
ATOM     82  C   UNL A   1      45.441  26.165  34.571  1.00  0.00     0.031 A 
ATOM     83  C   UNL A   1      46.674  27.999  33.605  1.00  0.00     0.131 A 
ATOM     84  C   UNL A   1      46.612  25.756  35.227  1.00  0.00     0.055 A 
ATOM     85  C   UNL A   1      47.848  27.559  34.218  1.00  0.00     0.041 A 
ATOM     86  F   UNL A   1      46.742  29.108  32.850  1.00  0.00    -0.206 F 
ATOM     87  C   UNL A   1      47.818  26.439  35.045  1.00  0.00     0.022 A 
BRANCH  84  88
ATOM     88  S   UNL A   1      46.518  24.375  36.398  1.00  0.00     0.124 S 
ATOM     89  O   UNL A   1      46.491  23.220  35.506  1.00  0.00    -0.237 OA
ATOM     90  O   UNL A   1      47.738  24.548  37.182  1.00  0.00    -0.237 OA
ATOM     91  O   UNL A   1      45.275  24.625  37.126  1.00  0.00    -0.744 OA
ENDBRANCH  84  88
ENDBRANCH  58  81
ENDBRANCH  32  33
ENDBRANCH  25  27
ENDBRANCH  24  25
ENDBRANCH  23  24
ENDBRANCH   1  23
TORSDOF 21
ENDMDL
MODEL 2
REMARK VINA RESULT:     -10.3      0.931      7.683
REMARK SMILES CCC(CC)N(CC(C)C)C(=O)N1CC[C@@H](C(=O)OCCOC(=O)c2ccc(-c3c4nc(c(-c5cc(S(=O)(=O)[O-])ccc5F)c5ccc([nH]5)c(-c5cc(S(=O)(=O)[O-])ccc5F)c5nc(c(-c6cc(S(=O)(=O)[O-])ccc6F)c6ccc3[nH]6)C=C5)C=C4)cc2)[C@@H]1C
REMARK SMILES IDX 20 1 19 2 17 3 18 4 16 5 13 6 14 7 88 8 15 9 89 10 11 11
REMARK SMILES IDX 12 12 6 13 3 14 2 15 1 16 4 17 5 18 7 19 8 20 9 21 10 22
REMARK SMILES IDX 21 23 22 24 23 25 24 26 25 27 26 28 87 29 27 30 86 31 28 32
REMARK SMILES IDX 29 33 30 34 80 35 31 36 85 37 79 38 81 39 32 40 84 41 78 42
REMARK SMILES IDX 77 43 33 45 65 46 45 47 64 48 46 49 49 50 63 51 82 52 47 53
REMARK SMILES IDX 48 54 62 56 83 57 50 58 34 59 35 60 43 61 36 62 42 63 44 64
REMARK SMILES IDX 41 65 37 66 38 67 39 68 40 69 66 70 67 71 75 72 68 73 74 74
REMARK SMILES IDX 76 75 73 76 69 77 70 78 71 79 72 80 51 81 52 82 60 83 53 84
REMARK SMILES IDX 59 85 61 86 58 87 54 88 55 89 56 90 57 91
REMARK H PARENT 81 44 49 55
REMARK Flexibility Score: inf
ROOT
ATOM      1  C   UNL A   1      32.002  29.147  24.905  1.00  0.00     0.274 C 
ENDROOT
BRANCH   1   2
ATOM      2  O   UNL A   1      31.249  28.100  25.550  1.00  0.00    -0.462 OA
BRANCH   2   3
ATOM      3  C   UNL A   1      31.793  26.856  25.497  1.00  0.00     0.311 C 
ATOM      4  O   UNL A   1      32.419  26.338  26.416  1.00  0.00    -0.252 OA
BRANCH   3   5
ATOM      5  C   UNL A   1      31.647  26.176  24.150  1.00  0.00     0.123 C 
ATOM      6  N   UNL A   1      32.181  23.931  23.559  1.00  0.00    -0.321 N 
ATOM      7  C   UNL A   1      30.768  24.113  23.298  1.00  0.00     0.122 C 
ATOM      8  C   UNL A   1      32.808  25.250  23.721  1.00  0.00     0.098 C 
ATOM      9  C   UNL A   1      30.392  25.297  24.157  1.00  0.00     0.039 C 
ATOM     10  C   UNL A   1      33.410  25.707  22.384  1.00  0.00     0.032 C 
BRANCH   6  11
ATOM     11  C   UNL A   1      32.760  22.739  23.192  1.00  0.00     0.320 C 
ATOM     12  O   UNL A   1      32.891  22.508  21.986  1.00  0.00    -0.248 OA
BRANCH  11  13
ATOM     13  N   UNL A   1      33.105  21.801  24.157  1.00  0.00    -0.321 N 
BRANCH  13  14
ATOM     14  C   UNL A   1      34.514  21.756  24.653  1.00  0.00     0.086 C 
BRANCH  14  15
ATOM     15  C   UNL A   1      35.470  22.689  23.870  1.00  0.00     0.022 C 
ATOM     16  C   UNL A   1      36.930  22.262  23.931  1.00  0.00     0.006 C 
ENDBRANCH  14  15
BRANCH  14  17
ATOM     17  C   UNL A   1      34.642  21.829  26.190  1.00  0.00     0.022 C 
ATOM     18  C   UNL A   1      34.150  23.098  26.861  1.00  0.00     0.006 C 
ENDBRANCH  14  17
ENDBRANCH  13  14
BRANCH  13  19
ATOM     19  C   UNL A   1      32.296  20.616  24.479  1.00  0.00     0.124 C 
BRANCH  19  20
ATOM     20  C   UNL A   1      32.982  19.251  24.233  1.00  0.00     0.002 C 
ATOM     21  C   UNL A   1      32.903  18.271  25.403  1.00  0.00     0.009 C 
ATOM     22  C   UNL A   1      32.390  18.603  22.978  1.00  0.00     0.009 C 
ENDBRANCH  19  20
ENDBRANCH  13  19
ENDBRANCH  11  13
ENDBRANCH   6  11
ENDBRANCH   3   5
ENDBRANCH   2   3
ENDBRANCH   1   2
BRANCH   1  23
ATOM     23  C   UNL A   1      33.086  29.744  25.809  1.00  0.00     0.275 C 
BRANCH  23  24
ATOM     24  O   UNL A   1      32.533  30.472  26.919  1.00  0.00    -0.458 OA
BRANCH  24  25
ATOM     25  C   UNL A   1      33.229  31.585  27.249  1.00  0.00     0.338 C 
ATOM     26  O   UNL A   1      32.817  32.730  27.242  1.00  0.00    -0.246 OA
BRANCH  25  27
ATOM     27  C   UNL A   1      34.552  31.234  27.779  1.00  0.00     0.060 A 
ATOM     28  C   UNL A   1      34.744  29.913  28.188  1.00  0.00     0.016 A 
ATOM     29  C   UNL A   1      35.533  32.197  28.001  1.00  0.00     0.016 A 
ATOM     30  C   UNL A   1      35.900  29.551  28.865  1.00  0.00     0.010 A 
ATOM     31  C   UNL A   1      36.712  31.827  28.659  1.00  0.00     0.010 A 
ATOM     32  C   UNL A   1      36.889  30.508  29.116  1.00  0.00    -0.014 A 
BRANCH  32  33
ATOM     33  C   UNL A   1      38.079  30.116  29.908  1.00  0.00     0.031 A 
ATOM     34  C   UNL A   1      39.091  29.176  29.320  1.00  0.00     0.074 A 
ATOM     35  C   UNL A   1      38.266  30.647  31.129  1.00  0.00     0.049 A 
ATOM     36  N   UNL A   1      40.172  28.677  29.861  1.00  0.00    -0.248 NA
ATOM     37  C   UNL A   1      38.847  28.733  27.940  1.00  0.00     0.031 C 
ATOM     38  C   UNL A   1      37.367  31.605  31.777  1.00  0.00     0.029 A 
ATOM     39  N   UNL A   1      39.273  30.465  32.040  1.00  0.00    -0.354 N 
ATOM     40  C   UNL A   1      40.728  27.843  28.898  1.00  0.00     0.074 A 
ATOM     41  C   UNL A   1      39.847  27.888  27.749  1.00  0.00     0.031 C 
ATOM     42  C   UNL A   1      37.867  31.927  32.980  1.00  0.00     0.029 A 
ATOM     43  C   UNL A   1      39.091  31.166  33.207  1.00  0.00     0.049 A 
ATOM     44  H   UNL A   1      40.052  29.885  31.874  1.00  0.00     0.167 HD
ATOM     45  C   UNL A   1      41.869  27.112  28.969  1.00  0.00     0.034 A 
ATOM     46  C   UNL A   1      39.816  31.173  34.342  1.00  0.00     0.034 A 
ATOM     47  C   UNL A   1      42.733  27.086  30.127  1.00  0.00     0.049 A 
ATOM     48  C   UNL A   1      41.058  30.326  34.415  1.00  0.00     0.074 A 
ATOM     49  C   UNL A   1      43.913  26.387  30.312  1.00  0.00     0.029 A 
ATOM     50  N   UNL A   1      42.506  27.792  31.303  1.00  0.00    -0.354 N 
ATOM     51  N   UNL A   1      41.563  29.523  33.506  1.00  0.00    -0.248 NA
ATOM     52  C   UNL A   1      41.828  30.390  35.661  1.00  0.00     0.031 C 
ATOM     53  C   UNL A   1      44.366  26.623  31.616  1.00  0.00     0.029 A 
ATOM     54  C   UNL A   1      43.508  27.524  32.225  1.00  0.00     0.049 A 
ATOM     55  H   UNL A   1      41.743  28.395  31.460  1.00  0.00     0.167 HD
ATOM     56  C   UNL A   1      42.721  28.996  34.068  1.00  0.00     0.074 A 
ATOM     57  C   UNL A   1      42.847  29.588  35.385  1.00  0.00     0.031 C 
ATOM     58  C   UNL A   1      43.603  28.107  33.543  1.00  0.00     0.034 A 
BRANCH  45  59
ATOM     59  C   UNL A   1      42.197  26.234  27.784  1.00  0.00     0.023 A 
ATOM     60  C   UNL A   1      41.692  24.927  27.664  1.00  0.00     0.031 A 
ATOM     61  C   UNL A   1      43.078  26.692  26.788  1.00  0.00     0.131 A 
ATOM     62  C   UNL A   1      42.137  24.097  26.622  1.00  0.00     0.055 A 
ATOM     63  C   UNL A   1      43.455  25.889  25.710  1.00  0.00     0.041 A 
ATOM     64  F   UNL A   1      43.611  27.922  26.861  1.00  0.00    -0.206 F 
ATOM     65  C   UNL A   1      42.998  24.576  25.633  1.00  0.00     0.022 A 
BRANCH  62  66
ATOM     66  S   UNL A   1      41.704  22.336  26.670  1.00  0.00     0.124 S 
ATOM     67  O   UNL A   1      42.379  21.833  25.475  1.00  0.00    -0.237 OA
ATOM     68  O   UNL A   1      42.261  21.909  27.947  1.00  0.00    -0.237 OA
ATOM     69  O   UNL A   1      40.245  22.339  26.595  1.00  0.00    -0.744 OA
ENDBRANCH  62  66
ENDBRANCH  45  59
BRANCH  46  70
ATOM     70  C   UNL A   1      39.358  31.971  35.512  1.00  0.00     0.023 A 
ATOM     71  C   UNL A   1      38.590  31.393  36.533  1.00  0.00     0.031 A 
ATOM     72  C   UNL A   1      39.679  33.337  35.615  1.00  0.00     0.131 A 
ATOM     73  C   UNL A   1      38.144  32.187  37.602  1.00  0.00     0.055 A 
ATOM     74  C   UNL A   1      39.269  34.110  36.700  1.00  0.00     0.041 A 
ATOM     75  F   UNL A   1      40.418  33.933  34.665  1.00  0.00    -0.206 F 
ATOM     76  C   UNL A   1      38.488  33.537  37.698  1.00  0.00     0.022 A 
BRANCH  73  77
ATOM     77  S   UNL A   1      37.060  31.437  38.849  1.00  0.00     0.124 S 
ATOM     78  O   UNL A   1      35.879  32.287  38.767  1.00  0.00    -0.237 OA
ATOM     79  O   UNL A   1      36.911  30.077  38.342  1.00  0.00    -0.237 OA
ATOM     80  O   UNL A   1      37.832  31.555  40.085  1.00  0.00    -0.744 OA
ENDBRANCH  73  77
ENDBRANCH  46  70
BRANCH  58  81
ATOM     81  C   UNL A   1      44.794  27.754  34.398  1.00  0.00     0.023 A 
ATOM     82  C   UNL A   1      44.768  26.664  35.285  1.00  0.00     0.031 A 
ATOM     83  C   UNL A   1      45.958  28.539  34.345  1.00  0.00     0.131 A 
ATOM     84  C   UNL A   1      45.865  26.421  36.125  1.00  0.00     0.055 A 
ATOM     85  C   UNL A   1      47.068  28.262  35.145  1.00  0.00     0.041 A 
ATOM     86  F   UNL A   1      46.035  29.593  33.516  1.00  0.00    -0.206 F 
ATOM     87  C   UNL A   1      47.020  27.206  36.052  1.00  0.00     0.022 A 
BRANCH  84  88
ATOM     88  S   UNL A   1      45.729  25.122  37.384  1.00  0.00     0.124 S 
ATOM     89  O   UNL A   1      46.351  25.755  38.543  1.00  0.00    -0.237 OA
ATOM     90  O   UNL A   1      44.286  24.919  37.467  1.00  0.00    -0.237 OA
ATOM     91  O   UNL A   1      46.479  24.007  36.810  1.00  0.00    -0.744 OA
ENDBRANCH  84  88
ENDBRANCH  58  81
ENDBRANCH  32  33
ENDBRANCH  25  27
ENDBRANCH  24  25
ENDBRANCH  23  24
ENDBRANCH   1  23
TORSDOF 21
ENDMDL
MODEL 3
REMARK VINA RESULT:     -10.1      1.648      7.843
REMARK SMILES CCC(CC)N(CC(C)C)C(=O)N1CC[C@@H](C(=O)OCCOC(=O)c2ccc(-c3c4nc(c(-c5cc(S(=O)(=O)[O-])ccc5F)c5ccc([nH]5)c(-c5cc(S(=O)(=O)[O-])ccc5F)c5nc(c(-c6cc(S(=O)(=O)[O-])ccc6F)c6ccc3[nH]6)C=C5)C=C4)cc2)[C@@H]1C
REMARK SMILES IDX 20 1 19 2 17 3 18 4 16 5 13 6 14 7 88 8 15 9 89 10 11 11
REMARK SMILES IDX 12 12 6 13 3 14 2 15 1 16 4 17 5 18 7 19 8 20 9 21 10 22
REMARK SMILES IDX 21 23 22 24 23 25 24 26 25 27 26 28 87 29 27 30 86 31 28 32
REMARK SMILES IDX 29 33 30 34 80 35 31 36 85 37 79 38 81 39 32 40 84 41 78 42
REMARK SMILES IDX 77 43 33 45 65 46 45 47 64 48 46 49 49 50 63 51 82 52 47 53
REMARK SMILES IDX 48 54 62 56 83 57 50 58 34 59 35 60 43 61 36 62 42 63 44 64
REMARK SMILES IDX 41 65 37 66 38 67 39 68 40 69 66 70 67 71 75 72 68 73 74 74
REMARK SMILES IDX 76 75 73 76 69 77 70 78 71 79 72 80 51 81 52 82 60 83 53 84
REMARK SMILES IDX 59 85 61 86 58 87 54 88 55 89 56 90 57 91
REMARK H PARENT 81 44 49 55
REMARK Flexibility Score: inf
ROOT
ATOM      1  C   UNL A   1      31.136  30.401  24.715  1.00  0.00     0.274 C 
ENDROOT
BRANCH   1   2
ATOM      2  O   UNL A   1      30.680  29.042  24.559  1.00  0.00    -0.462 OA
BRANCH   2   3
ATOM      3  C   UNL A   1      31.197  28.359  23.504  1.00  0.00     0.311 C 
ATOM      4  O   UNL A   1      30.722  28.375  22.374  1.00  0.00    -0.252 OA
BRANCH   3   5
ATOM      5  C   UNL A   1      32.379  27.479  23.859  1.00  0.00     0.123 C 
ATOM      6  N   UNL A   1      32.390  25.159  24.398  1.00  0.00    -0.321 N 
ATOM      7  C   UNL A   1      33.233  25.327  23.233  1.00  0.00     0.122 C 
ATOM      8  C   UNL A   1      32.162  26.473  25.013  1.00  0.00     0.098 C 
ATOM      9  C   UNL A   1      32.773  26.639  22.641  1.00  0.00     0.039 C 
ATOM     10  C   UNL A   1      33.179  26.702  26.141  1.00  0.00     0.032 C 
BRANCH   6  11
ATOM     11  C   UNL A   1      32.321  23.912  24.975  1.00  0.00     0.320 C 
ATOM     12  O   UNL A   1      31.296  23.619  25.598  1.00  0.00    -0.248 OA
BRANCH  11  13
ATOM     13  N   UNL A   1      33.413  23.053  24.918  1.00  0.00    -0.321 N 
BRANCH  13  14
ATOM     14  C   UNL A   1      34.629  23.374  25.725  1.00  0.00     0.086 C 
BRANCH  14  15
ATOM     15  C   UNL A   1      34.551  22.860  27.183  1.00  0.00     0.022 C 
ATOM     16  C   UNL A   1      33.775  21.559  27.336  1.00  0.00     0.006 C 
ENDBRANCH  14  15
BRANCH  14  17
ATOM     17  C   UNL A   1      35.960  23.081  24.998  1.00  0.00     0.022 C 
ATOM     18  C   UNL A   1      36.866  22.034  25.620  1.00  0.00     0.006 C 
ENDBRANCH  14  17
ENDBRANCH  13  14
BRANCH  13  19
ATOM     19  C   UNL A   1      33.614  22.047  23.865  1.00  0.00     0.124 C 
BRANCH  19  20
ATOM     20  C   UNL A   1      32.439  21.066  23.644  1.00  0.00     0.002 C 
ATOM     21  C   UNL A   1      31.972  20.937  22.195  1.00  0.00     0.009 C 
ATOM     22  C   UNL A   1      32.820  19.685  24.186  1.00  0.00     0.009 C 
ENDBRANCH  19  20
ENDBRANCH  13  19
ENDBRANCH  11  13
ENDBRANCH   6  11
ENDBRANCH   3   5
ENDBRANCH   2   3
ENDBRANCH   1   2
BRANCH   1  23
ATOM     23  C   UNL A   1      31.393  30.778  26.178  1.00  0.00     0.275 C 
BRANCH  23  24
ATOM     24  O   UNL A   1      32.764  30.577  26.562  1.00  0.00    -0.458 OA
BRANCH  24  25
ATOM     25  C   UNL A   1      33.326  31.646  27.175  1.00  0.00     0.338 C 
ATOM     26  O   UNL A   1      32.804  32.728  27.373  1.00  0.00    -0.246 OA
BRANCH  25  27
ATOM     27  C   UNL A   1      34.639  31.298  27.729  1.00  0.00     0.060 A 
ATOM     28  C   UNL A   1      34.822  29.981  28.156  1.00  0.00     0.016 A 
ATOM     29  C   UNL A   1      35.619  32.262  27.957  1.00  0.00     0.016 A 
ATOM     30  C   UNL A   1      35.967  29.625  28.855  1.00  0.00     0.010 A 
ATOM     31  C   UNL A   1      36.786  31.897  28.638  1.00  0.00     0.010 A 
ATOM     32  C   UNL A   1      36.954  30.583  29.111  1.00  0.00    -0.014 A 
BRANCH  32  33
ATOM     33  C   UNL A   1      38.130  30.198  29.926  1.00  0.00     0.031 A 
ATOM     34  C   UNL A   1      39.140  29.236  29.371  1.00  0.00     0.074 A 
ATOM     35  C   UNL A   1      38.306  30.753  31.138  1.00  0.00     0.049 A 
ATOM     36  N   UNL A   1      40.210  28.739  29.936  1.00  0.00    -0.248 NA
ATOM     37  C   UNL A   1      38.910  28.767  27.998  1.00  0.00     0.031 C 
ATOM     38  C   UNL A   1      37.408  31.731  31.754  1.00  0.00     0.029 A 
ATOM     39  N   UNL A   1      39.300  30.580  32.066  1.00  0.00    -0.354 N 
ATOM     40  C   UNL A   1      40.771  27.881  28.998  1.00  0.00     0.074 A 
ATOM     41  C   UNL A   1      39.905  27.909  27.837  1.00  0.00     0.031 C 
ATOM     42  C   UNL A   1      37.895  32.074  32.957  1.00  0.00     0.029 A 
ATOM     43  C   UNL A   1      39.110  31.308  33.215  1.00  0.00     0.049 A 
ATOM     44  H   UNL A   1      40.076  29.990  31.921  1.00  0.00     0.167 HD
ATOM     45  C   UNL A   1      41.905  27.142  29.099  1.00  0.00     0.034 A 
ATOM     46  C   UNL A   1      39.821  31.332  34.359  1.00  0.00     0.034 A 
ATOM     47  C   UNL A   1      42.754  27.132  30.267  1.00  0.00     0.049 A 
ATOM     48  C   UNL A   1      41.054  30.476  34.465  1.00  0.00     0.074 A 
ATOM     49  C   UNL A   1      43.925  26.427  30.482  1.00  0.00     0.029 A 
ATOM     50  N   UNL A   1      42.518  27.865  31.425  1.00  0.00    -0.354 N 
ATOM     51  N   UNL A   1      41.563  29.650  33.579  1.00  0.00    -0.248 NA
ATOM     52  C   UNL A   1      41.809  30.560  35.719  1.00  0.00     0.031 C 
ATOM     53  C   UNL A   1      44.364  26.687  31.786  1.00  0.00     0.029 A 
ATOM     54  C   UNL A   1      43.506  27.608  32.365  1.00  0.00     0.049 A 
ATOM     55  H   UNL A   1      41.759  28.478  31.560  1.00  0.00     0.167 HD
ATOM     56  C   UNL A   1      42.709  29.125  34.167  1.00  0.00     0.074 A 
ATOM     57  C   UNL A   1      42.825  29.744  35.473  1.00  0.00     0.031 C 
ATOM     58  C   UNL A   1      43.590  28.217  33.672  1.00  0.00     0.034 A 
BRANCH  45  59
ATOM     59  C   UNL A   1      42.239  26.236  27.937  1.00  0.00     0.023 A 
ATOM     60  C   UNL A   1      41.715  24.935  27.832  1.00  0.00     0.031 A 
ATOM     61  C   UNL A   1      43.145  26.661  26.949  1.00  0.00     0.131 A 
ATOM     62  C   UNL A   1      42.165  24.079  26.814  1.00  0.00     0.055 A 
ATOM     63  C   UNL A   1      43.528  25.831  25.893  1.00  0.00     0.041 A 
ATOM     64  F   UNL A   1      43.697  27.883  27.008  1.00  0.00    -0.206 F 
ATOM     65  C   UNL A   1      43.051  24.525  25.832  1.00  0.00     0.022 A 
BRANCH  62  66
ATOM     66  S   UNL A   1      41.703  22.326  26.887  1.00  0.00     0.124 S 
ATOM     67  O   UNL A   1      40.350  22.399  27.437  1.00  0.00    -0.237 OA
ATOM     68  O   UNL A   1      41.805  21.914  25.493  1.00  0.00    -0.237 OA
ATOM     69  O   UNL A   1      42.698  21.745  27.785  1.00  0.00    -0.744 OA
ENDBRANCH  62  66
ENDBRANCH  45  59
BRANCH  46  70
ATOM     70  C   UNL A   1      39.355  32.159  35.506  1.00  0.00     0.023 A 
ATOM     71  C   UNL A   1      39.787  33.482  35.674  1.00  0.00     0.031 A 
ATOM     72  C   UNL A   1      38.472  31.622  36.460  1.00  0.00     0.131 A 
ATOM     73  C   UNL A   1      39.355  34.219  36.789  1.00  0.00     0.055 A 
ATOM     74  C   UNL A   1      38.013  32.372  37.542  1.00  0.00     0.041 A 
ATOM     75  F   UNL A   1      38.026  30.361  36.337  1.00  0.00    -0.206 F 
ATOM     76  C   UNL A   1      38.462  33.676  37.716  1.00  0.00     0.022 A 
BRANCH  73  77
ATOM     77  S   UNL A   1      40.017  35.889  37.038  1.00  0.00     0.124 S 
ATOM     78  O   UNL A   1      39.687  36.533  35.772  1.00  0.00    -0.237 OA
ATOM     79  O   UNL A   1      39.267  36.342  38.204  1.00  0.00    -0.237 OA
ATOM     80  O   UNL A   1      41.442  35.658  37.269  1.00  0.00    -0.744 OA
ENDBRANCH  73  77
ENDBRANCH  46  70
BRANCH  58  81
ATOM     81  C   UNL A   1      44.767  27.872  34.549  1.00  0.00     0.023 A 
ATOM     82  C   UNL A   1      44.717  26.807  35.465  1.00  0.00     0.031 A 
ATOM     83  C   UNL A   1      45.942  28.641  34.488  1.00  0.00     0.131 A 
ATOM     84  C   UNL A   1      45.802  26.572  36.323  1.00  0.00     0.055 A 
ATOM     85  C   UNL A   1      47.039  28.371  35.307  1.00  0.00     0.041 A 
ATOM     86  F   UNL A   1      46.041  29.671  33.632  1.00  0.00    -0.206 F 
ATOM     87  C   UNL A   1      46.968  27.340  36.241  1.00  0.00     0.022 A 
BRANCH  84  88
ATOM     88  S   UNL A   1      45.635  25.310  37.615  1.00  0.00     0.124 S 
ATOM     89  O   UNL A   1      46.801  25.574  38.452  1.00  0.00    -0.237 OA
ATOM     90  O   UNL A   1      44.340  25.637  38.204  1.00  0.00    -0.237 OA
ATOM     91  O   UNL A   1      45.678  24.052  36.873  1.00  0.00    -0.744 OA
ENDBRANCH  84  88
ENDBRANCH  58  81
ENDBRANCH  32  33
ENDBRANCH  25  27
ENDBRANCH  24  25
ENDBRANCH  23  24
ENDBRANCH   1  23
TORSDOF 21
ENDMDL
