MODEL 1
REMARK VINA RESULT:     -11.9      0.000      0.000
REMARK SMILES CCOc1cc(C[NH+]2CCC3(CC2)[C@H](C(=O)OCCOC(=O)c2ccc(-c4c5nc(c(-c6cc(S(=O)(=O)[O-])ccc6F)c6ccc([nH]6)c(-c6cc(S(=O)(=O)[O-])ccc6F)c6nc(c(-c7cc(S(=O)(=O)[O-])ccc7F)c7ccc4[nH]7)C=C6)C=C5)cc2)CC(=O)N3C)ccc1OC
REMARK SMILES IDX 18 1 17 2 15 3 16 4 14 5 8 6 9 7 13 8 10 10 12 11 11 12
REMARK SMILES IDX 89 13 86 14 87 15 90 16 88 17 7 18 6 19 4 20 5 21 93 22
REMARK SMILES IDX 92 23 91 24 3 25 2 26 1 27 94 28 95 29 19 30 20 31 21 32
REMARK SMILES IDX 22 33 23 34 24 35 85 36 25 37 84 38 26 39 27 40 28 41 78 42
REMARK SMILES IDX 29 43 83 44 77 45 79 46 30 47 82 48 76 49 75 50 31 52 63 53
REMARK SMILES IDX 43 54 62 55 44 56 47 57 61 58 80 59 45 60 46 61 60 63 81 64
REMARK SMILES IDX 48 65 32 66 33 67 41 68 34 69 40 70 42 71 39 72 35 73 36 74
REMARK SMILES IDX 37 75 38 76 64 77 65 78 73 79 66 80 72 81 74 82 71 83 67 84
REMARK SMILES IDX 68 85 69 86 70 87 49 88 50 89 58 90 51 91 57 92 59 93 56 94
REMARK SMILES IDX 52 95 53 96 54 97 55 98
REMARK H PARENT 8 9 79 51 47 62
REMARK Flexibility Score: inf
ROOT
ATOM      1  C   UNL A   1      31.173  30.676  25.381  1.00  0.00     0.274 C 
ENDROOT
BRANCH   1   2
ATOM      2  O   UNL A   1      31.790  29.504  24.769  1.00  0.00    -0.462 OA
BRANCH   2   3
ATOM      3  C   UNL A   1      31.847  28.377  25.559  1.00  0.00     0.311 C 
ATOM      4  O   UNL A   1      31.071  28.195  26.494  1.00  0.00    -0.252 OA
BRANCH   3   5
ATOM      5  C   UNL A   1      32.822  27.282  25.042  1.00  0.00     0.134 C 
ATOM      6  N   UNL A   1      31.458  23.238  24.392  1.00  0.00    -0.331 N 
ATOM      7  C   UNL A   1      30.494  24.286  24.082  1.00  0.00     0.265 C 
ATOM      8  C   UNL A   1      32.778  23.529  23.871  1.00  0.00     0.265 C 
ATOM      9  H   UNL A   1      31.082  22.458  23.855  1.00  0.00     0.348 HD
ATOM     10  C   UNL A   1      30.920  25.728  24.382  1.00  0.00     0.091 C 
ATOM     11  C   UNL A   1      33.348  24.904  24.232  1.00  0.00     0.091 C 
ATOM     12  C   UNL A   1      32.380  26.120  24.096  1.00  0.00     0.067 C 
ATOM     13  N   UNL A   1      32.643  26.727  22.780  1.00  0.00    -0.339 N 
ATOM     14  C   UNL A   1      33.998  27.924  24.299  1.00  0.00     0.118 C 
ATOM     15  C   UNL A   1      33.632  27.720  22.856  1.00  0.00     0.223 C 
ATOM     16  C   UNL A   1      32.517  25.999  21.536  1.00  0.00     0.147 C 
ATOM     17  O   UNL A   1      34.209  28.239  21.914  1.00  0.00    -0.275 OA
BRANCH   6  18
ATOM     18  C   UNL A   1      31.406  22.537  25.696  1.00  0.00     0.299 C 
BRANCH  18  19
ATOM     19  C   UNL A   1      32.512  21.527  25.922  1.00  0.00     0.010 A 
ATOM     20  C   UNL A   1      33.836  19.751  24.881  1.00  0.00     0.161 A 
ATOM     21  C   UNL A   1      32.582  20.291  25.234  1.00  0.00     0.060 A 
ATOM     22  C   UNL A   1      34.978  20.412  25.306  1.00  0.00     0.160 A 
ATOM     23  C   UNL A   1      34.837  21.451  26.234  1.00  0.00     0.051 A 
ATOM     24  C   UNL A   1      33.626  21.993  26.588  1.00  0.00     0.013 A 
BRANCH  20  25
ATOM     25  O   UNL A   1      33.921  18.927  23.788  1.00  0.00    -0.490 OA
BRANCH  25  26
ATOM     26  C   UNL A   1      33.119  17.747  23.829  1.00  0.00     0.226 C 
ATOM     27  C   UNL A   1      34.011  16.572  23.438  1.00  0.00     0.049 C 
ENDBRANCH  25  26
ENDBRANCH  20  25
BRANCH  22  28
ATOM     28  O   UNL A   1      36.262  20.306  24.846  1.00  0.00    -0.493 OA
ATOM     29  C   UNL A   1      37.085  21.426  24.567  1.00  0.00     0.278 C 
ENDBRANCH  22  28
ENDBRANCH  18  19
ENDBRANCH   6  18
ENDBRANCH   3   5
ENDBRANCH   2   3
ENDBRANCH   1   2
BRANCH   1  30
ATOM     30  C   UNL A   1      31.874  31.182  26.678  1.00  0.00     0.275 C 
BRANCH  30  31
ATOM     31  O   UNL A   1      33.321  31.049  26.795  1.00  0.00    -0.458 OA
BRANCH  31  32
ATOM     32  C   UNL A   1      34.003  31.819  27.687  1.00  0.00     0.338 C 
ATOM     33  O   UNL A   1      33.817  33.004  27.860  1.00  0.00    -0.246 OA
BRANCH  32  34
ATOM     34  C   UNL A   1      35.208  31.065  28.208  1.00  0.00     0.060 A 
ATOM     35  C   UNL A   1      36.228  31.878  28.665  1.00  0.00     0.016 A 
ATOM     36  C   UNL A   1      35.485  29.696  28.112  1.00  0.00     0.016 A 
ATOM     37  C   UNL A   1      37.530  31.383  28.786  1.00  0.00     0.010 A 
ATOM     38  C   UNL A   1      36.755  29.174  28.533  1.00  0.00     0.010 A 
ATOM     39  C   UNL A   1      37.816  30.020  28.904  1.00  0.00    -0.014 A 
BRANCH  39  40
ATOM     40  C   UNL A   1      39.152  29.616  29.531  1.00  0.00     0.031 A 
ATOM     41  C   UNL A   1      40.121  28.608  28.924  1.00  0.00     0.074 A 
ATOM     42  C   UNL A   1      39.544  30.189  30.704  1.00  0.00     0.049 A 
ATOM     43  N   UNL A   1      41.147  28.009  29.490  1.00  0.00    -0.248 NA
ATOM     44  C   UNL A   1      39.934  28.235  27.517  1.00  0.00     0.031 C 
ATOM     45  C   UNL A   1      38.806  31.220  31.445  1.00  0.00     0.029 A 
ATOM     46  N   UNL A   1      40.670  30.015  31.489  1.00  0.00    -0.354 N 
ATOM     47  C   UNL A   1      41.690  27.146  28.539  1.00  0.00     0.074 A 
ATOM     48  C   UNL A   1      40.887  27.323  27.342  1.00  0.00     0.031 C 
ATOM     49  C   UNL A   1      39.538  31.680  32.458  1.00  0.00     0.029 A 
ATOM     50  C   UNL A   1      40.665  30.789  32.635  1.00  0.00     0.049 A 
ATOM     51  H   UNL A   1      41.403  29.401  31.256  1.00  0.00     0.167 HD
ATOM     52  C   UNL A   1      42.738  26.283  28.659  1.00  0.00     0.034 A 
ATOM     53  C   UNL A   1      41.360  30.740  33.788  1.00  0.00     0.034 A 
ATOM     54  C   UNL A   1      43.564  26.142  29.847  1.00  0.00     0.049 A 
ATOM     55  C   UNL A   1      42.401  29.681  33.960  1.00  0.00     0.074 A 
ATOM     56  C   UNL A   1      44.639  25.286  30.055  1.00  0.00     0.029 A 
ATOM     57  N   UNL A   1      43.424  26.867  31.023  1.00  0.00    -0.354 N 
ATOM     58  N   UNL A   1      42.806  28.785  33.095  1.00  0.00    -0.248 NA
ATOM     59  C   UNL A   1      43.061  29.611  35.268  1.00  0.00     0.031 C 
ATOM     60  C   UNL A   1      45.082  25.428  31.375  1.00  0.00     0.029 A 
ATOM     61  C   UNL A   1      44.356  26.445  31.967  1.00  0.00     0.049 A 
ATOM     62  H   UNL A   1      42.758  27.577  31.169  1.00  0.00     0.167 HD
ATOM     63  C   UNL A   1      43.788  28.053  33.753  1.00  0.00     0.074 A 
ATOM     64  C   UNL A   1      43.929  28.631  35.073  1.00  0.00     0.031 C 
ATOM     65  C   UNL A   1      44.500  26.995  33.294  1.00  0.00     0.034 A 
BRANCH  52  66
ATOM     66  C   UNL A   1      43.025  25.330  27.511  1.00  0.00     0.023 A 
ATOM     67  C   UNL A   1      42.415  24.069  27.388  1.00  0.00     0.031 A 
ATOM     68  C   UNL A   1      43.899  25.732  26.479  1.00  0.00     0.131 A 
ATOM     69  C   UNL A   1      42.723  23.244  26.290  1.00  0.00     0.055 A 
ATOM     70  C   UNL A   1      44.143  24.940  25.355  1.00  0.00     0.041 A 
ATOM     71  F   UNL A   1      44.522  26.920  26.539  1.00  0.00    -0.206 F 
ATOM     72  C   UNL A   1      43.562  23.682  25.261  1.00  0.00     0.022 A 
BRANCH  69  73
ATOM     73  S   UNL A   1      42.109  21.535  26.277  1.00  0.00     0.124 S 
ATOM     74  O   UNL A   1      40.711  21.726  25.901  1.00  0.00    -0.237 OA
ATOM     75  O   UNL A   1      42.961  20.901  25.277  1.00  0.00    -0.237 OA
ATOM     76  O   UNL A   1      42.319  21.084  27.652  1.00  0.00    -0.744 OA
ENDBRANCH  69  73
ENDBRANCH  52  66
BRANCH  53  77
ATOM     77  C   UNL A   1      40.975  31.622  34.935  1.00  0.00     0.023 A 
ATOM     78  C   UNL A   1      39.853  31.343  35.726  1.00  0.00     0.031 A 
ATOM     79  C   UNL A   1      41.718  32.784  35.238  1.00  0.00     0.131 A 
ATOM     80  C   UNL A   1      39.488  32.226  36.754  1.00  0.00     0.055 A 
ATOM     81  C   UNL A   1      41.402  33.609  36.315  1.00  0.00     0.041 A 
ATOM     82  F   UNL A   1      42.794  33.115  34.505  1.00  0.00    -0.206 F 
ATOM     83  C   UNL A   1      40.270  33.339  37.073  1.00  0.00     0.022 A 
BRANCH  80  84
ATOM     84  S   UNL A   1      37.907  31.960  37.599  1.00  0.00     0.124 S 
ATOM     85  O   UNL A   1      37.059  32.957  36.958  1.00  0.00    -0.237 OA
ATOM     86  O   UNL A   1      37.621  30.567  37.273  1.00  0.00    -0.237 OA
ATOM     87  O   UNL A   1      38.226  32.218  39.003  1.00  0.00    -0.744 OA
ENDBRANCH  80  84
ENDBRANCH  53  77
BRANCH  65  88
ATOM     88  C   UNL A   1      45.552  26.439  34.224  1.00  0.00     0.023 A 
ATOM     89  C   UNL A   1      45.246  25.457  35.185  1.00  0.00     0.031 A 
ATOM     90  C   UNL A   1      46.861  26.950  34.197  1.00  0.00     0.131 A 
ATOM     91  C   UNL A   1      46.214  25.074  36.125  1.00  0.00     0.055 A 
ATOM     92  C   UNL A   1      47.840  26.511  35.090  1.00  0.00     0.041 A 
ATOM     93  F   UNL A   1      47.207  27.900  33.313  1.00  0.00    -0.206 F 
ATOM     94  C   UNL A   1      47.515  25.580  36.071  1.00  0.00     0.022 A 
BRANCH  91  95
ATOM     95  S   UNL A   1      45.715  23.999  37.499  1.00  0.00     0.124 S 
ATOM     96  O   UNL A   1      46.855  24.117  38.404  1.00  0.00    -0.237 OA
ATOM     97  O   UNL A   1      44.476  24.623  37.950  1.00  0.00    -0.237 OA
ATOM     98  O   UNL A   1      45.556  22.689  36.871  1.00  0.00    -0.744 OA
ENDBRANCH  91  95
ENDBRANCH  65  88
ENDBRANCH  39  40
ENDBRANCH  32  34
ENDBRANCH  31  32
ENDBRANCH  30  31
ENDBRANCH   1  30
TORSDOF 19
ENDMDL
MODEL 2
REMARK VINA RESULT:     -11.9      4.897      8.425
REMARK SMILES CCOc1cc(C[NH+]2CCC3(CC2)[C@H](C(=O)OCCOC(=O)c2ccc(-c4c5nc(c(-c6cc(S(=O)(=O)[O-])ccc6F)c6ccc([nH]6)c(-c6cc(S(=O)(=O)[O-])ccc6F)c6nc(c(-c7cc(S(=O)(=O)[O-])ccc7F)c7ccc4[nH]7)C=C6)C=C5)cc2)CC(=O)N3C)ccc1OC
REMARK SMILES IDX 18 1 17 2 15 3 16 4 14 5 8 6 9 7 13 8 10 10 12 11 11 12
REMARK SMILES IDX 89 13 86 14 87 15 90 16 88 17 7 18 6 19 4 20 5 21 93 22
REMARK SMILES IDX 92 23 91 24 3 25 2 26 1 27 94 28 95 29 19 30 20 31 21 32
REMARK SMILES IDX 22 33 23 34 24 35 85 36 25 37 84 38 26 39 27 40 28 41 78 42
REMARK SMILES IDX 29 43 83 44 77 45 79 46 30 47 82 48 76 49 75 50 31 52 63 53
REMARK SMILES IDX 43 54 62 55 44 56 47 57 61 58 80 59 45 60 46 61 60 63 81 64
REMARK SMILES IDX 48 65 32 66 33 67 41 68 34 69 40 70 42 71 39 72 35 73 36 74
REMARK SMILES IDX 37 75 38 76 64 77 65 78 73 79 66 80 72 81 74 82 71 83 67 84
REMARK SMILES IDX 68 85 69 86 70 87 49 88 50 89 58 90 51 91 57 92 59 93 56 94
REMARK SMILES IDX 52 95 53 96 54 97 55 98
REMARK H PARENT 8 9 79 51 47 62
REMARK Flexibility Score: inf
ROOT
ATOM      1  C   UNL A   1      36.651  20.099  24.965  1.00  0.00     0.274 C 
ENDROOT
BRANCH   1   2
ATOM      2  O   UNL A   1      35.991  21.356  24.624  1.00  0.00    -0.462 OA
BRANCH   2   3
ATOM      3  C   UNL A   1      34.630  21.391  24.831  1.00  0.00     0.311 C 
ATOM      4  O   UNL A   1      33.929  20.386  24.740  1.00  0.00    -0.252 OA
BRANCH   3   5
ATOM      5  C   UNL A   1      34.103  22.745  25.384  1.00  0.00     0.134 C 
ATOM      6  N   UNL A   1      31.105  24.990  23.236  1.00  0.00    -0.331 N 
ATOM      7  C   UNL A   1      30.972  23.541  23.174  1.00  0.00     0.265 C 
ATOM      8  C   UNL A   1      31.378  25.464  24.578  1.00  0.00     0.265 C 
ATOM      9  H   UNL A   1      30.161  25.287  22.993  1.00  0.00     0.348 HD
ATOM     10  C   UNL A   1      32.069  22.715  23.857  1.00  0.00     0.091 C 
ATOM     11  C   UNL A   1      32.550  24.787  25.297  1.00  0.00     0.091 C 
ATOM     12  C   UNL A   1      32.631  23.232  25.192  1.00  0.00     0.067 C 
ATOM     13  N   UNL A   1      32.006  22.692  26.412  1.00  0.00    -0.339 N 
ATOM     14  C   UNL A   1      34.313  22.819  26.900  1.00  0.00     0.118 C 
ATOM     15  C   UNL A   1      32.944  22.517  27.440  1.00  0.00     0.223 C 
ATOM     16  C   UNL A   1      30.639  22.978  26.791  1.00  0.00     0.147 C 
ATOM     17  O   UNL A   1      32.696  22.296  28.615  1.00  0.00    -0.275 OA
BRANCH   6  18
ATOM     18  C   UNL A   1      31.761  25.729  22.133  1.00  0.00     0.299 C 
BRANCH  18  19
ATOM     19  C   UNL A   1      32.028  27.192  22.414  1.00  0.00     0.010 A 
ATOM     20  C   UNL A   1      31.083  29.251  23.341  1.00  0.00     0.161 A 
ATOM     21  C   UNL A   1      31.008  28.173  22.434  1.00  0.00     0.060 A 
ATOM     22  C   UNL A   1      32.216  29.365  24.132  1.00  0.00     0.160 A 
ATOM     23  C   UNL A   1      33.311  28.540  23.846  1.00  0.00     0.051 A 
ATOM     24  C   UNL A   1      33.257  27.485  22.969  1.00  0.00     0.013 A 
BRANCH  20  25
ATOM     25  O   UNL A   1      29.922  29.845  23.765  1.00  0.00    -0.490 OA
BRANCH  25  26
ATOM     26  C   UNL A   1      28.725  29.414  23.117  1.00  0.00     0.226 C 
ATOM     27  C   UNL A   1      27.691  30.524  23.278  1.00  0.00     0.049 C 
ENDBRANCH  25  26
ENDBRANCH  20  25
BRANCH  22  28
ATOM     28  O   UNL A   1      32.400  30.082  25.282  1.00  0.00    -0.493 OA
ATOM     29  C   UNL A   1      32.571  29.482  26.556  1.00  0.00     0.278 C 
ENDBRANCH  22  28
ENDBRANCH  18  19
ENDBRANCH   6  18
ENDBRANCH   3   5
ENDBRANCH   2   3
ENDBRANCH   1   2
BRANCH   1  30
ATOM     30  C   UNL A   1      38.200  20.105  24.792  1.00  0.00     0.275 C 
BRANCH  30  31
ATOM     31  O   UNL A   1      39.019  19.361  25.741  1.00  0.00    -0.458 OA
BRANCH  31  32
ATOM     32  C   UNL A   1      40.331  19.684  25.904  1.00  0.00     0.338 C 
ATOM     33  O   UNL A   1      41.221  18.884  26.095  1.00  0.00    -0.246 OA
BRANCH  32  34
ATOM     34  C   UNL A   1      40.476  21.177  26.105  1.00  0.00     0.060 A 
ATOM     35  C   UNL A   1      41.783  21.625  26.085  1.00  0.00     0.016 A 
ATOM     36  C   UNL A   1      39.496  22.102  26.487  1.00  0.00     0.016 A 
ATOM     37  C   UNL A   1      42.120  22.859  26.651  1.00  0.00     0.010 A 
ATOM     38  C   UNL A   1      39.848  23.464  26.778  1.00  0.00     0.010 A 
ATOM     39  C   UNL A   1      41.189  23.883  26.848  1.00  0.00    -0.014 A 
BRANCH  39  40
ATOM     40  C   UNL A   1      41.710  25.316  26.976  1.00  0.00     0.031 A 
ATOM     41  C   UNL A   1      43.032  25.809  26.400  1.00  0.00     0.074 A 
ATOM     42  C   UNL A   1      40.958  26.248  27.628  1.00  0.00     0.049 A 
ATOM     43  N   UNL A   1      43.681  26.923  26.667  1.00  0.00    -0.248 NA
ATOM     44  C   UNL A   1      43.702  24.970  25.400  1.00  0.00     0.031 C 
ATOM     45  C   UNL A   1      39.632  26.021  28.217  1.00  0.00     0.029 A 
ATOM     46  N   UNL A   1      41.174  27.587  27.900  1.00  0.00    -0.354 N 
ATOM     47  C   UNL A   1      44.860  26.895  25.921  1.00  0.00     0.074 A 
ATOM     48  C   UNL A   1      44.820  25.654  25.167  1.00  0.00     0.031 C 
ATOM     49  C   UNL A   1      39.104  27.172  28.632  1.00  0.00     0.029 A 
ATOM     50  C   UNL A   1      40.150  28.172  28.622  1.00  0.00     0.049 A 
ATOM     51  H   UNL A   1      41.977  28.076  27.608  1.00  0.00     0.167 HD
ATOM     52  C   UNL A   1      45.877  27.801  25.886  1.00  0.00     0.034 A 
ATOM     53  C   UNL A   1      40.057  29.308  29.341  1.00  0.00     0.034 A 
ATOM     54  C   UNL A   1      45.890  29.061  26.611  1.00  0.00     0.049 A 
ATOM     55  C   UNL A   1      41.244  30.215  29.417  1.00  0.00     0.074 A 
ATOM     56  C   UNL A   1      46.884  30.032  26.638  1.00  0.00     0.029 A 
ATOM     57  N   UNL A   1      44.875  29.536  27.431  1.00  0.00    -0.354 N 
ATOM     58  N   UNL A   1      42.400  30.101  28.812  1.00  0.00    -0.248 NA
ATOM     59  C   UNL A   1      41.122  31.388  30.288  1.00  0.00     0.031 C 
ATOM     60  C   UNL A   1      46.510  31.038  27.536  1.00  0.00     0.029 A 
ATOM     61  C   UNL A   1      45.239  30.754  27.998  1.00  0.00     0.049 A 
ATOM     62  H   UNL A   1      44.019  29.075  27.590  1.00  0.00     0.167 HD
ATOM     63  C   UNL A   1      43.139  31.205  29.218  1.00  0.00     0.074 A 
ATOM     64  C   UNL A   1      42.289  31.982  30.095  1.00  0.00     0.031 C 
ATOM     65  C   UNL A   1      44.412  31.534  28.890  1.00  0.00     0.034 A 
BRANCH  52  66
ATOM     66  C   UNL A   1      47.133  27.449  25.106  1.00  0.00     0.023 A 
ATOM     67  C   UNL A   1      47.287  27.717  23.735  1.00  0.00     0.031 A 
ATOM     68  C   UNL A   1      48.228  26.874  25.784  1.00  0.00     0.131 A 
ATOM     69  C   UNL A   1      48.485  27.371  23.083  1.00  0.00     0.055 A 
ATOM     70  C   UNL A   1      49.441  26.600  25.146  1.00  0.00     0.041 A 
ATOM     71  F   UNL A   1      48.145  26.582  27.092  1.00  0.00    -0.206 F 
ATOM     72  C   UNL A   1      49.570  26.839  23.784  1.00  0.00     0.022 A 
BRANCH  69  73
ATOM     73  S   UNL A   1      48.570  27.509  21.274  1.00  0.00     0.124 S 
ATOM     74  O   UNL A   1      48.811  26.123  20.881  1.00  0.00    -0.237 OA
ATOM     75  O   UNL A   1      47.258  28.051  20.937  1.00  0.00    -0.237 OA
ATOM     76  O   UNL A   1      49.695  28.415  21.051  1.00  0.00    -0.744 OA
ENDBRANCH  69  73
ENDBRANCH  52  66
BRANCH  53  77
ATOM     77  C   UNL A   1      38.846  29.567  30.182  1.00  0.00     0.023 A 
ATOM     78  C   UNL A   1      37.847  30.457  29.768  1.00  0.00     0.031 A 
ATOM     79  C   UNL A   1      38.688  28.942  31.438  1.00  0.00     0.131 A 
ATOM     80  C   UNL A   1      36.756  30.721  30.611  1.00  0.00     0.055 A 
ATOM     81  C   UNL A   1      37.560  29.141  32.232  1.00  0.00     0.041 A 
ATOM     82  F   UNL A   1      39.622  28.092  31.899  1.00  0.00    -0.206 F 
ATOM     83  C   UNL A   1      36.591  30.048  31.824  1.00  0.00     0.022 A 
BRANCH  80  84
ATOM     84  S   UNL A   1      35.610  32.046  30.149  1.00  0.00     0.124 S 
ATOM     85  O   UNL A   1      36.525  33.153  29.896  1.00  0.00    -0.237 OA
ATOM     86  O   UNL A   1      34.949  31.478  28.979  1.00  0.00    -0.237 OA
ATOM     87  O   UNL A   1      34.764  32.190  31.333  1.00  0.00    -0.744 OA
ENDBRANCH  80  84
ENDBRANCH  53  77
BRANCH  65  88
ATOM     88  C   UNL A   1      44.934  32.839  29.441  1.00  0.00     0.023 A 
ATOM     89  C   UNL A   1      44.744  34.058  28.764  1.00  0.00     0.031 A 
ATOM     90  C   UNL A   1      45.696  32.854  30.622  1.00  0.00     0.131 A 
ATOM     91  C   UNL A   1      45.369  35.223  29.231  1.00  0.00     0.055 A 
ATOM     92  C   UNL A   1      46.254  34.031  31.122  1.00  0.00     0.041 A 
ATOM     93  F   UNL A   1      45.924  31.719  31.303  1.00  0.00    -0.206 F 
ATOM     94  C   UNL A   1      46.107  35.221  30.417  1.00  0.00     0.022 A 
BRANCH  91  95
ATOM     95  S   UNL A   1      45.311  36.716  28.202  1.00  0.00     0.124 S 
ATOM     96  O   UNL A   1      46.145  37.641  28.963  1.00  0.00    -0.237 OA
ATOM     97  O   UNL A   1      45.870  36.246  26.938  1.00  0.00    -0.237 OA
ATOM     98  O   UNL A   1      43.889  37.051  28.162  1.00  0.00    -0.744 OA
ENDBRANCH  91  95
ENDBRANCH  65  88
ENDBRANCH  39  40
ENDBRANCH  32  34
ENDBRANCH  31  32
ENDBRANCH  30  31
ENDBRANCH   1  30
TORSDOF 19
ENDMDL
MODEL 3
REMARK VINA RESULT:     -11.6      1.770      2.051
REMARK SMILES CCOc1cc(C[NH+]2CCC3(CC2)[C@H](C(=O)OCCOC(=O)c2ccc(-c4c5nc(c(-c6cc(S(=O)(=O)[O-])ccc6F)c6ccc([nH]6)c(-c6cc(S(=O)(=O)[O-])ccc6F)c6nc(c(-c7cc(S(=O)(=O)[O-])ccc7F)c7ccc4[nH]7)C=C6)C=C5)cc2)CC(=O)N3C)ccc1OC
REMARK SMILES IDX 18 1 17 2 15 3 16 4 14 5 8 6 9 7 13 8 10 10 12 11 11 12
REMARK SMILES IDX 89 13 86 14 87 15 90 16 88 17 7 18 6 19 4 20 5 21 93 22
REMARK SMILES IDX 92 23 91 24 3 25 2 26 1 27 94 28 95 29 19 30 20 31 21 32
REMARK SMILES IDX 22 33 23 34 24 35 85 36 25 37 84 38 26 39 27 40 28 41 78 42
REMARK SMILES IDX 29 43 83 44 77 45 79 46 30 47 82 48 76 49 75 50 31 52 63 53
REMARK SMILES IDX 43 54 62 55 44 56 47 57 61 58 80 59 45 60 46 61 60 63 81 64
REMARK SMILES IDX 48 65 32 66 33 67 41 68 34 69 40 70 42 71 39 72 35 73 36 74
REMARK SMILES IDX 37 75 38 76 64 77 65 78 73 79 66 80 72 81 74 82 71 83 67 84
REMARK SMILES IDX 68 85 69 86 70 87 49 88 50 89 58 90 51 91 57 92 59 93 56 94
REMARK SMILES IDX 52 95 53 96 54 97 55 98
REMARK H PARENT 8 9 79 51 47 62
REMARK Flexibility Score: inf
ROOT
ATOM      1  C   UNL A   1      31.548  30.290  26.677  1.00  0.00     0.274 C 
ENDROOT
BRANCH   1   2
ATOM      2  O   UNL A   1      31.481  28.882  26.300  1.00  0.00    -0.462 OA
BRANCH   2   3
ATOM      3  C   UNL A   1      31.605  28.617  24.954  1.00  0.00     0.311 C 
ATOM      4  O   UNL A   1      31.103  29.339  24.097  1.00  0.00    -0.252 OA
BRANCH   3   5
ATOM      5  C   UNL A   1      32.593  27.464  24.619  1.00  0.00     0.134 C 
ATOM      6  N   UNL A   1      31.167  23.428  24.054  1.00  0.00    -0.331 N 
ATOM      7  C   UNL A   1      30.284  24.482  23.573  1.00  0.00     0.265 C 
ATOM      8  C   UNL A   1      32.548  23.647  23.672  1.00  0.00     0.265 C 
ATOM      9  H   UNL A   1      30.827  22.627  23.523  1.00  0.00     0.348 HD
ATOM     10  C   UNL A   1      30.724  25.928  23.835  1.00  0.00     0.091 C 
ATOM     11  C   UNL A   1      33.122  25.026  24.016  1.00  0.00     0.091 C 
ATOM     12  C   UNL A   1      32.220  26.258  23.698  1.00  0.00     0.067 C 
ATOM     13  N   UNL A   1      32.653  26.774  22.388  1.00  0.00    -0.339 N 
ATOM     14  C   UNL A   1      33.868  28.024  23.981  1.00  0.00     0.118 C 
ATOM     15  C   UNL A   1      33.661  27.741  22.520  1.00  0.00     0.223 C 
ATOM     16  C   UNL A   1      32.644  25.974  21.182  1.00  0.00     0.147 C 
ATOM     17  O   UNL A   1      34.361  28.183  21.622  1.00  0.00    -0.275 OA
BRANCH   6  18
ATOM     18  C   UNL A   1      30.942  22.811  25.381  1.00  0.00     0.299 C 
BRANCH  18  19
ATOM     19  C   UNL A   1      32.067  21.925  25.872  1.00  0.00     0.010 A 
ATOM     20  C   UNL A   1      33.678  20.201  25.223  1.00  0.00     0.161 A 
ATOM     21  C   UNL A   1      32.345  20.652  25.320  1.00  0.00     0.060 A 
ATOM     22  C   UNL A   1      34.679  20.992  25.765  1.00  0.00     0.160 A 
ATOM     23  C   UNL A   1      34.306  22.083  26.560  1.00  0.00     0.051 A 
ATOM     24  C   UNL A   1      33.015  22.539  26.664  1.00  0.00     0.013 A 
BRANCH  20  25
ATOM     25  O   UNL A   1      34.007  19.306  24.238  1.00  0.00    -0.490 OA
BRANCH  25  26
ATOM     26  C   UNL A   1      33.822  17.927  24.556  1.00  0.00     0.226 C 
ATOM     27  C   UNL A   1      33.942  17.135  23.257  1.00  0.00     0.049 C 
ENDBRANCH  25  26
ENDBRANCH  20  25
BRANCH  22  28
ATOM     28  O   UNL A   1      36.026  20.967  25.529  1.00  0.00    -0.493 OA
ATOM     29  C   UNL A   1      36.857  22.111  25.629  1.00  0.00     0.278 C 
ENDBRANCH  22  28
ENDBRANCH  18  19
ENDBRANCH   6  18
ENDBRANCH   3   5
ENDBRANCH   2   3
ENDBRANCH   1   2
BRANCH   1  30
ATOM     30  C   UNL A   1      32.986  30.894  26.697  1.00  0.00     0.275 C 
BRANCH  30  31
ATOM     31  O   UNL A   1      33.529  31.377  27.960  1.00  0.00    -0.458 OA
BRANCH  31  32
ATOM     32  C   UNL A   1      34.695  32.080  27.972  1.00  0.00     0.338 C 
ATOM     33  O   UNL A   1      34.851  33.168  27.462  1.00  0.00    -0.246 OA
BRANCH  32  34
ATOM     34  C   UNL A   1      35.829  31.195  28.443  1.00  0.00     0.060 A 
ATOM     35  C   UNL A   1      36.991  31.879  28.747  1.00  0.00     0.016 A 
ATOM     36  C   UNL A   1      35.905  29.796  28.430  1.00  0.00     0.016 A 
ATOM     37  C   UNL A   1      38.218  31.210  28.793  1.00  0.00     0.010 A 
ATOM     38  C   UNL A   1      37.125  29.125  28.779  1.00  0.00     0.010 A 
ATOM     39  C   UNL A   1      38.324  29.831  28.991  1.00  0.00    -0.014 A 
BRANCH  39  40
ATOM     40  C   UNL A   1      39.645  29.279  29.529  1.00  0.00     0.031 A 
ATOM     41  C   UNL A   1      40.417  28.123  28.904  1.00  0.00     0.074 A 
ATOM     42  C   UNL A   1      40.210  29.847  30.632  1.00  0.00     0.049 A 
ATOM     43  N   UNL A   1      41.402  27.418  29.418  1.00  0.00    -0.248 NA
ATOM     44  C   UNL A   1      40.060  27.715  27.540  1.00  0.00     0.031 C 
ATOM     45  C   UNL A   1      39.681  31.001  31.370  1.00  0.00     0.029 A 
ATOM     46  N   UNL A   1      41.369  29.558  31.332  1.00  0.00    -0.354 N 
ATOM     47  C   UNL A   1      41.742  26.447  28.476  1.00  0.00     0.074 A 
ATOM     48  C   UNL A   1      40.867  26.675  27.340  1.00  0.00     0.031 C 
ATOM     49  C   UNL A   1      40.553  31.404  32.293  1.00  0.00     0.029 A 
ATOM     50  C   UNL A   1      41.565  30.378  32.428  1.00  0.00     0.049 A 
ATOM     51  H   UNL A   1      41.992  28.841  31.075  1.00  0.00     0.167 HD
ATOM     52  C   UNL A   1      42.675  25.456  28.560  1.00  0.00     0.034 A 
ATOM     53  C   UNL A   1      42.346  30.287  33.523  1.00  0.00     0.034 A 
ATOM     54  C   UNL A   1      43.577  25.260  29.683  1.00  0.00     0.049 A 
ATOM     55  C   UNL A   1      43.252  29.106  33.669  1.00  0.00     0.074 A 
ATOM     56  C   UNL A   1      44.544  24.276  29.852  1.00  0.00     0.029 A 
ATOM     57  N   UNL A   1      43.636  26.049  30.824  1.00  0.00    -0.354 N 
ATOM     58  N   UNL A   1      43.459  28.125  32.827  1.00  0.00    -0.248 NA
ATOM     59  C   UNL A   1      44.009  29.008  34.921  1.00  0.00     0.031 C 
ATOM     60  C   UNL A   1      45.117  24.418  31.121  1.00  0.00     0.029 A 
ATOM     61  C   UNL A   1      44.585  25.549  31.711  1.00  0.00     0.049 A 
ATOM     62  H   UNL A   1      43.084  26.849  30.983  1.00  0.00     0.167 HD
ATOM     63  C   UNL A   1      44.390  27.299  33.443  1.00  0.00     0.074 A 
ATOM     64  C   UNL A   1      44.721  27.912  34.713  1.00  0.00     0.031 C 
ATOM     65  C   UNL A   1      44.915  26.135  32.990  1.00  0.00     0.034 A 
BRANCH  52  66
ATOM     66  C   UNL A   1      42.733  24.422  27.448  1.00  0.00     0.023 A 
ATOM     67  C   UNL A   1      41.913  23.281  27.418  1.00  0.00     0.031 A 
ATOM     68  C   UNL A   1      43.604  24.626  26.358  1.00  0.00     0.131 A 
ATOM     69  C   UNL A   1      42.016  22.371  26.349  1.00  0.00     0.055 A 
ATOM     70  C   UNL A   1      43.648  23.758  25.264  1.00  0.00     0.041 A 
ATOM     71  F   UNL A   1      44.421  25.691  26.329  1.00  0.00    -0.206 F 
ATOM     72  C   UNL A   1      42.858  22.616  25.261  1.00  0.00     0.022 A 
BRANCH  69  73
ATOM     73  S   UNL A   1      41.122  20.793  26.451  1.00  0.00     0.124 S 
ATOM     74  O   UNL A   1      42.020  19.897  25.726  1.00  0.00    -0.237 OA
ATOM     75  O   UNL A   1      41.027  20.577  27.890  1.00  0.00    -0.237 OA
ATOM     76  O   UNL A   1      39.856  21.070  25.776  1.00  0.00    -0.744 OA
ENDBRANCH  69  73
ENDBRANCH  52  66
BRANCH  53  77
ATOM     77  C   UNL A   1      42.183  31.265  34.645  1.00  0.00     0.023 A 
ATOM     78  C   UNL A   1      42.957  32.430  34.716  1.00  0.00     0.031 A 
ATOM     79  C   UNL A   1      41.260  31.026  35.686  1.00  0.00     0.131 A 
ATOM     80  C   UNL A   1      42.819  33.292  35.816  1.00  0.00     0.055 A 
ATOM     81  C   UNL A   1      41.064  31.929  36.729  1.00  0.00     0.041 A 
ATOM     82  F   UNL A   1      40.501  29.917  35.684  1.00  0.00    -0.206 F 
ATOM     83  C   UNL A   1      41.858  33.066  36.805  1.00  0.00     0.022 A 
BRANCH  80  84
ATOM     84  S   UNL A   1      43.994  34.659  35.993  1.00  0.00     0.124 S 
ATOM     85  O   UNL A   1      45.234  34.043  35.535  1.00  0.00    -0.237 OA
ATOM     86  O   UNL A   1      43.416  35.670  35.114  1.00  0.00    -0.237 OA
ATOM     87  O   UNL A   1      43.939  34.970  37.421  1.00  0.00    -0.744 OA
ENDBRANCH  80  84
ENDBRANCH  53  77
BRANCH  65  88
ATOM     88  C   UNL A   1      45.963  25.484  33.861  1.00  0.00     0.023 A 
ATOM     89  C   UNL A   1      45.628  24.509  34.818  1.00  0.00     0.031 A 
ATOM     90  C   UNL A   1      47.304  25.899  33.783  1.00  0.00     0.131 A 
ATOM     91  C   UNL A   1      46.605  24.037  35.708  1.00  0.00     0.055 A 
ATOM     92  C   UNL A   1      48.286  25.371  34.622  1.00  0.00     0.041 A 
ATOM     93  F   UNL A   1      47.680  26.838  32.900  1.00  0.00    -0.206 F 
ATOM     94  C   UNL A   1      47.936  24.448  35.603  1.00  0.00     0.022 A 
BRANCH  91  95
ATOM     95  S   UNL A   1      46.089  22.975  37.085  1.00  0.00     0.124 S 
ATOM     96  O   UNL A   1      45.397  21.894  36.390  1.00  0.00    -0.237 OA
ATOM     97  O   UNL A   1      47.364  22.623  37.703  1.00  0.00    -0.237 OA
ATOM     98  O   UNL A   1      45.232  23.845  37.887  1.00  0.00    -0.744 OA
ENDBRANCH  91  95
ENDBRANCH  65  88
ENDBRANCH  39  40
ENDBRANCH  32  34
ENDBRANCH  31  32
ENDBRANCH  30  31
ENDBRANCH   1  30
TORSDOF 19
ENDMDL
