MODEL 1
REMARK VINA RESULT:     -17.2      0.000      0.000
REMARK SMILES O=C(OCCOC(=O)[C@@H]1CCCC[C@@H]1NS(=O)(=O)c1ccc2ccccc2c1)c1ccc(-c2c3nc(c(-c4cc(S(=O)(=O)[O-])ccc4F)c4ccc([nH]4)c(-c4cc(S(=O)(=O)[O-])ccc4F)c4nc(c(-c5cc(S(=O)(=O)[O-])ccc5F)c5ccc2[nH]5)C=C4)C=C3)cc1
REMARK SMILES IDX 4 1 3 2 2 3 1 4 29 5 30 6 91 7 31 8 90 9 32 10 33 11 34 12
REMARK SMILES IDX 84 13 35 14 89 15 83 16 85 17 36 18 88 19 82 20 81 21 37 23
REMARK SMILES IDX 69 24 49 25 68 26 50 27 53 28 67 29 86 30 51 31 52 32 66 34
REMARK SMILES IDX 87 35 54 36 38 37 39 38 47 39 40 40 46 41 48 42 45 43 41 44
REMARK SMILES IDX 42 45 43 46 44 47 70 48 71 49 79 50 72 51 78 52 80 53 77 54
REMARK SMILES IDX 73 55 74 56 75 57 76 58 55 59 56 60 64 61 57 62 63 63 65 64
REMARK SMILES IDX 62 65 58 66 59 67 60 68 61 69 5 70 6 71 7 72 8 73 9 74 10 75
REMARK SMILES IDX 14 76 11 77 13 78 12 79 15 80 16 82 17 83 18 84 19 85 20 86
REMARK SMILES IDX 28 87 21 88 27 89 22 90 26 91 23 92 25 93 24 94
REMARK H PARENT 85 22 53 33 15 81
REMARK Flexibility Score: inf
ROOT
ATOM      1  C   UNL A   1      35.761  21.145  24.326  1.00  0.00     0.275 C 
ENDROOT
BRANCH   1   2
ATOM      2  O   UNL A   1      37.291  20.171  24.567  1.00  0.00    -0.458 OA
BRANCH   2   3
ATOM      3  C   UNL A   1      38.674  20.192  25.453  1.00  0.00     0.338 C 
ATOM      4  O   UNL A   1      39.400  19.200  25.374  1.00  0.00    -0.246 OA
BRANCH   3   5
ATOM      5  C   UNL A   1      39.166  21.466  26.588  1.00  0.00     0.060 A 
ATOM      6  C   UNL A   1      38.719  23.303  26.444  1.00  0.00     0.016 A 
ATOM      7  C   UNL A   1      40.939  21.242  26.890  1.00  0.00     0.016 A 
ATOM      8  C   UNL A   1      39.876  24.618  26.373  1.00  0.00     0.010 A 
ATOM      9  C   UNL A   1      42.013  22.700  26.913  1.00  0.00     0.010 A 
ATOM     10  C   UNL A   1      41.429  24.383  26.698  1.00  0.00    -0.014 A 
BRANCH  10  11
ATOM     11  C   UNL A   1      41.956  25.823  26.923  1.00  0.00     0.031 A 
ATOM     12  C   UNL A   1      41.214  26.721  27.840  1.00  0.00     0.074 A 
ATOM     13  C   UNL A   1      43.255  26.198  26.599  1.00  0.00     0.049 A 
ATOM     14  N   UNL A   1      41.540  27.918  28.241  1.00  0.00    -0.248 NA
ATOM     15  C   UNL A   1      40.000  26.168  28.444  1.00  0.00     0.031 C 
ATOM     16  C   UNL A   1      44.267  25.324  25.984  1.00  0.00     0.029 A 
ATOM     17  N   UNL A   1      44.029  27.336  26.772  1.00  0.00    -0.354 N 
ATOM     18  C   UNL A   1      40.580  28.264  29.174  1.00  0.00     0.074 A 
ATOM     19  C   UNL A   1      39.637  27.162  29.236  1.00  0.00     0.031 C 
ATOM     20  C   UNL A   1      45.456  25.891  25.828  1.00  0.00     0.029 A 
ATOM     21  C   UNL A   1      45.326  27.250  26.247  1.00  0.00     0.049 A 
ATOM     22  H   UNL A   1      43.695  28.142  27.228  1.00  0.00     0.167 HD
ATOM     23  C   UNL A   1      40.514  29.393  29.917  1.00  0.00     0.034 A 
ATOM     24  C   UNL A   1      46.336  28.128  26.067  1.00  0.00     0.034 A 
ATOM     25  C   UNL A   1      41.457  30.478  29.797  1.00  0.00     0.049 A 
ATOM     26  C   UNL A   1      46.107  29.460  26.682  1.00  0.00     0.074 A 
ATOM     27  C   UNL A   1      41.383  31.751  30.332  1.00  0.00     0.029 A 
ATOM     28  N   UNL A   1      42.657  30.418  29.087  1.00  0.00    -0.354 N 
ATOM     29  N   UNL A   1      45.083  29.828  27.415  1.00  0.00    -0.248 NA
ATOM     30  C   UNL A   1      47.140  30.476  26.496  1.00  0.00     0.031 C 
ATOM     31  C   UNL A   1      42.498  32.475  29.896  1.00  0.00     0.029 A 
ATOM     32  C   UNL A   1      43.315  31.638  29.151  1.00  0.00     0.049 A 
ATOM     33  H   UNL A   1      42.988  29.623  28.610  1.00  0.00     0.167 HD
ATOM     34  C   UNL A   1      45.361  31.118  27.814  1.00  0.00     0.074 A 
ATOM     35  C   UNL A   1      46.663  31.450  27.257  1.00  0.00     0.031 C 
ATOM     36  C   UNL A   1      44.603  31.946  28.571  1.00  0.00     0.034 A 
BRANCH  23  37
ATOM     37  C   UNL A   1      39.295  29.512  30.790  1.00  0.00     0.023 A 
ATOM     38  C   UNL A   1      38.191  30.293  30.403  1.00  0.00     0.031 A 
ATOM     39  C   UNL A   1      39.332  29.016  32.103  1.00  0.00     0.131 A 
ATOM     40  C   UNL A   1      37.232  30.654  31.361  1.00  0.00     0.055 A 
ATOM     41  C   UNL A   1      38.324  29.302  33.024  1.00  0.00     0.041 A 
ATOM     42  F   UNL A   1      40.385  28.302  32.534  1.00  0.00    -0.206 F 
ATOM     43  C   UNL A   1      37.278  30.146  32.661  1.00  0.00     0.022 A 
BRANCH  40  44
ATOM     44  S   UNL A   1      36.050  31.970  30.951  1.00  0.00     0.124 S 
ATOM     45  O   UNL A   1      35.452  31.448  29.724  1.00  0.00    -0.237 OA
ATOM     46  O   UNL A   1      35.185  31.999  32.124  1.00  0.00    -0.237 OA
ATOM     47  O   UNL A   1      36.898  33.148  30.771  1.00  0.00    -0.744 OA
ENDBRANCH  40  44
ENDBRANCH  23  37
BRANCH  24  48
ATOM     48  C   UNL A   1      47.563  27.817  25.238  1.00  0.00     0.023 A 
ATOM     49  C   UNL A   1      47.584  27.894  23.832  1.00  0.00     0.031 A 
ATOM     50  C   UNL A   1      48.741  27.345  25.863  1.00  0.00     0.131 A 
ATOM     51  C   UNL A   1      48.717  27.459  23.108  1.00  0.00     0.055 A 
ATOM     52  C   UNL A   1      49.880  26.965  25.144  1.00  0.00     0.041 A 
ATOM     53  F   UNL A   1      48.809  27.246  27.200  1.00  0.00    -0.206 F 
ATOM     54  C   UNL A   1      49.866  27.002  23.756  1.00  0.00     0.022 A 
BRANCH  51  55
ATOM     55  S   UNL A   1      48.641  27.386  21.291  1.00  0.00     0.124 S 
ATOM     56  O   UNL A   1      47.339  27.983  21.020  1.00  0.00    -0.237 OA
ATOM     57  O   UNL A   1      49.805  28.179  20.910  1.00  0.00    -0.237 OA
ATOM     58  O   UNL A   1      48.742  25.956  21.002  1.00  0.00    -0.744 OA
ENDBRANCH  51  55
ENDBRANCH  24  48
BRANCH  36  59
ATOM     59  C   UNL A   1      45.213  33.285  28.849  1.00  0.00     0.023 A 
ATOM     60  C   UNL A   1      44.993  34.375  27.991  1.00  0.00     0.031 A 
ATOM     61  C   UNL A   1      46.077  33.450  29.942  1.00  0.00     0.131 A 
ATOM     62  C   UNL A   1      45.699  35.563  28.195  1.00  0.00     0.055 A 
ATOM     63  C   UNL A   1      46.710  34.664  30.188  1.00  0.00     0.041 A 
ATOM     64  F   UNL A   1      46.329  32.427  30.775  1.00  0.00    -0.206 F 
ATOM     65  C   UNL A   1      46.536  35.725  29.302  1.00  0.00     0.022 A 
BRANCH  62  66
ATOM     66  S   UNL A   1      45.607  36.842  26.916  1.00  0.00     0.124 S 
ATOM     67  O   UNL A   1      46.426  37.902  27.494  1.00  0.00    -0.237 OA
ATOM     68  O   UNL A   1      46.172  36.164  25.754  1.00  0.00    -0.237 OA
ATOM     69  O   UNL A   1      44.178  37.136  26.830  1.00  0.00    -0.744 OA
ENDBRANCH  62  66
ENDBRANCH  36  59
ENDBRANCH  10  11
ENDBRANCH   3   5
ENDBRANCH   2   3
ENDBRANCH   1   2
BRANCH   1  70
ATOM     70  C   UNL A   1      35.650  22.944  23.637  1.00  0.00     0.274 C 
BRANCH  70  71
ATOM     71  O   UNL A   1      34.130  24.015  23.391  1.00  0.00    -0.462 OA
BRANCH  71  72
ATOM     72  C   UNL A   1      33.548  25.339  22.538  1.00  0.00     0.310 C 
ATOM     73  O   UNL A   1      33.643  25.443  21.309  1.00  0.00    -0.252 OA
BRANCH  72  74
ATOM     74  C   UNL A   1      32.651  26.768  23.147  1.00  0.00     0.117 C 
ATOM     75  C   UNL A   1      33.685  27.887  23.275  1.00  0.00     0.017 C 
ATOM     76  C   UNL A   1      31.104  26.873  24.234  1.00  0.00     0.084 C 
ATOM     77  C   UNL A   1      33.172  29.257  23.655  1.00  0.00     0.001 C 
ATOM     78  C   UNL A   1      31.031  28.442  24.865  1.00  0.00     0.021 C 
ATOM     79  C   UNL A   1      32.273  29.330  24.863  1.00  0.00     0.002 C 
BRANCH  76  80
ATOM     80  N   UNL A   1      30.185  25.016  24.935  1.00  0.00    -0.207 NA
ATOM     81  H   UNL A   1      29.879  24.496  24.112  1.00  0.00     0.141 HD
BRANCH  80  82
ATOM     82  S   UNL A   1      31.441  23.667  26.143  1.00  0.00     0.240 S 
ATOM     83  O   UNL A   1      32.537  24.579  26.452  1.00  0.00    -0.207 OA
ATOM     84  O   UNL A   1      30.519  23.478  27.259  1.00  0.00    -0.207 OA
BRANCH  82  85
ATOM     85  C   UNL A   1      32.120  21.735  24.826  1.00  0.00     0.083 A 
ATOM     86  C   UNL A   1      32.009  21.447  23.358  1.00  0.00     0.022 A 
ATOM     87  C   UNL A   1      32.164  20.221  25.193  1.00  0.00     0.030 A 
ATOM     88  C   UNL A   1      32.152  20.128  22.631  1.00  0.00     0.010 A 
ATOM     89  C   UNL A   1      32.621  19.000  24.578  1.00  0.00    -0.017 A 
ATOM     90  C   UNL A   1      32.601  18.921  23.229  1.00  0.00    -0.018 A 
ATOM     91  C   UNL A   1      33.275  18.002  25.375  1.00  0.00     0.009 A 
ATOM     92  C   UNL A   1      33.074  17.692  22.675  1.00  0.00     0.009 A 
ATOM     93  C   UNL A   1      34.001  16.980  24.801  1.00  0.00     0.001 A 
ATOM     94  C   UNL A   1      33.825  16.773  23.448  1.00  0.00     0.001 A 
ENDBRANCH  82  85
ENDBRANCH  80  82
ENDBRANCH  76  80
ENDBRANCH  72  74
ENDBRANCH  71  72
ENDBRANCH  70  71
ENDBRANCH   1  70
TORSDOF 17
ENDMDL
MODEL 2
REMARK VINA RESULT:     -16.9      4.364     13.481
REMARK SMILES O=C(OCCOC(=O)[C@@H]1CCCC[C@@H]1NS(=O)(=O)c1ccc2ccccc2c1)c1ccc(-c2c3nc(c(-c4cc(S(=O)(=O)[O-])ccc4F)c4ccc([nH]4)c(-c4cc(S(=O)(=O)[O-])ccc4F)c4nc(c(-c5cc(S(=O)(=O)[O-])ccc5F)c5ccc2[nH]5)C=C4)C=C3)cc1
REMARK SMILES IDX 4 1 3 2 2 3 1 4 29 5 30 6 91 7 31 8 90 9 32 10 33 11 34 12
REMARK SMILES IDX 84 13 35 14 89 15 83 16 85 17 36 18 88 19 82 20 81 21 37 23
REMARK SMILES IDX 69 24 49 25 68 26 50 27 53 28 67 29 86 30 51 31 52 32 66 34
REMARK SMILES IDX 87 35 54 36 38 37 39 38 47 39 40 40 46 41 48 42 45 43 41 44
REMARK SMILES IDX 42 45 43 46 44 47 70 48 71 49 79 50 72 51 78 52 80 53 77 54
REMARK SMILES IDX 73 55 74 56 75 57 76 58 55 59 56 60 64 61 57 62 63 63 65 64
REMARK SMILES IDX 62 65 58 66 59 67 60 68 61 69 5 70 6 71 7 72 8 73 9 74 10 75
REMARK SMILES IDX 14 76 11 77 13 78 12 79 15 80 16 82 17 83 18 84 19 85 20 86
REMARK SMILES IDX 28 87 21 88 27 89 22 90 26 91 23 92 25 93 24 94
REMARK H PARENT 85 22 53 33 15 81
REMARK Flexibility Score: inf
ROOT
ATOM      1  C   UNL A   1      44.640  36.729  32.005  1.00  0.00     0.275 C 
ENDROOT
BRANCH   1   2
ATOM      2  O   UNL A   1      45.607  37.646  30.750  1.00  0.00    -0.458 OA
BRANCH   2   3
ATOM      3  C   UNL A   1      46.317  37.413  29.287  1.00  0.00     0.338 C 
ATOM      4  O   UNL A   1      46.828  38.400  28.755  1.00  0.00    -0.246 OA
BRANCH   3   5
ATOM      5  C   UNL A   1      46.326  35.898  28.362  1.00  0.00     0.060 A 
ATOM      6  C   UNL A   1      44.854  35.182  27.406  1.00  0.00     0.016 A 
ATOM      7  C   UNL A   1      47.096  34.643  29.420  1.00  0.00     0.016 A 
ATOM      8  C   UNL A   1      44.163  33.591  27.664  1.00  0.00     0.010 A 
ATOM      9  C   UNL A   1      46.352  32.995  29.505  1.00  0.00     0.010 A 
ATOM     10  C   UNL A   1      44.906  32.494  28.569  1.00  0.00    -0.014 A 
BRANCH  10  11
ATOM     11  C   UNL A   1      44.186  31.179  28.176  1.00  0.00     0.031 A 
ATOM     12  C   UNL A   1      44.934  30.155  27.409  1.00  0.00     0.074 A 
ATOM     13  C   UNL A   1      43.014  30.761  28.796  1.00  0.00     0.049 A 
ATOM     14  N   UNL A   1      44.552  28.955  27.073  1.00  0.00    -0.248 NA
ATOM     15  C   UNL A   1      46.313  30.495  27.051  1.00  0.00     0.031 C 
ATOM     16  C   UNL A   1      42.296  31.497  29.848  1.00  0.00     0.029 A 
ATOM     17  N   UNL A   1      42.218  29.625  28.746  1.00  0.00    -0.354 N 
ATOM     18  C   UNL A   1      45.656  28.373  26.478  1.00  0.00     0.074 A 
ATOM     19  C   UNL A   1      46.703  29.378  26.462  1.00  0.00     0.031 C 
ATOM     20  C   UNL A   1      41.233  30.865  30.330  1.00  0.00     0.029 A 
ATOM     21  C   UNL A   1      41.085  29.665  29.571  1.00  0.00     0.049 A 
ATOM     22  H   UNL A   1      42.433  28.851  28.177  1.00  0.00     0.167 HD
ATOM     23  C   UNL A   1      45.777  27.109  26.010  1.00  0.00     0.034 A 
ATOM     24  C   UNL A   1      40.001  28.876  29.729  1.00  0.00     0.034 A 
ATOM     25  C   UNL A   1      44.696  26.153  26.017  1.00  0.00     0.049 A 
ATOM     26  C   UNL A   1      40.058  27.596  28.978  1.00  0.00     0.074 A 
ATOM     27  C   UNL A   1      44.625  24.925  25.388  1.00  0.00     0.029 A 
ATOM     28  N   UNL A   1      43.486  26.321  26.693  1.00  0.00    -0.354 N 
ATOM     29  N   UNL A   1      41.057  27.146  28.257  1.00  0.00    -0.248 NA
ATOM     30  C   UNL A   1      38.903  26.708  29.070  1.00  0.00     0.031 C 
ATOM     31  C   UNL A   1      43.357  24.382  25.628  1.00  0.00     0.029 A 
ATOM     32  C   UNL A   1      42.657  25.230  26.473  1.00  0.00     0.049 A 
ATOM     33  H   UNL A   1      43.255  27.102  27.246  1.00  0.00     0.167 HD
ATOM     34  C   UNL A   1      40.667  25.895  27.830  1.00  0.00     0.074 A 
ATOM     35  C   UNL A   1      39.350  25.657  28.399  1.00  0.00     0.031 C 
ATOM     36  C   UNL A   1      41.343  25.028  27.038  1.00  0.00     0.034 A 
BRANCH  23  37
ATOM     37  C   UNL A   1      47.087  26.800  25.341  1.00  0.00     0.023 A 
ATOM     38  C   UNL A   1      48.115  26.120  26.021  1.00  0.00     0.031 A 
ATOM     39  C   UNL A   1      47.382  27.376  24.094  1.00  0.00     0.131 A 
ATOM     40  C   UNL A   1      49.418  26.143  25.503  1.00  0.00     0.055 A 
ATOM     41  C   UNL A   1      48.660  27.312  23.540  1.00  0.00     0.041 A 
ATOM     42  F   UNL A   1      46.448  28.071  23.426  1.00  0.00    -0.206 F 
ATOM     43  C   UNL A   1      49.693  26.714  24.257  1.00  0.00     0.022 A 
BRANCH  40  44
ATOM     44  S   UNL A   1      50.786  25.617  26.573  1.00  0.00     0.124 S 
ATOM     45  O   UNL A   1      50.982  26.808  27.397  1.00  0.00    -0.237 OA
ATOM     46  O   UNL A   1      50.230  24.453  27.253  1.00  0.00    -0.237 OA
ATOM     47  O   UNL A   1      51.868  25.334  25.632  1.00  0.00    -0.744 OA
ENDBRANCH  40  44
ENDBRANCH  23  37
BRANCH  24  48
ATOM     48  C   UNL A   1      38.788  29.292  30.533  1.00  0.00     0.023 A 
ATOM     49  C   UNL A   1      37.867  30.262  30.094  1.00  0.00     0.031 A 
ATOM     50  C   UNL A   1      38.580  28.762  31.828  1.00  0.00     0.131 A 
ATOM     51  C   UNL A   1      36.832  30.705  30.948  1.00  0.00     0.055 A 
ATOM     52  C   UNL A   1      37.522  29.167  32.651  1.00  0.00     0.041 A 
ATOM     53  F   UNL A   1      39.408  27.828  32.323  1.00  0.00    -0.206 F 
ATOM     54  C   UNL A   1      36.652  30.159  32.220  1.00  0.00     0.022 A 
BRANCH  51  55
ATOM     55  S   UNL A   1      35.780  32.096  30.429  1.00  0.00     0.124 S 
ATOM     56  O   UNL A   1      36.758  33.164  30.256  1.00  0.00    -0.237 OA
ATOM     57  O   UNL A   1      35.173  31.575  29.209  1.00  0.00    -0.237 OA
ATOM     58  O   UNL A   1      34.862  32.269  31.554  1.00  0.00    -0.744 OA
ENDBRANCH  51  55
ENDBRANCH  24  48
BRANCH  36  59
ATOM     59  C   UNL A   1      40.645  23.728  26.783  1.00  0.00     0.023 A 
ATOM     60  C   UNL A   1      39.436  23.679  26.072  1.00  0.00     0.031 A 
ATOM     61  C   UNL A   1      41.161  22.538  27.321  1.00  0.00     0.131 A 
ATOM     62  C   UNL A   1      38.736  22.473  25.986  1.00  0.00     0.055 A 
ATOM     63  C   UNL A   1      40.501  21.324  27.157  1.00  0.00     0.041 A 
ATOM     64  F   UNL A   1      42.304  22.544  28.025  1.00  0.00    -0.206 F 
ATOM     65  C   UNL A   1      39.271  21.290  26.501  1.00  0.00     0.022 A 
BRANCH  62  66
ATOM     66  S   UNL A   1      37.056  22.506  25.311  1.00  0.00     0.124 S 
ATOM     67  O   UNL A   1      37.300  22.890  23.924  1.00  0.00    -0.237 OA
ATOM     68  O   UNL A   1      36.607  21.134  25.521  1.00  0.00    -0.237 OA
ATOM     69  O   UNL A   1      36.381  23.513  26.126  1.00  0.00    -0.744 OA
ENDBRANCH  62  66
ENDBRANCH  36  59
ENDBRANCH  10  11
ENDBRANCH   3   5
ENDBRANCH   2   3
ENDBRANCH   1   2
BRANCH   1  70
ATOM     70  C   UNL A   1      44.044  34.899  31.873  1.00  0.00     0.274 C 
BRANCH  70  71
ATOM     71  O   UNL A   1      42.803  33.988  32.945  1.00  0.00    -0.462 OA
BRANCH  71  72
ATOM     72  C   UNL A   1      42.355  32.457  33.469  1.00  0.00     0.310 C 
ATOM     73  O   UNL A   1      43.164  31.533  33.619  1.00  0.00    -0.252 OA
BRANCH  72  74
ATOM     74  C   UNL A   1      40.739  31.866  33.974  1.00  0.00     0.117 C 
ATOM     75  C   UNL A   1      39.756  32.982  33.615  1.00  0.00     0.017 C 
ATOM     76  C   UNL A   1      40.246  30.674  35.359  1.00  0.00     0.084 C 
ATOM     77  C   UNL A   1      38.286  32.695  33.821  1.00  0.00     0.001 C 
ATOM     78  C   UNL A   1      38.594  30.892  35.656  1.00  0.00     0.021 C 
ATOM     79  C   UNL A   1      37.887  32.155  35.170  1.00  0.00     0.002 C 
BRANCH  76  80
ATOM     80  N   UNL A   1      41.817  29.829  36.626  1.00  0.00    -0.207 NA
ATOM     81  H   UNL A   1      41.489  29.874  37.591  1.00  0.00     0.141 HD
BRANCH  80  82
ATOM     82  S   UNL A   1      42.421  27.748  36.225  1.00  0.00     0.240 S 
ATOM     83  O   UNL A   1      43.433  27.591  37.263  1.00  0.00    -0.207 OA
ATOM     84  O   UNL A   1      41.153  27.103  36.557  1.00  0.00    -0.207 OA
BRANCH  82  85
ATOM     85  C   UNL A   1      43.300  27.542  33.964  1.00  0.00     0.083 A 
ATOM     86  C   UNL A   1      42.687  27.848  32.630  1.00  0.00     0.022 A 
ATOM     87  C   UNL A   1      44.291  26.508  33.351  1.00  0.00     0.030 A 
ATOM     88  C   UNL A   1      43.138  27.419  31.251  1.00  0.00     0.010 A 
ATOM     89  C   UNL A   1      44.969  26.314  32.093  1.00  0.00    -0.017 A 
ATOM     90  C   UNL A   1      44.367  26.766  30.971  1.00  0.00    -0.018 A 
ATOM     91  C   UNL A   1      46.328  25.855  32.079  1.00  0.00     0.009 A 
ATOM     92  C   UNL A   1      45.088  26.555  29.755  1.00  0.00     0.009 A 
ATOM     93  C   UNL A   1      47.113  25.954  30.950  1.00  0.00     0.001 A 
ATOM     94  C   UNL A   1      46.465  26.222  29.761  1.00  0.00     0.001 A 
ENDBRANCH  82  85
ENDBRANCH  80  82
ENDBRANCH  76  80
ENDBRANCH  72  74
ENDBRANCH  71  72
ENDBRANCH  70  71
ENDBRANCH   1  70
TORSDOF 17
ENDMDL
MODEL 3
REMARK VINA RESULT:     -16.8      0.884      7.484
REMARK SMILES O=C(OCCOC(=O)[C@@H]1CCCC[C@@H]1NS(=O)(=O)c1ccc2ccccc2c1)c1ccc(-c2c3nc(c(-c4cc(S(=O)(=O)[O-])ccc4F)c4ccc([nH]4)c(-c4cc(S(=O)(=O)[O-])ccc4F)c4nc(c(-c5cc(S(=O)(=O)[O-])ccc5F)c5ccc2[nH]5)C=C4)C=C3)cc1
REMARK SMILES IDX 4 1 3 2 2 3 1 4 29 5 30 6 91 7 31 8 90 9 32 10 33 11 34 12
REMARK SMILES IDX 84 13 35 14 89 15 83 16 85 17 36 18 88 19 82 20 81 21 37 23
REMARK SMILES IDX 69 24 49 25 68 26 50 27 53 28 67 29 86 30 51 31 52 32 66 34
REMARK SMILES IDX 87 35 54 36 38 37 39 38 47 39 40 40 46 41 48 42 45 43 41 44
REMARK SMILES IDX 42 45 43 46 44 47 70 48 71 49 79 50 72 51 78 52 80 53 77 54
REMARK SMILES IDX 73 55 74 56 75 57 76 58 55 59 56 60 64 61 57 62 63 63 65 64
REMARK SMILES IDX 62 65 58 66 59 67 60 68 61 69 5 70 6 71 7 72 8 73 9 74 10 75
REMARK SMILES IDX 14 76 11 77 13 78 12 79 15 80 16 82 17 83 18 84 19 85 20 86
REMARK SMILES IDX 28 87 21 88 27 89 22 90 26 91 23 92 25 93 24 94
REMARK H PARENT 85 22 53 33 15 81
REMARK Flexibility Score: inf
ROOT
ATOM      1  C   UNL A   1      36.328  21.369  24.501  1.00  0.00     0.275 C 
ENDROOT
BRANCH   1   2
ATOM      2  O   UNL A   1      37.961  20.551  24.614  1.00  0.00    -0.458 OA
BRANCH   2   3
ATOM      3  C   UNL A   1      39.222  20.389  25.655  1.00  0.00     0.338 C 
ATOM      4  O   UNL A   1      39.908  19.372  25.542  1.00  0.00    -0.246 OA
BRANCH   3   5
ATOM      5  C   UNL A   1      39.623  21.492  26.987  1.00  0.00     0.060 A 
ATOM      6  C   UNL A   1      39.170  23.332  27.068  1.00  0.00     0.016 A 
ATOM      7  C   UNL A   1      41.373  21.228  27.378  1.00  0.00     0.016 A 
ATOM      8  C   UNL A   1      40.318  24.643  27.261  1.00  0.00     0.010 A 
ATOM      9  C   UNL A   1      42.429  22.667  27.678  1.00  0.00     0.010 A 
ATOM     10  C   UNL A   1      41.847  24.364  27.657  1.00  0.00    -0.014 A 
BRANCH  10  11
ATOM     11  C   UNL A   1      42.344  25.759  28.117  1.00  0.00     0.031 A 
ATOM     12  C   UNL A   1      43.689  26.215  27.690  1.00  0.00     0.074 A 
ATOM     13  C   UNL A   1      41.478  26.733  28.598  1.00  0.00     0.049 A 
ATOM     14  N   UNL A   1      44.247  27.378  27.879  1.00  0.00    -0.248 NA
ATOM     15  C   UNL A   1      44.463  25.273  26.879  1.00  0.00     0.031 C 
ATOM     16  C   UNL A   1      40.025  26.575  28.771  1.00  0.00     0.029 A 
ATOM     17  N   UNL A   1      41.596  28.065  28.973  1.00  0.00    -0.354 N 
ATOM     18  C   UNL A   1      45.442  27.326  27.186  1.00  0.00     0.074 A 
ATOM     19  C   UNL A   1      45.540  25.995  26.615  1.00  0.00     0.031 C 
ATOM     20  C   UNL A   1      39.402  27.669  29.189  1.00  0.00     0.029 A 
ATOM     21  C   UNL A   1      40.408  28.655  29.426  1.00  0.00     0.049 A 
ATOM     22  H   UNL A   1      42.447  28.557  28.923  1.00  0.00     0.167 HD
ATOM     23  C   UNL A   1      46.355  28.313  27.031  1.00  0.00     0.034 A 
ATOM     24  C   UNL A   1      40.096  29.836  30.001  1.00  0.00     0.034 A 
ATOM     25  C   UNL A   1      46.231  29.612  27.646  1.00  0.00     0.049 A 
ATOM     26  C   UNL A   1      41.217  30.809  30.050  1.00  0.00     0.074 A 
ATOM     27  C   UNL A   1      47.176  30.616  27.742  1.00  0.00     0.029 A 
ATOM     28  N   UNL A   1      45.081  30.091  28.274  1.00  0.00    -0.354 N 
ATOM     29  N   UNL A   1      42.417  30.660  29.543  1.00  0.00    -0.248 NA
ATOM     30  C   UNL A   1      40.965  32.096  30.693  1.00  0.00     0.031 C 
ATOM     31  C   UNL A   1      46.623  31.670  28.479  1.00  0.00     0.029 A 
ATOM     32  C   UNL A   1      45.304  31.364  28.780  1.00  0.00     0.049 A 
ATOM     33  H   UNL A   1      44.233  29.597  28.347  1.00  0.00     0.167 HD
ATOM     34  C   UNL A   1      43.065  31.854  29.775  1.00  0.00     0.074 A 
ATOM     35  C   UNL A   1      42.108  32.719  30.446  1.00  0.00     0.031 C 
ATOM     36  C   UNL A   1      44.337  32.195  29.460  1.00  0.00     0.034 A 
BRANCH  23  37
ATOM     37  C   UNL A   1      47.599  27.918  26.284  1.00  0.00     0.023 A 
ATOM     38  C   UNL A   1      47.732  28.160  24.904  1.00  0.00     0.031 A 
ATOM     39  C   UNL A   1      48.558  27.108  26.913  1.00  0.00     0.131 A 
ATOM     40  C   UNL A   1      48.732  27.495  24.180  1.00  0.00     0.055 A 
ATOM     41  C   UNL A   1      49.607  26.526  26.201  1.00  0.00     0.041 A 
ATOM     42  F   UNL A   1      48.451  26.812  28.218  1.00  0.00    -0.206 F 
ATOM     43  C   UNL A   1      49.684  26.698  24.822  1.00  0.00     0.022 A 
BRANCH  40  44
ATOM     44  S   UNL A   1      48.642  27.504  22.367  1.00  0.00     0.124 S 
ATOM     45  O   UNL A   1      49.852  28.247  22.022  1.00  0.00    -0.237 OA
ATOM     46  O   UNL A   1      48.648  26.083  22.040  1.00  0.00    -0.237 OA
ATOM     47  O   UNL A   1      47.388  28.203  22.090  1.00  0.00    -0.744 OA
ENDBRANCH  40  44
ENDBRANCH  23  37
BRANCH  24  48
ATOM     48  C   UNL A   1      38.746  30.120  30.622  1.00  0.00     0.023 A 
ATOM     49  C   UNL A   1      37.721  30.818  29.954  1.00  0.00     0.031 A 
ATOM     50  C   UNL A   1      38.491  29.755  31.964  1.00  0.00     0.131 A 
ATOM     51  C   UNL A   1      36.535  31.172  30.636  1.00  0.00     0.055 A 
ATOM     52  C   UNL A   1      37.292  30.062  32.619  1.00  0.00     0.041 A 
ATOM     53  F   UNL A   1      39.412  29.082  32.673  1.00  0.00    -0.206 F 
ATOM     54  C   UNL A   1      36.313  30.793  31.961  1.00  0.00     0.022 A 
BRANCH  51  55
ATOM     55  S   UNL A   1      35.315  32.241  29.809  1.00  0.00     0.124 S 
ATOM     56  O   UNL A   1      34.817  31.368  28.754  1.00  0.00    -0.237 OA
ATOM     57  O   UNL A   1      34.387  32.533  30.896  1.00  0.00    -0.237 OA
ATOM     58  O   UNL A   1      36.112  33.378  29.352  1.00  0.00    -0.744 OA
ENDBRANCH  51  55
ENDBRANCH  24  48
BRANCH  36  59
ATOM     59  C   UNL A   1      44.727  33.594  29.828  1.00  0.00     0.023 A 
ATOM     60  C   UNL A   1      44.587  34.650  28.915  1.00  0.00     0.031 A 
ATOM     61  C   UNL A   1      45.309  33.855  31.078  1.00  0.00     0.131 A 
ATOM     62  C   UNL A   1      45.101  35.909  29.235  1.00  0.00     0.055 A 
ATOM     63  C   UNL A   1      45.741  35.131  31.424  1.00  0.00     0.041 A 
ATOM     64  F   UNL A   1      45.480  32.867  31.973  1.00  0.00    -0.206 F 
ATOM     65  C   UNL A   1      45.654  36.164  30.492  1.00  0.00     0.022 A 
BRANCH  62  66
ATOM     66  S   UNL A   1      45.157  37.167  27.933  1.00  0.00     0.124 S 
ATOM     67  O   UNL A   1      45.505  36.368  26.762  1.00  0.00    -0.237 OA
ATOM     68  O   UNL A   1      43.800  37.703  27.957  1.00  0.00    -0.237 OA
ATOM     69  O   UNL A   1      46.197  38.085  28.391  1.00  0.00    -0.744 OA
ENDBRANCH  62  66
ENDBRANCH  36  59
ENDBRANCH  10  11
ENDBRANCH   3   5
ENDBRANCH   2   3
ENDBRANCH   1   2
BRANCH   1  70
ATOM     70  C   UNL A   1      35.893  22.904  23.415  1.00  0.00     0.274 C 
BRANCH  70  71
ATOM     71  O   UNL A   1      34.269  23.834  23.295  1.00  0.00    -0.462 OA
BRANCH  71  72
ATOM     72  C   UNL A   1      33.452  24.992  22.394  1.00  0.00     0.310 C 
ATOM     73  O   UNL A   1      33.287  24.900  21.171  1.00  0.00    -0.252 OA
BRANCH  72  74
ATOM     74  C   UNL A   1      32.621  26.478  22.956  1.00  0.00     0.117 C 
ATOM     75  C   UNL A   1      33.685  27.577  22.955  1.00  0.00     0.017 C 
ATOM     76  C   UNL A   1      31.139  26.692  24.114  1.00  0.00     0.084 C 
ATOM     77  C   UNL A   1      33.223  28.980  23.273  1.00  0.00     0.001 C 
ATOM     78  C   UNL A   1      31.134  28.299  24.645  1.00  0.00     0.021 C 
ATOM     79  C   UNL A   1      32.394  29.153  24.519  1.00  0.00     0.002 C 
BRANCH  76  80
ATOM     80  N   UNL A   1      30.219  24.906  24.982  1.00  0.00    -0.207 NA
ATOM     81  H   UNL A   1      29.836  24.356  24.214  1.00  0.00     0.141 HD
BRANCH  80  82
ATOM     82  S   UNL A   1      31.522  23.580  26.166  1.00  0.00     0.240 S 
ATOM     83  O   UNL A   1      32.619  24.503  26.432  1.00  0.00    -0.207 OA
ATOM     84  O   UNL A   1      30.634  23.397  27.311  1.00  0.00    -0.207 OA
BRANCH  82  85
ATOM     85  C   UNL A   1      32.176  21.639  24.850  1.00  0.00     0.083 A 
ATOM     86  C   UNL A   1      32.071  21.357  23.380  1.00  0.00     0.022 A 
ATOM     87  C   UNL A   1      32.188  20.124  25.213  1.00  0.00     0.030 A 
ATOM     88  C   UNL A   1      32.195  20.037  22.651  1.00  0.00     0.010 A 
ATOM     89  C   UNL A   1      32.628  18.896  24.599  1.00  0.00    -0.017 A 
ATOM     90  C   UNL A   1      32.617  18.821  23.249  1.00  0.00    -0.018 A 
ATOM     91  C   UNL A   1      33.258  17.885  25.398  1.00  0.00     0.009 A 
ATOM     92  C   UNL A   1      33.072  17.584  22.696  1.00  0.00     0.009 A 
ATOM     93  C   UNL A   1      33.970  16.851  24.828  1.00  0.00     0.001 A 
ATOM     94  C   UNL A   1      33.801  16.651  23.472  1.00  0.00     0.001 A 
ENDBRANCH  82  85
ENDBRANCH  80  82
ENDBRANCH  76  80
ENDBRANCH  72  74
ENDBRANCH  71  72
ENDBRANCH  70  71
ENDBRANCH   1  70
TORSDOF 17
ENDMDL
