MODEL 1
REMARK VINA RESULT:     -11.0      0.000      0.000
REMARK SMILES O=C(OCCOC(=O)c1cc(-c2cccc(Cl)c2)ccc1Cl)c1ccc(-c2c3nc(c(-c4cc(S(=O)(=O)[O-])ccc4F)c4ccc([nH]4)c(-c4cc(S(=O)(=O)[O-])ccc4F)c4nc(c(-c5cc(S(=O)(=O)[O-])ccc5F)c5ccc2[nH]5)C=C4)C=C3)cc1
REMARK SMILES IDX 4 1 3 2 2 3 1 4 23 5 24 6 85 7 25 8 84 9 26 10 27 11 28 12
REMARK SMILES IDX 78 13 29 14 83 15 77 16 79 17 30 18 82 19 76 20 75 21 31 23
REMARK SMILES IDX 63 24 43 25 62 26 44 27 47 28 61 29 80 30 45 31 46 32 60 34
REMARK SMILES IDX 81 35 48 36 32 37 33 38 41 39 34 40 40 41 42 42 39 43 35 44
REMARK SMILES IDX 36 45 37 46 38 47 64 48 65 49 73 50 66 51 72 52 74 53 71 54
REMARK SMILES IDX 67 55 68 56 69 57 70 58 49 59 50 60 58 61 51 62 57 63 59 64
REMARK SMILES IDX 56 65 52 66 53 67 54 68 55 69 5 70 6 71 7 72 8 73 9 74 10 75
REMARK SMILES IDX 21 76 11 77 20 78 22 79 19 80 12 81 13 82 18 83 14 84 16 85
REMARK SMILES IDX 15 86 17 87
REMARK H PARENT 79 22 47 33
REMARK Flexibility Score: inf
ROOT
ATOM      1  C   UNL A   1      40.872  19.820  26.351  1.00  0.00     0.275 C 
ENDROOT
BRANCH   1   2
ATOM      2  O   UNL A   1      40.297  20.924  27.065  1.00  0.00    -0.458 OA
BRANCH   2   3
ATOM      3  C   UNL A   1      39.558  21.961  26.609  1.00  0.00     0.338 C 
ATOM      4  O   UNL A   1      38.629  21.708  25.840  1.00  0.00    -0.246 OA
BRANCH   3   5
ATOM      5  C   UNL A   1      39.866  23.409  26.872  1.00  0.00     0.060 A 
ATOM      6  C   UNL A   1      39.456  24.514  26.125  1.00  0.00     0.016 A 
ATOM      7  C   UNL A   1      40.642  23.661  28.015  1.00  0.00     0.016 A 
ATOM      8  C   UNL A   1      39.736  25.820  26.545  1.00  0.00     0.010 A 
ATOM      9  C   UNL A   1      40.898  24.959  28.463  1.00  0.00     0.010 A 
ATOM     10  C   UNL A   1      40.448  26.054  27.721  1.00  0.00    -0.014 A 
BRANCH  10  11
ATOM     11  C   UNL A   1      40.864  27.430  28.079  1.00  0.00     0.031 A 
ATOM     12  C   UNL A   1      42.309  27.795  27.913  1.00  0.00     0.074 A 
ATOM     13  C   UNL A   1      39.966  28.340  28.504  1.00  0.00     0.049 A 
ATOM     14  N   UNL A   1      42.905  28.935  28.141  1.00  0.00    -0.248 NA
ATOM     15  C   UNL A   1      43.198  26.739  27.403  1.00  0.00     0.031 C 
ATOM     16  C   UNL A   1      38.528  28.111  28.614  1.00  0.00     0.029 A 
ATOM     17  N   UNL A   1      40.123  29.633  28.930  1.00  0.00    -0.354 N 
ATOM     18  C   UNL A   1      44.228  28.743  27.760  1.00  0.00     0.074 A 
ATOM     19  C   UNL A   1      44.367  27.356  27.381  1.00  0.00     0.031 C 
ATOM     20  C   UNL A   1      37.939  29.201  29.133  1.00  0.00     0.029 A 
ATOM     21  C   UNL A   1      38.959  30.212  29.385  1.00  0.00     0.049 A 
ATOM     22  H   UNL A   1      40.987  30.105  28.913  1.00  0.00     0.167 HD
ATOM     23  C   UNL A   1      45.224  29.658  27.690  1.00  0.00     0.034 A 
ATOM     24  C   UNL A   1      38.746  31.420  29.945  1.00  0.00     0.034 A 
ATOM     25  C   UNL A   1      45.066  31.026  28.109  1.00  0.00     0.049 A 
ATOM     26  C   UNL A   1      39.910  32.378  30.012  1.00  0.00     0.074 A 
ATOM     27  C   UNL A   1      46.001  32.043  28.111  1.00  0.00     0.029 A 
ATOM     28  N   UNL A   1      43.890  31.562  28.623  1.00  0.00    -0.354 N 
ATOM     29  N   UNL A   1      41.149  32.196  29.612  1.00  0.00    -0.248 NA
ATOM     30  C   UNL A   1      39.644  33.712  30.559  1.00  0.00     0.031 C 
ATOM     31  C   UNL A   1      45.411  33.173  28.690  1.00  0.00     0.029 A 
ATOM     32  C   UNL A   1      44.085  32.886  28.978  1.00  0.00     0.049 A 
ATOM     33  H   UNL A   1      43.042  31.071  28.721  1.00  0.00     0.167 HD
ATOM     34  C   UNL A   1      41.793  33.413  29.803  1.00  0.00     0.074 A 
ATOM     35  C   UNL A   1      40.805  34.318  30.359  1.00  0.00     0.031 C 
ATOM     36  C   UNL A   1      43.077  33.762  29.528  1.00  0.00     0.034 A 
BRANCH  23  37
ATOM     37  C   UNL A   1      46.555  29.170  27.179  1.00  0.00     0.023 A 
ATOM     38  C   UNL A   1      46.730  28.795  25.833  1.00  0.00     0.031 A 
ATOM     39  C   UNL A   1      47.635  28.993  28.059  1.00  0.00     0.131 A 
ATOM     40  C   UNL A   1      47.923  28.180  25.426  1.00  0.00     0.055 A 
ATOM     41  C   UNL A   1      48.850  28.456  27.629  1.00  0.00     0.041 A 
ATOM     42  F   UNL A   1      47.518  29.306  29.358  1.00  0.00    -0.206 F 
ATOM     43  C   UNL A   1      48.993  28.028  26.310  1.00  0.00     0.022 A 
BRANCH  40  44
ATOM     44  S   UNL A   1      47.996  27.436  23.773  1.00  0.00     0.124 S 
ATOM     45  O   UNL A   1      46.997  28.222  23.052  1.00  0.00    -0.237 OA
ATOM     46  O   UNL A   1      49.384  27.661  23.386  1.00  0.00    -0.237 OA
ATOM     47  O   UNL A   1      47.632  26.041  24.008  1.00  0.00    -0.744 OA
ENDBRANCH  40  44
ENDBRANCH  23  37
BRANCH  24  48
ATOM     48  C   UNL A   1      37.405  31.793  30.484  1.00  0.00     0.023 A 
ATOM     49  C   UNL A   1      36.473  32.508  29.715  1.00  0.00     0.031 A 
ATOM     50  C   UNL A   1      37.059  31.489  31.816  1.00  0.00     0.131 A 
ATOM     51  C   UNL A   1      35.270  32.945  30.296  1.00  0.00     0.055 A 
ATOM     52  C   UNL A   1      35.841  31.887  32.375  1.00  0.00     0.041 A 
ATOM     53  F   UNL A   1      37.906  30.799  32.597  1.00  0.00    -0.206 F 
ATOM     54  C   UNL A   1      34.945  32.634  31.617  1.00  0.00     0.022 A 
BRANCH  51  55
ATOM     55  S   UNL A   1      34.172  34.014  29.322  1.00  0.00     0.124 S 
ATOM     56  O   UNL A   1      35.113  34.979  28.766  1.00  0.00    -0.237 OA
ATOM     57  O   UNL A   1      33.589  33.066  28.378  1.00  0.00    -0.237 OA
ATOM     58  O   UNL A   1      33.246  34.547  30.319  1.00  0.00    -0.744 OA
ENDBRANCH  51  55
ENDBRANCH  24  48
BRANCH  36  59
ATOM     59  C   UNL A   1      43.457  35.200  29.770  1.00  0.00     0.023 A 
ATOM     60  C   UNL A   1      43.227  36.198  28.809  1.00  0.00     0.031 A 
ATOM     61  C   UNL A   1      44.061  35.571  30.984  1.00  0.00     0.131 A 
ATOM     62  C   UNL A   1      43.652  37.510  29.056  1.00  0.00     0.055 A 
ATOM     63  C   UNL A   1      44.419  36.892  31.251  1.00  0.00     0.041 A 
ATOM     64  F   UNL A   1      44.305  34.654  31.935  1.00  0.00    -0.206 F 
ATOM     65  C   UNL A   1      44.228  37.868  30.277  1.00  0.00     0.022 A 
BRANCH  62  66
ATOM     66  S   UNL A   1      43.529  38.725  27.716  1.00  0.00     0.124 S 
ATOM     67  O   UNL A   1      43.195  39.945  28.445  1.00  0.00    -0.237 OA
ATOM     68  O   UNL A   1      44.864  38.679  27.128  1.00  0.00    -0.237 OA
ATOM     69  O   UNL A   1      42.461  38.195  26.871  1.00  0.00    -0.744 OA
ENDBRANCH  62  66
ENDBRANCH  36  59
ENDBRANCH  10  11
ENDBRANCH   3   5
ENDBRANCH   2   3
ENDBRANCH   1   2
BRANCH   1  70
ATOM     70  C   UNL A   1      42.378  19.939  26.112  1.00  0.00     0.275 C 
BRANCH  70  71
ATOM     71  O   UNL A   1      42.961  21.103  26.715  1.00  0.00    -0.458 OA
BRANCH  71  72
ATOM     72  C   UNL A   1      43.426  22.056  25.866  1.00  0.00     0.339 C 
ATOM     73  O   UNL A   1      43.024  22.290  24.738  1.00  0.00    -0.246 OA
BRANCH  72  74
ATOM     74  C   UNL A   1      44.443  22.878  26.551  1.00  0.00     0.079 A 
ATOM     75  C   UNL A   1      44.209  23.239  27.895  1.00  0.00     0.026 A 
ATOM     76  C   UNL A   1      45.596  23.318  25.899  1.00  0.00     0.055 A 
ATOM     77  C   UNL A   1      45.154  23.989  28.616  1.00  0.00    -0.017 A 
ATOM     78  C   UNL A   1      46.545  24.055  26.610  1.00  0.00     0.022 A 
ATOM     79  Cl  UNL A   1      45.890  23.036  24.220  1.00  0.00    -0.083 Cl
ATOM     80  C   UNL A   1      46.335  24.365  27.957  1.00  0.00     0.010 A 
BRANCH  77  81
ATOM     81  C   UNL A   1      44.927  24.416  30.008  1.00  0.00    -0.017 A 
ATOM     82  C   UNL A   1      45.372  25.677  30.437  1.00  0.00     0.009 A 
ATOM     83  C   UNL A   1      44.309  23.589  30.957  1.00  0.00     0.029 A 
ATOM     84  C   UNL A   1      45.212  26.095  31.762  1.00  0.00     0.002 A 
ATOM     85  C   UNL A   1      44.151  24.004  32.281  1.00  0.00     0.041 A 
ATOM     86  C   UNL A   1      44.600  25.254  32.688  1.00  0.00     0.020 A 
ATOM     87  Cl  UNL A   1      43.404  22.953  33.422  1.00  0.00    -0.084 Cl
ENDBRANCH  77  81
ENDBRANCH  72  74
ENDBRANCH  71  72
ENDBRANCH  70  71
ENDBRANCH   1  70
TORSDOF 15
ENDMDL
MODEL 2
REMARK VINA RESULT:     -10.6      4.701     11.962
REMARK SMILES O=C(OCCOC(=O)c1cc(-c2cccc(Cl)c2)ccc1Cl)c1ccc(-c2c3nc(c(-c4cc(S(=O)(=O)[O-])ccc4F)c4ccc([nH]4)c(-c4cc(S(=O)(=O)[O-])ccc4F)c4nc(c(-c5cc(S(=O)(=O)[O-])ccc5F)c5ccc2[nH]5)C=C4)C=C3)cc1
REMARK SMILES IDX 4 1 3 2 2 3 1 4 23 5 24 6 85 7 25 8 84 9 26 10 27 11 28 12
REMARK SMILES IDX 78 13 29 14 83 15 77 16 79 17 30 18 82 19 76 20 75 21 31 23
REMARK SMILES IDX 63 24 43 25 62 26 44 27 47 28 61 29 80 30 45 31 46 32 60 34
REMARK SMILES IDX 81 35 48 36 32 37 33 38 41 39 34 40 40 41 42 42 39 43 35 44
REMARK SMILES IDX 36 45 37 46 38 47 64 48 65 49 73 50 66 51 72 52 74 53 71 54
REMARK SMILES IDX 67 55 68 56 69 57 70 58 49 59 50 60 58 61 51 62 57 63 59 64
REMARK SMILES IDX 56 65 52 66 53 67 54 68 55 69 5 70 6 71 7 72 8 73 9 74 10 75
REMARK SMILES IDX 21 76 11 77 20 78 22 79 19 80 12 81 13 82 18 83 14 84 16 85
REMARK SMILES IDX 15 86 17 87
REMARK H PARENT 79 22 47 33
REMARK Flexibility Score: inf
ROOT
ATOM      1  C   UNL A   1      34.459  34.131  28.000  1.00  0.00     0.275 C 
ENDROOT
BRANCH   1   2
ATOM      2  O   UNL A   1      34.080  32.952  27.276  1.00  0.00    -0.458 OA
BRANCH   2   3
ATOM      3  C   UNL A   1      34.349  31.652  27.534  1.00  0.00     0.338 C 
ATOM      4  O   UNL A   1      33.432  30.839  27.400  1.00  0.00    -0.246 OA
BRANCH   3   5
ATOM      5  C   UNL A   1      35.649  31.145  28.094  1.00  0.00     0.060 A 
ATOM      6  C   UNL A   1      36.895  31.772  28.050  1.00  0.00     0.016 A 
ATOM      7  C   UNL A   1      35.579  29.905  28.749  1.00  0.00     0.016 A 
ATOM      8  C   UNL A   1      38.007  31.228  28.705  1.00  0.00     0.010 A 
ATOM      9  C   UNL A   1      36.673  29.369  29.434  1.00  0.00     0.010 A 
ATOM     10  C   UNL A   1      37.903  30.030  29.410  1.00  0.00    -0.014 A 
BRANCH  10  11
ATOM     11  C   UNL A   1      39.114  29.389  29.973  1.00  0.00     0.031 A 
ATOM     12  C   UNL A   1      39.626  29.886  31.293  1.00  0.00     0.074 A 
ATOM     13  C   UNL A   1      39.717  28.364  29.341  1.00  0.00     0.049 A 
ATOM     14  N   UNL A   1      40.650  29.474  31.991  1.00  0.00    -0.248 NA
ATOM     15  C   UNL A   1      38.868  30.982  31.920  1.00  0.00     0.031 C 
ATOM     16  C   UNL A   1      39.247  27.752  28.101  1.00  0.00     0.029 A 
ATOM     17  N   UNL A   1      40.855  27.661  29.641  1.00  0.00    -0.354 N 
ATOM     18  C   UNL A   1      40.632  30.230  33.157  1.00  0.00     0.074 A 
ATOM     19  C   UNL A   1      39.559  31.189  33.028  1.00  0.00     0.031 C 
ATOM     20  C   UNL A   1      40.118  26.805  27.711  1.00  0.00     0.029 A 
ATOM     21  C   UNL A   1      41.206  26.739  28.680  1.00  0.00     0.049 A 
ATOM     22  H   UNL A   1      41.374  27.802  30.466  1.00  0.00     0.167 HD
ATOM     23  C   UNL A   1      41.415  30.102  34.254  1.00  0.00     0.034 A 
ATOM     24  C   UNL A   1      42.285  25.936  28.594  1.00  0.00     0.034 A 
ATOM     25  C   UNL A   1      42.501  29.162  34.340  1.00  0.00     0.049 A 
ATOM     26  C   UNL A   1      43.245  25.922  29.759  1.00  0.00     0.074 A 
ATOM     27  C   UNL A   1      43.381  28.950  35.384  1.00  0.00     0.029 A 
ATOM     28  N   UNL A   1      42.867  28.285  33.324  1.00  0.00    -0.354 N 
ATOM     29  N   UNL A   1      43.194  26.617  30.874  1.00  0.00    -0.248 NA
ATOM     30  C   UNL A   1      44.375  24.992  29.680  1.00  0.00     0.031 C 
ATOM     31  C   UNL A   1      44.320  27.996  34.973  1.00  0.00     0.029 A 
ATOM     32  C   UNL A   1      43.980  27.555  33.703  1.00  0.00     0.049 A 
ATOM     33  H   UNL A   1      42.401  28.197  32.461  1.00  0.00     0.167 HD
ATOM     34  C   UNL A   1      44.251  26.161  31.654  1.00  0.00     0.074 A 
ATOM     35  C   UNL A   1      44.923  25.137  30.878  1.00  0.00     0.031 C 
ATOM     36  C   UNL A   1      44.625  26.538  32.905  1.00  0.00     0.034 A 
BRANCH  23  37
ATOM     37  C   UNL A   1      41.125  31.033  35.403  1.00  0.00     0.023 A 
ATOM     38  C   UNL A   1      39.924  30.944  36.133  1.00  0.00     0.031 A 
ATOM     39  C   UNL A   1      42.012  32.075  35.718  1.00  0.00     0.131 A 
ATOM     40  C   UNL A   1      39.603  31.931  37.077  1.00  0.00     0.055 A 
ATOM     41  C   UNL A   1      41.724  33.007  36.717  1.00  0.00     0.041 A 
ATOM     42  F   UNL A   1      43.158  32.227  35.037  1.00  0.00    -0.206 F 
ATOM     43  C   UNL A   1      40.505  32.949  37.391  1.00  0.00     0.022 A 
BRANCH  40  44
ATOM     44  S   UNL A   1      37.926  31.955  37.770  1.00  0.00     0.124 S 
ATOM     45  O   UNL A   1      37.526  30.557  37.623  1.00  0.00    -0.237 OA
ATOM     46  O   UNL A   1      38.155  32.413  39.135  1.00  0.00    -0.237 OA
ATOM     47  O   UNL A   1      37.213  32.895  36.908  1.00  0.00    -0.744 OA
ENDBRANCH  40  44
ENDBRANCH  23  37
BRANCH  24  48
ATOM     48  C   UNL A   1      42.524  25.093  27.385  1.00  0.00     0.023 A 
ATOM     49  C   UNL A   1      42.094  23.759  27.318  1.00  0.00     0.031 A 
ATOM     50  C   UNL A   1      43.253  25.601  26.292  1.00  0.00     0.131 A 
ATOM     51  C   UNL A   1      42.442  22.962  26.214  1.00  0.00     0.055 A 
ATOM     52  C   UNL A   1      43.557  24.818  25.175  1.00  0.00     0.041 A 
ATOM     53  F   UNL A   1      43.683  26.874  26.294  1.00  0.00    -0.206 F 
ATOM     54  C   UNL A   1      43.164  23.484  25.139  1.00  0.00     0.022 A 
BRANCH  51  55
ATOM     55  S   UNL A   1      42.016  21.198  26.245  1.00  0.00     0.124 S 
ATOM     56  O   UNL A   1      42.955  20.649  25.273  1.00  0.00    -0.237 OA
ATOM     57  O   UNL A   1      42.262  20.854  27.642  1.00  0.00    -0.237 OA
ATOM     58  O   UNL A   1      40.613  21.179  25.838  1.00  0.00    -0.744 OA
ENDBRANCH  51  55
ENDBRANCH  24  48
BRANCH  36  59
ATOM     59  C   UNL A   1      45.775  25.788  33.524  1.00  0.00     0.023 A 
ATOM     60  C   UNL A   1      45.580  24.610  34.262  1.00  0.00     0.031 A 
ATOM     61  C   UNL A   1      47.089  26.268  33.372  1.00  0.00     0.131 A 
ATOM     62  C   UNL A   1      46.675  23.981  34.870  1.00  0.00     0.055 A 
ATOM     63  C   UNL A   1      48.182  25.599  33.921  1.00  0.00     0.041 A 
ATOM     64  F   UNL A   1      47.330  27.392  32.677  1.00  0.00    -0.206 F 
ATOM     65  C   UNL A   1      47.976  24.456  34.688  1.00  0.00     0.022 A 
BRANCH  62  66
ATOM     66  S   UNL A   1      46.362  22.586  35.984  1.00  0.00     0.124 S 
ATOM     67  O   UNL A   1      45.384  21.809  35.227  1.00  0.00    -0.237 OA
ATOM     68  O   UNL A   1      47.686  21.987  36.115  1.00  0.00    -0.237 OA
ATOM     69  O   UNL A   1      45.847  23.223  37.194  1.00  0.00    -0.744 OA
ENDBRANCH  62  66
ENDBRANCH  36  59
ENDBRANCH  10  11
ENDBRANCH   3   5
ENDBRANCH   2   3
ENDBRANCH   1   2
BRANCH   1  70
ATOM     70  C   UNL A   1      33.606  34.412  29.239  1.00  0.00     0.275 C 
BRANCH  70  71
ATOM     71  O   UNL A   1      34.380  34.650  30.423  1.00  0.00    -0.458 OA
BRANCH  71  72
ATOM     72  C   UNL A   1      34.851  33.553  31.069  1.00  0.00     0.339 C 
ATOM     73  O   UNL A   1      34.391  32.424  31.024  1.00  0.00    -0.246 OA
BRANCH  72  74
ATOM     74  C   UNL A   1      36.106  33.889  31.770  1.00  0.00     0.079 A 
ATOM     75  C   UNL A   1      37.275  34.051  30.996  1.00  0.00     0.026 A 
ATOM     76  C   UNL A   1      36.162  34.023  33.158  1.00  0.00     0.055 A 
ATOM     77  C   UNL A   1      38.495  34.407  31.597  1.00  0.00    -0.017 A 
ATOM     78  C   UNL A   1      37.366  34.386  33.763  1.00  0.00     0.022 A 
ATOM     79  Cl  UNL A   1      34.809  33.707  34.186  1.00  0.00    -0.083 Cl
ATOM     80  C   UNL A   1      38.511  34.598  32.988  1.00  0.00     0.010 A 
BRANCH  77  81
ATOM     81  C   UNL A   1      39.743  34.547  30.827  1.00  0.00    -0.017 A 
ATOM     82  C   UNL A   1      39.699  34.971  29.489  1.00  0.00     0.009 A 
ATOM     83  C   UNL A   1      40.998  34.231  31.366  1.00  0.00     0.029 A 
ATOM     84  C   UNL A   1      40.860  35.072  28.717  1.00  0.00     0.002 A 
ATOM     85  C   UNL A   1      42.159  34.329  30.596  1.00  0.00     0.041 A 
ATOM     86  C   UNL A   1      42.095  34.748  29.273  1.00  0.00     0.020 A 
ATOM     87  Cl  UNL A   1      43.681  33.916  31.287  1.00  0.00    -0.084 Cl
ENDBRANCH  77  81
ENDBRANCH  72  74
ENDBRANCH  71  72
ENDBRANCH  70  71
ENDBRANCH   1  70
TORSDOF 15
ENDMDL
MODEL 3
REMARK VINA RESULT:     -10.5      3.501      5.852
REMARK SMILES O=C(OCCOC(=O)c1cc(-c2cccc(Cl)c2)ccc1Cl)c1ccc(-c2c3nc(c(-c4cc(S(=O)(=O)[O-])ccc4F)c4ccc([nH]4)c(-c4cc(S(=O)(=O)[O-])ccc4F)c4nc(c(-c5cc(S(=O)(=O)[O-])ccc5F)c5ccc2[nH]5)C=C4)C=C3)cc1
REMARK SMILES IDX 4 1 3 2 2 3 1 4 23 5 24 6 85 7 25 8 84 9 26 10 27 11 28 12
REMARK SMILES IDX 78 13 29 14 83 15 77 16 79 17 30 18 82 19 76 20 75 21 31 23
REMARK SMILES IDX 63 24 43 25 62 26 44 27 47 28 61 29 80 30 45 31 46 32 60 34
REMARK SMILES IDX 81 35 48 36 32 37 33 38 41 39 34 40 40 41 42 42 39 43 35 44
REMARK SMILES IDX 36 45 37 46 38 47 64 48 65 49 73 50 66 51 72 52 74 53 71 54
REMARK SMILES IDX 67 55 68 56 69 57 70 58 49 59 50 60 58 61 51 62 57 63 59 64
REMARK SMILES IDX 56 65 52 66 53 67 54 68 55 69 5 70 6 71 7 72 8 73 9 74 10 75
REMARK SMILES IDX 21 76 11 77 20 78 22 79 19 80 12 81 13 82 18 83 14 84 16 85
REMARK SMILES IDX 15 86 17 87
REMARK H PARENT 79 22 47 33
REMARK Flexibility Score: inf
ROOT
ATOM      1  C   UNL A   1      37.090  21.279  25.467  1.00  0.00     0.275 C 
ENDROOT
BRANCH   1   2
ATOM      2  O   UNL A   1      37.957  22.422  25.501  1.00  0.00    -0.458 OA
BRANCH   2   3
ATOM      3  C   UNL A   1      39.046  22.662  26.266  1.00  0.00     0.338 C 
ATOM      4  O   UNL A   1      39.643  21.690  26.733  1.00  0.00    -0.246 OA
BRANCH   3   5
ATOM      5  C   UNL A   1      39.505  24.029  26.691  1.00  0.00     0.060 A 
ATOM      6  C   UNL A   1      40.198  24.969  25.925  1.00  0.00     0.016 A 
ATOM      7  C   UNL A   1      39.176  24.392  28.006  1.00  0.00     0.016 A 
ATOM      8  C   UNL A   1      40.475  26.248  26.422  1.00  0.00     0.010 A 
ATOM      9  C   UNL A   1      39.417  25.676  28.501  1.00  0.00     0.010 A 
ATOM     10  C   UNL A   1      40.079  26.616  27.706  1.00  0.00    -0.014 A 
BRANCH  10  11
ATOM     11  C   UNL A   1      40.504  27.917  28.274  1.00  0.00     0.031 A 
ATOM     12  C   UNL A   1      41.973  28.157  28.464  1.00  0.00     0.074 A 
ATOM     13  C   UNL A   1      39.604  28.873  28.574  1.00  0.00     0.049 A 
ATOM     14  N   UNL A   1      42.585  29.215  28.922  1.00  0.00    -0.248 NA
ATOM     15  C   UNL A   1      42.873  27.062  28.065  1.00  0.00     0.031 C 
ATOM     16  C   UNL A   1      38.166  28.772  28.344  1.00  0.00     0.029 A 
ATOM     17  N   UNL A   1      39.757  30.111  29.143  1.00  0.00    -0.354 N 
ATOM     18  C   UNL A   1      43.942  28.930  28.824  1.00  0.00     0.074 A 
ATOM     19  C   UNL A   1      44.059  27.567  28.357  1.00  0.00     0.031 C 
ATOM     20  C   UNL A   1      37.557  29.871  28.821  1.00  0.00     0.029 A 
ATOM     21  C   UNL A   1      38.566  30.760  29.383  1.00  0.00     0.049 A 
ATOM     22  H   UNL A   1      40.635  30.500  29.359  1.00  0.00     0.167 HD
ATOM     23  C   UNL A   1      44.993  29.749  29.060  1.00  0.00     0.034 A 
ATOM     24  C   UNL A   1      38.323  31.938  29.993  1.00  0.00     0.034 A 
ATOM     25  C   UNL A   1      44.847  31.092  29.559  1.00  0.00     0.049 A 
ATOM     26  C   UNL A   1      39.510  32.775  30.402  1.00  0.00     0.074 A 
ATOM     27  C   UNL A   1      45.830  32.014  29.861  1.00  0.00     0.029 A 
ATOM     28  N   UNL A   1      43.628  31.695  29.851  1.00  0.00    -0.354 N 
ATOM     29  N   UNL A   1      40.790  32.508  30.269  1.00  0.00    -0.248 NA
ATOM     30  C   UNL A   1      39.227  34.085  31.000  1.00  0.00     0.031 C 
ATOM     31  C   UNL A   1      45.210  33.148  30.399  1.00  0.00     0.029 A 
ATOM     32  C   UNL A   1      43.837  32.965  30.361  1.00  0.00     0.049 A 
ATOM     33  H   UNL A   1      42.747  31.280  29.714  1.00  0.00     0.167 HD
ATOM     34  C   UNL A   1      41.463  33.643  30.709  1.00  0.00     0.074 A 
ATOM     35  C   UNL A   1      40.445  34.592  31.117  1.00  0.00     0.031 C 
ATOM     36  C   UNL A   1      42.798  33.889  30.756  1.00  0.00     0.034 A 
BRANCH  23  37
ATOM     37  C   UNL A   1      46.365  29.179  28.810  1.00  0.00     0.023 A 
ATOM     38  C   UNL A   1      46.878  29.047  27.505  1.00  0.00     0.031 A 
ATOM     39  C   UNL A   1      47.134  28.678  29.874  1.00  0.00     0.131 A 
ATOM     40  C   UNL A   1      48.077  28.353  27.290  1.00  0.00     0.055 A 
ATOM     41  C   UNL A   1      48.368  28.061  29.659  1.00  0.00     0.041 A 
ATOM     42  F   UNL A   1      46.684  28.750  31.136  1.00  0.00    -0.206 F 
ATOM     43  C   UNL A   1      48.838  27.879  28.360  1.00  0.00     0.022 A 
BRANCH  40  44
ATOM     44  S   UNL A   1      48.545  27.938  25.587  1.00  0.00     0.124 S 
ATOM     45  O   UNL A   1      49.836  28.613  25.463  1.00  0.00    -0.237 OA
ATOM     46  O   UNL A   1      48.588  26.481  25.616  1.00  0.00    -0.237 OA
ATOM     47  O   UNL A   1      47.468  28.515  24.785  1.00  0.00    -0.744 OA
ENDBRANCH  40  44
ENDBRANCH  23  37
BRANCH  24  48
ATOM     48  C   UNL A   1      36.926  32.394  30.257  1.00  0.00     0.023 A 
ATOM     49  C   UNL A   1      36.178  33.081  29.287  1.00  0.00     0.031 A 
ATOM     50  C   UNL A   1      36.337  32.202  31.522  1.00  0.00     0.131 A 
ATOM     51  C   UNL A   1      34.913  33.599  29.612  1.00  0.00     0.055 A 
ATOM     52  C   UNL A   1      35.060  32.680  31.826  1.00  0.00     0.041 A 
ATOM     53  F   UNL A   1      37.000  31.544  32.486  1.00  0.00    -0.206 F 
ATOM     54  C   UNL A   1      34.346  33.398  30.872  1.00  0.00     0.022 A 
BRANCH  51  55
ATOM     55  S   UNL A   1      34.054  34.629  28.389  1.00  0.00     0.124 S 
ATOM     56  O   UNL A   1      34.066  35.935  29.038  1.00  0.00    -0.237 OA
ATOM     57  O   UNL A   1      34.913  34.485  27.218  1.00  0.00    -0.237 OA
ATOM     58  O   UNL A   1      32.740  33.999  28.277  1.00  0.00    -0.744 OA
ENDBRANCH  51  55
ENDBRANCH  24  48
BRANCH  36  59
ATOM     59  C   UNL A   1      43.220  35.263  31.208  1.00  0.00     0.023 A 
ATOM     60  C   UNL A   1      43.427  36.311  30.297  1.00  0.00     0.031 A 
ATOM     61  C   UNL A   1      43.417  35.521  32.576  1.00  0.00     0.131 A 
ATOM     62  C   UNL A   1      43.877  37.555  30.759  1.00  0.00     0.055 A 
ATOM     63  C   UNL A   1      43.798  36.782  33.036  1.00  0.00     0.041 A 
ATOM     64  F   UNL A   1      43.234  34.553  33.489  1.00  0.00    -0.206 F 
ATOM     65  C   UNL A   1      44.044  37.803  32.124  1.00  0.00     0.022 A 
BRANCH  62  66
ATOM     66  S   UNL A   1      44.333  38.817  29.541  1.00  0.00     0.124 S 
ATOM     67  O   UNL A   1      44.359  38.046  28.302  1.00  0.00    -0.237 OA
ATOM     68  O   UNL A   1      43.246  39.783  29.668  1.00  0.00    -0.237 OA
ATOM     69  O   UNL A   1      45.637  39.287  30.007  1.00  0.00    -0.744 OA
ENDBRANCH  62  66
ENDBRANCH  36  59
ENDBRANCH  10  11
ENDBRANCH   3   5
ENDBRANCH   2   3
ENDBRANCH   1   2
BRANCH   1  70
ATOM     70  C   UNL A   1      35.598  21.618  25.497  1.00  0.00     0.275 C 
BRANCH  70  71
ATOM     71  O   UNL A   1      35.311  22.966  25.097  1.00  0.00    -0.458 OA
BRANCH  71  72
ATOM     72  C   UNL A   1      34.069  23.431  25.385  1.00  0.00     0.339 C 
ATOM     73  O   UNL A   1      33.260  22.933  26.150  1.00  0.00    -0.246 OA
BRANCH  72  74
ATOM     74  C   UNL A   1      33.856  24.728  24.713  1.00  0.00     0.079 A 
ATOM     75  C   UNL A   1      33.820  25.890  25.511  1.00  0.00     0.026 A 
ATOM     76  C   UNL A   1      33.668  24.821  23.332  1.00  0.00     0.055 A 
ATOM     77  C   UNL A   1      33.657  27.161  24.930  1.00  0.00    -0.017 A 
ATOM     78  C   UNL A   1      33.516  26.078  22.746  1.00  0.00     0.022 A 
ATOM     79  Cl  UNL A   1      33.561  23.436  22.305  1.00  0.00    -0.083 Cl
ATOM     80  C   UNL A   1      33.535  27.233  23.533  1.00  0.00     0.010 A 
BRANCH  77  81
ATOM     81  C   UNL A   1      33.577  28.392  25.735  1.00  0.00    -0.017 A 
ATOM     82  C   UNL A   1      34.525  28.636  26.743  1.00  0.00     0.009 A 
ATOM     83  C   UNL A   1      32.553  29.335  25.565  1.00  0.00     0.029 A 
ATOM     84  C   UNL A   1      34.451  29.773  27.553  1.00  0.00     0.002 A 
ATOM     85  C   UNL A   1      32.477  30.470  26.376  1.00  0.00     0.041 A 
ATOM     86  C   UNL A   1      33.422  30.693  27.370  1.00  0.00     0.020 A 
ATOM     87  Cl  UNL A   1      31.194  31.596  26.150  1.00  0.00    -0.084 Cl
ENDBRANCH  77  81
ENDBRANCH  72  74
ENDBRANCH  71  72
ENDBRANCH  70  71
ENDBRANCH   1  70
TORSDOF 15
ENDMDL
