MODEL 1
REMARK VINA RESULT:     -11.0      0.000      0.000
REMARK SMILES CN(C(=O)CC(=O)OCCOC(=O)c1ccc(-c2c3nc(c(-c4cc(S(=O)(=O)[O-])ccc4F)c4ccc([nH]4)c(-c4cc(S(=O)(=O)[O-])ccc4F)c4nc(c(-c5cc(S(=O)(=O)[O-])ccc5F)c5ccc2[nH]5)C=C4)C=C3)cc1)C1CCC(C)(C)CC1
REMARK SMILES IDX 9 1 8 2 6 3 7 4 5 5 3 6 4 7 2 8 1 9 77 10 78 11 84 12 79 13
REMARK SMILES IDX 83 14 80 15 81 16 82 17 10 18 11 19 12 20 13 21 14 22 15 23
REMARK SMILES IDX 76 24 16 25 75 26 17 27 18 28 19 29 69 30 20 31 74 32 68 33
REMARK SMILES IDX 70 34 21 35 73 36 67 37 66 38 22 40 54 41 34 42 53 43 35 44
REMARK SMILES IDX 38 45 52 46 71 47 36 48 37 49 51 51 72 52 39 53 23 54 24 55
REMARK SMILES IDX 32 56 25 57 31 58 33 59 30 60 26 61 27 62 28 63 29 64 55 65
REMARK SMILES IDX 56 66 64 67 57 68 63 69 65 70 62 71 58 72 59 73 60 74 61 75
REMARK SMILES IDX 40 76 41 77 49 78 42 79 48 80 50 81 47 82 43 83 44 84 45 85
REMARK SMILES IDX 46 86
REMARK H PARENT 70 39 38 50
REMARK Flexibility Score: inf
ROOT
ATOM      1  C   UNL A   1      34.722  20.749  25.394  1.00  0.00     0.274 C 
ENDROOT
BRANCH   1   2
ATOM      2  O   UNL A   1      33.929  21.952  25.403  1.00  0.00    -0.462 OA
BRANCH   2   3
ATOM      3  C   UNL A   1      33.637  22.499  26.612  1.00  0.00     0.315 C 
ATOM      4  O   UNL A   1      33.710  21.899  27.679  1.00  0.00    -0.252 OA
BRANCH   3   5
ATOM      5  C   UNL A   1      33.310  23.966  26.538  1.00  0.00     0.222 C 
BRANCH   5   6
ATOM      6  C   UNL A   1      31.853  24.250  26.272  1.00  0.00     0.233 C 
ATOM      7  O   UNL A   1      31.078  24.148  27.222  1.00  0.00    -0.274 OA
BRANCH   6   8
ATOM      8  N   UNL A   1      31.439  24.507  24.969  1.00  0.00    -0.342 N 
ATOM      9  C   UNL A   1      31.066  23.454  24.029  1.00  0.00     0.147 C 
BRANCH   8  10
ATOM     10  C   UNL A   1      31.375  25.884  24.419  1.00  0.00     0.084 C 
ATOM     11  C   UNL A   1      30.746  26.896  25.383  1.00  0.00     0.025 C 
ATOM     12  C   UNL A   1      32.658  26.412  23.772  1.00  0.00     0.025 C 
ATOM     13  C   UNL A   1      31.722  27.494  26.388  1.00  0.00     0.008 C 
ATOM     14  C   UNL A   1      33.639  27.124  24.702  1.00  0.00     0.008 C 
ATOM     15  C   UNL A   1      33.005  28.071  25.750  1.00  0.00    -0.035 C 
ATOM     16  C   UNL A   1      34.035  28.313  26.872  1.00  0.00     0.011 C 
ATOM     17  C   UNL A   1      32.680  29.427  25.094  1.00  0.00     0.011 C 
ENDBRANCH   8  10
ENDBRANCH   6   8
ENDBRANCH   5   6
ENDBRANCH   3   5
ENDBRANCH   2   3
ENDBRANCH   1   2
BRANCH   1  18
ATOM     18  C   UNL A   1      36.091  21.050  24.794  1.00  0.00     0.275 C 
BRANCH  18  19
ATOM     19  O   UNL A   1      36.925  21.614  25.819  1.00  0.00    -0.458 OA
BRANCH  19  20
ATOM     20  C   UNL A   1      38.234  21.288  25.770  1.00  0.00     0.338 C 
ATOM     21  O   UNL A   1      38.719  20.234  25.372  1.00  0.00    -0.246 OA
BRANCH  20  22
ATOM     22  C   UNL A   1      39.044  22.417  26.268  1.00  0.00     0.060 A 
ATOM     23  C   UNL A   1      40.098  22.202  27.162  1.00  0.00     0.016 A 
ATOM     24  C   UNL A   1      38.703  23.715  25.892  1.00  0.00     0.016 A 
ATOM     25  C   UNL A   1      40.777  23.284  27.719  1.00  0.00     0.010 A 
ATOM     26  C   UNL A   1      39.444  24.794  26.382  1.00  0.00     0.010 A 
ATOM     27  C   UNL A   1      40.482  24.591  27.309  1.00  0.00    -0.014 A 
BRANCH  27  28
ATOM     28  C   UNL A   1      41.264  25.753  27.809  1.00  0.00     0.031 A 
ATOM     29  C   UNL A   1      40.585  26.829  28.611  1.00  0.00     0.074 A 
ATOM     30  C   UNL A   1      42.571  25.867  27.497  1.00  0.00     0.049 A 
ATOM     31  N   UNL A   1      41.008  28.029  28.915  1.00  0.00    -0.248 NA
ATOM     32  C   UNL A   1      39.243  26.515  29.126  1.00  0.00     0.031 C 
ATOM     33  C   UNL A   1      43.360  24.872  26.769  1.00  0.00     0.029 A 
ATOM     34  N   UNL A   1      43.464  26.885  27.734  1.00  0.00    -0.354 N 
ATOM     35  C   UNL A   1      39.977  28.625  29.633  1.00  0.00     0.074 A 
ATOM     36  C   UNL A   1      38.900  27.659  29.702  1.00  0.00     0.031 C 
ATOM     37  C   UNL A   1      44.613  25.325  26.617  1.00  0.00     0.029 A 
ATOM     38  C   UNL A   1      44.694  26.679  27.153  1.00  0.00     0.049 A 
ATOM     39  H   UNL A   1      43.244  27.683  28.266  1.00  0.00     0.167 HD
ATOM     40  C   UNL A   1      39.937  29.866  30.180  1.00  0.00     0.034 A 
ATOM     41  C   UNL A   1      45.748  27.505  27.006  1.00  0.00     0.034 A 
ATOM     42  C   UNL A   1      41.024  30.812  30.105  1.00  0.00     0.049 A 
ATOM     43  C   UNL A   1      45.647  28.909  27.542  1.00  0.00     0.074 A 
ATOM     44  C   UNL A   1      41.089  32.099  30.614  1.00  0.00     0.029 A 
ATOM     45  N   UNL A   1      42.242  30.573  29.482  1.00  0.00    -0.354 N 
ATOM     46  N   UNL A   1      44.642  29.484  28.161  1.00  0.00    -0.248 NA
ATOM     47  C   UNL A   1      46.814  29.778  27.345  1.00  0.00     0.031 C 
ATOM     48  C   UNL A   1      42.324  32.653  30.257  1.00  0.00     0.029 A 
ATOM     49  C   UNL A   1      43.055  31.692  29.576  1.00  0.00     0.049 A 
ATOM     50  H   UNL A   1      42.492  29.731  29.038  1.00  0.00     0.167 HD
ATOM     51  C   UNL A   1      45.064  30.780  28.441  1.00  0.00     0.074 A 
ATOM     52  C   UNL A   1      46.419  30.894  27.940  1.00  0.00     0.031 C 
ATOM     53  C   UNL A   1      44.395  31.787  29.055  1.00  0.00     0.034 A 
BRANCH  40  54
ATOM     54  C   UNL A   1      38.658  30.284  30.864  1.00  0.00     0.023 A 
ATOM     55  C   UNL A   1      37.637  30.957  30.173  1.00  0.00     0.031 A 
ATOM     56  C   UNL A   1      38.463  30.011  32.231  1.00  0.00     0.131 A 
ATOM     57  C   UNL A   1      36.490  31.381  30.862  1.00  0.00     0.055 A 
ATOM     58  C   UNL A   1      37.291  30.376  32.894  1.00  0.00     0.041 A 
ATOM     59  F   UNL A   1      39.416  29.390  32.945  1.00  0.00    -0.206 F 
ATOM     60  C   UNL A   1      36.299  31.074  32.211  1.00  0.00     0.022 A 
BRANCH  57  61
ATOM     61  S   UNL A   1      35.296  32.435  29.994  1.00  0.00     0.124 S 
ATOM     62  O   UNL A   1      34.305  32.680  31.040  1.00  0.00    -0.237 OA
ATOM     63  O   UNL A   1      36.109  33.580  29.604  1.00  0.00    -0.237 OA
ATOM     64  O   UNL A   1      34.832  31.594  28.892  1.00  0.00    -0.744 OA
ENDBRANCH  57  61
ENDBRANCH  40  54
BRANCH  41  65
ATOM     65  C   UNL A   1      46.952  27.064  26.246  1.00  0.00     0.023 A 
ATOM     66  C   UNL A   1      48.023  26.429  26.890  1.00  0.00     0.031 A 
ATOM     67  C   UNL A   1      47.066  27.314  24.866  1.00  0.00     0.131 A 
ATOM     68  C   UNL A   1      49.177  26.098  26.163  1.00  0.00     0.055 A 
ATOM     69  C   UNL A   1      48.192  26.933  24.136  1.00  0.00     0.041 A 
ATOM     70  F   UNL A   1      46.070  27.923  24.201  1.00  0.00    -0.206 F 
ATOM     71  C   UNL A   1      49.263  26.332  24.789  1.00  0.00     0.022 A 
BRANCH  68  72
ATOM     72  S   UNL A   1      50.609  25.440  27.062  1.00  0.00     0.124 S 
ATOM     73  O   UNL A   1      51.530  25.135  25.974  1.00  0.00    -0.237 OA
ATOM     74  O   UNL A   1      50.973  26.566  27.915  1.00  0.00    -0.237 OA
ATOM     75  O   UNL A   1      50.065  24.279  27.763  1.00  0.00    -0.744 OA
ENDBRANCH  68  72
ENDBRANCH  41  65
BRANCH  53  76
ATOM     76  C   UNL A   1      45.147  33.078  29.243  1.00  0.00     0.023 A 
ATOM     77  C   UNL A   1      44.985  34.156  28.357  1.00  0.00     0.031 A 
ATOM     78  C   UNL A   1      46.055  33.216  30.306  1.00  0.00     0.131 A 
ATOM     79  C   UNL A   1      45.763  35.312  28.521  1.00  0.00     0.055 A 
ATOM     80  C   UNL A   1      46.791  34.387  30.491  1.00  0.00     0.041 A 
ATOM     81  F   UNL A   1      46.246  32.212  31.177  1.00  0.00    -0.206 F 
ATOM     82  C   UNL A   1      46.655  35.439  29.589  1.00  0.00     0.022 A 
BRANCH  79  83
ATOM     83  S   UNL A   1      45.644  36.624  27.275  1.00  0.00     0.124 S 
ATOM     84  O   UNL A   1      44.394  36.290  26.601  1.00  0.00    -0.237 OA
ATOM     85  O   UNL A   1      45.623  37.833  28.093  1.00  0.00    -0.237 OA
ATOM     86  O   UNL A   1      46.850  36.445  26.470  1.00  0.00    -0.744 OA
ENDBRANCH  79  83
ENDBRANCH  53  76
ENDBRANCH  27  28
ENDBRANCH  20  22
ENDBRANCH  19  20
ENDBRANCH  18  19
ENDBRANCH   1  18
TORSDOF 17
ENDMDL
MODEL 2
REMARK VINA RESULT:     -10.9      4.794      9.917
REMARK SMILES CN(C(=O)CC(=O)OCCOC(=O)c1ccc(-c2c3nc(c(-c4cc(S(=O)(=O)[O-])ccc4F)c4ccc([nH]4)c(-c4cc(S(=O)(=O)[O-])ccc4F)c4nc(c(-c5cc(S(=O)(=O)[O-])ccc5F)c5ccc2[nH]5)C=C4)C=C3)cc1)C1CCC(C)(C)CC1
REMARK SMILES IDX 9 1 8 2 6 3 7 4 5 5 3 6 4 7 2 8 1 9 77 10 78 11 84 12 79 13
REMARK SMILES IDX 83 14 80 15 81 16 82 17 10 18 11 19 12 20 13 21 14 22 15 23
REMARK SMILES IDX 76 24 16 25 75 26 17 27 18 28 19 29 69 30 20 31 74 32 68 33
REMARK SMILES IDX 70 34 21 35 73 36 67 37 66 38 22 40 54 41 34 42 53 43 35 44
REMARK SMILES IDX 38 45 52 46 71 47 36 48 37 49 51 51 72 52 39 53 23 54 24 55
REMARK SMILES IDX 32 56 25 57 31 58 33 59 30 60 26 61 27 62 28 63 29 64 55 65
REMARK SMILES IDX 56 66 64 67 57 68 63 69 65 70 62 71 58 72 59 73 60 74 61 75
REMARK SMILES IDX 40 76 41 77 49 78 42 79 48 80 50 81 47 82 43 83 44 84 45 85
REMARK SMILES IDX 46 86
REMARK H PARENT 70 39 38 50
REMARK Flexibility Score: inf
ROOT
ATOM      1  C   UNL A   1      30.941  30.014  24.560  1.00  0.00     0.274 C 
ENDROOT
BRANCH   1   2
ATOM      2  O   UNL A   1      30.016  29.002  24.116  1.00  0.00    -0.462 OA
BRANCH   2   3
ATOM      3  C   UNL A   1      30.261  28.415  22.916  1.00  0.00     0.315 C 
ATOM      4  O   UNL A   1      30.237  29.002  21.840  1.00  0.00    -0.252 OA
BRANCH   3   5
ATOM      5  C   UNL A   1      30.675  26.972  23.034  1.00  0.00     0.222 C 
BRANCH   5   6
ATOM      6  C   UNL A   1      31.976  26.656  22.340  1.00  0.00     0.233 C 
ATOM      7  O   UNL A   1      31.916  25.989  21.308  1.00  0.00    -0.274 OA
BRANCH   6   8
ATOM      8  N   UNL A   1      33.173  27.033  22.940  1.00  0.00    -0.342 N 
ATOM      9  C   UNL A   1      33.808  28.328  22.709  1.00  0.00     0.147 C 
BRANCH   8  10
ATOM     10  C   UNL A   1      33.922  26.127  23.846  1.00  0.00     0.084 C 
ATOM     11  C   UNL A   1      33.783  26.496  25.327  1.00  0.00     0.025 C 
ATOM     12  C   UNL A   1      33.741  24.626  23.598  1.00  0.00     0.025 C 
ATOM     13  C   UNL A   1      32.545  25.921  26.002  1.00  0.00     0.008 C 
ATOM     14  C   UNL A   1      32.582  23.956  24.333  1.00  0.00     0.008 C 
ATOM     15  C   UNL A   1      32.368  24.400  25.800  1.00  0.00    -0.035 C 
ATOM     16  C   UNL A   1      30.933  24.020  26.219  1.00  0.00     0.011 C 
ATOM     17  C   UNL A   1      33.352  23.649  26.717  1.00  0.00     0.011 C 
ENDBRANCH   8  10
ENDBRANCH   6   8
ENDBRANCH   5   6
ENDBRANCH   3   5
ENDBRANCH   2   3
ENDBRANCH   1   2
BRANCH   1  18
ATOM     18  C   UNL A   1      31.694  29.508  25.786  1.00  0.00     0.275 C 
BRANCH  18  19
ATOM     19  O   UNL A   1      32.977  30.154  25.834  1.00  0.00    -0.458 OA
BRANCH  19  20
ATOM     20  C   UNL A   1      33.139  31.088  26.795  1.00  0.00     0.338 C 
ATOM     21  O   UNL A   1      32.359  31.985  27.093  1.00  0.00    -0.246 OA
BRANCH  20  22
ATOM     22  C   UNL A   1      34.429  30.874  27.479  1.00  0.00     0.060 A 
ATOM     23  C   UNL A   1      34.806  29.599  27.913  1.00  0.00     0.016 A 
ATOM     24  C   UNL A   1      35.242  31.972  27.754  1.00  0.00     0.016 A 
ATOM     25  C   UNL A   1      35.968  29.428  28.664  1.00  0.00     0.010 A 
ATOM     26  C   UNL A   1      36.452  31.786  28.428  1.00  0.00     0.010 A 
ATOM     27  C   UNL A   1      36.822  30.514  28.900  1.00  0.00    -0.014 A 
BRANCH  27  28
ATOM     28  C   UNL A   1      38.119  30.336  29.607  1.00  0.00     0.031 A 
ATOM     29  C   UNL A   1      39.180  29.445  29.021  1.00  0.00     0.074 A 
ATOM     30  C   UNL A   1      38.321  30.931  30.800  1.00  0.00     0.049 A 
ATOM     31  N   UNL A   1      40.254  28.955  29.584  1.00  0.00    -0.248 NA
ATOM     32  C   UNL A   1      38.999  29.044  27.618  1.00  0.00     0.031 C 
ATOM     33  C   UNL A   1      37.394  31.857  31.454  1.00  0.00     0.029 A 
ATOM     34  N   UNL A   1      39.364  30.829  31.688  1.00  0.00    -0.354 N 
ATOM     35  C   UNL A   1      40.864  28.164  28.615  1.00  0.00     0.074 A 
ATOM     36  C   UNL A   1      40.027  28.228  27.435  1.00  0.00     0.031 C 
ATOM     37  C   UNL A   1      37.906  32.235  32.635  1.00  0.00     0.029 A 
ATOM     38  C   UNL A   1      39.150  31.511  32.864  1.00  0.00     0.049 A 
ATOM     39  H   UNL A   1      40.185  30.318  31.501  1.00  0.00     0.167 HD
ATOM     40  C   UNL A   1      42.014  27.451  28.708  1.00  0.00     0.034 A 
ATOM     41  C   UNL A   1      39.837  31.505  34.023  1.00  0.00     0.034 A 
ATOM     42  C   UNL A   1      42.837  27.406  29.894  1.00  0.00     0.049 A 
ATOM     43  C   UNL A   1      41.061  30.635  34.134  1.00  0.00     0.074 A 
ATOM     44  C   UNL A   1      44.016  26.709  30.103  1.00  0.00     0.029 A 
ATOM     45  N   UNL A   1      42.567  28.088  31.072  1.00  0.00    -0.354 N 
ATOM     46  N   UNL A   1      41.591  29.840  33.233  1.00  0.00    -0.248 NA
ATOM     47  C   UNL A   1      41.769  30.649  35.421  1.00  0.00     0.031 C 
ATOM     48  C   UNL A   1      44.431  26.932  31.421  1.00  0.00     0.029 A 
ATOM     49  C   UNL A   1      43.545  27.814  32.017  1.00  0.00     0.049 A 
ATOM     50  H   UNL A   1      41.794  28.680  31.217  1.00  0.00     0.167 HD
ATOM     51  C   UNL A   1      42.705  29.271  33.843  1.00  0.00     0.074 A 
ATOM     52  C   UNL A   1      42.780  29.828  35.179  1.00  0.00     0.031 C 
ATOM     53  C   UNL A   1      43.588  28.369  33.347  1.00  0.00     0.034 A 
BRANCH  40  54
ATOM     54  C   UNL A   1      42.421  26.626  27.512  1.00  0.00     0.023 A 
ATOM     55  C   UNL A   1      42.050  25.277  27.385  1.00  0.00     0.031 A 
ATOM     56  C   UNL A   1      43.197  27.198  26.488  1.00  0.00     0.131 A 
ATOM     57  C   UNL A   1      42.501  24.530  26.285  1.00  0.00     0.055 A 
ATOM     58  C   UNL A   1      43.585  26.468  25.363  1.00  0.00     0.041 A 
ATOM     59  F   UNL A   1      43.597  28.477  26.569  1.00  0.00    -0.206 F 
ATOM     60  C   UNL A   1      43.245  25.121  25.262  1.00  0.00     0.022 A 
BRANCH  57  61
ATOM     61  S   UNL A   1      42.190  22.743  26.264  1.00  0.00     0.124 S 
ATOM     62  O   UNL A   1      42.853  22.314  27.493  1.00  0.00    -0.237 OA
ATOM     63  O   UNL A   1      40.734  22.674  26.267  1.00  0.00    -0.237 OA
ATOM     64  O   UNL A   1      42.834  22.297  25.029  1.00  0.00    -0.744 OA
ENDBRANCH  57  61
ENDBRANCH  40  54
BRANCH  41  65
ATOM     65  C   UNL A   1      39.339  32.274  35.199  1.00  0.00     0.023 A 
ATOM     66  C   UNL A   1      39.782  33.581  35.451  1.00  0.00     0.031 A 
ATOM     67  C   UNL A   1      38.443  31.692  36.115  1.00  0.00     0.131 A 
ATOM     68  C   UNL A   1      39.358  34.250  36.609  1.00  0.00     0.055 A 
ATOM     69  C   UNL A   1      37.981  32.382  37.237  1.00  0.00     0.041 A 
ATOM     70  F   UNL A   1      37.991  30.442  35.923  1.00  0.00    -0.206 F 
ATOM     71  C   UNL A   1      38.450  33.666  37.495  1.00  0.00     0.022 A 
BRANCH  68  72
ATOM     72  S   UNL A   1      40.087  35.866  36.992  1.00  0.00     0.124 S 
ATOM     73  O   UNL A   1      39.707  36.650  35.823  1.00  0.00    -0.237 OA
ATOM     74  O   UNL A   1      39.416  36.210  38.242  1.00  0.00    -0.237 OA
ATOM     75  O   UNL A   1      41.514  35.575  37.112  1.00  0.00    -0.744 OA
ENDBRANCH  68  72
ENDBRANCH  41  65
BRANCH  53  76
ATOM     76  C   UNL A   1      44.723  27.970  34.252  1.00  0.00     0.023 A 
ATOM     77  C   UNL A   1      44.618  26.866  35.116  1.00  0.00     0.031 A 
ATOM     78  C   UNL A   1      45.909  28.722  34.270  1.00  0.00     0.131 A 
ATOM     79  C   UNL A   1      45.666  26.575  36.000  1.00  0.00     0.055 A 
ATOM     80  C   UNL A   1      46.968  28.397  35.119  1.00  0.00     0.041 A 
ATOM     81  F   UNL A   1      46.055  29.787  33.465  1.00  0.00    -0.206 F 
ATOM     82  C   UNL A   1      46.845  27.325  35.999  1.00  0.00     0.022 A 
BRANCH  79  83
ATOM     83  S   UNL A   1      45.441  25.240  37.207  1.00  0.00     0.124 S 
ATOM     84  O   UNL A   1      46.336  25.650  38.284  1.00  0.00    -0.237 OA
ATOM     85  O   UNL A   1      44.014  25.317  37.500  1.00  0.00    -0.237 OA
ATOM     86  O   UNL A   1      45.857  24.044  36.477  1.00  0.00    -0.744 OA
ENDBRANCH  79  83
ENDBRANCH  53  76
ENDBRANCH  27  28
ENDBRANCH  20  22
ENDBRANCH  19  20
ENDBRANCH  18  19
ENDBRANCH   1  18
TORSDOF 17
ENDMDL
MODEL 3
REMARK VINA RESULT:     -10.9      4.800      9.993
REMARK SMILES CN(C(=O)CC(=O)OCCOC(=O)c1ccc(-c2c3nc(c(-c4cc(S(=O)(=O)[O-])ccc4F)c4ccc([nH]4)c(-c4cc(S(=O)(=O)[O-])ccc4F)c4nc(c(-c5cc(S(=O)(=O)[O-])ccc5F)c5ccc2[nH]5)C=C4)C=C3)cc1)C1CCC(C)(C)CC1
REMARK SMILES IDX 9 1 8 2 6 3 7 4 5 5 3 6 4 7 2 8 1 9 77 10 78 11 84 12 79 13
REMARK SMILES IDX 83 14 80 15 81 16 82 17 10 18 11 19 12 20 13 21 14 22 15 23
REMARK SMILES IDX 76 24 16 25 75 26 17 27 18 28 19 29 69 30 20 31 74 32 68 33
REMARK SMILES IDX 70 34 21 35 73 36 67 37 66 38 22 40 54 41 34 42 53 43 35 44
REMARK SMILES IDX 38 45 52 46 71 47 36 48 37 49 51 51 72 52 39 53 23 54 24 55
REMARK SMILES IDX 32 56 25 57 31 58 33 59 30 60 26 61 27 62 28 63 29 64 55 65
REMARK SMILES IDX 56 66 64 67 57 68 63 69 65 70 62 71 58 72 59 73 60 74 61 75
REMARK SMILES IDX 40 76 41 77 49 78 42 79 48 80 50 81 47 82 43 83 44 84 45 85
REMARK SMILES IDX 46 86
REMARK H PARENT 70 39 38 50
REMARK Flexibility Score: inf
ROOT
ATOM      1  C   UNL A   1      31.117  29.565  24.617  1.00  0.00     0.274 C 
ENDROOT
BRANCH   1   2
ATOM      2  O   UNL A   1      31.428  28.311  23.978  1.00  0.00    -0.462 OA
BRANCH   2   3
ATOM      3  C   UNL A   1      32.610  28.226  23.314  1.00  0.00     0.315 C 
ATOM      4  O   UNL A   1      32.957  28.985  22.416  1.00  0.00    -0.252 OA
BRANCH   3   5
ATOM      5  C   UNL A   1      33.522  27.158  23.858  1.00  0.00     0.222 C 
BRANCH   5   6
ATOM      6  C   UNL A   1      33.265  25.789  23.281  1.00  0.00     0.233 C 
ATOM      7  O   UNL A   1      33.770  25.536  22.187  1.00  0.00    -0.274 OA
BRANCH   6   8
ATOM      8  N   UNL A   1      32.399  24.925  23.944  1.00  0.00    -0.342 N 
ATOM      9  C   UNL A   1      30.958  24.905  23.709  1.00  0.00     0.147 C 
BRANCH   8  10
ATOM     10  C   UNL A   1      32.875  23.970  24.975  1.00  0.00     0.084 C 
ATOM     11  C   UNL A   1      33.061  22.544  24.444  1.00  0.00     0.025 C 
ATOM     12  C   UNL A   1      34.057  24.434  25.831  1.00  0.00     0.025 C 
ATOM     13  C   UNL A   1      34.413  22.292  23.788  1.00  0.00     0.008 C 
ATOM     14  C   UNL A   1      35.449  24.116  25.287  1.00  0.00     0.008 C 
ATOM     15  C   UNL A   1      35.620  22.714  24.654  1.00  0.00    -0.035 C 
ATOM     16  C   UNL A   1      36.874  22.736  23.756  1.00  0.00     0.011 C 
ATOM     17  C   UNL A   1      35.840  21.667  25.762  1.00  0.00     0.011 C 
ENDBRANCH   8  10
ENDBRANCH   6   8
ENDBRANCH   5   6
ENDBRANCH   3   5
ENDBRANCH   2   3
ENDBRANCH   1   2
BRANCH   1  18
ATOM     18  C   UNL A   1      31.722  29.582  26.017  1.00  0.00     0.275 C 
BRANCH  18  19
ATOM     19  O   UNL A   1      32.950  30.327  25.977  1.00  0.00    -0.458 OA
BRANCH  19  20
ATOM     20  C   UNL A   1      33.092  31.294  26.907  1.00  0.00     0.338 C 
ATOM     21  O   UNL A   1      32.312  32.209  27.149  1.00  0.00    -0.246 OA
BRANCH  20  22
ATOM     22  C   UNL A   1      34.359  31.095  27.638  1.00  0.00     0.060 A 
ATOM     23  C   UNL A   1      35.225  32.167  27.873  1.00  0.00     0.016 A 
ATOM     24  C   UNL A   1      34.721  29.808  28.031  1.00  0.00     0.016 A 
ATOM     25  C   UNL A   1      36.473  31.947  28.455  1.00  0.00     0.010 A 
ATOM     26  C   UNL A   1      35.932  29.603  28.697  1.00  0.00     0.010 A 
ATOM     27  C   UNL A   1      36.826  30.668  28.906  1.00  0.00    -0.014 A 
BRANCH  27  28
ATOM     28  C   UNL A   1      38.106  30.429  29.625  1.00  0.00     0.031 A 
ATOM     29  C   UNL A   1      39.129  29.489  29.049  1.00  0.00     0.074 A 
ATOM     30  C   UNL A   1      38.325  31.014  30.820  1.00  0.00     0.049 A 
ATOM     31  N   UNL A   1      40.173  28.948  29.621  1.00  0.00    -0.248 NA
ATOM     32  C   UNL A   1      38.942  29.097  27.643  1.00  0.00     0.031 C 
ATOM     33  C   UNL A   1      37.436  31.982  31.466  1.00  0.00     0.029 A 
ATOM     34  N   UNL A   1      39.353  30.862  31.719  1.00  0.00    -0.354 N 
ATOM     35  C   UNL A   1      40.754  28.129  28.658  1.00  0.00     0.074 A 
ATOM     36  C   UNL A   1      39.932  28.233  27.470  1.00  0.00     0.031 C 
ATOM     37  C   UNL A   1      37.954  32.335  32.652  1.00  0.00     0.029 A 
ATOM     38  C   UNL A   1      39.160  31.552  32.893  1.00  0.00     0.049 A 
ATOM     39  H   UNL A   1      40.150  30.312  31.539  1.00  0.00     0.167 HD
ATOM     40  C   UNL A   1      41.868  27.363  28.761  1.00  0.00     0.034 A 
ATOM     41  C   UNL A   1      39.835  31.514  34.058  1.00  0.00     0.034 A 
ATOM     42  C   UNL A   1      42.676  27.278  29.955  1.00  0.00     0.049 A 
ATOM     43  C   UNL A   1      41.015  30.586  34.180  1.00  0.00     0.074 A 
ATOM     44  C   UNL A   1      43.819  26.526  30.174  1.00  0.00     0.029 A 
ATOM     45  N   UNL A   1      42.428  27.972  31.131  1.00  0.00    -0.354 N 
ATOM     46  N   UNL A   1      41.516  29.768  33.284  1.00  0.00    -0.248 NA
ATOM     47  C   UNL A   1      41.710  30.567  35.474  1.00  0.00     0.031 C 
ATOM     48  C   UNL A   1      44.231  26.728  31.497  1.00  0.00     0.029 A 
ATOM     49  C   UNL A   1      43.382  27.652  32.085  1.00  0.00     0.049 A 
ATOM     50  H   UNL A   1      41.683  28.600  31.268  1.00  0.00     0.167 HD
ATOM     51  C   UNL A   1      42.595  29.146  33.904  1.00  0.00     0.074 A 
ATOM     52  C   UNL A   1      42.684  29.698  35.241  1.00  0.00     0.031 C 
ATOM     53  C   UNL A   1      43.439  28.203  33.415  1.00  0.00     0.034 A 
BRANCH  40  54
ATOM     54  C   UNL A   1      42.247  26.519  27.569  1.00  0.00     0.023 A 
ATOM     55  C   UNL A   1      41.866  25.171  27.467  1.00  0.00     0.031 A 
ATOM     56  C   UNL A   1      43.006  27.074  26.522  1.00  0.00     0.131 A 
ATOM     57  C   UNL A   1      42.291  24.407  26.368  1.00  0.00     0.055 A 
ATOM     58  C   UNL A   1      43.367  26.327  25.400  1.00  0.00     0.041 A 
ATOM     59  F   UNL A   1      43.415  28.351  26.578  1.00  0.00    -0.206 F 
ATOM     60  C   UNL A   1      43.018  24.981  25.323  1.00  0.00     0.022 A 
BRANCH  57  61
ATOM     61  S   UNL A   1      41.970  22.622  26.376  1.00  0.00     0.124 S 
ATOM     62  O   UNL A   1      42.461  22.241  27.699  1.00  0.00    -0.237 OA
ATOM     63  O   UNL A   1      40.525  22.559  26.189  1.00  0.00    -0.237 OA
ATOM     64  O   UNL A   1      42.766  22.125  25.256  1.00  0.00    -0.744 OA
ENDBRANCH  57  61
ENDBRANCH  40  54
BRANCH  41  65
ATOM     65  C   UNL A   1      39.363  32.305  35.230  1.00  0.00     0.023 A 
ATOM     66  C   UNL A   1      39.783  33.628  35.428  1.00  0.00     0.031 A 
ATOM     67  C   UNL A   1      38.515  31.730  36.195  1.00  0.00     0.131 A 
ATOM     68  C   UNL A   1      39.387  34.321  36.582  1.00  0.00     0.055 A 
ATOM     69  C   UNL A   1      38.079  32.441  37.313  1.00  0.00     0.041 A 
ATOM     70  F   UNL A   1      38.086  30.465  36.055  1.00  0.00    -0.206 F 
ATOM     71  C   UNL A   1      38.527  33.742  37.518  1.00  0.00     0.022 A 
BRANCH  68  72
ATOM     72  S   UNL A   1      40.091  35.963  36.892  1.00  0.00     0.124 S 
ATOM     73  O   UNL A   1      41.479  35.639  37.200  1.00  0.00    -0.237 OA
ATOM     74  O   UNL A   1      39.856  36.637  35.619  1.00  0.00    -0.237 OA
ATOM     75  O   UNL A   1      39.303  36.464  38.016  1.00  0.00    -0.744 OA
ENDBRANCH  68  72
ENDBRANCH  41  65
BRANCH  53  76
ATOM     76  C   UNL A   1      44.545  27.750  34.331  1.00  0.00     0.023 A 
ATOM     77  C   UNL A   1      44.354  26.702  35.248  1.00  0.00     0.031 A 
ATOM     78  C   UNL A   1      45.792  28.396  34.304  1.00  0.00     0.131 A 
ATOM     79  C   UNL A   1      45.383  26.363  36.139  1.00  0.00     0.055 A 
ATOM     80  C   UNL A   1      46.828  28.021  35.161  1.00  0.00     0.041 A 
ATOM     81  F   UNL A   1      46.021  29.404  33.447  1.00  0.00    -0.206 F 
ATOM     82  C   UNL A   1      46.622  27.007  36.092  1.00  0.00     0.022 A 
BRANCH  79  83
ATOM     83  S   UNL A   1      45.056  25.112  37.410  1.00  0.00     0.124 S 
ATOM     84  O   UNL A   1      43.626  25.281  37.642  1.00  0.00    -0.237 OA
ATOM     85  O   UNL A   1      45.451  23.875  36.743  1.00  0.00    -0.237 OA
ATOM     86  O   UNL A   1      45.917  25.516  38.520  1.00  0.00    -0.744 OA
ENDBRANCH  79  83
ENDBRANCH  53  76
ENDBRANCH  27  28
ENDBRANCH  20  22
ENDBRANCH  19  20
ENDBRANCH  18  19
ENDBRANCH   1  18
TORSDOF 17
ENDMDL
