MODEL 1
REMARK VINA RESULT:     -10.0      0.000      0.000
REMARK SMILES CCC(CC)[C@@H](C)[NH2+][C@@H](C)[C@@H](C)C(=O)OCCOC(=O)c1ccc(-c2c3nc(c(-c4cc(S(=O)(=O)[O-])ccc4F)c4ccc([nH]4)c(-c4cc(S(=O)(=O)[O-])ccc4F)c4nc(c(-c5cc(S(=O)(=O)[O-])ccc5F)c5ccc2[nH]5)C=C4)C=C3)cc1
REMARK SMILES IDX 16 1 15 2 13 3 14 4 11 5 12 6 9 7 10 8 8 9 6 12 7 13 3 14
REMARK SMILES IDX 2 15 1 16 4 17 5 18 17 19 18 20 19 21 20 22 21 23 22 24
REMARK SMILES IDX 83 25 23 26 82 27 24 28 25 29 26 30 76 31 27 32 81 33 75 34
REMARK SMILES IDX 77 35 28 36 80 37 74 38 73 39 29 41 61 42 41 43 60 44 42 45
REMARK SMILES IDX 45 46 59 47 78 48 43 49 44 50 58 52 79 53 46 54 30 55 31 56
REMARK SMILES IDX 39 57 32 58 38 59 40 60 37 61 33 62 34 63 35 64 36 65 62 66
REMARK SMILES IDX 63 67 71 68 64 69 70 70 72 71 69 72 65 73 66 74 67 75 68 76
REMARK SMILES IDX 47 77 48 78 56 79 49 80 55 81 57 82 54 83 50 84 51 85 52 86
REMARK SMILES IDX 53 87
REMARK H PARENT 8 10 8 11 77 40 45 51
REMARK Flexibility Score: inf
ROOT
ATOM      1  C   UNL A   1      34.720  21.064  25.049  1.00  0.00     0.274 C 
ENDROOT
BRANCH   1   2
ATOM      2  O   UNL A   1      33.994  22.303  25.197  1.00  0.00    -0.462 OA
BRANCH   2   3
ATOM      3  C   UNL A   1      33.564  22.850  24.029  1.00  0.00     0.314 C 
ATOM      4  O   UNL A   1      32.953  22.230  23.161  1.00  0.00    -0.252 OA
BRANCH   3   5
ATOM      5  C   UNL A   1      33.944  24.312  23.844  1.00  0.00     0.154 C 
ATOM      6  C   UNL A   1      34.449  24.794  25.208  1.00  0.00     0.026 C 
BRANCH   5   7
ATOM      7  C   UNL A   1      32.864  25.250  23.229  1.00  0.00     0.193 C 
ATOM      8  C   UNL A   1      33.300  25.767  21.851  1.00  0.00     0.076 C 
BRANCH   7   9
ATOM      9  N   UNL A   1      32.661  26.366  24.174  1.00  0.00    -0.341 N 
ATOM     10  H   UNL A   1      32.900  26.016  25.102  1.00  0.00     0.346 HD
ATOM     11  H   UNL A   1      33.247  27.110  23.794  1.00  0.00     0.346 HD
BRANCH   9  12
ATOM     12  C   UNL A   1      31.333  26.995  24.284  1.00  0.00     0.182 C 
ATOM     13  C   UNL A   1      31.422  28.503  23.994  1.00  0.00     0.075 C 
BRANCH  12  14
ATOM     14  C   UNL A   1      30.794  26.741  25.745  1.00  0.00     0.046 C 
BRANCH  14  15
ATOM     15  C   UNL A   1      30.095  25.361  25.884  1.00  0.00     0.006 C 
ATOM     16  C   UNL A   1      30.985  24.261  26.451  1.00  0.00     0.004 C 
ENDBRANCH  14  15
BRANCH  14  17
ATOM     17  C   UNL A   1      31.881  26.935  26.838  1.00  0.00     0.006 C 
ATOM     18  C   UNL A   1      31.845  28.277  27.555  1.00  0.00     0.004 C 
ENDBRANCH  14  17
ENDBRANCH  12  14
ENDBRANCH   9  12
ENDBRANCH   7   9
ENDBRANCH   5   7
ENDBRANCH   3   5
ENDBRANCH   2   3
ENDBRANCH   1   2
BRANCH   1  19
ATOM     19  C   UNL A   1      36.174  21.323  24.649  1.00  0.00     0.275 C 
BRANCH  19  20
ATOM     20  O   UNL A   1      36.923  21.785  25.786  1.00  0.00    -0.458 OA
BRANCH  20  21
ATOM     21  C   UNL A   1      38.227  21.427  25.812  1.00  0.00     0.338 C 
ATOM     22  O   UNL A   1      38.685  20.341  25.478  1.00  0.00    -0.246 OA
BRANCH  21  23
ATOM     23  C   UNL A   1      39.060  22.538  26.320  1.00  0.00     0.060 A 
ATOM     24  C   UNL A   1      40.177  22.315  27.134  1.00  0.00     0.016 A 
ATOM     25  C   UNL A   1      38.677  23.846  26.015  1.00  0.00     0.016 A 
ATOM     26  C   UNL A   1      40.890  23.394  27.665  1.00  0.00     0.010 A 
ATOM     27  C   UNL A   1      39.430  24.921  26.493  1.00  0.00     0.010 A 
ATOM     28  C   UNL A   1      40.536  24.709  27.332  1.00  0.00    -0.014 A 
BRANCH  28  29
ATOM     29  C   UNL A   1      41.310  25.878  27.830  1.00  0.00     0.031 A 
ATOM     30  C   UNL A   1      40.618  26.954  28.620  1.00  0.00     0.074 A 
ATOM     31  C   UNL A   1      42.611  26.010  27.510  1.00  0.00     0.049 A 
ATOM     32  N   UNL A   1      41.040  28.151  28.942  1.00  0.00    -0.248 NA
ATOM     33  C   UNL A   1      39.262  26.644  29.098  1.00  0.00     0.031 C 
ATOM     34  C   UNL A   1      43.406  25.023  26.774  1.00  0.00     0.029 A 
ATOM     35  N   UNL A   1      43.490  27.041  27.736  1.00  0.00    -0.354 N 
ATOM     36  C   UNL A   1      39.992  28.752  29.632  1.00  0.00     0.074 A 
ATOM     37  C   UNL A   1      38.907  27.790  29.662  1.00  0.00     0.031 C 
ATOM     38  C   UNL A   1      44.648  25.501  26.602  1.00  0.00     0.029 A 
ATOM     39  C   UNL A   1      44.718  26.853  27.145  1.00  0.00     0.049 A 
ATOM     40  H   UNL A   1      43.262  27.837  28.268  1.00  0.00     0.167 HD
ATOM     41  C   UNL A   1      39.942  29.989  30.187  1.00  0.00     0.034 A 
ATOM     42  C   UNL A   1      45.765  27.691  27.006  1.00  0.00     0.034 A 
ATOM     43  C   UNL A   1      41.035  30.931  30.150  1.00  0.00     0.049 A 
ATOM     44  C   UNL A   1      45.665  29.084  27.570  1.00  0.00     0.074 A 
ATOM     45  C   UNL A   1      41.098  32.206  30.690  1.00  0.00     0.029 A 
ATOM     46  N   UNL A   1      42.261  30.706  29.534  1.00  0.00    -0.354 N 
ATOM     47  N   UNL A   1      44.658  29.652  28.193  1.00  0.00    -0.248 NA
ATOM     48  C   UNL A   1      46.841  29.948  27.410  1.00  0.00     0.031 C 
ATOM     49  C   UNL A   1      42.334  32.769  30.349  1.00  0.00     0.029 A 
ATOM     50  C   UNL A   1      43.073  31.823  29.659  1.00  0.00     0.049 A 
ATOM     51  H   UNL A   1      42.515  29.873  29.075  1.00  0.00     0.167 HD
ATOM     52  C   UNL A   1      45.090  30.935  28.516  1.00  0.00     0.074 A 
ATOM     53  C   UNL A   1      46.452  31.049  28.035  1.00  0.00     0.031 C 
ATOM     54  C   UNL A   1      44.423  31.928  29.158  1.00  0.00     0.034 A 
BRANCH  41  55
ATOM     55  C   UNL A   1      38.642  30.410  30.832  1.00  0.00     0.023 A 
ATOM     56  C   UNL A   1      37.622  31.046  30.103  1.00  0.00     0.031 A 
ATOM     57  C   UNL A   1      38.429  30.190  32.205  1.00  0.00     0.131 A 
ATOM     58  C   UNL A   1      36.468  31.498  30.760  1.00  0.00     0.055 A 
ATOM     59  C   UNL A   1      37.246  30.576  32.839  1.00  0.00     0.041 A 
ATOM     60  F   UNL A   1      39.375  29.606  32.958  1.00  0.00    -0.206 F 
ATOM     61  C   UNL A   1      36.263  31.247  32.119  1.00  0.00     0.022 A 
BRANCH  58  62
ATOM     62  S   UNL A   1      35.297  32.539  29.845  1.00  0.00     0.124 S 
ATOM     63  O   UNL A   1      34.812  31.612  28.824  1.00  0.00    -0.237 OA
ATOM     64  O   UNL A   1      34.336  32.915  30.876  1.00  0.00    -0.237 OA
ATOM     65  O   UNL A   1      36.129  33.629  29.340  1.00  0.00    -0.744 OA
ENDBRANCH  58  62
ENDBRANCH  41  55
BRANCH  42  66
ATOM     66  C   UNL A   1      46.972  27.261  26.246  1.00  0.00     0.023 A 
ATOM     67  C   UNL A   1      47.167  27.655  24.914  1.00  0.00     0.031 A 
ATOM     68  C   UNL A   1      47.937  26.425  26.837  1.00  0.00     0.131 A 
ATOM     69  C   UNL A   1      48.282  27.183  24.203  1.00  0.00     0.055 A 
ATOM     70  C   UNL A   1      49.070  26.001  26.142  1.00  0.00     0.041 A 
ATOM     71  F   UNL A   1      47.797  26.021  28.110  1.00  0.00    -0.206 F 
ATOM     72  C   UNL A   1      49.242  26.371  24.813  1.00  0.00     0.022 A 
BRANCH  69  73
ATOM     73  S   UNL A   1      48.422  27.588  22.441  1.00  0.00     0.124 S 
ATOM     74  O   UNL A   1      48.504  26.262  21.837  1.00  0.00    -0.237 OA
ATOM     75  O   UNL A   1      47.186  28.326  22.200  1.00  0.00    -0.237 OA
ATOM     76  O   UNL A   1      49.645  28.384  22.371  1.00  0.00    -0.744 OA
ENDBRANCH  69  73
ENDBRANCH  42  66
BRANCH  54  77
ATOM     77  C   UNL A   1      45.186  33.205  29.411  1.00  0.00     0.023 A 
ATOM     78  C   UNL A   1      45.174  34.269  28.492  1.00  0.00     0.031 A 
ATOM     79  C   UNL A   1      45.959  33.345  30.577  1.00  0.00     0.131 A 
ATOM     80  C   UNL A   1      45.964  35.404  28.728  1.00  0.00     0.055 A 
ATOM     81  C   UNL A   1      46.700  34.498  30.834  1.00  0.00     0.041 A 
ATOM     82  F   UNL A   1      46.008  32.357  31.486  1.00  0.00    -0.206 F 
ATOM     83  C   UNL A   1      46.716  35.531  29.900  1.00  0.00     0.022 A 
BRANCH  80  84
ATOM     84  S   UNL A   1      46.070  36.678  27.441  1.00  0.00     0.124 S 
ATOM     85  O   UNL A   1      47.020  37.620  28.022  1.00  0.00    -0.237 OA
ATOM     86  O   UNL A   1      46.548  35.919  26.290  1.00  0.00    -0.237 OA
ATOM     87  O   UNL A   1      44.698  37.169  27.331  1.00  0.00    -0.744 OA
ENDBRANCH  80  84
ENDBRANCH  54  77
ENDBRANCH  28  29
ENDBRANCH  21  23
ENDBRANCH  20  21
ENDBRANCH  19  20
ENDBRANCH   1  19
TORSDOF 20
ENDMDL
MODEL 2
REMARK VINA RESULT:      -9.8      5.281     10.127
REMARK SMILES CCC(CC)[C@@H](C)[NH2+][C@@H](C)[C@@H](C)C(=O)OCCOC(=O)c1ccc(-c2c3nc(c(-c4cc(S(=O)(=O)[O-])ccc4F)c4ccc([nH]4)c(-c4cc(S(=O)(=O)[O-])ccc4F)c4nc(c(-c5cc(S(=O)(=O)[O-])ccc5F)c5ccc2[nH]5)C=C4)C=C3)cc1
REMARK SMILES IDX 16 1 15 2 13 3 14 4 11 5 12 6 9 7 10 8 8 9 6 12 7 13 3 14
REMARK SMILES IDX 2 15 1 16 4 17 5 18 17 19 18 20 19 21 20 22 21 23 22 24
REMARK SMILES IDX 83 25 23 26 82 27 24 28 25 29 26 30 76 31 27 32 81 33 75 34
REMARK SMILES IDX 77 35 28 36 80 37 74 38 73 39 29 41 61 42 41 43 60 44 42 45
REMARK SMILES IDX 45 46 59 47 78 48 43 49 44 50 58 52 79 53 46 54 30 55 31 56
REMARK SMILES IDX 39 57 32 58 38 59 40 60 37 61 33 62 34 63 35 64 36 65 62 66
REMARK SMILES IDX 63 67 71 68 64 69 70 70 72 71 69 72 65 73 66 74 67 75 68 76
REMARK SMILES IDX 47 77 48 78 56 79 49 80 55 81 57 82 54 83 50 84 51 85 52 86
REMARK SMILES IDX 53 87
REMARK H PARENT 8 10 8 11 77 40 45 51
REMARK Flexibility Score: inf
ROOT
ATOM      1  C   UNL A   1      32.991  29.215  24.642  1.00  0.00     0.274 C 
ENDROOT
BRANCH   1   2
ATOM      2  O   UNL A   1      32.650  27.875  24.228  1.00  0.00    -0.462 OA
BRANCH   2   3
ATOM      3  C   UNL A   1      32.891  27.608  22.917  1.00  0.00     0.314 C 
ATOM      4  O   UNL A   1      33.861  28.034  22.295  1.00  0.00    -0.252 OA
BRANCH   3   5
ATOM      5  C   UNL A   1      31.822  26.760  22.243  1.00  0.00     0.154 C 
ATOM      6  C   UNL A   1      30.477  27.361  22.665  1.00  0.00     0.026 C 
BRANCH   5   7
ATOM      7  C   UNL A   1      31.898  25.220  22.465  1.00  0.00     0.193 C 
ATOM      8  C   UNL A   1      30.847  24.755  23.481  1.00  0.00     0.076 C 
BRANCH   7   9
ATOM      9  N   UNL A   1      33.263  24.911  22.934  1.00  0.00    -0.341 N 
ATOM     10  H   UNL A   1      33.742  24.441  22.166  1.00  0.00     0.346 HD
ATOM     11  H   UNL A   1      33.628  25.820  23.221  1.00  0.00     0.346 HD
BRANCH   9  12
ATOM     12  C   UNL A   1      33.449  24.072  24.131  1.00  0.00     0.182 C 
ATOM     13  C   UNL A   1      34.321  24.797  25.171  1.00  0.00     0.075 C 
BRANCH  12  14
ATOM     14  C   UNL A   1      34.131  22.723  23.678  1.00  0.00     0.046 C 
BRANCH  14  15
ATOM     15  C   UNL A   1      35.593  22.600  24.187  1.00  0.00     0.006 C 
ATOM     16  C   UNL A   1      36.650  22.955  23.148  1.00  0.00     0.004 C 
ENDBRANCH  14  15
BRANCH  14  17
ATOM     17  C   UNL A   1      33.297  21.465  24.047  1.00  0.00     0.006 C 
ATOM     18  C   UNL A   1      32.175  21.704  25.049  1.00  0.00     0.004 C 
ENDBRANCH  14  17
ENDBRANCH  12  14
ENDBRANCH   9  12
ENDBRANCH   7   9
ENDBRANCH   5   7
ENDBRANCH   3   5
ENDBRANCH   2   3
ENDBRANCH   1   2
BRANCH   1  19
ATOM     19  C   UNL A   1      31.817  29.882  25.362  1.00  0.00     0.275 C 
BRANCH  19  20
ATOM     20  O   UNL A   1      32.136  30.073  26.752  1.00  0.00    -0.458 OA
BRANCH  20  21
ATOM     21  C   UNL A   1      32.764  31.232  27.054  1.00  0.00     0.338 C 
ATOM     22  O   UNL A   1      32.347  32.361  26.825  1.00  0.00    -0.246 OA
BRANCH  21  23
ATOM     23  C   UNL A   1      34.063  30.963  27.707  1.00  0.00     0.060 A 
ATOM     24  C   UNL A   1      34.479  29.664  28.022  1.00  0.00     0.016 A 
ATOM     25  C   UNL A   1      34.862  32.051  28.064  1.00  0.00     0.016 A 
ATOM     26  C   UNL A   1      35.675  29.456  28.715  1.00  0.00     0.010 A 
ATOM     27  C   UNL A   1      36.088  31.836  28.698  1.00  0.00     0.010 A 
ATOM     28  C   UNL A   1      36.503  30.539  29.041  1.00  0.00    -0.014 A 
BRANCH  28  29
ATOM     29  C   UNL A   1      37.810  30.348  29.726  1.00  0.00     0.031 A 
ATOM     30  C   UNL A   1      38.842  29.429  29.131  1.00  0.00     0.074 A 
ATOM     31  C   UNL A   1      38.040  30.937  30.915  1.00  0.00     0.049 A 
ATOM     32  N   UNL A   1      39.931  28.943  29.669  1.00  0.00    -0.248 NA
ATOM     33  C   UNL A   1      38.604  28.988  27.748  1.00  0.00     0.031 C 
ATOM     34  C   UNL A   1      37.134  31.874  31.585  1.00  0.00     0.029 A 
ATOM     35  N   UNL A   1      39.093  30.814  31.787  1.00  0.00    -0.354 N 
ATOM     36  C   UNL A   1      40.495  28.112  28.706  1.00  0.00     0.074 A 
ATOM     37  C   UNL A   1      39.611  28.148  27.557  1.00  0.00     0.031 C 
ATOM     38  C   UNL A   1      37.665  32.230  32.764  1.00  0.00     0.029 A 
ATOM     39  C   UNL A   1      38.908  31.494  32.968  1.00  0.00     0.049 A 
ATOM     40  H   UNL A   1      39.902  30.290  31.586  1.00  0.00     0.167 HD
ATOM     41  C   UNL A   1      41.641  27.389  28.776  1.00  0.00     0.034 A 
ATOM     42  C   UNL A   1      39.625  31.487  34.110  1.00  0.00     0.034 A 
ATOM     43  C   UNL A   1      42.510  27.371  29.928  1.00  0.00     0.049 A 
ATOM     44  C   UNL A   1      40.857  30.626  34.192  1.00  0.00     0.074 A 
ATOM     45  C   UNL A   1      43.701  26.685  30.103  1.00  0.00     0.029 A 
ATOM     46  N   UNL A   1      42.282  28.067  31.109  1.00  0.00    -0.354 N 
ATOM     47  N   UNL A   1      41.364  29.820  33.287  1.00  0.00    -0.248 NA
ATOM     48  C   UNL A   1      41.614  30.671  35.450  1.00  0.00     0.031 C 
ATOM     49  C   UNL A   1      44.159  26.920  31.405  1.00  0.00     0.029 A 
ATOM     50  C   UNL A   1      43.294  27.808  32.022  1.00  0.00     0.049 A 
ATOM     51  H   UNL A   1      41.513  28.659  31.274  1.00  0.00     0.167 HD
ATOM     52  C   UNL A   1      42.510  29.279  33.862  1.00  0.00     0.074 A 
ATOM     53  C   UNL A   1      42.628  29.863  35.182  1.00  0.00     0.031 C 
ATOM     54  C   UNL A   1      43.389  28.384  33.342  1.00  0.00     0.034 A 
BRANCH  41  55
ATOM     55  C   UNL A   1      41.987  26.518  27.591  1.00  0.00     0.023 A 
ATOM     56  C   UNL A   1      41.610  25.166  27.528  1.00  0.00     0.031 A 
ATOM     57  C   UNL A   1      42.725  27.045  26.516  1.00  0.00     0.131 A 
ATOM     58  C   UNL A   1      42.028  24.371  26.449  1.00  0.00     0.055 A 
ATOM     59  C   UNL A   1      43.074  26.268  25.409  1.00  0.00     0.041 A 
ATOM     60  F   UNL A   1      43.131  28.325  26.529  1.00  0.00    -0.206 F 
ATOM     61  C   UNL A   1      42.738  24.919  25.378  1.00  0.00     0.022 A 
BRANCH  58  62
ATOM     62  S   UNL A   1      41.748  22.580  26.529  1.00  0.00     0.124 S 
ATOM     63  O   UNL A   1      42.382  22.125  25.293  1.00  0.00    -0.237 OA
ATOM     64  O   UNL A   1      42.424  22.210  27.767  1.00  0.00    -0.237 OA
ATOM     65  O   UNL A   1      40.292  22.460  26.552  1.00  0.00    -0.744 OA
ENDBRANCH  58  62
ENDBRANCH  41  55
BRANCH  42  66
ATOM     66  C   UNL A   1      39.161  32.268  35.291  1.00  0.00     0.023 A 
ATOM     67  C   UNL A   1      38.550  31.636  36.383  1.00  0.00     0.031 A 
ATOM     68  C   UNL A   1      39.299  33.668  35.329  1.00  0.00     0.131 A 
ATOM     69  C   UNL A   1      38.066  32.405  37.454  1.00  0.00     0.055 A 
ATOM     70  C   UNL A   1      38.864  34.423  36.419  1.00  0.00     0.041 A 
ATOM     71  F   UNL A   1      39.879  34.322  34.309  1.00  0.00    -0.206 F 
ATOM     72  C   UNL A   1      38.233  33.792  37.485  1.00  0.00     0.022 A 
BRANCH  69  73
ATOM     73  S   UNL A   1      37.148  31.570  38.775  1.00  0.00     0.124 S 
ATOM     74  O   UNL A   1      37.020  30.218  38.240  1.00  0.00    -0.237 OA
ATOM     75  O   UNL A   1      38.046  31.725  39.914  1.00  0.00    -0.237 OA
ATOM     76  O   UNL A   1      35.903  32.331  38.857  1.00  0.00    -0.744 OA
ENDBRANCH  69  73
ENDBRANCH  42  66
BRANCH  54  77
ATOM     77  C   UNL A   1      44.578  28.025  34.200  1.00  0.00     0.023 A 
ATOM     78  C   UNL A   1      44.548  26.935  35.087  1.00  0.00     0.031 A 
ATOM     79  C   UNL A   1      45.747  28.805  34.146  1.00  0.00     0.131 A 
ATOM     80  C   UNL A   1      45.646  26.688  35.926  1.00  0.00     0.055 A 
ATOM     81  C   UNL A   1      46.856  28.521  34.942  1.00  0.00     0.041 A 
ATOM     82  F   UNL A   1      45.827  29.859  33.317  1.00  0.00    -0.206 F 
ATOM     83  C   UNL A   1      46.805  27.466  35.848  1.00  0.00     0.022 A 
BRANCH  80  84
ATOM     84  S   UNL A   1      45.507  25.390  37.185  1.00  0.00     0.124 S 
ATOM     85  O   UNL A   1      45.856  24.193  36.428  1.00  0.00    -0.237 OA
ATOM     86  O   UNL A   1      46.481  25.819  38.184  1.00  0.00    -0.237 OA
ATOM     87  O   UNL A   1      44.111  25.470  37.609  1.00  0.00    -0.744 OA
ENDBRANCH  80  84
ENDBRANCH  54  77
ENDBRANCH  28  29
ENDBRANCH  21  23
ENDBRANCH  20  21
ENDBRANCH  19  20
ENDBRANCH   1  19
TORSDOF 20
ENDMDL
MODEL 3
REMARK VINA RESULT:      -9.7      4.418     10.301
REMARK SMILES CCC(CC)[C@@H](C)[NH2+][C@@H](C)[C@@H](C)C(=O)OCCOC(=O)c1ccc(-c2c3nc(c(-c4cc(S(=O)(=O)[O-])ccc4F)c4ccc([nH]4)c(-c4cc(S(=O)(=O)[O-])ccc4F)c4nc(c(-c5cc(S(=O)(=O)[O-])ccc5F)c5ccc2[nH]5)C=C4)C=C3)cc1
REMARK SMILES IDX 16 1 15 2 13 3 14 4 11 5 12 6 9 7 10 8 8 9 6 12 7 13 3 14
REMARK SMILES IDX 2 15 1 16 4 17 5 18 17 19 18 20 19 21 20 22 21 23 22 24
REMARK SMILES IDX 83 25 23 26 82 27 24 28 25 29 26 30 76 31 27 32 81 33 75 34
REMARK SMILES IDX 77 35 28 36 80 37 74 38 73 39 29 41 61 42 41 43 60 44 42 45
REMARK SMILES IDX 45 46 59 47 78 48 43 49 44 50 58 52 79 53 46 54 30 55 31 56
REMARK SMILES IDX 39 57 32 58 38 59 40 60 37 61 33 62 34 63 35 64 36 65 62 66
REMARK SMILES IDX 63 67 71 68 64 69 70 70 72 71 69 72 65 73 66 74 67 75 68 76
REMARK SMILES IDX 47 77 48 78 56 79 49 80 55 81 57 82 54 83 50 84 51 85 52 86
REMARK SMILES IDX 53 87
REMARK H PARENT 8 10 8 11 77 40 45 51
REMARK Flexibility Score: inf
ROOT
ATOM      1  C   UNL A   1      42.474  20.002  26.272  1.00  0.00     0.274 C 
ENDROOT
BRANCH   1   2
ATOM      2  O   UNL A   1      43.065  20.735  25.178  1.00  0.00    -0.462 OA
BRANCH   2   3
ATOM      3  C   UNL A   1      44.195  21.420  25.500  1.00  0.00     0.314 C 
ATOM      4  O   UNL A   1      45.328  21.065  25.186  1.00  0.00    -0.252 OA
BRANCH   3   5
ATOM      5  C   UNL A   1      43.954  22.666  26.340  1.00  0.00     0.154 C 
ATOM      6  C   UNL A   1      43.430  23.734  25.374  1.00  0.00     0.026 C 
BRANCH   5   7
ATOM      7  C   UNL A   1      45.142  23.167  27.215  1.00  0.00     0.193 C 
ATOM      8  C   UNL A   1      44.681  23.483  28.644  1.00  0.00     0.076 C 
BRANCH   7   9
ATOM      9  N   UNL A   1      45.695  24.368  26.558  1.00  0.00    -0.341 N 
ATOM     10  H   UNL A   1      45.284  24.412  25.625  1.00  0.00     0.346 HD
ATOM     11  H   UNL A   1      45.461  25.123  27.204  1.00  0.00     0.346 HD
BRANCH   9  12
ATOM     12  C   UNL A   1      47.153  24.499  26.390  1.00  0.00     0.182 C 
ATOM     13  C   UNL A   1      47.809  24.976  27.697  1.00  0.00     0.075 C 
BRANCH  12  14
ATOM     14  C   UNL A   1      47.417  25.532  25.226  1.00  0.00     0.046 C 
BRANCH  14  15
ATOM     15  C   UNL A   1      46.186  26.438  24.950  1.00  0.00     0.006 C 
ATOM     16  C   UNL A   1      46.534  27.823  24.416  1.00  0.00     0.004 C 
ENDBRANCH  14  15
BRANCH  14  17
ATOM     17  C   UNL A   1      48.703  26.378  25.442  1.00  0.00     0.006 C 
ATOM     18  C   UNL A   1      49.633  26.459  24.240  1.00  0.00     0.004 C 
ENDBRANCH  14  17
ENDBRANCH  12  14
ENDBRANCH   9  12
ENDBRANCH   7   9
ENDBRANCH   5   7
ENDBRANCH   3   5
ENDBRANCH   2   3
ENDBRANCH   1   2
BRANCH   1  19
ATOM     19  C   UNL A   1      40.966  20.248  26.347  1.00  0.00     0.275 C 
BRANCH  19  20
ATOM     20  O   UNL A   1      40.690  21.363  27.211  1.00  0.00    -0.458 OA
BRANCH  20  21
ATOM     21  C   UNL A   1      39.810  22.271  26.732  1.00  0.00     0.338 C 
ATOM     22  O   UNL A   1      38.810  22.028  26.068  1.00  0.00    -0.246 OA
BRANCH  21  23
ATOM     23  C   UNL A   1      40.219  23.641  27.111  1.00  0.00     0.060 A 
ATOM     24  C   UNL A   1      40.933  23.903  28.286  1.00  0.00     0.016 A 
ATOM     25  C   UNL A   1      39.828  24.699  26.289  1.00  0.00     0.016 A 
ATOM     26  C   UNL A   1      41.229  25.219  28.653  1.00  0.00     0.010 A 
ATOM     27  C   UNL A   1      40.181  26.008  26.624  1.00  0.00     0.010 A 
ATOM     28  C   UNL A   1      40.874  26.284  27.814  1.00  0.00    -0.014 A 
BRANCH  28  29
ATOM     29  C   UNL A   1      41.226  27.692  28.145  1.00  0.00     0.031 A 
ATOM     30  C   UNL A   1      42.666  28.127  28.143  1.00  0.00     0.074 A 
ATOM     31  C   UNL A   1      40.262  28.556  28.519  1.00  0.00     0.049 A 
ATOM     32  N   UNL A   1      43.205  29.219  28.621  1.00  0.00    -0.248 NA
ATOM     33  C   UNL A   1      43.628  27.196  27.535  1.00  0.00     0.031 C 
ATOM     34  C   UNL A   1      38.826  28.268  28.534  1.00  0.00     0.029 A 
ATOM     35  N   UNL A   1      40.347  29.844  28.987  1.00  0.00    -0.354 N 
ATOM     36  C   UNL A   1      44.573  29.097  28.402  1.00  0.00     0.074 A 
ATOM     37  C   UNL A   1      44.779  27.810  27.765  1.00  0.00     0.031 C 
ATOM     38  C   UNL A   1      38.169  29.342  28.997  1.00  0.00     0.029 A 
ATOM     39  C   UNL A   1      39.136  30.364  29.382  1.00  0.00     0.049 A 
ATOM     40  H   UNL A   1      41.193  30.346  29.036  1.00  0.00     0.167 HD
ATOM     41  C   UNL A   1      45.562  29.976  28.704  1.00  0.00     0.034 A 
ATOM     42  C   UNL A   1      38.838  31.508  30.029  1.00  0.00     0.034 A 
ATOM     43  C   UNL A   1      45.335  31.255  29.334  1.00  0.00     0.049 A 
ATOM     44  C   UNL A   1      39.956  32.439  30.416  1.00  0.00     0.074 A 
ATOM     45  C   UNL A   1      46.261  32.228  29.675  1.00  0.00     0.029 A 
ATOM     46  N   UNL A   1      44.093  31.741  29.726  1.00  0.00    -0.354 N 
ATOM     47  N   UNL A   1      41.249  32.299  30.233  1.00  0.00    -0.248 NA
ATOM     48  C   UNL A   1      39.575  33.682  31.100  1.00  0.00     0.031 C 
ATOM     49  C   UNL A   1      45.587  33.270  30.323  1.00  0.00     0.029 A 
ATOM     50  C   UNL A   1      44.232  32.984  30.325  1.00  0.00     0.049 A 
ATOM     51  H   UNL A   1      43.238  31.270  29.598  1.00  0.00     0.167 HD
ATOM     52  C   UNL A   1      41.832  33.447  30.761  1.00  0.00     0.074 A 
ATOM     53  C   UNL A   1      40.749  34.274  31.254  1.00  0.00     0.031 C 
ATOM     54  C   UNL A   1      43.144  33.790  30.828  1.00  0.00     0.034 A 
BRANCH  41  55
ATOM     55  C   UNL A   1      46.981  29.555  28.405  1.00  0.00     0.023 A 
ATOM     56  C   UNL A   1      47.713  28.733  29.279  1.00  0.00     0.031 A 
ATOM     57  C   UNL A   1      47.621  30.002  27.234  1.00  0.00     0.131 A 
ATOM     58  C   UNL A   1      49.058  28.439  29.004  1.00  0.00     0.055 A 
ATOM     59  C   UNL A   1      48.936  29.645  26.929  1.00  0.00     0.041 A 
ATOM     60  F   UNL A   1      46.980  30.807  26.371  1.00  0.00    -0.206 F 
ATOM     61  C   UNL A   1      49.667  28.870  27.824  1.00  0.00     0.022 A 
BRANCH  58  62
ATOM     62  S   UNL A   1      50.041  27.598  30.276  1.00  0.00     0.124 S 
ATOM     63  O   UNL A   1      50.514  26.419  29.554  1.00  0.00    -0.237 OA
ATOM     64  O   UNL A   1      51.053  28.595  30.603  1.00  0.00    -0.237 OA
ATOM     65  O   UNL A   1      49.071  27.323  31.334  1.00  0.00    -0.744 OA
ENDBRANCH  58  62
ENDBRANCH  41  55
BRANCH  42  66
ATOM     66  C   UNL A   1      37.430  31.807  30.412  1.00  0.00     0.023 A 
ATOM     67  C   UNL A   1      36.567  32.474  29.531  1.00  0.00     0.031 A 
ATOM     68  C   UNL A   1      36.935  31.450  31.681  1.00  0.00     0.131 A 
ATOM     69  C   UNL A   1      35.264  32.798  29.943  1.00  0.00     0.055 A 
ATOM     70  C   UNL A   1      35.624  31.728  32.065  1.00  0.00     0.041 A 
ATOM     71  F   UNL A   1      37.721  30.808  32.560  1.00  0.00    -0.206 F 
ATOM     72  C   UNL A   1      34.783  32.417  31.198  1.00  0.00     0.022 A 
BRANCH  69  73
ATOM     73  S   UNL A   1      34.228  33.794  28.837  1.00  0.00     0.124 S 
ATOM     74  O   UNL A   1      33.269  34.375  29.771  1.00  0.00    -0.237 OA
ATOM     75  O   UNL A   1      35.199  34.716  28.259  1.00  0.00    -0.237 OA
ATOM     76  O   UNL A   1      33.677  32.809  27.909  1.00  0.00    -0.744 OA
ENDBRANCH  69  73
ENDBRANCH  42  66
BRANCH  54  77
ATOM     77  C   UNL A   1      43.463  35.141  31.419  1.00  0.00     0.023 A 
ATOM     78  C   UNL A   1      43.567  35.335  32.808  1.00  0.00     0.031 A 
ATOM     79  C   UNL A   1      43.640  36.254  30.579  1.00  0.00     0.131 A 
ATOM     80  C   UNL A   1      43.782  36.625  33.317  1.00  0.00     0.055 A 
ATOM     81  C   UNL A   1      43.910  37.524  31.088  1.00  0.00     0.041 A 
ATOM     82  F   UNL A   1      43.550  36.123  29.245  1.00  0.00    -0.206 F 
ATOM     83  C   UNL A   1      43.969  37.717  32.466  1.00  0.00     0.022 A 
BRANCH  80  84
ATOM     84  S   UNL A   1      43.728  36.874  35.114  1.00  0.00     0.124 S 
ATOM     85  O   UNL A   1      42.385  36.409  35.444  1.00  0.00    -0.237 OA
ATOM     86  O   UNL A   1      44.826  36.033  35.579  1.00  0.00    -0.237 OA
ATOM     87  O   UNL A   1      43.941  38.311  35.268  1.00  0.00    -0.744 OA
ENDBRANCH  80  84
ENDBRANCH  54  77
ENDBRANCH  28  29
ENDBRANCH  21  23
ENDBRANCH  20  21
ENDBRANCH  19  20
ENDBRANCH   1  19
TORSDOF 20
ENDMDL
