MODEL 1
REMARK VINA RESULT:     -11.9      0.000      0.000
REMARK SMILES CC1(C)C[C@@](Cc2ccccc2)(C(=O)OCCOC(=O)c2ccc(-c3c4nc(c(-c5cc(S(=O)(=O)[O-])ccc5F)c5ccc([nH]5)c(-c5cc(S(=O)(=O)[O-])ccc5F)c5nc(c(-c6cc(S(=O)(=O)[O-])ccc6F)c6ccc3[nH]6)C=C5)C=C4)cc2)CCO1
REMARK SMILES IDX 17 1 16 2 15 3 13 4 14 5 5 6 1 7 2 8 3 9 4 10 86 11 85 12
REMARK SMILES IDX 84 13 6 14 7 15 8 16 12 17 9 18 11 19 10 20 18 21 19 22
REMARK SMILES IDX 20 23 21 24 22 25 83 26 23 27 82 28 24 29 25 30 26 31 76 32
REMARK SMILES IDX 27 33 81 34 75 35 77 36 28 37 80 38 74 39 73 40 29 42 61 43
REMARK SMILES IDX 41 44 60 45 42 46 45 47 59 48 78 49 43 50 44 51 58 53 79 54
REMARK SMILES IDX 46 55 30 56 31 57 39 58 32 59 38 60 40 61 37 62 33 63 34 64
REMARK SMILES IDX 35 65 36 66 62 67 63 68 71 69 64 70 70 71 72 72 69 73 65 74
REMARK SMILES IDX 66 75 67 76 68 77 47 78 48 79 56 80 49 81 55 82 57 83 54 84
REMARK SMILES IDX 50 85 51 86 52 87 53 88
REMARK H PARENT 77 41 45 52
REMARK Flexibility Score: inf
ROOT
ATOM      1  C   UNL A   1      31.905  30.038  25.910  1.00  0.00     0.275 C 
ENDROOT
BRANCH   1   2
ATOM      2  C   UNL A   1      32.366  28.792  25.145  1.00  0.00     0.274 C 
BRANCH   2   3
ATOM      3  O   UNL A   1      33.035  27.856  26.025  1.00  0.00    -0.462 OA
BRANCH   3   4
ATOM      4  C   UNL A   1      32.412  26.685  26.281  1.00  0.00     0.312 C 
ATOM      5  O   UNL A   1      31.533  26.625  27.128  1.00  0.00    -0.252 OA
BRANCH   4   6
ATOM      6  C   UNL A   1      33.006  25.448  25.544  1.00  0.00     0.077 C 
ATOM      7  C   UNL A   1      30.188  25.982  23.902  1.00  0.00     0.042 C 
ATOM      8  C   UNL A   1      30.892  24.667  24.227  1.00  0.00     0.064 C 
ATOM      9  C   UNL A   1      30.490  23.706  23.093  1.00  0.00     0.042 C 
ATOM     10  C   UNL A   1      32.383  24.957  24.215  1.00  0.00     0.054 C 
ATOM     11  O   UNL A   1      30.415  24.040  25.410  1.00  0.00    -0.376 OA
ATOM     12  C   UNL A   1      31.187  23.974  26.601  1.00  0.00     0.162 C 
ATOM     13  C   UNL A   1      32.699  24.278  26.513  1.00  0.00     0.047 C 
BRANCH   6  14
ATOM     14  C   UNL A   1      34.552  25.641  25.291  1.00  0.00     0.054 C 
BRANCH  14  15
ATOM     15  C   UNL A   1      35.326  24.347  24.986  1.00  0.00    -0.047 A 
ATOM     16  C   UNL A   1      35.296  23.797  23.695  1.00  0.00     0.004 A 
ATOM     17  C   UNL A   1      36.179  23.743  25.922  1.00  0.00     0.004 A 
ATOM     18  C   UNL A   1      36.153  22.746  23.339  1.00  0.00     0.000 A 
ATOM     19  C   UNL A   1      37.061  22.721  25.561  1.00  0.00     0.000 A 
ATOM     20  C   UNL A   1      37.055  22.229  24.264  1.00  0.00     0.000 A 
ENDBRANCH  14  15
ENDBRANCH   6  14
ENDBRANCH   4   6
ENDBRANCH   3   4
ENDBRANCH   2   3
ENDBRANCH   1   2
BRANCH   1  21
ATOM     21  O   UNL A   1      32.630  30.135  27.147  1.00  0.00    -0.458 OA
BRANCH  21  22
ATOM     22  C   UNL A   1      33.321  31.285  27.353  1.00  0.00     0.338 C 
ATOM     23  O   UNL A   1      32.832  32.401  27.395  1.00  0.00    -0.246 OA
BRANCH  22  24
ATOM     24  C   UNL A   1      34.758  30.991  27.653  1.00  0.00     0.060 A 
ATOM     25  C   UNL A   1      35.178  29.694  27.937  1.00  0.00     0.016 A 
ATOM     26  C   UNL A   1      35.653  32.042  27.878  1.00  0.00     0.016 A 
ATOM     27  C   UNL A   1      36.375  29.483  28.626  1.00  0.00     0.010 A 
ATOM     28  C   UNL A   1      36.937  31.789  28.403  1.00  0.00     0.010 A 
ATOM     29  C   UNL A   1      37.312  30.504  28.836  1.00  0.00    -0.014 A 
BRANCH  29  30
ATOM     30  C   UNL A   1      38.640  30.230  29.497  1.00  0.00     0.031 A 
ATOM     31  C   UNL A   1      39.641  29.255  28.904  1.00  0.00     0.074 A 
ATOM     32  C   UNL A   1      38.982  30.842  30.655  1.00  0.00     0.049 A 
ATOM     33  N   UNL A   1      40.639  28.630  29.482  1.00  0.00    -0.248 NA
ATOM     34  C   UNL A   1      39.489  28.932  27.478  1.00  0.00     0.031 C 
ATOM     35  C   UNL A   1      38.205  31.875  31.345  1.00  0.00     0.029 A 
ATOM     36  N   UNL A   1      40.079  30.672  31.475  1.00  0.00    -0.354 N 
ATOM     37  C   UNL A   1      41.187  27.786  28.517  1.00  0.00     0.074 A 
ATOM     38  C   UNL A   1      40.402  27.983  27.313  1.00  0.00     0.031 C 
ATOM     39  C   UNL A   1      38.863  32.282  32.433  1.00  0.00     0.029 A 
ATOM     40  C   UNL A   1      40.005  31.408  32.636  1.00  0.00     0.049 A 
ATOM     41  H   UNL A   1      40.837  30.084  31.253  1.00  0.00     0.167 HD
ATOM     42  C   UNL A   1      42.234  26.924  28.630  1.00  0.00     0.034 A 
ATOM     43  C   UNL A   1      40.680  31.333  33.800  1.00  0.00     0.034 A 
ATOM     44  C   UNL A   1      43.044  26.785  29.825  1.00  0.00     0.049 A 
ATOM     45  C   UNL A   1      41.759  30.305  33.957  1.00  0.00     0.074 A 
ATOM     46  C   UNL A   1      44.129  25.948  30.043  1.00  0.00     0.029 A 
ATOM     47  N   UNL A   1      42.873  27.508  31.001  1.00  0.00    -0.354 N 
ATOM     48  N   UNL A   1      42.177  29.413  33.092  1.00  0.00    -0.248 NA
ATOM     49  C   UNL A   1      42.442  30.265  35.254  1.00  0.00     0.031 C 
ATOM     50  C   UNL A   1      44.558  26.108  31.366  1.00  0.00     0.029 A 
ATOM     51  C   UNL A   1      43.807  27.111  31.952  1.00  0.00     0.049 A 
ATOM     52  H   UNL A   1      42.188  28.202  31.140  1.00  0.00     0.167 HD
ATOM     53  C   UNL A   1      43.189  28.712  33.738  1.00  0.00     0.074 A 
ATOM     54  C   UNL A   1      43.330  29.302  35.054  1.00  0.00     0.031 C 
ATOM     55  C   UNL A   1      43.935  27.676  33.276  1.00  0.00     0.034 A 
BRANCH  42  56
ATOM     56  C   UNL A   1      42.526  26.001  27.461  1.00  0.00     0.023 A 
ATOM     57  C   UNL A   1      41.986  24.707  27.359  1.00  0.00     0.031 A 
ATOM     58  C   UNL A   1      43.377  26.433  26.424  1.00  0.00     0.131 A 
ATOM     59  C   UNL A   1      42.357  23.872  26.290  1.00  0.00     0.055 A 
ATOM     60  C   UNL A   1      43.672  25.629  25.319  1.00  0.00     0.041 A 
ATOM     61  F   UNL A   1      43.943  27.650  26.464  1.00  0.00    -0.206 F 
ATOM     62  C   UNL A   1      43.175  24.333  25.256  1.00  0.00     0.022 A 
BRANCH  59  63
ATOM     63  S   UNL A   1      41.890  22.119  26.351  1.00  0.00     0.124 S 
ATOM     64  O   UNL A   1      42.715  21.553  25.287  1.00  0.00    -0.237 OA
ATOM     65  O   UNL A   1      42.255  21.742  27.712  1.00  0.00    -0.237 OA
ATOM     66  O   UNL A   1      40.455  22.135  26.071  1.00  0.00    -0.744 OA
ENDBRANCH  59  63
ENDBRANCH  42  56
BRANCH  43  67
ATOM     67  C   UNL A   1      40.245  32.178  34.951  1.00  0.00     0.023 A 
ATOM     68  C   UNL A   1      39.320  31.710  35.895  1.00  0.00     0.031 A 
ATOM     69  C   UNL A   1      40.774  33.473  35.129  1.00  0.00     0.131 A 
ATOM     70  C   UNL A   1      38.942  32.536  36.965  1.00  0.00     0.055 A 
ATOM     71  C   UNL A   1      40.448  34.261  36.231  1.00  0.00     0.041 A 
ATOM     72  F   UNL A   1      41.660  33.973  34.251  1.00  0.00    -0.206 F 
ATOM     73  C   UNL A   1      39.518  33.796  37.153  1.00  0.00     0.022 A 
BRANCH  70  74
ATOM     74  S   UNL A   1      37.628  31.969  38.077  1.00  0.00     0.124 S 
ATOM     75  O   UNL A   1      37.421  30.601  37.616  1.00  0.00    -0.237 OA
ATOM     76  O   UNL A   1      38.252  32.118  39.387  1.00  0.00    -0.237 OA
ATOM     77  O   UNL A   1      36.529  32.893  37.804  1.00  0.00    -0.744 OA
ENDBRANCH  70  74
ENDBRANCH  43  67
BRANCH  55  78
ATOM     78  C   UNL A   1      45.011  27.153  34.197  1.00  0.00     0.023 A 
ATOM     79  C   UNL A   1      44.771  26.100  35.098  1.00  0.00     0.031 A 
ATOM     80  C   UNL A   1      46.281  27.759  34.216  1.00  0.00     0.131 A 
ATOM     81  C   UNL A   1      45.757  25.734  36.028  1.00  0.00     0.055 A 
ATOM     82  C   UNL A   1      47.282  27.344  35.095  1.00  0.00     0.041 A 
ATOM     83  F   UNL A   1      46.565  28.777  33.388  1.00  0.00    -0.206 F 
ATOM     84  C   UNL A   1      47.018  26.337  36.020  1.00  0.00     0.022 A 
BRANCH  81  85
ATOM     85  S   UNL A   1      45.330  24.548  37.333  1.00  0.00     0.124 S 
ATOM     86  O   UNL A   1      46.523  24.578  38.171  1.00  0.00    -0.237 OA
ATOM     87  O   UNL A   1      44.129  25.141  37.912  1.00  0.00    -0.237 OA
ATOM     88  O   UNL A   1      45.115  23.299  36.604  1.00  0.00    -0.744 OA
ENDBRANCH  81  85
ENDBRANCH  55  78
ENDBRANCH  29  30
ENDBRANCH  22  24
ENDBRANCH  21  22
ENDBRANCH   1  21
TORSDOF 16
ENDMDL
MODEL 2
REMARK VINA RESULT:     -11.9      1.611      3.371
REMARK SMILES CC1(C)C[C@@](Cc2ccccc2)(C(=O)OCCOC(=O)c2ccc(-c3c4nc(c(-c5cc(S(=O)(=O)[O-])ccc5F)c5ccc([nH]5)c(-c5cc(S(=O)(=O)[O-])ccc5F)c5nc(c(-c6cc(S(=O)(=O)[O-])ccc6F)c6ccc3[nH]6)C=C5)C=C4)cc2)CCO1
REMARK SMILES IDX 17 1 16 2 15 3 13 4 14 5 5 6 1 7 2 8 3 9 4 10 86 11 85 12
REMARK SMILES IDX 84 13 6 14 7 15 8 16 12 17 9 18 11 19 10 20 18 21 19 22
REMARK SMILES IDX 20 23 21 24 22 25 83 26 23 27 82 28 24 29 25 30 26 31 76 32
REMARK SMILES IDX 27 33 81 34 75 35 77 36 28 37 80 38 74 39 73 40 29 42 61 43
REMARK SMILES IDX 41 44 60 45 42 46 45 47 59 48 78 49 43 50 44 51 58 53 79 54
REMARK SMILES IDX 46 55 30 56 31 57 39 58 32 59 38 60 40 61 37 62 33 63 34 64
REMARK SMILES IDX 35 65 36 66 62 67 63 68 71 69 64 70 70 71 72 72 69 73 65 74
REMARK SMILES IDX 66 75 67 76 68 77 47 78 48 79 56 80 49 81 55 82 57 83 54 84
REMARK SMILES IDX 50 85 51 86 52 87 53 88
REMARK H PARENT 77 41 45 52
REMARK Flexibility Score: inf
ROOT
ATOM      1  C   UNL A   1      31.824  29.782  27.004  1.00  0.00     0.275 C 
ENDROOT
BRANCH   1   2
ATOM      2  C   UNL A   1      31.968  28.273  26.775  1.00  0.00     0.274 C 
BRANCH   2   3
ATOM      3  O   UNL A   1      32.076  27.967  25.364  1.00  0.00    -0.462 OA
BRANCH   3   4
ATOM      4  C   UNL A   1      31.041  27.321  24.783  1.00  0.00     0.312 C 
ATOM      5  O   UNL A   1      30.500  26.384  25.352  1.00  0.00    -0.252 OA
BRANCH   4   6
ATOM      6  C   UNL A   1      30.727  27.760  23.321  1.00  0.00     0.077 C 
ATOM      7  C   UNL A   1      32.302  24.886  22.890  1.00  0.00     0.042 C 
ATOM      8  C   UNL A   1      32.321  26.147  22.029  1.00  0.00     0.064 C 
ATOM      9  C   UNL A   1      32.599  25.650  20.599  1.00  0.00     0.042 C 
ATOM     10  C   UNL A   1      30.942  26.775  22.147  1.00  0.00     0.054 C 
ATOM     11  O   UNL A   1      33.403  27.021  22.318  1.00  0.00    -0.376 OA
ATOM     12  C   UNL A   1      33.218  28.274  22.964  1.00  0.00     0.162 C 
ATOM     13  C   UNL A   1      31.789  28.854  23.045  1.00  0.00     0.047 C 
BRANCH   6  14
ATOM     14  C   UNL A   1      29.249  28.303  23.210  1.00  0.00     0.054 C 
BRANCH  14  15
ATOM     15  C   UNL A   1      29.130  29.787  22.825  1.00  0.00    -0.047 A 
ATOM     16  C   UNL A   1      28.848  30.150  21.499  1.00  0.00     0.004 A 
ATOM     17  C   UNL A   1      29.169  30.816  23.779  1.00  0.00     0.004 A 
ATOM     18  C   UNL A   1      28.529  31.474  21.166  1.00  0.00     0.000 A 
ATOM     19  C   UNL A   1      28.815  32.129  23.458  1.00  0.00     0.000 A 
ATOM     20  C   UNL A   1      28.484  32.457  22.151  1.00  0.00     0.000 A 
ENDBRANCH  14  15
ENDBRANCH   6  14
ENDBRANCH   4   6
ENDBRANCH   3   4
ENDBRANCH   2   3
ENDBRANCH   1   2
BRANCH   1  21
ATOM     21  O   UNL A   1      33.005  30.451  26.531  1.00  0.00    -0.458 OA
BRANCH  21  22
ATOM     22  C   UNL A   1      33.538  31.389  27.356  1.00  0.00     0.338 C 
ATOM     23  O   UNL A   1      32.917  32.298  27.880  1.00  0.00    -0.246 OA
BRANCH  22  24
ATOM     24  C   UNL A   1      34.974  31.083  27.645  1.00  0.00     0.060 A 
ATOM     25  C   UNL A   1      35.403  29.772  27.833  1.00  0.00     0.016 A 
ATOM     26  C   UNL A   1      35.860  32.121  27.954  1.00  0.00     0.016 A 
ATOM     27  C   UNL A   1      36.596  29.518  28.514  1.00  0.00     0.010 A 
ATOM     28  C   UNL A   1      37.142  31.838  28.468  1.00  0.00     0.010 A 
ATOM     29  C   UNL A   1      37.524  30.527  28.806  1.00  0.00    -0.014 A 
BRANCH  29  30
ATOM     30  C   UNL A   1      38.849  30.214  29.455  1.00  0.00     0.031 A 
ATOM     31  C   UNL A   1      39.817  29.213  28.850  1.00  0.00     0.074 A 
ATOM     32  C   UNL A   1      39.219  30.812  30.612  1.00  0.00     0.049 A 
ATOM     33  N   UNL A   1      40.802  28.558  29.418  1.00  0.00    -0.248 NA
ATOM     34  C   UNL A   1      39.644  28.898  27.425  1.00  0.00     0.031 C 
ATOM     35  C   UNL A   1      38.477  31.864  31.311  1.00  0.00     0.029 A 
ATOM     36  N   UNL A   1      40.317  30.609  31.422  1.00  0.00    -0.354 N 
ATOM     37  C   UNL A   1      41.318  27.701  28.446  1.00  0.00     0.074 A 
ATOM     38  C   UNL A   1      40.528  27.924  27.250  1.00  0.00     0.031 C 
ATOM     39  C   UNL A   1      39.156  32.250  32.395  1.00  0.00     0.029 A 
ATOM     40  C   UNL A   1      40.275  31.343  32.586  1.00  0.00     0.049 A 
ATOM     41  H   UNL A   1      41.056  30.000  31.191  1.00  0.00     0.167 HD
ATOM     42  C   UNL A   1      42.341  26.810  28.548  1.00  0.00     0.034 A 
ATOM     43  C   UNL A   1      40.957  31.246  33.743  1.00  0.00     0.034 A 
ATOM     44  C   UNL A   1      43.157  26.645  29.735  1.00  0.00     0.049 A 
ATOM     45  C   UNL A   1      42.007  30.187  33.888  1.00  0.00     0.074 A 
ATOM     46  C   UNL A   1      44.219  25.777  29.942  1.00  0.00     0.029 A 
ATOM     47  N   UNL A   1      43.016  27.368  30.914  1.00  0.00    -0.354 N 
ATOM     48  N   UNL A   1      42.393  29.286  33.017  1.00  0.00    -0.248 NA
ATOM     49  C   UNL A   1      42.700  30.124  35.179  1.00  0.00     0.031 C 
ATOM     50  C   UNL A   1      44.664  25.920  31.261  1.00  0.00     0.029 A 
ATOM     51  C   UNL A   1      43.947  26.943  31.856  1.00  0.00     0.049 A 
ATOM     52  H   UNL A   1      42.352  28.081  31.061  1.00  0.00     0.167 HD
ATOM     53  C   UNL A   1      43.390  28.555  33.652  1.00  0.00     0.074 A 
ATOM     54  C   UNL A   1      43.559  29.137  34.968  1.00  0.00     0.031 C 
ATOM     55  C   UNL A   1      44.102  27.499  33.181  1.00  0.00     0.034 A 
BRANCH  42  56
ATOM     56  C   UNL A   1      42.596  25.882  27.374  1.00  0.00     0.023 A 
ATOM     57  C   UNL A   1      42.074  24.579  27.305  1.00  0.00     0.031 A 
ATOM     58  C   UNL A   1      43.393  26.320  26.296  1.00  0.00     0.131 A 
ATOM     59  C   UNL A   1      42.412  23.741  26.227  1.00  0.00     0.055 A 
ATOM     60  C   UNL A   1      43.652  25.513  25.186  1.00  0.00     0.041 A 
ATOM     61  F   UNL A   1      43.939  27.547  26.303  1.00  0.00    -0.206 F 
ATOM     62  C   UNL A   1      43.175  24.208  25.154  1.00  0.00     0.022 A 
BRANCH  59  63
ATOM     63  S   UNL A   1      41.977  21.981  26.322  1.00  0.00     0.124 S 
ATOM     64  O   UNL A   1      42.874  21.399  25.327  1.00  0.00    -0.237 OA
ATOM     65  O   UNL A   1      42.270  21.658  27.714  1.00  0.00    -0.237 OA
ATOM     66  O   UNL A   1      40.561  21.956  25.960  1.00  0.00    -0.744 OA
ENDBRANCH  59  63
ENDBRANCH  42  56
BRANCH  43  67
ATOM     67  C   UNL A   1      40.556  32.100  34.901  1.00  0.00     0.023 A 
ATOM     68  C   UNL A   1      39.540  31.706  35.783  1.00  0.00     0.031 A 
ATOM     69  C   UNL A   1      41.209  33.324  35.146  1.00  0.00     0.131 A 
ATOM     70  C   UNL A   1      39.198  32.537  36.861  1.00  0.00     0.055 A 
ATOM     71  C   UNL A   1      40.912  34.111  36.257  1.00  0.00     0.041 A 
ATOM     72  F   UNL A   1      42.185  33.752  34.328  1.00  0.00    -0.206 F 
ATOM     73  C   UNL A   1      39.894  33.722  37.119  1.00  0.00     0.022 A 
BRANCH  70  74
ATOM     74  S   UNL A   1      37.778  32.082  37.891  1.00  0.00     0.124 S 
ATOM     75  O   UNL A   1      36.799  33.095  37.509  1.00  0.00    -0.237 OA
ATOM     76  O   UNL A   1      37.500  30.722  37.444  1.00  0.00    -0.237 OA
ATOM     77  O   UNL A   1      38.294  32.195  39.252  1.00  0.00    -0.744 OA
ENDBRANCH  70  74
ENDBRANCH  43  67
BRANCH  55  78
ATOM     78  C   UNL A   1      45.171  26.944  34.091  1.00  0.00     0.023 A 
ATOM     79  C   UNL A   1      44.916  25.876  34.972  1.00  0.00     0.031 A 
ATOM     80  C   UNL A   1      46.449  27.531  34.121  1.00  0.00     0.131 A 
ATOM     81  C   UNL A   1      45.898  25.479  35.893  1.00  0.00     0.055 A 
ATOM     82  C   UNL A   1      47.445  27.085  34.991  1.00  0.00     0.041 A 
ATOM     83  F   UNL A   1      46.748  28.560  33.312  1.00  0.00    -0.206 F 
ATOM     84  C   UNL A   1      47.167  26.064  35.896  1.00  0.00     0.022 A 
BRANCH  81  85
ATOM     85  S   UNL A   1      45.453  24.274  37.175  1.00  0.00     0.124 S 
ATOM     86  O   UNL A   1      46.328  24.666  38.274  1.00  0.00    -0.237 OA
ATOM     87  O   UNL A   1      44.031  24.534  37.368  1.00  0.00    -0.237 OA
ATOM     88  O   UNL A   1      45.770  22.986  36.560  1.00  0.00    -0.744 OA
ENDBRANCH  81  85
ENDBRANCH  55  78
ENDBRANCH  29  30
ENDBRANCH  22  24
ENDBRANCH  21  22
ENDBRANCH   1  21
TORSDOF 16
ENDMDL
MODEL 3
REMARK VINA RESULT:     -11.9      5.016      9.762
REMARK SMILES CC1(C)C[C@@](Cc2ccccc2)(C(=O)OCCOC(=O)c2ccc(-c3c4nc(c(-c5cc(S(=O)(=O)[O-])ccc5F)c5ccc([nH]5)c(-c5cc(S(=O)(=O)[O-])ccc5F)c5nc(c(-c6cc(S(=O)(=O)[O-])ccc6F)c6ccc3[nH]6)C=C5)C=C4)cc2)CCO1
REMARK SMILES IDX 17 1 16 2 15 3 13 4 14 5 5 6 1 7 2 8 3 9 4 10 86 11 85 12
REMARK SMILES IDX 84 13 6 14 7 15 8 16 12 17 9 18 11 19 10 20 18 21 19 22
REMARK SMILES IDX 20 23 21 24 22 25 83 26 23 27 82 28 24 29 25 30 26 31 76 32
REMARK SMILES IDX 27 33 81 34 75 35 77 36 28 37 80 38 74 39 73 40 29 42 61 43
REMARK SMILES IDX 41 44 60 45 42 46 45 47 59 48 78 49 43 50 44 51 58 53 79 54
REMARK SMILES IDX 46 55 30 56 31 57 39 58 32 59 38 60 40 61 37 62 33 63 34 64
REMARK SMILES IDX 35 65 36 66 62 67 63 68 71 69 64 70 70 71 72 72 69 73 65 74
REMARK SMILES IDX 66 75 67 76 68 77 47 78 48 79 56 80 49 81 55 82 57 83 54 84
REMARK SMILES IDX 50 85 51 86 52 87 53 88
REMARK H PARENT 77 41 45 52
REMARK Flexibility Score: inf
ROOT
ATOM      1  C   UNL A   1      35.826  21.620  24.636  1.00  0.00     0.275 C 
ENDROOT
BRANCH   1   2
ATOM      2  C   UNL A   1      35.033  22.711  25.365  1.00  0.00     0.274 C 
BRANCH   2   3
ATOM      3  O   UNL A   1      33.886  23.132  24.587  1.00  0.00    -0.462 OA
BRANCH   3   4
ATOM      4  C   UNL A   1      34.041  24.201  23.775  1.00  0.00     0.312 C 
ATOM      5  O   UNL A   1      34.750  24.126  22.782  1.00  0.00    -0.252 OA
BRANCH   4   6
ATOM      6  C   UNL A   1      33.393  25.521  24.292  1.00  0.00     0.077 C 
ATOM      7  C   UNL A   1      30.761  23.692  23.482  1.00  0.00     0.042 C 
ATOM      8  C   UNL A   1      30.967  25.202  23.382  1.00  0.00     0.064 C 
ATOM      9  C   UNL A   1      29.560  25.808  23.523  1.00  0.00     0.042 C 
ATOM     10  C   UNL A   1      31.868  25.596  24.541  1.00  0.00     0.054 C 
ATOM     11  O   UNL A   1      31.415  25.634  22.105  1.00  0.00    -0.376 OA
ATOM     12  C   UNL A   1      32.734  26.114  21.881  1.00  0.00     0.162 C 
ATOM     13  C   UNL A   1      33.591  26.500  23.107  1.00  0.00     0.047 C 
BRANCH   6  14
ATOM     14  C   UNL A   1      34.106  26.010  25.613  1.00  0.00     0.054 C 
BRANCH  14  15
ATOM     15  C   UNL A   1      33.496  27.269  26.251  1.00  0.00    -0.047 A 
ATOM     16  C   UNL A   1      34.038  28.534  25.972  1.00  0.00     0.004 A 
ATOM     17  C   UNL A   1      32.321  27.230  27.018  1.00  0.00     0.004 A 
ATOM     18  C   UNL A   1      33.379  29.705  26.369  1.00  0.00     0.000 A 
ATOM     19  C   UNL A   1      31.641  28.394  27.381  1.00  0.00     0.000 A 
ATOM     20  C   UNL A   1      32.165  29.635  27.048  1.00  0.00     0.000 A 
ENDBRANCH  14  15
ENDBRANCH   6  14
ENDBRANCH   4   6
ENDBRANCH   3   4
ENDBRANCH   2   3
ENDBRANCH   1   2
BRANCH   1  21
ATOM     21  O   UNL A   1      37.191  22.044  24.483  1.00  0.00    -0.458 OA
BRANCH  21  22
ATOM     22  C   UNL A   1      38.091  21.499  25.340  1.00  0.00     0.338 C 
ATOM     23  O   UNL A   1      38.439  20.330  25.344  1.00  0.00    -0.246 OA
BRANCH  22  24
ATOM     24  C   UNL A   1      38.703  22.556  26.205  1.00  0.00     0.060 A 
ATOM     25  C   UNL A   1      38.261  23.875  26.143  1.00  0.00     0.016 A 
ATOM     26  C   UNL A   1      39.876  22.282  26.918  1.00  0.00     0.016 A 
ATOM     27  C   UNL A   1      39.084  24.909  26.595  1.00  0.00     0.010 A 
ATOM     28  C   UNL A   1      40.600  23.324  27.532  1.00  0.00     0.010 A 
ATOM     29  C   UNL A   1      40.246  24.673  27.345  1.00  0.00    -0.014 A 
BRANCH  29  30
ATOM     30  C   UNL A   1      41.066  25.808  27.904  1.00  0.00     0.031 A 
ATOM     31  C   UNL A   1      40.442  26.899  28.756  1.00  0.00     0.074 A 
ATOM     32  C   UNL A   1      42.393  25.899  27.656  1.00  0.00     0.049 A 
ATOM     33  N   UNL A   1      40.882  28.107  29.017  1.00  0.00    -0.248 NA
ATOM     34  C   UNL A   1      39.148  26.594  29.384  1.00  0.00     0.031 C 
ATOM     35  C   UNL A   1      43.203  24.914  26.935  1.00  0.00     0.029 A 
ATOM     36  N   UNL A   1      43.305  26.884  27.974  1.00  0.00    -0.354 N 
ATOM     37  C   UNL A   1      39.891  28.732  29.773  1.00  0.00     0.074 A 
ATOM     38  C   UNL A   1      38.824  27.762  29.926  1.00  0.00     0.031 C 
ATOM     39  C   UNL A   1      44.479  25.307  26.915  1.00  0.00     0.029 A 
ATOM     40  C   UNL A   1      44.554  26.660  27.438  1.00  0.00     0.049 A 
ATOM     41  H   UNL A   1      43.086  27.669  28.528  1.00  0.00     0.167 HD
ATOM     42  C   UNL A   1      39.871  29.995  30.280  1.00  0.00     0.034 A 
ATOM     43  C   UNL A   1      45.620  27.464  27.258  1.00  0.00     0.034 A 
ATOM     44  C   UNL A   1      40.974  30.931  30.168  1.00  0.00     0.049 A 
ATOM     45  C   UNL A   1      45.550  28.888  27.718  1.00  0.00     0.074 A 
ATOM     46  C   UNL A   1      41.059  32.230  30.648  1.00  0.00     0.029 A 
ATOM     47  N   UNL A   1      42.189  30.670  29.545  1.00  0.00    -0.354 N 
ATOM     48  N   UNL A   1      44.559  29.516  28.304  1.00  0.00    -0.248 NA
ATOM     49  C   UNL A   1      46.737  29.714  27.476  1.00  0.00     0.031 C 
ATOM     50  C   UNL A   1      42.285  32.774  30.249  1.00  0.00     0.029 A 
ATOM     51  C   UNL A   1      43.011  31.791  29.601  1.00  0.00     0.049 A 
ATOM     52  H   UNL A   1      42.433  29.814  29.124  1.00  0.00     0.167 HD
ATOM     53  C   UNL A   1      45.011  30.813  28.515  1.00  0.00     0.074 A 
ATOM     54  C   UNL A   1      46.370  30.867  28.015  1.00  0.00     0.031 C 
ATOM     55  C   UNL A   1      44.357  31.861  29.079  1.00  0.00     0.034 A 
BRANCH  42  56
ATOM     56  C   UNL A   1      38.591  30.479  30.937  1.00  0.00     0.023 A 
ATOM     57  C   UNL A   1      37.548  31.088  30.217  1.00  0.00     0.031 A 
ATOM     58  C   UNL A   1      38.419  30.328  32.328  1.00  0.00     0.131 A 
ATOM     59  C   UNL A   1      36.422  31.585  30.896  1.00  0.00     0.055 A 
ATOM     60  C   UNL A   1      37.258  30.745  32.984  1.00  0.00     0.041 A 
ATOM     61  F   UNL A   1      39.381  29.771  33.081  1.00  0.00    -0.206 F 
ATOM     62  C   UNL A   1      36.257  31.394  32.270  1.00  0.00     0.022 A 
BRANCH  59  63
ATOM     63  S   UNL A   1      35.248  32.630  29.988  1.00  0.00     0.124 S 
ATOM     64  O   UNL A   1      36.106  33.724  29.541  1.00  0.00    -0.237 OA
ATOM     65  O   UNL A   1      34.764  31.730  28.947  1.00  0.00    -0.237 OA
ATOM     66  O   UNL A   1      34.261  33.000  31.001  1.00  0.00    -0.744 OA
ENDBRANCH  59  63
ENDBRANCH  42  56
BRANCH  43  67
ATOM     67  C   UNL A   1      46.790  26.960  26.480  1.00  0.00     0.023 A 
ATOM     68  C   UNL A   1      47.901  26.388  27.117  1.00  0.00     0.031 A 
ATOM     69  C   UNL A   1      46.799  27.032  25.073  1.00  0.00     0.131 A 
ATOM     70  C   UNL A   1      48.979  25.924  26.346  1.00  0.00     0.055 A 
ATOM     71  C   UNL A   1      47.840  26.506  24.311  1.00  0.00     0.041 A 
ATOM     72  F   UNL A   1      45.762  27.576  24.413  1.00  0.00    -0.206 F 
ATOM     73  C   UNL A   1      48.944  25.954  24.949  1.00  0.00     0.022 A 
BRANCH  70  74
ATOM     74  S   UNL A   1      50.466  25.337  27.200  1.00  0.00     0.124 S 
ATOM     75  O   UNL A   1      50.838  26.508  27.985  1.00  0.00    -0.237 OA
ATOM     76  O   UNL A   1      49.956  24.196  27.952  1.00  0.00    -0.237 OA
ATOM     77  O   UNL A   1      51.376  25.003  26.107  1.00  0.00    -0.744 OA
ENDBRANCH  70  74
ENDBRANCH  43  67
BRANCH  55  78
ATOM     78  C   UNL A   1      45.137  33.145  29.228  1.00  0.00     0.023 A 
ATOM     79  C   UNL A   1      45.263  34.065  28.170  1.00  0.00     0.031 A 
ATOM     80  C   UNL A   1      45.817  33.424  30.427  1.00  0.00     0.131 A 
ATOM     81  C   UNL A   1      46.105  35.179  28.308  1.00  0.00     0.055 A 
ATOM     82  C   UNL A   1      46.596  34.571  30.583  1.00  0.00     0.041 A 
ATOM     83  F   UNL A   1      45.744  32.578  31.467  1.00  0.00    -0.206 F 
ATOM     84  C   UNL A   1      46.758  35.448  29.513  1.00  0.00     0.022 A 
BRANCH  81  85
ATOM     85  S   UNL A   1      46.439  36.205  26.849  1.00  0.00     0.124 S 
ATOM     86  O   UNL A   1      47.893  36.321  26.887  1.00  0.00    -0.237 OA
ATOM     87  O   UNL A   1      45.891  35.396  25.766  1.00  0.00    -0.237 OA
ATOM     88  O   UNL A   1      45.712  37.443  27.127  1.00  0.00    -0.744 OA
ENDBRANCH  81  85
ENDBRANCH  55  78
ENDBRANCH  29  30
ENDBRANCH  22  24
ENDBRANCH  21  22
ENDBRANCH   1  21
TORSDOF 16
ENDMDL
