MODEL 1
REMARK VINA RESULT:     -11.8      0.000      0.000
REMARK SMILES O=C(C[C@@H](NS(=O)(=O)c1ccc2c(c1)OCCO2)c1ccccc1)OCCOC(=O)c1ccc(-c2c3nc(c(-c4cc(S(=O)(=O)[O-])ccc4F)c4ccc([nH]4)c(-c4cc(S(=O)(=O)[O-])ccc4F)c4nc(c(-c5cc(S(=O)(=O)[O-])ccc5F)c5ccc2[nH]5)C=C4)C=C3)cc1
REMARK SMILES IDX 26 1 25 2 2 3 1 4 3 5 4 6 5 7 6 9 7 10 8 11 9 12 10 13 14 14
REMARK SMILES IDX 11 15 13 16 12 17 15 18 18 19 16 20 17 21 19 22 20 23 24 24
REMARK SMILES IDX 21 25 23 26 22 27 27 28 28 29 29 30 30 31 31 32 32 33 93 34
REMARK SMILES IDX 33 35 92 36 34 37 35 38 36 39 86 40 37 41 91 42 85 43 87 44
REMARK SMILES IDX 38 45 90 46 84 47 83 48 39 50 71 51 51 52 70 53 52 54 55 55
REMARK SMILES IDX 69 56 88 57 53 58 54 59 68 61 89 62 56 63 40 64 41 65 49 66
REMARK SMILES IDX 42 67 48 68 50 69 47 70 43 71 44 72 45 73 46 74 72 75 73 76
REMARK SMILES IDX 81 77 74 78 80 79 82 80 79 81 75 82 76 83 77 84 78 85 57 86
REMARK SMILES IDX 58 87 66 88 59 89 65 90 67 91 64 92 60 93 61 94 62 95 63 96
REMARK H PARENT 5 8 87 49 55 60
REMARK Flexibility Score: inf
ROOT
ATOM      1  C   UNL A   1      34.726  20.817  25.268  1.00  0.00     0.274 C 
ENDROOT
BRANCH   1   2
ATOM      2  O   UNL A   1      34.474  21.577  26.474  1.00  0.00    -0.462 OA
BRANCH   2   3
ATOM      3  C   UNL A   1      33.672  22.672  26.526  1.00  0.00     0.307 C 
ATOM      4  O   UNL A   1      32.453  22.557  26.606  1.00  0.00    -0.252 OA
BRANCH   3   5
ATOM      5  C   UNL A   1      34.326  24.014  26.422  1.00  0.00     0.147 C 
BRANCH   5   6
ATOM      6  C   UNL A   1      34.010  24.836  25.168  1.00  0.00     0.111 C 
BRANCH   6   7
ATOM      7  N   UNL A   1      33.127  24.079  24.235  1.00  0.00    -0.203 NA
ATOM      8  H   UNL A   1      32.220  23.985  24.691  1.00  0.00     0.142 HD
BRANCH   7   9
ATOM      9  S   UNL A   1      32.842  24.708  22.684  1.00  0.00     0.241 S 
ATOM     10  O   UNL A   1      33.980  25.535  22.356  1.00  0.00    -0.207 OA
ATOM     11  O   UNL A   1      32.501  23.560  21.869  1.00  0.00    -0.207 OA
BRANCH   9  12
ATOM     12  C   UNL A   1      31.398  25.710  22.825  1.00  0.00     0.086 A 
ATOM     13  C   UNL A   1      30.324  25.279  23.612  1.00  0.00     0.026 A 
ATOM     14  C   UNL A   1      31.369  26.953  22.187  1.00  0.00     0.072 A 
ATOM     15  C   UNL A   1      29.241  26.137  23.819  1.00  0.00     0.052 A 
ATOM     16  C   UNL A   1      30.299  27.810  22.424  1.00  0.00     0.162 A 
ATOM     17  C   UNL A   1      29.235  27.407  23.237  1.00  0.00     0.161 A 
ATOM     18  O   UNL A   1      30.382  29.055  21.857  1.00  0.00    -0.486 OA
ATOM     19  O   UNL A   1      28.172  28.217  23.541  1.00  0.00    -0.486 OA
ATOM     20  C   UNL A   1      29.538  29.986  22.543  1.00  0.00     0.271 C 
ATOM     21  C   UNL A   1      28.148  29.403  22.737  1.00  0.00     0.271 C 
ENDBRANCH   9  12
ENDBRANCH   7   9
ENDBRANCH   6   7
BRANCH   6  22
ATOM     22  C   UNL A   1      33.339  26.106  25.685  1.00  0.00    -0.029 A 
ATOM     23  C   UNL A   1      33.857  27.380  25.368  1.00  0.00     0.005 A 
ATOM     24  C   UNL A   1      32.175  26.034  26.455  1.00  0.00     0.005 A 
ATOM     25  C   UNL A   1      33.226  28.546  25.802  1.00  0.00     0.000 A 
ATOM     26  C   UNL A   1      31.565  27.204  26.912  1.00  0.00     0.000 A 
ATOM     27  C   UNL A   1      32.078  28.456  26.578  1.00  0.00     0.000 A 
ENDBRANCH   6  22
ENDBRANCH   5   6
ENDBRANCH   3   5
ENDBRANCH   2   3
ENDBRANCH   1   2
BRANCH   1  28
ATOM     28  C   UNL A   1      36.212  20.588  24.980  1.00  0.00     0.275 C 
BRANCH  28  29
ATOM     29  O   UNL A   1      37.036  21.515  25.712  1.00  0.00    -0.458 OA
BRANCH  29  30
ATOM     30  C   UNL A   1      38.339  21.154  25.850  1.00  0.00     0.338 C 
ATOM     31  O   UNL A   1      38.836  20.109  25.467  1.00  0.00    -0.246 OA
BRANCH  30  32
ATOM     32  C   UNL A   1      39.129  22.311  26.340  1.00  0.00     0.060 A 
ATOM     33  C   UNL A   1      38.691  23.595  25.989  1.00  0.00     0.016 A 
ATOM     34  C   UNL A   1      40.242  22.162  27.173  1.00  0.00     0.016 A 
ATOM     35  C   UNL A   1      39.358  24.728  26.465  1.00  0.00     0.010 A 
ATOM     36  C   UNL A   1      40.914  23.298  27.641  1.00  0.00     0.010 A 
ATOM     37  C   UNL A   1      40.484  24.590  27.285  1.00  0.00    -0.014 A 
BRANCH  37  38
ATOM     38  C   UNL A   1      41.280  25.777  27.700  1.00  0.00     0.031 A 
ATOM     39  C   UNL A   1      40.583  26.922  28.379  1.00  0.00     0.074 A 
ATOM     40  C   UNL A   1      42.602  25.855  27.459  1.00  0.00     0.049 A 
ATOM     41  N   UNL A   1      41.059  28.088  28.724  1.00  0.00    -0.248 NA
ATOM     42  C   UNL A   1      39.169  26.716  28.727  1.00  0.00     0.031 C 
ATOM     43  C   UNL A   1      43.417  24.784  26.898  1.00  0.00     0.029 A 
ATOM     44  N   UNL A   1      43.490  26.893  27.626  1.00  0.00    -0.354 N 
ATOM     45  C   UNL A   1      40.009  28.757  29.340  1.00  0.00     0.074 A 
ATOM     46  C   UNL A   1      38.861  27.875  29.291  1.00  0.00     0.031 C 
ATOM     47  C   UNL A   1      44.668  25.238  26.701  1.00  0.00     0.029 A 
ATOM     48  C   UNL A   1      44.735  26.644  27.090  1.00  0.00     0.049 A 
ATOM     49  H   UNL A   1      43.259  27.732  28.086  1.00  0.00     0.167 HD
ATOM     50  C   UNL A   1      40.008  29.989  29.903  1.00  0.00     0.034 A 
ATOM     51  C   UNL A   1      45.789  27.461  26.890  1.00  0.00     0.034 A 
ATOM     52  C   UNL A   1      41.155  30.862  29.940  1.00  0.00     0.049 A 
ATOM     53  C   UNL A   1      45.712  28.888  27.385  1.00  0.00     0.074 A 
ATOM     54  C   UNL A   1      41.268  32.102  30.545  1.00  0.00     0.029 A 
ATOM     55  N   UNL A   1      42.374  30.607  29.328  1.00  0.00    -0.354 N 
ATOM     56  N   UNL A   1      44.730  29.486  28.018  1.00  0.00    -0.248 NA
ATOM     57  C   UNL A   1      46.888  29.741  27.160  1.00  0.00     0.031 C 
ATOM     58  C   UNL A   1      42.519  32.635  30.220  1.00  0.00     0.029 A 
ATOM     59  C   UNL A   1      43.220  31.694  29.484  1.00  0.00     0.049 A 
ATOM     60  H   UNL A   1      42.603  29.776  28.852  1.00  0.00     0.167 HD
ATOM     61  C   UNL A   1      45.190  30.770  28.303  1.00  0.00     0.074 A 
ATOM     62  C   UNL A   1      46.536  30.857  27.782  1.00  0.00     0.031 C 
ATOM     63  C   UNL A   1      44.558  31.781  28.951  1.00  0.00     0.034 A 
BRANCH  50  64
ATOM     64  C   UNL A   1      38.713  30.494  30.479  1.00  0.00     0.023 A 
ATOM     65  C   UNL A   1      37.794  31.226  29.710  1.00  0.00     0.031 A 
ATOM     66  C   UNL A   1      38.385  30.210  31.817  1.00  0.00     0.131 A 
ATOM     67  C   UNL A   1      36.603  31.683  30.297  1.00  0.00     0.055 A 
ATOM     68  C   UNL A   1      37.173  30.612  32.376  1.00  0.00     0.041 A 
ATOM     69  F   UNL A   1      39.241  29.534  32.600  1.00  0.00    -0.206 F 
ATOM     70  C   UNL A   1      36.276  31.359  31.617  1.00  0.00     0.022 A 
BRANCH  67  71
ATOM     71  S   UNL A   1      35.529  32.786  29.341  1.00  0.00     0.124 S 
ATOM     72  O   UNL A   1      35.072  33.718  30.368  1.00  0.00    -0.237 OA
ATOM     73  O   UNL A   1      36.444  33.332  28.344  1.00  0.00    -0.237 OA
ATOM     74  O   UNL A   1      34.498  31.892  28.818  1.00  0.00    -0.744 OA
ENDBRANCH  67  71
ENDBRANCH  50  64
BRANCH  51  75
ATOM     75  C   UNL A   1      46.989  27.001  26.127  1.00  0.00     0.023 A 
ATOM     76  C   UNL A   1      48.048  26.337  26.764  1.00  0.00     0.031 A 
ATOM     77  C   UNL A   1      47.146  27.331  24.767  1.00  0.00     0.131 A 
ATOM     78  C   UNL A   1      49.243  26.093  26.068  1.00  0.00     0.055 A 
ATOM     79  C   UNL A   1      48.315  27.033  24.063  1.00  0.00     0.041 A 
ATOM     80  F   UNL A   1      46.168  27.967  24.100  1.00  0.00    -0.206 F 
ATOM     81  C   UNL A   1      49.380  26.427  24.720  1.00  0.00     0.022 A 
BRANCH  78  82
ATOM     82  S   UNL A   1      50.671  25.459  26.992  1.00  0.00     0.124 S 
ATOM     83  O   UNL A   1      51.031  26.614  27.807  1.00  0.00    -0.237 OA
ATOM     84  O   UNL A   1      50.088  24.326  27.703  1.00  0.00    -0.237 OA
ATOM     85  O   UNL A   1      51.627  25.112  25.942  1.00  0.00    -0.744 OA
ENDBRANCH  78  82
ENDBRANCH  51  75
BRANCH  63  86
ATOM     86  C   UNL A   1      45.333  33.058  29.169  1.00  0.00     0.023 A 
ATOM     87  C   UNL A   1      45.239  34.140  28.277  1.00  0.00     0.031 A 
ATOM     88  C   UNL A   1      46.171  33.196  30.290  1.00  0.00     0.131 A 
ATOM     89  C   UNL A   1      46.004  35.295  28.497  1.00  0.00     0.055 A 
ATOM     90  C   UNL A   1      46.883  34.371  30.536  1.00  0.00     0.041 A 
ATOM     91  F   UNL A   1      46.302  32.192  31.174  1.00  0.00    -0.206 F 
ATOM     92  C   UNL A   1      46.809  35.426  29.632  1.00  0.00     0.022 A 
BRANCH  89  93
ATOM     93  S   UNL A   1      45.985  36.605  27.242  1.00  0.00     0.124 S 
ATOM     94  O   UNL A   1      44.572  36.661  26.884  1.00  0.00    -0.237 OA
ATOM     95  O   UNL A   1      46.501  37.754  27.978  1.00  0.00    -0.237 OA
ATOM     96  O   UNL A   1      46.870  36.092  26.197  1.00  0.00    -0.744 OA
ENDBRANCH  89  93
ENDBRANCH  63  86
ENDBRANCH  37  38
ENDBRANCH  30  32
ENDBRANCH  29  30
ENDBRANCH  28  29
ENDBRANCH   1  28
TORSDOF 19
ENDMDL
MODEL 2
REMARK VINA RESULT:     -11.6      2.066      8.026
REMARK SMILES O=C(C[C@@H](NS(=O)(=O)c1ccc2c(c1)OCCO2)c1ccccc1)OCCOC(=O)c1ccc(-c2c3nc(c(-c4cc(S(=O)(=O)[O-])ccc4F)c4ccc([nH]4)c(-c4cc(S(=O)(=O)[O-])ccc4F)c4nc(c(-c5cc(S(=O)(=O)[O-])ccc5F)c5ccc2[nH]5)C=C4)C=C3)cc1
REMARK SMILES IDX 26 1 25 2 2 3 1 4 3 5 4 6 5 7 6 9 7 10 8 11 9 12 10 13 14 14
REMARK SMILES IDX 11 15 13 16 12 17 15 18 18 19 16 20 17 21 19 22 20 23 24 24
REMARK SMILES IDX 21 25 23 26 22 27 27 28 28 29 29 30 30 31 31 32 32 33 93 34
REMARK SMILES IDX 33 35 92 36 34 37 35 38 36 39 86 40 37 41 91 42 85 43 87 44
REMARK SMILES IDX 38 45 90 46 84 47 83 48 39 50 71 51 51 52 70 53 52 54 55 55
REMARK SMILES IDX 69 56 88 57 53 58 54 59 68 61 89 62 56 63 40 64 41 65 49 66
REMARK SMILES IDX 42 67 48 68 50 69 47 70 43 71 44 72 45 73 46 74 72 75 73 76
REMARK SMILES IDX 81 77 74 78 80 79 82 80 79 81 75 82 76 83 77 84 78 85 57 86
REMARK SMILES IDX 58 87 66 88 59 89 65 90 67 91 64 92 60 93 61 94 62 95 63 96
REMARK H PARENT 5 8 87 49 55 60
REMARK Flexibility Score: inf
ROOT
ATOM      1  C   UNL A   1      37.682  20.348  24.995  1.00  0.00     0.274 C 
ENDROOT
BRANCH   1   2
ATOM      2  O   UNL A   1      36.949  21.169  25.933  1.00  0.00    -0.462 OA
BRANCH   2   3
ATOM      3  C   UNL A   1      35.981  22.052  25.573  1.00  0.00     0.307 C 
ATOM      4  O   UNL A   1      35.906  23.157  26.102  1.00  0.00    -0.252 OA
BRANCH   3   5
ATOM      5  C   UNL A   1      34.981  21.603  24.554  1.00  0.00     0.147 C 
BRANCH   5   6
ATOM      6  C   UNL A   1      33.694  20.967  25.091  1.00  0.00     0.111 C 
BRANCH   6   7
ATOM      7  N   UNL A   1      32.511  21.836  24.830  1.00  0.00    -0.203 NA
ATOM      8  H   UNL A   1      31.804  21.254  24.381  1.00  0.00     0.142 HD
BRANCH   7   9
ATOM      9  S   UNL A   1      31.760  22.614  26.137  1.00  0.00     0.241 S 
ATOM     10  O   UNL A   1      30.391  22.150  26.165  1.00  0.00    -0.207 OA
ATOM     11  O   UNL A   1      32.640  22.390  27.266  1.00  0.00    -0.207 OA
BRANCH   9  12
ATOM     12  C   UNL A   1      31.797  24.337  25.764  1.00  0.00     0.086 A 
ATOM     13  C   UNL A   1      32.975  25.067  25.959  1.00  0.00     0.026 A 
ATOM     14  C   UNL A   1      30.658  24.941  25.226  1.00  0.00     0.072 A 
ATOM     15  C   UNL A   1      33.031  26.399  25.540  1.00  0.00     0.052 A 
ATOM     16  C   UNL A   1      30.733  26.258  24.786  1.00  0.00     0.162 A 
ATOM     17  C   UNL A   1      31.915  26.990  24.941  1.00  0.00     0.161 A 
ATOM     18  O   UNL A   1      29.616  26.757  24.169  1.00  0.00    -0.486 OA
ATOM     19  O   UNL A   1      32.067  28.276  24.494  1.00  0.00    -0.486 OA
ATOM     20  C   UNL A   1      29.948  27.875  23.338  1.00  0.00     0.271 C 
ATOM     21  C   UNL A   1      30.821  28.861  24.095  1.00  0.00     0.271 C 
ENDBRANCH   9  12
ENDBRANCH   7   9
ENDBRANCH   6   7
BRANCH   6  22
ATOM     22  C   UNL A   1      33.586  19.625  24.372  1.00  0.00    -0.029 A 
ATOM     23  C   UNL A   1      34.531  18.602  24.598  1.00  0.00     0.005 A 
ATOM     24  C   UNL A   1      32.525  19.367  23.498  1.00  0.00     0.005 A 
ATOM     25  C   UNL A   1      34.416  17.358  23.976  1.00  0.00     0.000 A 
ATOM     26  C   UNL A   1      32.432  18.131  22.856  1.00  0.00     0.000 A 
ATOM     27  C   UNL A   1      33.363  17.125  23.101  1.00  0.00     0.000 A 
ENDBRANCH   6  22
ENDBRANCH   5   6
ENDBRANCH   3   5
ENDBRANCH   2   3
ENDBRANCH   1   2
BRANCH   1  28
ATOM     28  C   UNL A   1      38.771  19.489  25.645  1.00  0.00     0.275 C 
BRANCH  28  29
ATOM     29  O   UNL A   1      40.015  20.206  25.745  1.00  0.00    -0.458 OA
BRANCH  29  30
ATOM     30  C   UNL A   1      40.487  20.381  27.007  1.00  0.00     0.338 C 
ATOM     31  O   UNL A   1      40.756  19.495  27.799  1.00  0.00    -0.246 OA
BRANCH  30  32
ATOM     32  C   UNL A   1      40.844  21.808  27.214  1.00  0.00     0.060 A 
ATOM     33  C   UNL A   1      40.258  22.756  26.363  1.00  0.00     0.016 A 
ATOM     34  C   UNL A   1      41.685  22.229  28.248  1.00  0.00     0.016 A 
ATOM     35  C   UNL A   1      40.509  24.120  26.542  1.00  0.00     0.010 A 
ATOM     36  C   UNL A   1      41.942  23.596  28.419  1.00  0.00     0.010 A 
ATOM     37  C   UNL A   1      41.364  24.552  27.563  1.00  0.00    -0.014 A 
BRANCH  37  38
ATOM     38  C   UNL A   1      41.740  25.986  27.692  1.00  0.00     0.031 A 
ATOM     39  C   UNL A   1      43.078  26.438  27.182  1.00  0.00     0.074 A 
ATOM     40  C   UNL A   1      40.917  26.878  28.275  1.00  0.00     0.049 A 
ATOM     41  N   UNL A   1      43.649  27.608  27.289  1.00  0.00    -0.248 NA
ATOM     42  C   UNL A   1      43.869  25.443  26.443  1.00  0.00     0.031 C 
ATOM     43  C   UNL A   1      39.558  26.597  28.725  1.00  0.00     0.029 A 
ATOM     44  N   UNL A   1      41.112  28.196  28.618  1.00  0.00    -0.354 N 
ATOM     45  C   UNL A   1      44.863  27.499  26.622  1.00  0.00     0.074 A 
ATOM     46  C   UNL A   1      44.959  26.135  26.143  1.00  0.00     0.031 C 
ATOM     47  C   UNL A   1      39.066  27.683  29.346  1.00  0.00     0.029 A 
ATOM     48  C   UNL A   1      40.087  28.727  29.370  1.00  0.00     0.049 A 
ATOM     49  H   UNL A   1      41.909  28.711  28.351  1.00  0.00     0.167 HD
ATOM     50  C   UNL A   1      45.803  28.452  26.421  1.00  0.00     0.034 A 
ATOM     51  C   UNL A   1      39.997  29.894  30.040  1.00  0.00     0.034 A 
ATOM     52  C   UNL A   1      45.701  29.805  26.909  1.00  0.00     0.049 A 
ATOM     53  C   UNL A   1      41.133  30.887  29.934  1.00  0.00     0.074 A 
ATOM     54  C   UNL A   1      46.574  30.859  26.700  1.00  0.00     0.029 A 
ATOM     55  N   UNL A   1      44.686  30.286  27.723  1.00  0.00    -0.354 N 
ATOM     56  N   UNL A   1      42.249  30.789  29.251  1.00  0.00    -0.248 NA
ATOM     57  C   UNL A   1      40.988  32.153  30.668  1.00  0.00     0.031 C 
ATOM     58  C   UNL A   1      46.136  31.947  27.462  1.00  0.00     0.029 A 
ATOM     59  C   UNL A   1      44.946  31.600  28.080  1.00  0.00     0.049 A 
ATOM     60  H   UNL A   1      43.897  29.770  28.007  1.00  0.00     0.167 HD
ATOM     61  C   UNL A   1      42.916  31.998  29.439  1.00  0.00     0.074 A 
ATOM     62  C   UNL A   1      42.076  32.810  30.292  1.00  0.00     0.031 C 
ATOM     63  C   UNL A   1      44.111  32.403  28.940  1.00  0.00     0.034 A 
BRANCH  50  64
ATOM     64  C   UNL A   1      47.055  28.056  25.687  1.00  0.00     0.023 A 
ATOM     65  C   UNL A   1      47.161  28.157  24.290  1.00  0.00     0.031 A 
ATOM     66  C   UNL A   1      48.173  27.596  26.407  1.00  0.00     0.131 A 
ATOM     67  C   UNL A   1      48.349  27.767  23.652  1.00  0.00     0.055 A 
ATOM     68  C   UNL A   1      49.371  27.270  25.773  1.00  0.00     0.041 A 
ATOM     69  F   UNL A   1      48.114  27.460  27.741  1.00  0.00    -0.206 F 
ATOM     70  C   UNL A   1      49.462  27.348  24.387  1.00  0.00     0.022 A 
BRANCH  67  71
ATOM     71  S   UNL A   1      48.389  27.724  21.840  1.00  0.00     0.124 S 
ATOM     72  O   UNL A   1      49.455  28.677  21.545  1.00  0.00    -0.237 OA
ATOM     73  O   UNL A   1      48.690  26.323  21.564  1.00  0.00    -0.237 OA
ATOM     74  O   UNL A   1      47.048  28.161  21.457  1.00  0.00    -0.744 OA
ENDBRANCH  67  71
ENDBRANCH  50  64
BRANCH  51  75
ATOM     75  C   UNL A   1      38.836  30.182  30.937  1.00  0.00     0.023 A 
ATOM     76  C   UNL A   1      37.756  30.965  30.502  1.00  0.00     0.031 A 
ATOM     77  C   UNL A   1      38.852  29.779  32.285  1.00  0.00     0.131 A 
ATOM     78  C   UNL A   1      36.779  31.383  31.419  1.00  0.00     0.055 A 
ATOM     79  C   UNL A   1      37.847  30.150  33.181  1.00  0.00     0.041 A 
ATOM     80  F   UNL A   1      39.859  29.028  32.763  1.00  0.00    -0.206 F 
ATOM     81  C   UNL A   1      36.811  30.973  32.753  1.00  0.00     0.022 A 
BRANCH  78  82
ATOM     82  S   UNL A   1      35.539  32.592  30.876  1.00  0.00     0.124 S 
ATOM     83  O   UNL A   1      36.190  33.853  31.212  1.00  0.00    -0.237 OA
ATOM     84  O   UNL A   1      35.426  32.286  29.453  1.00  0.00    -0.237 OA
ATOM     85  O   UNL A   1      34.365  32.259  31.680  1.00  0.00    -0.744 OA
ENDBRANCH  78  82
ENDBRANCH  51  75
BRANCH  63  86
ATOM     86  C   UNL A   1      44.562  33.805  29.270  1.00  0.00     0.023 A 
ATOM     87  C   UNL A   1      44.316  34.883  28.402  1.00  0.00     0.031 A 
ATOM     88  C   UNL A   1      45.242  34.066  30.473  1.00  0.00     0.131 A 
ATOM     89  C   UNL A   1      44.784  36.164  28.730  1.00  0.00     0.055 A 
ATOM     90  C   UNL A   1      45.652  35.354  30.822  1.00  0.00     0.041 A 
ATOM     91  F   UNL A   1      45.508  33.073  31.337  1.00  0.00    -0.206 F 
ATOM     92  C   UNL A   1      45.432  36.411  29.944  1.00  0.00     0.022 A 
BRANCH  89  93
ATOM     93  S   UNL A   1      44.594  37.498  27.516  1.00  0.00     0.124 S 
ATOM     94  O   UNL A   1      43.269  37.225  26.970  1.00  0.00    -0.237 OA
ATOM     95  O   UNL A   1      44.707  38.695  28.343  1.00  0.00    -0.237 OA
ATOM     96  O   UNL A   1      45.704  37.280  26.589  1.00  0.00    -0.744 OA
ENDBRANCH  89  93
ENDBRANCH  63  86
ENDBRANCH  37  38
ENDBRANCH  30  32
ENDBRANCH  29  30
ENDBRANCH  28  29
ENDBRANCH   1  28
TORSDOF 19
ENDMDL
MODEL 3
REMARK VINA RESULT:     -11.6      2.195      3.852
REMARK SMILES O=C(C[C@@H](NS(=O)(=O)c1ccc2c(c1)OCCO2)c1ccccc1)OCCOC(=O)c1ccc(-c2c3nc(c(-c4cc(S(=O)(=O)[O-])ccc4F)c4ccc([nH]4)c(-c4cc(S(=O)(=O)[O-])ccc4F)c4nc(c(-c5cc(S(=O)(=O)[O-])ccc5F)c5ccc2[nH]5)C=C4)C=C3)cc1
REMARK SMILES IDX 26 1 25 2 2 3 1 4 3 5 4 6 5 7 6 9 7 10 8 11 9 12 10 13 14 14
REMARK SMILES IDX 11 15 13 16 12 17 15 18 18 19 16 20 17 21 19 22 20 23 24 24
REMARK SMILES IDX 21 25 23 26 22 27 27 28 28 29 29 30 30 31 31 32 32 33 93 34
REMARK SMILES IDX 33 35 92 36 34 37 35 38 36 39 86 40 37 41 91 42 85 43 87 44
REMARK SMILES IDX 38 45 90 46 84 47 83 48 39 50 71 51 51 52 70 53 52 54 55 55
REMARK SMILES IDX 69 56 88 57 53 58 54 59 68 61 89 62 56 63 40 64 41 65 49 66
REMARK SMILES IDX 42 67 48 68 50 69 47 70 43 71 44 72 45 73 46 74 72 75 73 76
REMARK SMILES IDX 81 77 74 78 80 79 82 80 79 81 75 82 76 83 77 84 78 85 57 86
REMARK SMILES IDX 58 87 66 88 59 89 65 90 67 91 64 92 60 93 61 94 62 95 63 96
REMARK H PARENT 5 8 87 49 55 60
REMARK Flexibility Score: inf
ROOT
ATOM      1  C   UNL A   1      35.967  21.199  24.996  1.00  0.00     0.274 C 
ENDROOT
BRANCH   1   2
ATOM      2  O   UNL A   1      35.317  21.432  26.268  1.00  0.00    -0.462 OA
BRANCH   2   3
ATOM      3  C   UNL A   1      34.835  22.639  26.663  1.00  0.00     0.307 C 
ATOM      4  O   UNL A   1      34.127  22.740  27.660  1.00  0.00    -0.252 OA
BRANCH   3   5
ATOM      5  C   UNL A   1      35.151  23.824  25.805  1.00  0.00     0.147 C 
BRANCH   5   6
ATOM      6  C   UNL A   1      34.163  24.137  24.676  1.00  0.00     0.111 C 
BRANCH   6   7
ATOM      7  N   UNL A   1      32.950  23.274  24.766  1.00  0.00    -0.203 NA
ATOM      8  H   UNL A   1      32.270  23.771  25.342  1.00  0.00     0.142 HD
BRANCH   7   9
ATOM      9  S   UNL A   1      32.155  22.825  23.336  1.00  0.00     0.241 S 
ATOM     10  O   UNL A   1      30.780  23.248  23.475  1.00  0.00    -0.207 OA
ATOM     11  O   UNL A   1      32.984  23.340  22.266  1.00  0.00    -0.207 OA
BRANCH   9  12
ATOM     12  C   UNL A   1      32.233  21.064  23.271  1.00  0.00     0.086 A 
ATOM     13  C   UNL A   1      32.047  20.403  22.051  1.00  0.00     0.026 A 
ATOM     14  C   UNL A   1      32.533  20.354  24.436  1.00  0.00     0.072 A 
ATOM     15  C   UNL A   1      32.238  19.020  21.989  1.00  0.00     0.052 A 
ATOM     16  C   UNL A   1      32.749  18.982  24.356  1.00  0.00     0.162 A 
ATOM     17  C   UNL A   1      32.602  18.312  23.137  1.00  0.00     0.161 A 
ATOM     18  O   UNL A   1      33.147  18.362  25.511  1.00  0.00    -0.486 OA
ATOM     19  O   UNL A   1      32.838  16.971  22.982  1.00  0.00    -0.486 OA
ATOM     20  C   UNL A   1      33.807  17.124  25.225  1.00  0.00     0.271 C 
ATOM     21  C   UNL A   1      32.995  16.301  24.240  1.00  0.00     0.271 C 
ENDBRANCH   9  12
ENDBRANCH   7   9
ENDBRANCH   6   7
BRANCH   6  22
ATOM     22  C   UNL A   1      33.825  25.616  24.844  1.00  0.00    -0.029 A 
ATOM     23  C   UNL A   1      33.448  26.137  26.100  1.00  0.00     0.005 A 
ATOM     24  C   UNL A   1      33.917  26.495  23.761  1.00  0.00     0.005 A 
ATOM     25  C   UNL A   1      33.178  27.495  26.270  1.00  0.00     0.000 A 
ATOM     26  C   UNL A   1      33.617  27.848  23.931  1.00  0.00     0.000 A 
ATOM     27  C   UNL A   1      33.261  28.352  25.180  1.00  0.00     0.000 A 
ENDBRANCH   6  22
ENDBRANCH   5   6
ENDBRANCH   3   5
ENDBRANCH   2   3
ENDBRANCH   1   2
BRANCH   1  28
ATOM     28  C   UNL A   1      37.477  20.974  25.105  1.00  0.00     0.275 C 
BRANCH  28  29
ATOM     29  O   UNL A   1      38.048  21.758  26.169  1.00  0.00    -0.458 OA
BRANCH  29  30
ATOM     30  C   UNL A   1      39.384  21.597  26.360  1.00  0.00     0.338 C 
ATOM     31  O   UNL A   1      40.045  20.634  26.013  1.00  0.00    -0.246 OA
BRANCH  30  32
ATOM     32  C   UNL A   1      39.975  22.864  26.860  1.00  0.00     0.060 A 
ATOM     33  C   UNL A   1      39.523  24.062  26.288  1.00  0.00     0.016 A 
ATOM     34  C   UNL A   1      40.906  22.899  27.901  1.00  0.00     0.016 A 
ATOM     35  C   UNL A   1      39.998  25.293  26.754  1.00  0.00     0.010 A 
ATOM     36  C   UNL A   1      41.387  24.133  28.359  1.00  0.00     0.010 A 
ATOM     37  C   UNL A   1      40.944  25.340  27.784  1.00  0.00    -0.014 A 
BRANCH  37  38
ATOM     38  C   UNL A   1      41.552  26.630  28.208  1.00  0.00     0.031 A 
ATOM     39  C   UNL A   1      40.671  27.695  28.794  1.00  0.00     0.074 A 
ATOM     40  C   UNL A   1      42.869  26.869  28.055  1.00  0.00     0.049 A 
ATOM     41  N   UNL A   1      40.970  28.922  29.127  1.00  0.00    -0.248 NA
ATOM     42  C   UNL A   1      39.272  27.320  29.053  1.00  0.00     0.031 C 
ATOM     43  C   UNL A   1      43.850  25.895  27.591  1.00  0.00     0.029 A 
ATOM     44  N   UNL A   1      43.605  28.016  28.244  1.00  0.00    -0.354 N 
ATOM     45  C   UNL A   1      39.803  29.469  29.645  1.00  0.00     0.074 A 
ATOM     46  C   UNL A   1      38.781  28.446  29.551  1.00  0.00     0.031 C 
ATOM     47  C   UNL A   1      45.045  26.499  27.464  1.00  0.00     0.029 A 
ATOM     48  C   UNL A   1      44.907  27.913  27.803  1.00  0.00     0.049 A 
ATOM     49  H   UNL A   1      43.238  28.832  28.655  1.00  0.00     0.167 HD
ATOM     50  C   UNL A   1      39.607  30.705  30.160  1.00  0.00     0.034 A 
ATOM     51  C   UNL A   1      45.862  28.852  27.645  1.00  0.00     0.034 A 
ATOM     52  C   UNL A   1      40.629  31.718  30.243  1.00  0.00     0.049 A 
ATOM     53  C   UNL A   1      45.571  30.271  28.080  1.00  0.00     0.074 A 
ATOM     54  C   UNL A   1      40.542  32.980  30.807  1.00  0.00     0.029 A 
ATOM     55  N   UNL A   1      41.911  31.604  29.725  1.00  0.00    -0.354 N 
ATOM     56  N   UNL A   1      44.478  30.757  28.622  1.00  0.00    -0.248 NA
ATOM     57  C   UNL A   1      46.643  31.260  27.904  1.00  0.00     0.031 C 
ATOM     58  C   UNL A   1      41.737  33.659  30.548  1.00  0.00     0.029 A 
ATOM     59  C   UNL A   1      42.601  32.794  29.897  1.00  0.00     0.049 A 
ATOM     60  H   UNL A   1      42.277  30.796  29.298  1.00  0.00     0.167 HD
ATOM     61  C   UNL A   1      44.752  32.096  28.890  1.00  0.00     0.074 A 
ATOM     62  C   UNL A   1      46.111  32.340  28.459  1.00  0.00     0.031 C 
ATOM     63  C   UNL A   1      43.953  33.036  29.455  1.00  0.00     0.034 A 
BRANCH  50  64
ATOM     64  C   UNL A   1      38.220  31.058  30.627  1.00  0.00     0.023 A 
ATOM     65  C   UNL A   1      37.258  31.598  29.758  1.00  0.00     0.031 A 
ATOM     66  C   UNL A   1      37.851  30.819  31.963  1.00  0.00     0.131 A 
ATOM     67  C   UNL A   1      35.982  31.917  30.245  1.00  0.00     0.055 A 
ATOM     68  C   UNL A   1      36.561  31.080  32.425  1.00  0.00     0.041 A 
ATOM     69  F   UNL A   1      38.741  30.326  32.839  1.00  0.00    -0.206 F 
ATOM     70  C   UNL A   1      35.620  31.638  31.566  1.00  0.00     0.022 A 
BRANCH  67  71
ATOM     71  S   UNL A   1      34.827  32.790  29.153  1.00  0.00     0.124 S 
ATOM     72  O   UNL A   1      34.055  33.580  30.108  1.00  0.00    -0.237 OA
ATOM     73  O   UNL A   1      35.723  33.539  28.280  1.00  0.00    -0.237 OA
ATOM     74  O   UNL A   1      34.086  31.709  28.505  1.00  0.00    -0.744 OA
ENDBRANCH  67  71
ENDBRANCH  50  64
BRANCH  51  75
ATOM     75  C   UNL A   1      47.162  28.527  26.983  1.00  0.00     0.023 A 
ATOM     76  C   UNL A   1      47.244  28.329  25.596  1.00  0.00     0.031 A 
ATOM     77  C   UNL A   1      48.318  28.287  27.749  1.00  0.00     0.131 A 
ATOM     78  C   UNL A   1      48.429  27.833  25.028  1.00  0.00     0.055 A 
ATOM     79  C   UNL A   1      49.512  27.849  27.171  1.00  0.00     0.041 A 
ATOM     80  F   UNL A   1      48.304  28.458  29.082  1.00  0.00    -0.206 F 
ATOM     81  C   UNL A   1      49.566  27.602  25.804  1.00  0.00     0.022 A 
BRANCH  78  82
ATOM     82  S   UNL A   1      48.418  27.358  23.276  1.00  0.00     0.124 S 
ATOM     83  O   UNL A   1      48.153  25.926  23.361  1.00  0.00    -0.237 OA
ATOM     84  O   UNL A   1      47.335  28.183  22.749  1.00  0.00    -0.237 OA
ATOM     85  O   UNL A   1      49.757  27.721  22.818  1.00  0.00    -0.744 OA
ENDBRANCH  78  82
ENDBRANCH  51  75
BRANCH  63  86
ATOM     86  C   UNL A   1      44.544  34.407  29.678  1.00  0.00     0.023 A 
ATOM     87  C   UNL A   1      44.506  35.397  28.681  1.00  0.00     0.031 A 
ATOM     88  C   UNL A   1      45.145  34.729  30.907  1.00  0.00     0.131 A 
ATOM     89  C   UNL A   1      45.099  36.647  28.916  1.00  0.00     0.055 A 
ATOM     90  C   UNL A   1      45.680  35.994  31.156  1.00  0.00     0.041 A 
ATOM     91  F   UNL A   1      45.213  33.820  31.894  1.00  0.00    -0.206 F 
ATOM     92  C   UNL A   1      45.667  36.959  30.154  1.00  0.00     0.022 A 
BRANCH  89  93
ATOM     93  S   UNL A   1      45.179  37.843  27.554  1.00  0.00     0.124 S 
ATOM     94  O   UNL A   1      46.014  37.143  26.584  1.00  0.00    -0.237 OA
ATOM     95  O   UNL A   1      43.775  38.000  27.190  1.00  0.00    -0.237 OA
ATOM     96  O   UNL A   1      45.794  39.020  28.166  1.00  0.00    -0.744 OA
ENDBRANCH  89  93
ENDBRANCH  63  86
ENDBRANCH  37  38
ENDBRANCH  30  32
ENDBRANCH  29  30
ENDBRANCH  28  29
ENDBRANCH   1  28
TORSDOF 19
ENDMDL
