MODEL 1
REMARK VINA RESULT:     -13.2      0.000      0.000
REMARK SMILES CC(C)[C@H](NC(=O)[C@H](Cc1ccccc1)n1c(=O)[nH]c2ccccc2c1=O)C(=O)OCCOC(=O)c1ccc(-c2c3nc(c(-c4cc(S(=O)(=O)[O-])ccc4F)c4ccc([nH]4)c(-c4cc(S(=O)(=O)[O-])ccc4F)c4nc(c(-c5cc(S(=O)(=O)[O-])ccc5F)c5ccc2[nH]5)C=C4)C=C3)cc1
REMARK SMILES IDX 31 1 30 2 28 3 29 4 4 5 2 6 1 7 3 8 5 9 6 10 7 12 8 13 16 14
REMARK SMILES IDX 17 15 26 16 18 17 19 18 25 19 27 20 20 21 24 23 21 24 23 25
REMARK SMILES IDX 22 26 9 27 10 28 11 29 15 30 12 31 14 32 13 33 32 34 33 35
REMARK SMILES IDX 34 36 35 37 36 38 37 39 98 40 38 41 97 42 39 43 40 44 41 45
REMARK SMILES IDX 91 46 42 47 96 48 90 49 92 50 43 51 95 52 89 53 88 54 44 56
REMARK SMILES IDX 76 57 56 58 75 59 57 60 60 61 74 62 93 63 58 64 59 65 73 67
REMARK SMILES IDX 94 68 61 69 45 70 46 71 54 72 47 73 53 74 55 75 52 76 48 77
REMARK SMILES IDX 49 78 50 79 51 80 77 81 78 82 86 83 79 84 85 85 87 86 84 87
REMARK SMILES IDX 80 88 81 89 82 90 83 91 62 92 63 93 71 94 64 95 70 96 72 97
REMARK SMILES IDX 69 98 65 99 66 100 67 101 68 102
REMARK H PARENT 5 11 19 22 92 55 60 66
REMARK Flexibility Score: inf
ROOT
ATOM      1  C   UNL A   1      31.933  29.615  25.278  1.00  0.00     0.274 C 
ENDROOT
BRANCH   1   2
ATOM      2  O   UNL A   1      32.566  28.530  25.984  1.00  0.00    -0.461 OA
BRANCH   2   3
ATOM      3  C   UNL A   1      31.729  27.618  26.561  1.00  0.00     0.329 C 
ATOM      4  O   UNL A   1      31.146  27.812  27.621  1.00  0.00    -0.250 OA
BRANCH   3   5
ATOM      5  C   UNL A   1      31.460  26.414  25.617  1.00  0.00     0.194 C 
BRANCH   5   6
ATOM      6  C   UNL A   1      30.889  26.682  24.196  1.00  0.00     0.017 C 
ATOM      7  C   UNL A   1      31.885  26.835  23.042  1.00  0.00     0.010 C 
ATOM      8  C   UNL A   1      29.854  25.618  23.797  1.00  0.00     0.010 C 
ENDBRANCH   5   6
BRANCH   5   9
ATOM      9  N   UNL A   1      30.861  25.238  26.277  1.00  0.00    -0.341 N 
ATOM     10  C   UNL A   1      31.338  24.077  26.799  1.00  0.00     0.244 C 
ATOM     11  H   UNL A   1      29.883  25.313  26.359  1.00  0.00     0.164 HD
ATOM     12  O   UNL A   1      30.467  23.323  27.255  1.00  0.00    -0.273 OA
BRANCH  10  13
ATOM     13  C   UNL A   1      32.789  23.573  26.590  1.00  0.00     0.189 C 
BRANCH  13  14
ATOM     14  N   UNL A   1      32.912  22.190  26.114  1.00  0.00    -0.247 N 
ATOM     15  C   UNL A   1      33.489  21.262  26.973  1.00  0.00     0.329 A 
ATOM     16  C   UNL A   1      32.296  21.847  24.912  1.00  0.00     0.264 A 
ATOM     17  O   UNL A   1      34.067  21.560  28.018  1.00  0.00    -0.248 OA
ATOM     18  N   UNL A   1      33.480  19.957  26.566  1.00  0.00    -0.307 N 
ATOM     19  C   UNL A   1      32.490  20.467  24.436  1.00  0.00     0.064 A 
ATOM     20  O   UNL A   1      31.600  22.616  24.250  1.00  0.00    -0.268 OA
ATOM     21  C   UNL A   1      33.051  19.543  25.309  1.00  0.00     0.055 A 
ATOM     22  H   UNL A   1      33.796  19.271  27.197  1.00  0.00     0.171 HD
ATOM     23  C   UNL A   1      32.153  20.094  23.132  1.00  0.00     0.016 A 
ATOM     24  C   UNL A   1      33.248  18.224  24.903  1.00  0.00     0.027 A 
ATOM     25  C   UNL A   1      32.377  18.783  22.712  1.00  0.00     0.001 A 
ATOM     26  C   UNL A   1      32.914  17.848  23.600  1.00  0.00     0.002 A 
ENDBRANCH  13  14
BRANCH  13  27
ATOM     27  C   UNL A   1      33.662  24.616  25.808  1.00  0.00     0.071 C 
BRANCH  27  28
ATOM     28  C   UNL A   1      34.911  24.078  25.142  1.00  0.00    -0.045 A 
ATOM     29  C   UNL A   1      34.886  23.762  23.776  1.00  0.00     0.004 A 
ATOM     30  C   UNL A   1      36.036  23.736  25.903  1.00  0.00     0.004 A 
ATOM     31  C   UNL A   1      35.920  23.026  23.204  1.00  0.00     0.000 A 
ATOM     32  C   UNL A   1      37.070  22.997  25.327  1.00  0.00     0.000 A 
ATOM     33  C   UNL A   1      37.002  22.627  23.984  1.00  0.00     0.000 A 
ENDBRANCH  27  28
ENDBRANCH  13  27
ENDBRANCH  10  13
ENDBRANCH   5   9
ENDBRANCH   3   5
ENDBRANCH   2   3
ENDBRANCH   1   2
BRANCH   1  34
ATOM     34  C   UNL A   1      31.781  30.853  26.168  1.00  0.00     0.275 C 
BRANCH  34  35
ATOM     35  O   UNL A   1      32.628  30.792  27.333  1.00  0.00    -0.458 OA
BRANCH  35  36
ATOM     36  C   UNL A   1      33.397  31.889  27.531  1.00  0.00     0.338 C 
ATOM     37  O   UNL A   1      33.032  33.051  27.525  1.00  0.00    -0.246 OA
BRANCH  36  38
ATOM     38  C   UNL A   1      34.749  31.494  27.959  1.00  0.00     0.060 A 
ATOM     39  C   UNL A   1      34.939  30.147  28.251  1.00  0.00     0.016 A 
ATOM     40  C   UNL A   1      35.760  32.414  28.221  1.00  0.00     0.016 A 
ATOM     41  C   UNL A   1      36.101  29.701  28.854  1.00  0.00     0.010 A 
ATOM     42  C   UNL A   1      36.960  31.961  28.793  1.00  0.00     0.010 A 
ATOM     43  C   UNL A   1      37.124  30.604  29.133  1.00  0.00    -0.014 A 
BRANCH  43  44
ATOM     44  C   UNL A   1      38.303  30.099  29.876  1.00  0.00     0.031 A 
ATOM     45  C   UNL A   1      38.490  30.500  31.311  1.00  0.00     0.074 A 
ATOM     46  C   UNL A   1      39.116  29.193  29.303  1.00  0.00     0.049 A 
ATOM     47  N   UNL A   1      39.482  30.240  32.121  1.00  0.00    -0.248 NA
ATOM     48  C   UNL A   1      37.414  31.302  31.911  1.00  0.00     0.031 C 
ATOM     49  C   UNL A   1      38.956  28.651  27.951  1.00  0.00     0.029 A 
ATOM     50  N   UNL A   1      40.221  28.545  29.791  1.00  0.00    -0.354 N 
ATOM     51  C   UNL A   1      39.172  30.880  33.315  1.00  0.00     0.074 A 
ATOM     52  C   UNL A   1      37.903  31.549  33.117  1.00  0.00     0.031 C 
ATOM     53  C   UNL A   1      39.914  27.737  27.728  1.00  0.00     0.029 A 
ATOM     54  C   UNL A   1      40.797  27.683  28.887  1.00  0.00     0.049 A 
ATOM     55  H   UNL A   1      40.570  28.685  30.701  1.00  0.00     0.167 HD
ATOM     56  C   UNL A   1      39.891  30.910  34.466  1.00  0.00     0.034 A 
ATOM     57  C   UNL A   1      41.931  26.961  28.973  1.00  0.00     0.034 A 
ATOM     58  C   UNL A   1      41.146  30.219  34.635  1.00  0.00     0.049 A 
ATOM     59  C   UNL A   1      42.741  27.056  30.239  1.00  0.00     0.074 A 
ATOM     60  C   UNL A   1      41.993  30.214  35.729  1.00  0.00     0.029 A 
ATOM     61  N   UNL A   1      41.733  29.397  33.678  1.00  0.00    -0.354 N 
ATOM     62  N   UNL A   1      42.493  27.748  31.329  1.00  0.00    -0.248 NA
ATOM     63  C   UNL A   1      43.984  26.278  30.285  1.00  0.00     0.031 C 
ATOM     64  C   UNL A   1      43.111  29.431  35.416  1.00  0.00     0.029 A 
ATOM     65  C   UNL A   1      42.934  28.892  34.151  1.00  0.00     0.049 A 
ATOM     66  H   UNL A   1      41.349  29.202  32.793  1.00  0.00     0.167 HD
ATOM     67  C   UNL A   1      43.549  27.481  32.194  1.00  0.00     0.074 A 
ATOM     68  C   UNL A   1      44.415  26.540  31.510  1.00  0.00     0.031 C 
ATOM     69  C   UNL A   1      43.789  27.971  33.438  1.00  0.00     0.034 A 
BRANCH  56  70
ATOM     70  C   UNL A   1      39.366  31.788  35.576  1.00  0.00     0.023 A 
ATOM     71  C   UNL A   1      38.668  31.265  36.678  1.00  0.00     0.031 A 
ATOM     72  C   UNL A   1      39.506  33.186  35.489  1.00  0.00     0.131 A 
ATOM     73  C   UNL A   1      38.069  32.134  37.604  1.00  0.00     0.055 A 
ATOM     74  C   UNL A   1      38.975  34.042  36.455  1.00  0.00     0.041 A 
ATOM     75  F   UNL A   1      40.138  33.745  34.446  1.00  0.00    -0.206 F 
ATOM     76  C   UNL A   1      38.236  33.519  37.512  1.00  0.00     0.022 A 
BRANCH  73  77
ATOM     77  S   UNL A   1      36.934  31.442  38.840  1.00  0.00     0.124 S 
ATOM     78  O   UNL A   1      35.798  32.355  38.740  1.00  0.00    -0.237 OA
ATOM     79  O   UNL A   1      36.713  30.089  38.341  1.00  0.00    -0.237 OA
ATOM     80  O   UNL A   1      37.689  31.531  40.088  1.00  0.00    -0.744 OA
ENDBRANCH  73  77
ENDBRANCH  56  70
BRANCH  57  81
ATOM     81  C   UNL A   1      42.403  26.152  27.814  1.00  0.00     0.023 A 
ATOM     82  C   UNL A   1      41.965  24.832  27.617  1.00  0.00     0.031 A 
ATOM     83  C   UNL A   1      43.332  26.682  26.900  1.00  0.00     0.131 A 
ATOM     84  C   UNL A   1      42.483  24.077  26.552  1.00  0.00     0.055 A 
ATOM     85  C   UNL A   1      43.805  25.944  25.815  1.00  0.00     0.041 A 
ATOM     86  F   UNL A   1      43.783  27.939  27.042  1.00  0.00    -0.206 F 
ATOM     87  C   UNL A   1      43.390  24.628  25.643  1.00  0.00     0.022 A 
BRANCH  84  88
ATOM     88  S   UNL A   1      42.004  22.333  26.406  1.00  0.00     0.124 S 
ATOM     89  O   UNL A   1      42.567  21.766  27.627  1.00  0.00    -0.237 OA
ATOM     90  O   UNL A   1      40.549  22.423  26.352  1.00  0.00    -0.237 OA
ATOM     91  O   UNL A   1      42.646  21.907  25.164  1.00  0.00    -0.744 OA
ENDBRANCH  84  88
ENDBRANCH  57  81
BRANCH  69  92
ATOM     92  C   UNL A   1      45.027  27.460  34.130  1.00  0.00     0.023 A 
ATOM     93  C   UNL A   1      45.008  26.279  34.893  1.00  0.00     0.031 A 
ATOM     94  C   UNL A   1      46.225  28.192  34.066  1.00  0.00     0.131 A 
ATOM     95  C   UNL A   1      46.146  25.902  35.621  1.00  0.00     0.055 A 
ATOM     96  C   UNL A   1      47.372  27.779  34.745  1.00  0.00     0.041 A 
ATOM     97  F   UNL A   1      46.296  29.327  33.353  1.00  0.00    -0.206 F 
ATOM     98  C   UNL A   1      47.332  26.637  35.542  1.00  0.00     0.022 A 
BRANCH  95  99
ATOM     99  S   UNL A   1      46.017  24.504  36.770  1.00  0.00     0.124 S 
ATOM    100  O   UNL A   1      45.098  23.615  36.066  1.00  0.00    -0.237 OA
ATOM    101  O   UNL A   1      47.400  24.049  36.861  1.00  0.00    -0.237 OA
ATOM    102  O   UNL A   1      45.481  25.110  37.987  1.00  0.00    -0.744 OA
ENDBRANCH  95  99
ENDBRANCH  69  92
ENDBRANCH  43  44
ENDBRANCH  36  38
ENDBRANCH  35  36
ENDBRANCH  34  35
ENDBRANCH   1  34
TORSDOF 20
ENDMDL
MODEL 2
REMARK VINA RESULT:     -13.1      1.466      7.329
REMARK SMILES CC(C)[C@H](NC(=O)[C@H](Cc1ccccc1)n1c(=O)[nH]c2ccccc2c1=O)C(=O)OCCOC(=O)c1ccc(-c2c3nc(c(-c4cc(S(=O)(=O)[O-])ccc4F)c4ccc([nH]4)c(-c4cc(S(=O)(=O)[O-])ccc4F)c4nc(c(-c5cc(S(=O)(=O)[O-])ccc5F)c5ccc2[nH]5)C=C4)C=C3)cc1
REMARK SMILES IDX 31 1 30 2 28 3 29 4 4 5 2 6 1 7 3 8 5 9 6 10 7 12 8 13 16 14
REMARK SMILES IDX 17 15 26 16 18 17 19 18 25 19 27 20 20 21 24 23 21 24 23 25
REMARK SMILES IDX 22 26 9 27 10 28 11 29 15 30 12 31 14 32 13 33 32 34 33 35
REMARK SMILES IDX 34 36 35 37 36 38 37 39 98 40 38 41 97 42 39 43 40 44 41 45
REMARK SMILES IDX 91 46 42 47 96 48 90 49 92 50 43 51 95 52 89 53 88 54 44 56
REMARK SMILES IDX 76 57 56 58 75 59 57 60 60 61 74 62 93 63 58 64 59 65 73 67
REMARK SMILES IDX 94 68 61 69 45 70 46 71 54 72 47 73 53 74 55 75 52 76 48 77
REMARK SMILES IDX 49 78 50 79 51 80 77 81 78 82 86 83 79 84 85 85 87 86 84 87
REMARK SMILES IDX 80 88 81 89 82 90 83 91 62 92 63 93 71 94 64 95 70 96 72 97
REMARK SMILES IDX 69 98 65 99 66 100 67 101 68 102
REMARK H PARENT 5 11 19 22 92 55 60 66
REMARK Flexibility Score: inf
ROOT
ATOM      1  C   UNL A   1      31.405  29.749  25.408  1.00  0.00     0.274 C 
ENDROOT
BRANCH   1   2
ATOM      2  O   UNL A   1      31.605  28.343  25.651  1.00  0.00    -0.461 OA
BRANCH   2   3
ATOM      3  C   UNL A   1      32.522  27.719  24.854  1.00  0.00     0.329 C 
ATOM      4  O   UNL A   1      33.647  28.157  24.649  1.00  0.00    -0.250 OA
BRANCH   3   5
ATOM      5  C   UNL A   1      32.034  26.309  24.420  1.00  0.00     0.194 C 
BRANCH   5   6
ATOM      6  C   UNL A   1      31.381  26.135  23.019  1.00  0.00     0.017 C 
ATOM      7  C   UNL A   1      30.527  27.287  22.481  1.00  0.00     0.010 C 
ATOM      8  C   UNL A   1      32.429  25.777  21.953  1.00  0.00     0.010 C 
ENDBRANCH   5   6
BRANCH   5   9
ATOM      9  N   UNL A   1      31.360  25.539  25.481  1.00  0.00    -0.341 N 
ATOM     10  C   UNL A   1      31.746  24.606  26.391  1.00  0.00     0.244 C 
ATOM     11  H   UNL A   1      30.401  25.752  25.546  1.00  0.00     0.164 HD
ATOM     12  O   UNL A   1      30.831  24.180  27.110  1.00  0.00    -0.273 OA
BRANCH  10  13
ATOM     13  C   UNL A   1      33.123  23.895  26.361  1.00  0.00     0.189 C 
BRANCH  13  14
ATOM     14  N   UNL A   1      33.087  22.468  26.022  1.00  0.00    -0.247 N 
ATOM     15  C   UNL A   1      33.486  21.562  26.999  1.00  0.00     0.329 A 
ATOM     16  C   UNL A   1      32.500  22.090  24.816  1.00  0.00     0.264 A 
ATOM     17  O   UNL A   1      34.039  21.886  28.049  1.00  0.00    -0.248 OA
ATOM     18  N   UNL A   1      33.327  20.236  26.711  1.00  0.00    -0.307 N 
ATOM     19  C   UNL A   1      32.534  20.656  24.481  1.00  0.00     0.064 A 
ATOM     20  O   UNL A   1      31.951  22.872  24.041  1.00  0.00    -0.268 OA
ATOM     21  C   UNL A   1      32.918  19.758  25.470  1.00  0.00     0.055 A 
ATOM     22  H   UNL A   1      33.512  19.581  27.421  1.00  0.00     0.171 HD
ATOM     23  C   UNL A   1      32.224  20.203  23.196  1.00  0.00     0.016 A 
ATOM     24  C   UNL A   1      32.959  18.391  25.199  1.00  0.00     0.027 A 
ATOM     25  C   UNL A   1      32.295  18.839  22.912  1.00  0.00     0.001 A 
ATOM     26  C   UNL A   1      32.652  17.935  23.915  1.00  0.00     0.002 A 
ENDBRANCH  13  14
BRANCH  13  27
ATOM     27  C   UNL A   1      34.194  24.731  25.576  1.00  0.00     0.071 C 
BRANCH  27  28
ATOM     28  C   UNL A   1      35.411  23.972  25.092  1.00  0.00    -0.045 A 
ATOM     29  C   UNL A   1      35.474  23.540  23.759  1.00  0.00     0.004 A 
ATOM     30  C   UNL A   1      36.396  23.551  25.994  1.00  0.00     0.004 A 
ATOM     31  C   UNL A   1      36.443  22.622  23.360  1.00  0.00     0.000 A 
ATOM     32  C   UNL A   1      37.365  22.631  25.592  1.00  0.00     0.000 A 
ATOM     33  C   UNL A   1      37.376  22.153  24.281  1.00  0.00     0.000 A 
ENDBRANCH  27  28
ENDBRANCH  13  27
ENDBRANCH  10  13
ENDBRANCH   5   9
ENDBRANCH   3   5
ENDBRANCH   2   3
ENDBRANCH   1   2
BRANCH   1  34
ATOM     34  C   UNL A   1      31.937  30.602  26.566  1.00  0.00     0.275 C 
BRANCH  34  35
ATOM     35  O   UNL A   1      33.371  30.742  26.522  1.00  0.00    -0.458 OA
BRANCH  35  36
ATOM     36  C   UNL A   1      33.874  31.665  27.377  1.00  0.00     0.338 C 
ATOM     37  O   UNL A   1      33.282  32.609  27.868  1.00  0.00    -0.246 OA
BRANCH  36  38
ATOM     38  C   UNL A   1      35.224  31.275  27.813  1.00  0.00     0.060 A 
ATOM     39  C   UNL A   1      35.392  29.950  28.206  1.00  0.00     0.016 A 
ATOM     40  C   UNL A   1      36.259  32.188  27.986  1.00  0.00     0.016 A 
ATOM     41  C   UNL A   1      36.554  29.526  28.823  1.00  0.00     0.010 A 
ATOM     42  C   UNL A   1      37.459  31.754  28.572  1.00  0.00     0.010 A 
ATOM     43  C   UNL A   1      37.601  30.425  29.015  1.00  0.00    -0.014 A 
BRANCH  43  44
ATOM     44  C   UNL A   1      38.781  29.953  29.775  1.00  0.00     0.031 A 
ATOM     45  C   UNL A   1      39.737  28.996  29.124  1.00  0.00     0.074 A 
ATOM     46  C   UNL A   1      39.053  30.481  30.983  1.00  0.00     0.049 A 
ATOM     47  N   UNL A   1      40.785  28.399  29.629  1.00  0.00    -0.248 NA
ATOM     48  C   UNL A   1      39.475  28.668  27.716  1.00  0.00     0.031 C 
ATOM     49  C   UNL A   1      38.248  31.504  31.657  1.00  0.00     0.029 A 
ATOM     50  N   UNL A   1      40.093  30.256  31.847  1.00  0.00    -0.354 N 
ATOM     51  C   UNL A   1      41.285  27.591  28.614  1.00  0.00     0.074 A 
ATOM     52  C   UNL A   1      40.417  27.770  27.469  1.00  0.00     0.031 C 
ATOM     53  C   UNL A   1      38.838  31.833  32.818  1.00  0.00     0.029 A 
ATOM     54  C   UNL A   1      40.016  30.994  33.005  1.00  0.00     0.049 A 
ATOM     55  H   UNL A   1      40.824  29.625  31.657  1.00  0.00     0.167 HD
ATOM     56  C   UNL A   1      42.365  26.772  28.645  1.00  0.00     0.034 A 
ATOM     57  C   UNL A   1      40.789  30.967  34.107  1.00  0.00     0.034 A 
ATOM     58  C   UNL A   1      43.219  26.629  29.800  1.00  0.00     0.049 A 
ATOM     59  C   UNL A   1      41.949  30.007  34.141  1.00  0.00     0.074 A 
ATOM     60  C   UNL A   1      44.310  25.795  29.975  1.00  0.00     0.029 A 
ATOM     61  N   UNL A   1      43.082  27.351  30.981  1.00  0.00    -0.354 N 
ATOM     62  N   UNL A   1      42.354  29.169  33.213  1.00  0.00    -0.248 NA
ATOM     63  C   UNL A   1      42.751  29.986  35.369  1.00  0.00     0.031 C 
ATOM     64  C   UNL A   1      44.798  25.977  31.275  1.00  0.00     0.029 A 
ATOM     65  C   UNL A   1      44.056  26.972  31.891  1.00  0.00     0.049 A 
ATOM     66  H   UNL A   1      42.391  28.033  31.146  1.00  0.00     0.167 HD
ATOM     67  C   UNL A   1      43.466  28.525  33.746  1.00  0.00     0.074 A 
ATOM     68  C   UNL A   1      43.683  29.097  35.061  1.00  0.00     0.031 C 
ATOM     69  C   UNL A   1      44.237  27.546  33.205  1.00  0.00     0.034 A 
BRANCH  56  70
ATOM     70  C   UNL A   1      42.610  25.917  27.425  1.00  0.00     0.023 A 
ATOM     71  C   UNL A   1      42.140  24.596  27.330  1.00  0.00     0.031 A 
ATOM     72  C   UNL A   1      43.394  26.414  26.368  1.00  0.00     0.131 A 
ATOM     73  C   UNL A   1      42.523  23.793  26.244  1.00  0.00     0.055 A 
ATOM     74  C   UNL A   1      43.707  25.635  25.252  1.00  0.00     0.041 A 
ATOM     75  F   UNL A   1      43.895  27.658  26.415  1.00  0.00    -0.206 F 
ATOM     76  C   UNL A   1      43.286  24.310  25.193  1.00  0.00     0.022 A 
BRANCH  73  77
ATOM     77  S   UNL A   1      42.148  22.018  26.298  1.00  0.00     0.124 S 
ATOM     78  O   UNL A   1      40.714  22.012  26.019  1.00  0.00    -0.237 OA
ATOM     79  O   UNL A   1      43.006  21.482  25.248  1.00  0.00    -0.237 OA
ATOM     80  O   UNL A   1      42.513  21.631  27.660  1.00  0.00    -0.744 OA
ENDBRANCH  73  77
ENDBRANCH  56  70
BRANCH  57  81
ATOM     81  C   UNL A   1      40.454  31.813  35.288  1.00  0.00     0.023 A 
ATOM     82  C   UNL A   1      39.400  31.479  36.153  1.00  0.00     0.031 A 
ATOM     83  C   UNL A   1      41.170  32.997  35.547  1.00  0.00     0.131 A 
ATOM     84  C   UNL A   1      39.072  32.336  37.216  1.00  0.00     0.055 A 
ATOM     85  C   UNL A   1      40.871  33.819  36.634  1.00  0.00     0.041 A 
ATOM     86  F   UNL A   1      42.188  33.363  34.751  1.00  0.00    -0.206 F 
ATOM     87  C   UNL A   1      39.808  33.497  37.470  1.00  0.00     0.022 A 
BRANCH  84  88
ATOM     88  S   UNL A   1      37.618  31.948  38.231  1.00  0.00     0.124 S 
ATOM     89  O   UNL A   1      37.312  30.587  37.805  1.00  0.00    -0.237 OA
ATOM     90  O   UNL A   1      38.146  32.094  39.583  1.00  0.00    -0.237 OA
ATOM     91  O   UNL A   1      36.644  32.962  37.832  1.00  0.00    -0.744 OA
ENDBRANCH  84  88
ENDBRANCH  57  81
BRANCH  69  92
ATOM     92  C   UNL A   1      45.397  27.069  34.042  1.00  0.00     0.023 A 
ATOM     93  C   UNL A   1      46.670  27.656  33.934  1.00  0.00     0.031 A 
ATOM     94  C   UNL A   1      45.237  25.983  34.919  1.00  0.00     0.131 A 
ATOM     95  C   UNL A   1      47.752  27.106  34.637  1.00  0.00     0.055 A 
ATOM     96  C   UNL A   1      46.304  25.479  35.662  1.00  0.00     0.041 A 
ATOM     97  F   UNL A   1      44.042  25.386  35.058  1.00  0.00    -0.206 F 
ATOM     98  C   UNL A   1      47.574  26.029  35.511  1.00  0.00     0.022 A 
BRANCH  95  99
ATOM     99  S   UNL A   1      49.417  27.741  34.302  1.00  0.00     0.124 S 
ATOM    100  O   UNL A   1      50.230  26.532  34.402  1.00  0.00    -0.237 OA
ATOM    101  O   UNL A   1      49.272  28.302  32.962  1.00  0.00    -0.237 OA
ATOM    102  O   UNL A   1      49.631  28.720  35.366  1.00  0.00    -0.744 OA
ENDBRANCH  95  99
ENDBRANCH  69  92
ENDBRANCH  43  44
ENDBRANCH  36  38
ENDBRANCH  35  36
ENDBRANCH  34  35
ENDBRANCH   1  34
TORSDOF 20
ENDMDL
MODEL 3
REMARK VINA RESULT:     -13.1      1.885      2.116
REMARK SMILES CC(C)[C@H](NC(=O)[C@H](Cc1ccccc1)n1c(=O)[nH]c2ccccc2c1=O)C(=O)OCCOC(=O)c1ccc(-c2c3nc(c(-c4cc(S(=O)(=O)[O-])ccc4F)c4ccc([nH]4)c(-c4cc(S(=O)(=O)[O-])ccc4F)c4nc(c(-c5cc(S(=O)(=O)[O-])ccc5F)c5ccc2[nH]5)C=C4)C=C3)cc1
REMARK SMILES IDX 31 1 30 2 28 3 29 4 4 5 2 6 1 7 3 8 5 9 6 10 7 12 8 13 16 14
REMARK SMILES IDX 17 15 26 16 18 17 19 18 25 19 27 20 20 21 24 23 21 24 23 25
REMARK SMILES IDX 22 26 9 27 10 28 11 29 15 30 12 31 14 32 13 33 32 34 33 35
REMARK SMILES IDX 34 36 35 37 36 38 37 39 98 40 38 41 97 42 39 43 40 44 41 45
REMARK SMILES IDX 91 46 42 47 96 48 90 49 92 50 43 51 95 52 89 53 88 54 44 56
REMARK SMILES IDX 76 57 56 58 75 59 57 60 60 61 74 62 93 63 58 64 59 65 73 67
REMARK SMILES IDX 94 68 61 69 45 70 46 71 54 72 47 73 53 74 55 75 52 76 48 77
REMARK SMILES IDX 49 78 50 79 51 80 77 81 78 82 86 83 79 84 85 85 87 86 84 87
REMARK SMILES IDX 80 88 81 89 82 90 83 91 62 92 63 93 71 94 64 95 70 96 72 97
REMARK SMILES IDX 69 98 65 99 66 100 67 101 68 102
REMARK H PARENT 5 11 19 22 92 55 60 66
REMARK Flexibility Score: inf
ROOT
ATOM      1  C   UNL A   1      31.446  29.851  25.424  1.00  0.00     0.274 C 
ENDROOT
BRANCH   1   2
ATOM      2  O   UNL A   1      32.206  28.652  25.676  1.00  0.00    -0.461 OA
BRANCH   2   3
ATOM      3  C   UNL A   1      31.567  27.670  26.376  1.00  0.00     0.329 C 
ATOM      4  O   UNL A   1      31.111  27.830  27.502  1.00  0.00    -0.250 OA
BRANCH   3   5
ATOM      5  C   UNL A   1      31.316  26.414  25.497  1.00  0.00     0.194 C 
BRANCH   5   6
ATOM      6  C   UNL A   1      30.688  26.593  24.085  1.00  0.00     0.017 C 
ATOM      7  C   UNL A   1      31.264  25.760  22.936  1.00  0.00     0.010 C 
ATOM      8  C   UNL A   1      29.167  26.379  24.117  1.00  0.00     0.010 C 
ENDBRANCH   5   6
BRANCH   5   9
ATOM      9  N   UNL A   1      30.787  25.248  26.229  1.00  0.00    -0.341 N 
ATOM     10  C   UNL A   1      31.323  24.114  26.754  1.00  0.00     0.244 C 
ATOM     11  H   UNL A   1      29.815  25.305  26.373  1.00  0.00     0.164 HD
ATOM     12  O   UNL A   1      30.500  23.357  27.288  1.00  0.00    -0.273 OA
BRANCH  10  13
ATOM     13  C   UNL A   1      32.768  23.633  26.466  1.00  0.00     0.189 C 
BRANCH  13  14
ATOM     14  N   UNL A   1      32.891  22.236  26.032  1.00  0.00    -0.247 N 
ATOM     15  C   UNL A   1      33.487  21.338  26.911  1.00  0.00     0.329 A 
ATOM     16  C   UNL A   1      32.259  21.853  24.851  1.00  0.00     0.264 A 
ATOM     17  O   UNL A   1      34.079  21.672  27.936  1.00  0.00    -0.248 OA
ATOM     18  N   UNL A   1      33.480  20.021  26.545  1.00  0.00    -0.307 N 
ATOM     19  C   UNL A   1      32.453  20.458  24.416  1.00  0.00     0.064 A 
ATOM     20  O   UNL A   1      31.548  22.596  24.176  1.00  0.00    -0.268 OA
ATOM     21  C   UNL A   1      33.034  19.566  25.308  1.00  0.00     0.055 A 
ATOM     22  H   UNL A   1      33.809  19.358  27.192  1.00  0.00     0.171 HD
ATOM     23  C   UNL A   1      32.099  20.043  23.130  1.00  0.00     0.016 A 
ATOM     24  C   UNL A   1      33.232  18.235  24.941  1.00  0.00     0.027 A 
ATOM     25  C   UNL A   1      32.324  18.721  22.748  1.00  0.00     0.001 A 
ATOM     26  C   UNL A   1      32.880  17.817  23.656  1.00  0.00     0.002 A 
ENDBRANCH  13  14
BRANCH  13  27
ATOM     27  C   UNL A   1      33.563  24.665  25.592  1.00  0.00     0.071 C 
BRANCH  27  28
ATOM     28  C   UNL A   1      34.880  24.184  25.020  1.00  0.00    -0.045 A 
ATOM     29  C   UNL A   1      34.943  23.764  23.683  1.00  0.00     0.004 A 
ATOM     30  C   UNL A   1      35.992  23.994  25.850  1.00  0.00     0.004 A 
ATOM     31  C   UNL A   1      36.058  23.075  23.213  1.00  0.00     0.000 A 
ATOM     32  C   UNL A   1      37.107  23.302  25.376  1.00  0.00     0.000 A 
ATOM     33  C   UNL A   1      37.131  22.827  24.065  1.00  0.00     0.000 A 
ENDBRANCH  27  28
ENDBRANCH  13  27
ENDBRANCH  10  13
ENDBRANCH   5   9
ENDBRANCH   3   5
ENDBRANCH   2   3
ENDBRANCH   1   2
BRANCH   1  34
ATOM     34  C   UNL A   1      31.819  30.970  26.404  1.00  0.00     0.275 C 
BRANCH  34  35
ATOM     35  O   UNL A   1      33.066  30.707  27.078  1.00  0.00    -0.458 OA
BRANCH  35  36
ATOM     36  C   UNL A   1      33.730  31.814  27.490  1.00  0.00     0.338 C 
ATOM     37  O   UNL A   1      33.279  32.940  27.603  1.00  0.00    -0.246 OA
BRANCH  36  38
ATOM     38  C   UNL A   1      35.067  31.452  27.987  1.00  0.00     0.060 A 
ATOM     39  C   UNL A   1      35.234  30.140  28.421  1.00  0.00     0.016 A 
ATOM     40  C   UNL A   1      36.083  32.383  28.175  1.00  0.00     0.016 A 
ATOM     41  C   UNL A   1      36.377  29.748  29.093  1.00  0.00     0.010 A 
ATOM     42  C   UNL A   1      37.265  31.980  28.818  1.00  0.00     0.010 A 
ATOM     43  C   UNL A   1      37.405  30.664  29.301  1.00  0.00    -0.014 A 
BRANCH  43  44
ATOM     44  C   UNL A   1      38.561  30.228  30.119  1.00  0.00     0.031 A 
ATOM     45  C   UNL A   1      38.667  30.691  31.543  1.00  0.00     0.074 A 
ATOM     46  C   UNL A   1      39.428  29.326  29.623  1.00  0.00     0.049 A 
ATOM     47  N   UNL A   1      39.626  30.495  32.408  1.00  0.00    -0.248 NA
ATOM     48  C   UNL A   1      37.539  31.481  32.058  1.00  0.00     0.031 C 
ATOM     49  C   UNL A   1      39.350  28.725  28.288  1.00  0.00     0.029 A 
ATOM     50  N   UNL A   1      40.527  28.733  30.188  1.00  0.00    -0.354 N 
ATOM     51  C   UNL A   1      39.240  31.172  33.560  1.00  0.00     0.074 A 
ATOM     52  C   UNL A   1      37.962  31.791  33.274  1.00  0.00     0.031 C 
ATOM     53  C   UNL A   1      40.344  27.834  28.148  1.00  0.00     0.029 A 
ATOM     54  C   UNL A   1      41.172  27.854  29.349  1.00  0.00     0.049 A 
ATOM     55  H   UNL A   1      40.827  28.920  31.107  1.00  0.00     0.167 HD
ATOM     56  C   UNL A   1      39.900  31.271  34.740  1.00  0.00     0.034 A 
ATOM     57  C   UNL A   1      42.321  27.174  29.518  1.00  0.00     0.034 A 
ATOM     58  C   UNL A   1      41.167  30.627  34.997  1.00  0.00     0.049 A 
ATOM     59  C   UNL A   1      43.066  27.344  30.815  1.00  0.00     0.074 A 
ATOM     60  C   UNL A   1      41.959  30.693  36.129  1.00  0.00     0.029 A 
ATOM     61  N   UNL A   1      41.823  29.786  34.104  1.00  0.00    -0.354 N 
ATOM     62  N   UNL A   1      42.745  28.071  31.862  1.00  0.00    -0.248 NA
ATOM     63  C   UNL A   1      44.328  26.609  30.952  1.00  0.00     0.031 C 
ATOM     64  C   UNL A   1      43.114  29.934  35.901  1.00  0.00     0.029 A 
ATOM     65  C   UNL A   1      43.015  29.340  34.652  1.00  0.00     0.049 A 
ATOM     66  H   UNL A   1      41.489  29.544  33.210  1.00  0.00     0.167 HD
ATOM     67  C   UNL A   1      43.765  27.873  32.787  1.00  0.00     0.074 A 
ATOM     68  C   UNL A   1      44.692  26.933  32.183  1.00  0.00     0.031 C 
ATOM     69  C   UNL A   1      43.930  28.419  34.019  1.00  0.00     0.034 A 
BRANCH  56  70
ATOM     70  C   UNL A   1      39.297  32.175  35.788  1.00  0.00     0.023 A 
ATOM     71  C   UNL A   1      39.679  33.520  35.926  1.00  0.00     0.031 A 
ATOM     72  C   UNL A   1      38.373  31.655  36.713  1.00  0.00     0.131 A 
ATOM     73  C   UNL A   1      39.203  34.275  37.010  1.00  0.00     0.055 A 
ATOM     74  C   UNL A   1      37.843  32.434  37.743  1.00  0.00     0.041 A 
ATOM     75  F   UNL A   1      37.991  30.370  36.649  1.00  0.00    -0.206 F 
ATOM     76  C   UNL A   1      38.270  33.748  37.907  1.00  0.00     0.022 A 
BRANCH  73  77
ATOM     77  S   UNL A   1      39.939  35.904  37.327  1.00  0.00     0.124 S 
ATOM     78  O   UNL A   1      41.331  35.550  37.595  1.00  0.00    -0.237 OA
ATOM     79  O   UNL A   1      39.688  36.611  36.076  1.00  0.00    -0.237 OA
ATOM     80  O   UNL A   1      39.194  36.399  38.482  1.00  0.00    -0.744 OA
ENDBRANCH  73  77
ENDBRANCH  56  70
BRANCH  57  81
ATOM     81  C   UNL A   1      42.872  26.334  28.417  1.00  0.00     0.023 A 
ATOM     82  C   UNL A   1      43.945  26.775  27.627  1.00  0.00     0.031 A 
ATOM     83  C   UNL A   1      42.304  25.082  28.117  1.00  0.00     0.131 A 
ATOM     84  C   UNL A   1      44.395  25.985  26.555  1.00  0.00     0.055 A 
ATOM     85  C   UNL A   1      42.787  24.279  27.082  1.00  0.00     0.041 A 
ATOM     86  F   UNL A   1      41.275  24.611  28.841  1.00  0.00    -0.206 F 
ATOM     87  C   UNL A   1      43.831  24.736  26.286  1.00  0.00     0.022 A 
BRANCH  84  88
ATOM     88  S   UNL A   1      45.690  26.646  25.469  1.00  0.00     0.124 S 
ATOM     89  O   UNL A   1      45.998  25.490  24.634  1.00  0.00    -0.237 OA
ATOM     90  O   UNL A   1      44.998  27.748  24.810  1.00  0.00    -0.237 OA
ATOM     91  O   UNL A   1      46.744  27.044  26.401  1.00  0.00    -0.744 OA
ENDBRANCH  84  88
ENDBRANCH  57  81
BRANCH  69  92
ATOM     92  C   UNL A   1      45.148  27.976  34.789  1.00  0.00     0.023 A 
ATOM     93  C   UNL A   1      45.109  26.865  35.651  1.00  0.00     0.031 A 
ATOM     94  C   UNL A   1      46.346  28.704  34.697  1.00  0.00     0.131 A 
ATOM     95  C   UNL A   1      46.225  26.558  36.442  1.00  0.00     0.055 A 
ATOM     96  C   UNL A   1      47.473  28.357  35.443  1.00  0.00     0.041 A 
ATOM     97  F   UNL A   1      46.436  29.774  33.891  1.00  0.00    -0.206 F 
ATOM     98  C   UNL A   1      47.412  27.289  36.334  1.00  0.00     0.022 A 
BRANCH  95  99
ATOM     99  S   UNL A   1      46.065  25.265  37.703  1.00  0.00     0.124 S 
ATOM    100  O   UNL A   1      44.975  24.453  37.171  1.00  0.00    -0.237 OA
ATOM    101  O   UNL A   1      47.387  24.647  37.685  1.00  0.00    -0.237 OA
ATOM    102  O   UNL A   1      45.745  26.010  38.919  1.00  0.00    -0.744 OA
ENDBRANCH  95  99
ENDBRANCH  69  92
ENDBRANCH  43  44
ENDBRANCH  36  38
ENDBRANCH  35  36
ENDBRANCH  34  35
ENDBRANCH   1  34
TORSDOF 20
ENDMDL
