MODEL 1
REMARK VINA RESULT:     -11.3      0.000      0.000
REMARK SMILES Cc1nc(C)c(C(=O)N[C@@H](CCS(C)(=O)=O)C(=O)OCCOC(=O)c2ccc(-c3c4nc(c(-c5cc(S(=O)(=O)[O-])ccc5F)c5ccc([nH]5)c(-c5cc(S(=O)(=O)[O-])ccc5F)c5nc(c(-c6cc(S(=O)(=O)[O-])ccc6F)c6ccc3[nH]6)C=C5)C=C4)cc2)s1
REMARK SMILES IDX 20 1 19 2 17 3 18 4 10 5 9 6 7 7 8 8 6 10 1 11 2 12 3 13
REMARK SMILES IDX 88 14 4 15 5 16 11 17 12 18 13 19 14 20 15 21 16 22 21 23
REMARK SMILES IDX 22 24 23 25 24 26 25 27 26 28 87 29 27 30 86 31 28 32 29 33
REMARK SMILES IDX 30 34 80 35 31 36 85 37 79 38 81 39 32 40 84 41 78 42 77 43
REMARK SMILES IDX 33 45 65 46 45 47 64 48 46 49 49 50 63 51 82 52 47 53 48 54
REMARK SMILES IDX 62 56 83 57 50 58 34 59 35 60 43 61 36 62 42 63 44 64 41 65
REMARK SMILES IDX 37 66 38 67 39 68 40 69 66 70 67 71 75 72 68 73 74 74 76 75
REMARK SMILES IDX 73 76 69 77 70 78 71 79 72 80 51 81 52 82 60 83 53 84 59 85
REMARK SMILES IDX 61 86 58 87 54 88 55 89 56 90 57 91
REMARK H PARENT 9 9 81 44 49 55
REMARK Flexibility Score: inf
ROOT
ATOM      1  C   UNL A   1      31.944  28.256  27.140  1.00  0.00     0.274 C 
ENDROOT
BRANCH   1   2
ATOM      2  O   UNL A   1      31.725  27.700  25.825  1.00  0.00    -0.461 OA
BRANCH   2   3
ATOM      3  C   UNL A   1      30.771  26.746  25.731  1.00  0.00     0.328 C 
ATOM      4  O   UNL A   1      30.261  26.168  26.687  1.00  0.00    -0.250 OA
BRANCH   3   5
ATOM      5  C   UNL A   1      30.433  26.354  24.286  1.00  0.00     0.193 C 
BRANCH   5   6
ATOM      6  N   UNL A   1      30.232  24.933  24.011  1.00  0.00    -0.338 N 
ATOM      7  C   UNL A   1      31.069  23.884  23.678  1.00  0.00     0.263 C 
ATOM      8  O   UNL A   1      30.465  22.819  23.509  1.00  0.00    -0.268 OA
ATOM      9  H   UNL A   1      29.287  24.661  24.077  1.00  0.00     0.164 HD
BRANCH   7  10
ATOM     10  C   UNL A   1      32.525  23.967  23.555  1.00  0.00     0.115 A 
ATOM     11  C   UNL A   1      36.347  23.237  23.913  1.00  0.00     0.079 C 
ATOM     12  C   UNL A   1      34.960  23.721  23.657  1.00  0.00     0.091 A 
ATOM     13  N   UNL A   1      34.631  24.477  22.642  1.00  0.00    -0.246 NA
ATOM     14  S   UNL A   1      33.653  23.321  24.687  1.00  0.00    -0.113 S 
ATOM     15  C   UNL A   1      33.257  24.672  22.595  1.00  0.00     0.061 A 
ATOM     16  C   UNL A   1      32.783  25.574  21.508  1.00  0.00     0.068 C 
ENDBRANCH   7  10
ENDBRANCH   5   6
BRANCH   5  17
ATOM     17  C   UNL A   1      29.272  27.202  23.728  1.00  0.00     0.053 C 
BRANCH  17  18
ATOM     18  C   UNL A   1      29.541  28.659  23.354  1.00  0.00     0.139 C 
BRANCH  18  19
ATOM     19  S   UNL A   1      28.213  29.660  22.696  1.00  0.00     0.147 S 
ATOM     20  C   UNL A   1      28.251  31.256  23.489  1.00  0.00     0.158 C 
ATOM     21  O   UNL A   1      28.505  29.891  21.292  1.00  0.00    -0.229 OA
ATOM     22  O   UNL A   1      26.968  29.015  23.061  1.00  0.00    -0.229 OA
ENDBRANCH  18  19
ENDBRANCH  17  18
ENDBRANCH   5  17
ENDBRANCH   3   5
ENDBRANCH   2   3
ENDBRANCH   1   2
BRANCH   1  23
ATOM     23  C   UNL A   1      31.848  29.779  27.106  1.00  0.00     0.275 C 
BRANCH  23  24
ATOM     24  O   UNL A   1      33.044  30.345  26.542  1.00  0.00    -0.458 OA
BRANCH  24  25
ATOM     25  C   UNL A   1      33.514  31.422  27.207  1.00  0.00     0.338 C 
ATOM     26  O   UNL A   1      32.888  32.415  27.557  1.00  0.00    -0.246 OA
BRANCH  25  27
ATOM     27  C   UNL A   1      34.876  31.143  27.662  1.00  0.00     0.060 A 
ATOM     28  C   UNL A   1      35.191  29.817  27.949  1.00  0.00     0.016 A 
ATOM     29  C   UNL A   1      35.799  32.158  27.893  1.00  0.00     0.016 A 
ATOM     30  C   UNL A   1      36.414  29.496  28.513  1.00  0.00     0.010 A 
ATOM     31  C   UNL A   1      37.040  31.830  28.452  1.00  0.00     0.010 A 
ATOM     32  C   UNL A   1      37.343  30.499  28.794  1.00  0.00    -0.014 A 
BRANCH  32  33
ATOM     33  C   UNL A   1      38.567  30.155  29.560  1.00  0.00     0.031 A 
ATOM     34  C   UNL A   1      39.573  29.220  28.948  1.00  0.00     0.074 A 
ATOM     35  C   UNL A   1      38.817  30.729  30.753  1.00  0.00     0.049 A 
ATOM     36  N   UNL A   1      40.606  28.637  29.496  1.00  0.00    -0.248 NA
ATOM     37  C   UNL A   1      39.379  28.894  27.526  1.00  0.00     0.031 C 
ATOM     38  C   UNL A   1      37.978  31.742  31.396  1.00  0.00     0.029 A 
ATOM     39  N   UNL A   1      39.855  30.551  31.632  1.00  0.00    -0.354 N 
ATOM     40  C   UNL A   1      41.154  27.830  28.505  1.00  0.00     0.074 A 
ATOM     41  C   UNL A   1      40.332  27.996  27.325  1.00  0.00     0.031 C 
ATOM     42  C   UNL A   1      38.542  32.105  32.558  1.00  0.00     0.029 A 
ATOM     43  C   UNL A   1      39.727  31.285  32.788  1.00  0.00     0.049 A 
ATOM     44  H   UNL A   1      40.617  29.956  31.453  1.00  0.00     0.167 HD
ATOM     45  C   UNL A   1      42.241  27.023  28.582  1.00  0.00     0.034 A 
ATOM     46  C   UNL A   1      40.449  31.257  33.927  1.00  0.00     0.034 A 
ATOM     47  C   UNL A   1      43.065  26.910  29.762  1.00  0.00     0.049 A 
ATOM     48  C   UNL A   1      41.599  30.287  34.024  1.00  0.00     0.074 A 
ATOM     49  C   UNL A   1      44.183  26.120  29.964  1.00  0.00     0.029 A 
ATOM     50  N   UNL A   1      42.865  27.618  30.941  1.00  0.00    -0.354 N 
ATOM     51  N   UNL A   1      42.054  29.452  33.118  1.00  0.00    -0.248 NA
ATOM     52  C   UNL A   1      42.323  30.246  35.300  1.00  0.00     0.031 C 
ATOM     53  C   UNL A   1      44.618  26.302  31.281  1.00  0.00     0.029 A 
ATOM     54  C   UNL A   1      43.821  27.265  31.880  1.00  0.00     0.049 A 
ATOM     55  H   UNL A   1      42.147  28.277  31.088  1.00  0.00     0.167 HD
ATOM     56  C   UNL A   1      43.130  28.797  33.712  1.00  0.00     0.074 A 
ATOM     57  C   UNL A   1      43.268  29.354  35.043  1.00  0.00     0.031 C 
ATOM     58  C   UNL A   1      43.931  27.824  33.208  1.00  0.00     0.034 A 
BRANCH  45  59
ATOM     59  C   UNL A   1      42.545  26.146  27.390  1.00  0.00     0.023 A 
ATOM     60  C   UNL A   1      42.089  24.820  27.293  1.00  0.00     0.031 A 
ATOM     61  C   UNL A   1      43.345  26.643  26.344  1.00  0.00     0.131 A 
ATOM     62  C   UNL A   1      42.493  24.019  26.212  1.00  0.00     0.055 A 
ATOM     63  C   UNL A   1      43.676  25.867  25.233  1.00  0.00     0.041 A 
ATOM     64  F   UNL A   1      43.833  27.893  26.392  1.00  0.00    -0.206 F 
ATOM     65  C   UNL A   1      43.261  24.541  25.169  1.00  0.00     0.022 A 
BRANCH  62  66
ATOM     66  S   UNL A   1      42.116  22.244  26.252  1.00  0.00     0.124 S 
ATOM     67  O   UNL A   1      42.858  21.759  25.091  1.00  0.00    -0.237 OA
ATOM     68  O   UNL A   1      42.629  21.841  27.556  1.00  0.00    -0.237 OA
ATOM     69  O   UNL A   1      40.661  22.199  26.114  1.00  0.00    -0.744 OA
ENDBRANCH  62  66
ENDBRANCH  45  59
BRANCH  46  70
ATOM     70  C   UNL A   1      40.059  32.102  35.094  1.00  0.00     0.023 A 
ATOM     71  C   UNL A   1      39.161  31.631  36.064  1.00  0.00     0.031 A 
ATOM     72  C   UNL A   1      40.544  33.416  35.230  1.00  0.00     0.131 A 
ATOM     73  C   UNL A   1      38.747  32.479  37.104  1.00  0.00     0.055 A 
ATOM     74  C   UNL A   1      40.175  34.235  36.297  1.00  0.00     0.041 A 
ATOM     75  F   UNL A   1      41.400  33.922  34.327  1.00  0.00    -0.206 F 
ATOM     76  C   UNL A   1      39.260  33.771  37.237  1.00  0.00     0.022 A 
BRANCH  73  77
ATOM     77  S   UNL A   1      37.455  31.897  38.238  1.00  0.00     0.124 S 
ATOM     78  O   UNL A   1      37.271  30.520  37.795  1.00  0.00    -0.237 OA
ATOM     79  O   UNL A   1      38.094  32.075  39.538  1.00  0.00    -0.237 OA
ATOM     80  O   UNL A   1      36.336  32.796  37.967  1.00  0.00    -0.744 OA
ENDBRANCH  73  77
ENDBRANCH  46  70
BRANCH  58  81
ATOM     81  C   UNL A   1      45.051  27.339  34.095  1.00  0.00     0.023 A 
ATOM     82  C   UNL A   1      44.906  26.207  34.916  1.00  0.00     0.031 A 
ATOM     83  C   UNL A   1      46.274  28.032  34.132  1.00  0.00     0.131 A 
ATOM     84  C   UNL A   1      45.944  25.837  35.784  1.00  0.00     0.055 A 
ATOM     85  C   UNL A   1      47.326  27.623  34.952  1.00  0.00     0.041 A 
ATOM     86  F   UNL A   1      46.465  29.122  33.371  1.00  0.00    -0.206 F 
ATOM     87  C   UNL A   1      47.159  26.527  35.794  1.00  0.00     0.022 A 
BRANCH  84  88
ATOM     88  S   UNL A   1      45.650  24.499  36.972  1.00  0.00     0.124 S 
ATOM     89  O   UNL A   1      46.647  23.512  36.570  1.00  0.00    -0.237 OA
ATOM     90  O   UNL A   1      45.887  25.159  38.252  1.00  0.00    -0.237 OA
ATOM     91  O   UNL A   1      44.262  24.116  36.720  1.00  0.00    -0.744 OA
ENDBRANCH  84  88
ENDBRANCH  58  81
ENDBRANCH  32  33
ENDBRANCH  25  27
ENDBRANCH  24  25
ENDBRANCH  23  24
ENDBRANCH   1  23
TORSDOF 19
ENDMDL
MODEL 2
REMARK VINA RESULT:     -11.1      5.113      9.909
REMARK SMILES Cc1nc(C)c(C(=O)N[C@@H](CCS(C)(=O)=O)C(=O)OCCOC(=O)c2ccc(-c3c4nc(c(-c5cc(S(=O)(=O)[O-])ccc5F)c5ccc([nH]5)c(-c5cc(S(=O)(=O)[O-])ccc5F)c5nc(c(-c6cc(S(=O)(=O)[O-])ccc6F)c6ccc3[nH]6)C=C5)C=C4)cc2)s1
REMARK SMILES IDX 20 1 19 2 17 3 18 4 10 5 9 6 7 7 8 8 6 10 1 11 2 12 3 13
REMARK SMILES IDX 88 14 4 15 5 16 11 17 12 18 13 19 14 20 15 21 16 22 21 23
REMARK SMILES IDX 22 24 23 25 24 26 25 27 26 28 87 29 27 30 86 31 28 32 29 33
REMARK SMILES IDX 30 34 80 35 31 36 85 37 79 38 81 39 32 40 84 41 78 42 77 43
REMARK SMILES IDX 33 45 65 46 45 47 64 48 46 49 49 50 63 51 82 52 47 53 48 54
REMARK SMILES IDX 62 56 83 57 50 58 34 59 35 60 43 61 36 62 42 63 44 64 41 65
REMARK SMILES IDX 37 66 38 67 39 68 40 69 66 70 67 71 75 72 68 73 74 74 76 75
REMARK SMILES IDX 73 76 69 77 70 78 71 79 72 80 51 81 52 82 60 83 53 84 59 85
REMARK SMILES IDX 61 86 58 87 54 88 55 89 56 90 57 91
REMARK H PARENT 9 9 81 44 49 55
REMARK Flexibility Score: inf
ROOT
ATOM      1  C   UNL A   1      34.637  21.894  25.495  1.00  0.00     0.274 C 
ENDROOT
BRANCH   1   2
ATOM      2  O   UNL A   1      34.606  23.294  25.850  1.00  0.00    -0.461 OA
BRANCH   2   3
ATOM      3  C   UNL A   1      33.434  23.763  26.335  1.00  0.00     0.328 C 
ATOM      4  O   UNL A   1      32.691  23.144  27.092  1.00  0.00    -0.250 OA
BRANCH   3   5
ATOM      5  C   UNL A   1      33.038  25.134  25.771  1.00  0.00     0.193 C 
BRANCH   5   6
ATOM      6  N   UNL A   1      32.542  26.128  26.721  1.00  0.00    -0.338 N 
ATOM      7  C   UNL A   1      31.737  27.248  26.617  1.00  0.00     0.263 C 
ATOM      8  O   UNL A   1      31.582  27.832  27.695  1.00  0.00    -0.268 OA
ATOM      9  H   UNL A   1      32.851  25.964  27.642  1.00  0.00     0.164 HD
BRANCH   7  10
ATOM     10  C   UNL A   1      31.090  27.716  25.392  1.00  0.00     0.115 A 
ATOM     11  C   UNL A   1      30.311  29.660  22.092  1.00  0.00     0.079 C 
ATOM     12  C   UNL A   1      30.383  28.817  23.320  1.00  0.00     0.091 A 
ATOM     13  N   UNL A   1      29.745  27.685  23.462  1.00  0.00    -0.246 NA
ATOM     14  S   UNL A   1      31.326  29.267  24.676  1.00  0.00    -0.113 S 
ATOM     15  C   UNL A   1      30.094  27.068  24.657  1.00  0.00     0.061 A 
ATOM     16  C   UNL A   1      29.373  25.795  24.944  1.00  0.00     0.068 C 
ENDBRANCH   7  10
ENDBRANCH   5   6
BRANCH   5  17
ATOM     17  C   UNL A   1      34.149  25.720  24.877  1.00  0.00     0.053 C 
BRANCH  17  18
ATOM     18  C   UNL A   1      33.789  26.191  23.469  1.00  0.00     0.139 C 
BRANCH  18  19
ATOM     19  S   UNL A   1      33.341  24.988  22.224  1.00  0.00     0.147 S 
ATOM     20  C   UNL A   1      31.655  24.477  22.499  1.00  0.00     0.158 C 
ATOM     21  O   UNL A   1      33.360  25.671  20.942  1.00  0.00    -0.229 OA
ATOM     22  O   UNL A   1      34.190  23.830  22.420  1.00  0.00    -0.229 OA
ENDBRANCH  18  19
ENDBRANCH  17  18
ENDBRANCH   5  17
ENDBRANCH   3   5
ENDBRANCH   2   3
ENDBRANCH   1   2
BRANCH   1  23
ATOM     23  C   UNL A   1      35.987  21.277  25.848  1.00  0.00     0.275 C 
BRANCH  23  24
ATOM     24  O   UNL A   1      37.059  22.098  25.353  1.00  0.00    -0.458 OA
BRANCH  24  25
ATOM     25  C   UNL A   1      38.289  21.698  25.742  1.00  0.00     0.338 C 
ATOM     26  O   UNL A   1      38.875  20.670  25.424  1.00  0.00    -0.246 OA
BRANCH  25  27
ATOM     27  C   UNL A   1      38.945  22.797  26.451  1.00  0.00     0.060 A 
ATOM     28  C   UNL A   1      38.456  24.081  26.224  1.00  0.00     0.016 A 
ATOM     29  C   UNL A   1      40.068  22.594  27.247  1.00  0.00     0.016 A 
ATOM     30  C   UNL A   1      39.111  25.181  26.751  1.00  0.00     0.010 A 
ATOM     31  C   UNL A   1      40.722  23.707  27.790  1.00  0.00     0.010 A 
ATOM     32  C   UNL A   1      40.265  25.010  27.519  1.00  0.00    -0.014 A 
BRANCH  32  33
ATOM     33  C   UNL A   1      41.047  26.206  27.920  1.00  0.00     0.031 A 
ATOM     34  C   UNL A   1      40.382  27.271  28.746  1.00  0.00     0.074 A 
ATOM     35  C   UNL A   1      42.357  26.303  27.620  1.00  0.00     0.049 A 
ATOM     36  N   UNL A   1      40.802  28.470  29.049  1.00  0.00    -0.248 NA
ATOM     37  C   UNL A   1      39.057  26.938  29.295  1.00  0.00     0.031 C 
ATOM     38  C   UNL A   1      43.145  25.281  26.929  1.00  0.00     0.029 A 
ATOM     39  N   UNL A   1      43.259  27.307  27.867  1.00  0.00    -0.354 N 
ATOM     40  C   UNL A   1      39.772  29.058  29.777  1.00  0.00     0.074 A 
ATOM     41  C   UNL A   1      38.706  28.083  29.861  1.00  0.00     0.031 C 
ATOM     42  C   UNL A   1      44.414  25.704  26.821  1.00  0.00     0.029 A 
ATOM     43  C   UNL A   1      44.508  27.062  27.347  1.00  0.00     0.049 A 
ATOM     44  H   UNL A   1      43.034  28.123  28.367  1.00  0.00     0.167 HD
ATOM     45  C   UNL A   1      39.727  30.302  30.317  1.00  0.00     0.034 A 
ATOM     46  C   UNL A   1      45.589  27.863  27.251  1.00  0.00     0.034 A 
ATOM     47  C   UNL A   1      40.824  31.237  30.251  1.00  0.00     0.049 A 
ATOM     48  C   UNL A   1      45.487  29.272  27.779  1.00  0.00     0.074 A 
ATOM     49  C   UNL A   1      40.893  32.526  30.750  1.00  0.00     0.029 A 
ATOM     50  N   UNL A   1      42.053  30.980  29.654  1.00  0.00    -0.354 N 
ATOM     51  N   UNL A   1      44.476  29.859  28.378  1.00  0.00    -0.248 NA
ATOM     52  C   UNL A   1      46.665  30.130  27.603  1.00  0.00     0.031 C 
ATOM     53  C   UNL A   1      42.135  33.067  30.400  1.00  0.00     0.029 A 
ATOM     54  C   UNL A   1      42.875  32.092  29.751  1.00  0.00     0.049 A 
ATOM     55  H   UNL A   1      42.304  30.129  29.226  1.00  0.00     0.167 HD
ATOM     56  C   UNL A   1      44.905  31.152  28.666  1.00  0.00     0.074 A 
ATOM     57  C   UNL A   1      46.273  31.248  28.196  1.00  0.00     0.031 C 
ATOM     58  C   UNL A   1      44.232  32.170  29.261  1.00  0.00     0.034 A 
BRANCH  45  59
ATOM     59  C   UNL A   1      38.426  30.741  30.948  1.00  0.00     0.023 A 
ATOM     60  C   UNL A   1      37.405  31.368  30.213  1.00  0.00     0.031 A 
ATOM     61  C   UNL A   1      38.225  30.560  32.330  1.00  0.00     0.131 A 
ATOM     62  C   UNL A   1      36.264  31.851  30.875  1.00  0.00     0.055 A 
ATOM     63  C   UNL A   1      37.053  30.970  32.966  1.00  0.00     0.041 A 
ATOM     64  F   UNL A   1      39.176  29.991  33.089  1.00  0.00    -0.206 F 
ATOM     65  C   UNL A   1      36.070  31.633  32.240  1.00  0.00     0.022 A 
BRANCH  62  66
ATOM     66  S   UNL A   1      35.096  32.890  29.954  1.00  0.00     0.124 S 
ATOM     67  O   UNL A   1      34.520  31.928  29.018  1.00  0.00    -0.237 OA
ATOM     68  O   UNL A   1      34.208  33.375  31.004  1.00  0.00    -0.237 OA
ATOM     69  O   UNL A   1      35.950  33.907  29.342  1.00  0.00    -0.744 OA
ENDBRANCH  62  66
ENDBRANCH  45  59
BRANCH  46  70
ATOM     70  C   UNL A   1      46.824  27.392  26.559  1.00  0.00     0.023 A 
ATOM     71  C   UNL A   1      47.066  27.706  25.213  1.00  0.00     0.031 A 
ATOM     72  C   UNL A   1      47.761  26.578  27.223  1.00  0.00     0.131 A 
ATOM     73  C   UNL A   1      48.194  27.178  24.563  1.00  0.00     0.055 A 
ATOM     74  C   UNL A   1      48.911  26.104  26.590  1.00  0.00     0.041 A 
ATOM     75  F   UNL A   1      47.577  26.240  28.509  1.00  0.00    -0.206 F 
ATOM     76  C   UNL A   1      49.126  26.393  25.246  1.00  0.00     0.022 A 
BRANCH  73  77
ATOM     77  S   UNL A   1      48.382  27.460  22.781  1.00  0.00     0.124 S 
ATOM     78  O   UNL A   1      47.201  28.261  22.481  1.00  0.00    -0.237 OA
ATOM     79  O   UNL A   1      49.664  28.156  22.721  1.00  0.00    -0.237 OA
ATOM     80  O   UNL A   1      48.382  26.110  22.222  1.00  0.00    -0.744 OA
ENDBRANCH  73  77
ENDBRANCH  46  70
BRANCH  58  81
ATOM     81  C   UNL A   1      44.993  33.455  29.472  1.00  0.00     0.023 A 
ATOM     82  C   UNL A   1      44.902  34.525  28.565  1.00  0.00     0.031 A 
ATOM     83  C   UNL A   1      45.836  33.604  30.588  1.00  0.00     0.131 A 
ATOM     84  C   UNL A   1      45.686  35.671  28.756  1.00  0.00     0.055 A 
ATOM     85  C   UNL A   1      46.567  34.771  30.806  1.00  0.00     0.041 A 
ATOM     86  F   UNL A   1      45.964  32.611  31.484  1.00  0.00    -0.206 F 
ATOM     87  C   UNL A   1      46.505  35.808  29.880  1.00  0.00     0.022 A 
BRANCH  84  88
ATOM     88  S   UNL A   1      45.698  36.944  27.464  1.00  0.00     0.124 S 
ATOM     89  O   UNL A   1      46.133  38.124  28.204  1.00  0.00    -0.237 OA
ATOM     90  O   UNL A   1      46.656  36.406  26.504  1.00  0.00    -0.237 OA
ATOM     91  O   UNL A   1      44.311  36.977  27.002  1.00  0.00    -0.744 OA
ENDBRANCH  84  88
ENDBRANCH  58  81
ENDBRANCH  32  33
ENDBRANCH  25  27
ENDBRANCH  24  25
ENDBRANCH  23  24
ENDBRANCH   1  23
TORSDOF 19
ENDMDL
MODEL 3
REMARK VINA RESULT:     -11.1      1.995      2.382
REMARK SMILES Cc1nc(C)c(C(=O)N[C@@H](CCS(C)(=O)=O)C(=O)OCCOC(=O)c2ccc(-c3c4nc(c(-c5cc(S(=O)(=O)[O-])ccc5F)c5ccc([nH]5)c(-c5cc(S(=O)(=O)[O-])ccc5F)c5nc(c(-c6cc(S(=O)(=O)[O-])ccc6F)c6ccc3[nH]6)C=C5)C=C4)cc2)s1
REMARK SMILES IDX 20 1 19 2 17 3 18 4 10 5 9 6 7 7 8 8 6 10 1 11 2 12 3 13
REMARK SMILES IDX 88 14 4 15 5 16 11 17 12 18 13 19 14 20 15 21 16 22 21 23
REMARK SMILES IDX 22 24 23 25 24 26 25 27 26 28 87 29 27 30 86 31 28 32 29 33
REMARK SMILES IDX 30 34 80 35 31 36 85 37 79 38 81 39 32 40 84 41 78 42 77 43
REMARK SMILES IDX 33 45 65 46 45 47 64 48 46 49 49 50 63 51 82 52 47 53 48 54
REMARK SMILES IDX 62 56 83 57 50 58 34 59 35 60 43 61 36 62 42 63 44 64 41 65
REMARK SMILES IDX 37 66 38 67 39 68 40 69 66 70 67 71 75 72 68 73 74 74 76 75
REMARK SMILES IDX 73 76 69 77 70 78 71 79 72 80 51 81 52 82 60 83 53 84 59 85
REMARK SMILES IDX 61 86 58 87 54 88 55 89 56 90 57 91
REMARK H PARENT 9 9 81 44 49 55
REMARK Flexibility Score: inf
ROOT
ATOM      1  C   UNL A   1      31.831  28.348  27.220  1.00  0.00     0.274 C 
ENDROOT
BRANCH   1   2
ATOM      2  O   UNL A   1      32.079  27.536  26.052  1.00  0.00    -0.461 OA
BRANCH   2   3
ATOM      3  C   UNL A   1      31.087  26.691  25.689  1.00  0.00     0.328 C 
ATOM      4  O   UNL A   1      30.382  26.062  26.472  1.00  0.00    -0.250 OA
BRANCH   3   5
ATOM      5  C   UNL A   1      30.970  26.494  24.172  1.00  0.00     0.193 C 
BRANCH   5   6
ATOM      6  N   UNL A   1      30.801  25.125  23.688  1.00  0.00    -0.338 N 
ATOM      7  C   UNL A   1      31.535  23.959  23.810  1.00  0.00     0.263 C 
ATOM      8  O   UNL A   1      31.027  23.005  23.211  1.00  0.00    -0.268 OA
ATOM      9  H   UNL A   1      29.980  25.006  23.157  1.00  0.00     0.164 HD
BRANCH   7  10
ATOM     10  C   UNL A   1      32.771  23.811  24.579  1.00  0.00     0.115 A 
ATOM     11  C   UNL A   1      36.490  24.074  25.751  1.00  0.00     0.079 C 
ATOM     12  C   UNL A   1      35.043  23.818  25.495  1.00  0.00     0.091 A 
ATOM     13  N   UNL A   1      34.187  23.492  26.429  1.00  0.00    -0.246 NA
ATOM     14  S   UNL A   1      34.363  23.932  23.928  1.00  0.00    -0.113 S 
ATOM     15  C   UNL A   1      32.897  23.432  25.918  1.00  0.00     0.061 A 
ATOM     16  C   UNL A   1      31.852  23.006  26.891  1.00  0.00     0.068 C 
ENDBRANCH   7  10
ENDBRANCH   5   6
BRANCH   5  17
ATOM     17  C   UNL A   1      29.916  27.438  23.559  1.00  0.00     0.053 C 
BRANCH  17  18
ATOM     18  C   UNL A   1      30.246  28.924  23.430  1.00  0.00     0.139 C 
BRANCH  18  19
ATOM     19  S   UNL A   1      29.065  30.027  22.665  1.00  0.00     0.147 S 
ATOM     20  C   UNL A   1      27.434  29.327  22.832  1.00  0.00     0.158 C 
ATOM     21  O   UNL A   1      29.066  31.257  23.436  1.00  0.00    -0.229 OA
ATOM     22  O   UNL A   1      29.380  30.080  21.251  1.00  0.00    -0.229 OA
ENDBRANCH  18  19
ENDBRANCH  17  18
ENDBRANCH   5  17
ENDBRANCH   3   5
ENDBRANCH   2   3
ENDBRANCH   1   2
BRANCH   1  23
ATOM     23  C   UNL A   1      31.741  29.825  26.843  1.00  0.00     0.275 C 
BRANCH  23  24
ATOM     24  O   UNL A   1      33.027  30.316  26.428  1.00  0.00    -0.458 OA
BRANCH  24  25
ATOM     25  C   UNL A   1      33.442  31.414  27.096  1.00  0.00     0.338 C 
ATOM     26  O   UNL A   1      32.787  32.411  27.373  1.00  0.00    -0.246 OA
BRANCH  25  27
ATOM     27  C   UNL A   1      34.768  31.156  27.658  1.00  0.00     0.060 A 
ATOM     28  C   UNL A   1      35.082  29.835  27.967  1.00  0.00     0.016 A 
ATOM     29  C   UNL A   1      35.653  32.187  27.962  1.00  0.00     0.016 A 
ATOM     30  C   UNL A   1      36.261  29.533  28.625  1.00  0.00     0.010 A 
ATOM     31  C   UNL A   1      36.852  31.878  28.616  1.00  0.00     0.010 A 
ATOM     32  C   UNL A   1      37.149  30.551  28.980  1.00  0.00    -0.014 A 
BRANCH  32  33
ATOM     33  C   UNL A   1      38.314  30.225  29.840  1.00  0.00     0.031 A 
ATOM     34  C   UNL A   1      39.390  29.323  29.301  1.00  0.00     0.074 A 
ATOM     35  C   UNL A   1      38.451  30.789  31.055  1.00  0.00     0.049 A 
ATOM     36  N   UNL A   1      40.388  28.758  29.926  1.00  0.00    -0.248 NA
ATOM     37  C   UNL A   1      39.321  29.012  27.865  1.00  0.00     0.031 C 
ATOM     38  C   UNL A   1      37.538  31.773  31.639  1.00  0.00     0.029 A 
ATOM     39  N   UNL A   1      39.418  30.624  32.015  1.00  0.00    -0.354 N 
ATOM     40  C   UNL A   1      41.035  27.977  28.973  1.00  0.00     0.074 A 
ATOM     41  C   UNL A   1      40.309  28.140  27.731  1.00  0.00     0.031 C 
ATOM     42  C   UNL A   1      37.996  32.134  32.848  1.00  0.00     0.029 A 
ATOM     43  C   UNL A   1      39.178  31.339  33.164  1.00  0.00     0.049 A 
ATOM     44  H   UNL A   1      40.207  30.049  31.892  1.00  0.00     0.167 HD
ATOM     45  C   UNL A   1      42.132  27.195  29.129  1.00  0.00     0.034 A 
ATOM     46  C   UNL A   1      39.805  31.312  34.358  1.00  0.00     0.034 A 
ATOM     47  C   UNL A   1      42.859  27.086  30.372  1.00  0.00     0.049 A 
ATOM     48  C   UNL A   1      40.967  30.368  34.538  1.00  0.00     0.074 A 
ATOM     49  C   UNL A   1      43.976  26.320  30.656  1.00  0.00     0.029 A 
ATOM     50  N   UNL A   1      42.546  27.773  31.539  1.00  0.00    -0.354 N 
ATOM     51  N   UNL A   1      41.515  29.557  33.663  1.00  0.00    -0.248 NA
ATOM     52  C   UNL A   1      41.585  30.327  35.869  1.00  0.00     0.031 C 
ATOM     53  C   UNL A   1      44.297  26.494  32.006  1.00  0.00     0.029 A 
ATOM     54  C   UNL A   1      43.431  27.430  32.549  1.00  0.00     0.049 A 
ATOM     55  H   UNL A   1      41.803  28.412  31.634  1.00  0.00     0.167 HD
ATOM     56  C   UNL A   1      42.554  28.920  34.336  1.00  0.00     0.074 A 
ATOM     57  C   UNL A   1      42.570  29.461  35.680  1.00  0.00     0.031 C 
ATOM     58  C   UNL A   1      43.418  27.972  33.888  1.00  0.00     0.034 A 
BRANCH  45  59
ATOM     59  C   UNL A   1      42.554  26.342  27.956  1.00  0.00     0.023 A 
ATOM     60  C   UNL A   1      42.023  25.061  27.725  1.00  0.00     0.031 A 
ATOM     61  C   UNL A   1      43.543  26.812  27.071  1.00  0.00     0.131 A 
ATOM     62  C   UNL A   1      42.531  24.272  26.680  1.00  0.00     0.055 A 
ATOM     63  C   UNL A   1      43.986  26.054  25.987  1.00  0.00     0.041 A 
ATOM     64  F   UNL A   1      44.107  28.017  27.256  1.00  0.00    -0.206 F 
ATOM     65  C   UNL A   1      43.490  24.769  25.795  1.00  0.00     0.022 A 
BRANCH  62  66
ATOM     66  S   UNL A   1      42.023  22.533  26.574  1.00  0.00     0.124 S 
ATOM     67  O   UNL A   1      40.567  22.648  26.604  1.00  0.00    -0.237 OA
ATOM     68  O   UNL A   1      42.607  22.110  25.306  1.00  0.00    -0.237 OA
ATOM     69  O   UNL A   1      42.617  21.928  27.765  1.00  0.00    -0.744 OA
ENDBRANCH  62  66
ENDBRANCH  45  59
BRANCH  46  70
ATOM     70  C   UNL A   1      39.300  32.131  35.499  1.00  0.00     0.023 A 
ATOM     71  C   UNL A   1      39.720  33.458  35.682  1.00  0.00     0.031 A 
ATOM     72  C   UNL A   1      38.425  31.582  36.454  1.00  0.00     0.131 A 
ATOM     73  C   UNL A   1      39.296  34.176  36.812  1.00  0.00     0.055 A 
ATOM     74  C   UNL A   1      37.959  32.319  37.543  1.00  0.00     0.041 A 
ATOM     75  F   UNL A   1      37.995  30.315  36.333  1.00  0.00    -0.206 F 
ATOM     76  C   UNL A   1      38.406  33.622  37.734  1.00  0.00     0.022 A 
BRANCH  73  77
ATOM     77  S   UNL A   1      39.996  35.824  37.107  1.00  0.00     0.124 S 
ATOM     78  O   UNL A   1      41.408  35.515  37.304  1.00  0.00    -0.237 OA
ATOM     79  O   UNL A   1      39.656  36.521  35.871  1.00  0.00    -0.237 OA
ATOM     80  O   UNL A   1      39.285  36.286  38.297  1.00  0.00    -0.744 OA
ENDBRANCH  73  77
ENDBRANCH  46  70
BRANCH  58  81
ATOM     81  C   UNL A   1      44.474  27.502  34.858  1.00  0.00     0.023 A 
ATOM     82  C   UNL A   1      45.703  28.170  34.991  1.00  0.00     0.031 A 
ATOM     83  C   UNL A   1      44.252  26.359  35.645  1.00  0.00     0.131 A 
ATOM     84  C   UNL A   1      46.688  27.655  35.847  1.00  0.00     0.055 A 
ATOM     85  C   UNL A   1      45.212  25.886  36.540  1.00  0.00     0.041 A 
ATOM     86  F   UNL A   1      43.097  25.680  35.555  1.00  0.00    -0.206 F 
ATOM     87  C   UNL A   1      46.444  26.527  36.634  1.00  0.00     0.022 A 
BRANCH  84  88
ATOM     88  S   UNL A   1      48.332  28.422  35.843  1.00  0.00     0.124 S 
ATOM     89  O   UNL A   1      48.745  28.260  37.234  1.00  0.00    -0.237 OA
ATOM     90  O   UNL A   1      49.053  27.612  34.867  1.00  0.00    -0.237 OA
ATOM     91  O   UNL A   1      48.067  29.799  35.431  1.00  0.00    -0.744 OA
ENDBRANCH  84  88
ENDBRANCH  58  81
ENDBRANCH  32  33
ENDBRANCH  25  27
ENDBRANCH  24  25
ENDBRANCH  23  24
ENDBRANCH   1  23
TORSDOF 19
ENDMDL
