MODEL 1
REMARK VINA RESULT:     -12.4      0.000      0.000
REMARK SMILES CC1(C)[C@H](C(=O)Nc2ccccc2C(=O)Nc2nccs2)[C@H]1C(=O)OCCOC(=O)c1ccc(-c2c3nc(c(-c4cc(S(=O)(=O)[O-])ccc4F)c4ccc([nH]4)c(-c4cc(S(=O)(=O)[O-])ccc4F)c4nc(c(-c5cc(S(=O)(=O)[O-])ccc5F)c5ccc2[nH]5)C=C4)C=C3)cc1
REMARK SMILES IDX 26 1 25 2 23 3 24 4 22 5 1 6 2 7 3 8 4 9 5 10 6 11 7 12 8 14
REMARK SMILES IDX 9 15 13 16 10 17 12 18 11 19 14 20 15 21 16 22 17 24 18 25
REMARK SMILES IDX 21 26 19 27 20 28 27 29 28 30 29 31 30 32 31 33 32 34 93 35
REMARK SMILES IDX 33 36 92 37 34 38 35 39 36 40 86 41 37 42 91 43 85 44 87 45
REMARK SMILES IDX 38 46 90 47 84 48 83 49 39 51 71 52 51 53 70 54 52 55 55 56
REMARK SMILES IDX 69 57 88 58 53 59 54 60 68 62 89 63 56 64 40 65 41 66 49 67
REMARK SMILES IDX 42 68 48 69 50 70 47 71 43 72 44 73 45 74 46 75 72 76 73 77
REMARK SMILES IDX 81 78 74 79 80 80 82 81 79 82 75 83 76 84 77 85 78 86 57 87
REMARK SMILES IDX 58 88 66 89 59 90 65 91 67 92 64 93 60 94 61 95 62 96 63 97
REMARK H PARENT 7 13 16 23 87 50 55 61
REMARK Flexibility Score: inf
ROOT
ATOM      1  C   UNL A   1      35.114  20.588  25.442  1.00  0.00     0.274 C 
ENDROOT
BRANCH   1   2
ATOM      2  O   UNL A   1      34.304  20.733  24.267  1.00  0.00    -0.462 OA
BRANCH   2   3
ATOM      3  C   UNL A   1      33.159  21.435  24.460  1.00  0.00     0.310 C 
ATOM      4  O   UNL A   1      32.058  20.967  24.668  1.00  0.00    -0.252 OA
BRANCH   3   5
ATOM      5  C   UNL A   1      33.441  22.856  24.687  1.00  0.00     0.118 C 
ATOM      6  C   UNL A   1      35.393  23.223  23.033  1.00  0.00     0.013 C 
ATOM      7  C   UNL A   1      34.462  23.754  24.102  1.00  0.00    -0.009 C 
ATOM      8  C   UNL A   1      35.184  24.620  25.106  1.00  0.00     0.013 C 
ATOM      9  C   UNL A   1      32.999  23.912  23.676  1.00  0.00     0.100 C 
BRANCH   9  10
ATOM     10  C   UNL A   1      31.715  24.477  24.167  1.00  0.00     0.228 C 
ATOM     11  O   UNL A   1      30.699  23.811  23.959  1.00  0.00    -0.274 OA
ATOM     12  N   UNL A   1      31.581  25.594  24.929  1.00  0.00    -0.325 N 
ATOM     13  H   UNL A   1      30.751  25.586  25.459  1.00  0.00     0.169 HD
BRANCH  12  14
ATOM     14  C   UNL A   1      32.337  26.751  25.145  1.00  0.00     0.054 A 
ATOM     15  C   UNL A   1      32.500  27.050  26.515  1.00  0.00     0.027 A 
ATOM     16  C   UNL A   1      32.911  27.603  24.189  1.00  0.00     0.063 A 
ATOM     17  C   UNL A   1      33.350  28.064  26.946  1.00  0.00     0.002 A 
ATOM     18  C   UNL A   1      33.790  28.612  24.645  1.00  0.00     0.016 A 
ATOM     19  C   UNL A   1      34.025  28.826  26.006  1.00  0.00     0.001 A 
BRANCH  16  20
ATOM     20  C   UNL A   1      32.751  27.549  22.708  1.00  0.00     0.259 C 
ATOM     21  O   UNL A   1      33.759  27.356  22.018  1.00  0.00    -0.269 OA
ATOM     22  N   UNL A   1      31.569  27.668  22.031  1.00  0.00    -0.298 N 
ATOM     23  H   UNL A   1      31.597  27.407  21.083  1.00  0.00     0.172 HD
BRANCH  22  24
ATOM     24  C   UNL A   1      30.359  28.097  22.478  1.00  0.00     0.189 A 
ATOM     25  N   UNL A   1      29.430  27.459  23.137  1.00  0.00    -0.229 NA
ATOM     26  S   UNL A   1      30.014  29.713  22.035  1.00  0.00    -0.105 S 
ATOM     27  C   UNL A   1      28.298  28.252  23.192  1.00  0.00     0.125 A 
ATOM     28  C   UNL A   1      28.412  29.497  22.607  1.00  0.00     0.088 A 
ENDBRANCH  22  24
ENDBRANCH  16  20
ENDBRANCH  12  14
ENDBRANCH   9  10
ENDBRANCH   3   5
ENDBRANCH   2   3
ENDBRANCH   1   2
BRANCH   1  29
ATOM     29  C   UNL A   1      36.543  20.259  25.013  1.00  0.00     0.275 C 
BRANCH  29  30
ATOM     30  O   UNL A   1      37.414  21.407  25.150  1.00  0.00    -0.458 OA
BRANCH  30  31
ATOM     31  C   UNL A   1      38.612  21.144  25.724  1.00  0.00     0.338 C 
ATOM     32  O   UNL A   1      39.206  20.077  25.722  1.00  0.00    -0.246 OA
BRANCH  31  33
ATOM     33  C   UNL A   1      39.153  22.326  26.422  1.00  0.00     0.060 A 
ATOM     34  C   UNL A   1      38.637  23.590  26.158  1.00  0.00     0.016 A 
ATOM     35  C   UNL A   1      40.321  22.200  27.174  1.00  0.00     0.016 A 
ATOM     36  C   UNL A   1      39.368  24.725  26.501  1.00  0.00     0.010 A 
ATOM     37  C   UNL A   1      40.972  23.348  27.646  1.00  0.00     0.010 A 
ATOM     38  C   UNL A   1      40.537  24.631  27.268  1.00  0.00    -0.014 A 
BRANCH  38  39
ATOM     39  C   UNL A   1      41.301  25.863  27.642  1.00  0.00     0.031 A 
ATOM     40  C   UNL A   1      40.680  26.912  28.535  1.00  0.00     0.074 A 
ATOM     41  C   UNL A   1      42.564  26.045  27.201  1.00  0.00     0.049 A 
ATOM     42  N   UNL A   1      41.108  28.116  28.825  1.00  0.00    -0.248 NA
ATOM     43  C   UNL A   1      39.398  26.569  29.168  1.00  0.00     0.031 C 
ATOM     44  C   UNL A   1      43.313  25.108  26.358  1.00  0.00     0.029 A 
ATOM     45  N   UNL A   1      43.451  27.075  27.405  1.00  0.00    -0.354 N 
ATOM     46  C   UNL A   1      40.119  28.698  29.614  1.00  0.00     0.074 A 
ATOM     47  C   UNL A   1      39.065  27.713  29.749  1.00  0.00     0.031 C 
ATOM     48  C   UNL A   1      44.554  25.576  26.167  1.00  0.00     0.029 A 
ATOM     49  C   UNL A   1      44.662  26.896  26.774  1.00  0.00     0.049 A 
ATOM     50  H   UNL A   1      43.241  27.867  27.951  1.00  0.00     0.167 HD
ATOM     51  C   UNL A   1      40.092  29.936  30.173  1.00  0.00     0.034 A 
ATOM     52  C   UNL A   1      45.726  27.714  26.648  1.00  0.00     0.034 A 
ATOM     53  C   UNL A   1      41.173  30.889  30.078  1.00  0.00     0.049 A 
ATOM     54  C   UNL A   1      45.669  29.086  27.261  1.00  0.00     0.074 A 
ATOM     55  C   UNL A   1      41.254  32.161  30.621  1.00  0.00     0.029 A 
ATOM     56  N   UNL A   1      42.370  30.672  29.410  1.00  0.00    -0.354 N 
ATOM     57  N   UNL A   1      44.696  29.643  27.944  1.00  0.00    -0.248 NA
ATOM     58  C   UNL A   1      46.846  29.942  27.076  1.00  0.00     0.031 C 
ATOM     59  C   UNL A   1      42.473  32.730  30.237  1.00  0.00     0.029 A 
ATOM     60  C   UNL A   1      43.186  31.789  29.513  1.00  0.00     0.049 A 
ATOM     61  H   UNL A   1      42.607  29.844  28.931  1.00  0.00     0.167 HD
ATOM     62  C   UNL A   1      45.153  30.914  28.281  1.00  0.00     0.074 A 
ATOM     63  C   UNL A   1      46.495  31.029  27.747  1.00  0.00     0.031 C 
ATOM     64  C   UNL A   1      44.518  31.898  28.966  1.00  0.00     0.034 A 
BRANCH  51  65
ATOM     65  C   UNL A   1      38.826  30.350  30.889  1.00  0.00     0.023 A 
ATOM     66  C   UNL A   1      37.758  30.976  30.223  1.00  0.00     0.031 A 
ATOM     67  C   UNL A   1      38.700  30.137  32.275  1.00  0.00     0.131 A 
ATOM     68  C   UNL A   1      36.648  31.432  30.953  1.00  0.00     0.055 A 
ATOM     69  C   UNL A   1      37.558  30.520  32.982  1.00  0.00     0.041 A 
ATOM     70  F   UNL A   1      39.692  29.561  32.970  1.00  0.00    -0.206 F 
ATOM     71  C   UNL A   1      36.530  31.186  32.323  1.00  0.00     0.022 A 
BRANCH  68  72
ATOM     72  S   UNL A   1      35.426  32.476  30.111  1.00  0.00     0.124 S 
ATOM     73  O   UNL A   1      34.362  32.546  31.110  1.00  0.00    -0.237 OA
ATOM     74  O   UNL A   1      36.170  33.708  29.882  1.00  0.00    -0.237 OA
ATOM     75  O   UNL A   1      35.093  31.713  28.909  1.00  0.00    -0.744 OA
ENDBRANCH  68  72
ENDBRANCH  51  65
BRANCH  52  76
ATOM     76  C   UNL A   1      46.912  27.284  25.852  1.00  0.00     0.023 A 
ATOM     77  C   UNL A   1      47.086  27.704  24.525  1.00  0.00     0.031 A 
ATOM     78  C   UNL A   1      47.879  26.423  26.404  1.00  0.00     0.131 A 
ATOM     79  C   UNL A   1      48.182  27.237  23.783  1.00  0.00     0.055 A 
ATOM     80  C   UNL A   1      48.996  26.006  25.680  1.00  0.00     0.041 A 
ATOM     81  F   UNL A   1      47.761  25.992  27.670  1.00  0.00    -0.206 F 
ATOM     82  C   UNL A   1      49.146  26.406  24.356  1.00  0.00     0.022 A 
BRANCH  79  83
ATOM     83  S   UNL A   1      48.293  27.679  22.027  1.00  0.00     0.124 S 
ATOM     84  O   UNL A   1      49.441  28.578  22.019  1.00  0.00    -0.237 OA
ATOM     85  O   UNL A   1      48.494  26.376  21.400  1.00  0.00    -0.237 OA
ATOM     86  O   UNL A   1      47.003  28.308  21.753  1.00  0.00    -0.744 OA
ENDBRANCH  79  83
ENDBRANCH  52  76
BRANCH  64  87
ATOM     87  C   UNL A   1      45.298  33.165  29.211  1.00  0.00     0.023 A 
ATOM     88  C   UNL A   1      45.453  34.143  28.213  1.00  0.00     0.031 A 
ATOM     89  C   UNL A   1      45.926  33.377  30.451  1.00  0.00     0.131 A 
ATOM     90  C   UNL A   1      46.266  35.262  28.453  1.00  0.00     0.055 A 
ATOM     91  C   UNL A   1      46.689  34.518  30.702  1.00  0.00     0.041 A 
ATOM     92  F   UNL A   1      45.815  32.472  31.437  1.00  0.00    -0.206 F 
ATOM     93  C   UNL A   1      46.874  35.461  29.694  1.00  0.00     0.022 A 
BRANCH  90  94
ATOM     94  S   UNL A   1      46.599  36.405  27.084  1.00  0.00     0.124 S 
ATOM     95  O   UNL A   1      45.938  35.741  25.966  1.00  0.00    -0.237 OA
ATOM     96  O   UNL A   1      45.977  37.639  27.551  1.00  0.00    -0.237 OA
ATOM     97  O   UNL A   1      48.058  36.437  27.012  1.00  0.00    -0.744 OA
ENDBRANCH  90  94
ENDBRANCH  64  87
ENDBRANCH  38  39
ENDBRANCH  31  33
ENDBRANCH  30  31
ENDBRANCH  29  30
ENDBRANCH   1  29
TORSDOF 18
ENDMDL
MODEL 2
REMARK VINA RESULT:     -12.3      5.106     10.079
REMARK SMILES CC1(C)[C@H](C(=O)Nc2ccccc2C(=O)Nc2nccs2)[C@H]1C(=O)OCCOC(=O)c1ccc(-c2c3nc(c(-c4cc(S(=O)(=O)[O-])ccc4F)c4ccc([nH]4)c(-c4cc(S(=O)(=O)[O-])ccc4F)c4nc(c(-c5cc(S(=O)(=O)[O-])ccc5F)c5ccc2[nH]5)C=C4)C=C3)cc1
REMARK SMILES IDX 26 1 25 2 23 3 24 4 22 5 1 6 2 7 3 8 4 9 5 10 6 11 7 12 8 14
REMARK SMILES IDX 9 15 13 16 10 17 12 18 11 19 14 20 15 21 16 22 17 24 18 25
REMARK SMILES IDX 21 26 19 27 20 28 27 29 28 30 29 31 30 32 31 33 32 34 93 35
REMARK SMILES IDX 33 36 92 37 34 38 35 39 36 40 86 41 37 42 91 43 85 44 87 45
REMARK SMILES IDX 38 46 90 47 84 48 83 49 39 51 71 52 51 53 70 54 52 55 55 56
REMARK SMILES IDX 69 57 88 58 53 59 54 60 68 62 89 63 56 64 40 65 41 66 49 67
REMARK SMILES IDX 42 68 48 69 50 70 47 71 43 72 44 73 45 74 46 75 72 76 73 77
REMARK SMILES IDX 81 78 74 79 80 80 82 81 79 82 75 83 76 84 77 85 78 86 57 87
REMARK SMILES IDX 58 88 66 89 59 90 65 91 67 92 64 93 60 94 61 95 62 96 63 97
REMARK H PARENT 7 13 16 23 87 50 55 61
REMARK Flexibility Score: inf
ROOT
ATOM      1  C   UNL A   1      31.110  29.612  24.745  1.00  0.00     0.274 C 
ENDROOT
BRANCH   1   2
ATOM      2  O   UNL A   1      31.326  28.645  23.709  1.00  0.00    -0.462 OA
BRANCH   2   3
ATOM      3  C   UNL A   1      30.799  27.421  23.965  1.00  0.00     0.310 C 
ATOM      4  O   UNL A   1      29.649  27.082  23.776  1.00  0.00    -0.252 OA
BRANCH   3   5
ATOM      5  C   UNL A   1      31.854  26.436  24.226  1.00  0.00     0.118 C 
ATOM      6  C   UNL A   1      32.079  26.651  26.792  1.00  0.00     0.013 C 
ATOM      7  C   UNL A   1      32.525  26.034  25.483  1.00  0.00    -0.009 C 
ATOM      8  C   UNL A   1      34.027  25.929  25.386  1.00  0.00     0.013 C 
ATOM      9  C   UNL A   1      31.519  25.076  24.836  1.00  0.00     0.100 C 
BRANCH   9  10
ATOM     10  C   UNL A   1      31.416  24.107  23.713  1.00  0.00     0.228 C 
ATOM     11  O   UNL A   1      30.334  24.050  23.127  1.00  0.00    -0.274 OA
ATOM     12  N   UNL A   1      32.440  23.376  23.201  1.00  0.00    -0.325 N 
ATOM     13  H   UNL A   1      32.279  23.113  22.266  1.00  0.00     0.169 HD
BRANCH  12  14
ATOM     14  C   UNL A   1      33.669  22.909  23.680  1.00  0.00     0.054 A 
ATOM     15  C   UNL A   1      34.761  23.342  22.897  1.00  0.00     0.027 A 
ATOM     16  C   UNL A   1      33.912  22.090  24.792  1.00  0.00     0.063 A 
ATOM     17  C   UNL A   1      36.077  23.122  23.293  1.00  0.00     0.002 A 
ATOM     18  C   UNL A   1      35.254  21.897  25.192  1.00  0.00     0.016 A 
ATOM     19  C   UNL A   1      36.324  22.426  24.464  1.00  0.00     0.001 A 
BRANCH  16  20
ATOM     20  C   UNL A   1      32.907  21.419  25.666  1.00  0.00     0.259 C 
ATOM     21  O   UNL A   1      32.606  21.961  26.735  1.00  0.00    -0.269 OA
ATOM     22  N   UNL A   1      32.257  20.251  25.376  1.00  0.00    -0.298 N 
ATOM     23  H   UNL A   1      31.481  20.047  25.948  1.00  0.00     0.172 HD
BRANCH  22  24
ATOM     24  C   UNL A   1      32.525  19.330  24.414  1.00  0.00     0.189 A 
ATOM     25  N   UNL A   1      32.194  19.310  23.151  1.00  0.00    -0.229 NA
ATOM     26  S   UNL A   1      33.381  17.971  25.006  1.00  0.00    -0.105 S 
ATOM     27  C   UNL A   1      32.522  18.073  22.624  1.00  0.00     0.125 A 
ATOM     28  C   UNL A   1      33.136  17.197  23.496  1.00  0.00     0.088 A 
ENDBRANCH  22  24
ENDBRANCH  16  20
ENDBRANCH  12  14
ENDBRANCH   9  10
ENDBRANCH   3   5
ENDBRANCH   2   3
ENDBRANCH   1   2
BRANCH   1  29
ATOM     29  C   UNL A   1      32.458  29.973  25.366  1.00  0.00     0.275 C 
BRANCH  29  30
ATOM     30  O   UNL A   1      32.333  30.238  26.784  1.00  0.00    -0.458 OA
BRANCH  30  31
ATOM     31  C   UNL A   1      33.003  31.333  27.217  1.00  0.00     0.338 C 
ATOM     32  O   UNL A   1      32.586  32.480  27.250  1.00  0.00    -0.246 OA
BRANCH  31  33
ATOM     33  C   UNL A   1      34.376  30.999  27.640  1.00  0.00     0.060 A 
ATOM     34  C   UNL A   1      34.717  29.683  27.933  1.00  0.00     0.016 A 
ATOM     35  C   UNL A   1      35.262  32.029  27.957  1.00  0.00     0.016 A 
ATOM     36  C   UNL A   1      35.859  29.410  28.683  1.00  0.00     0.010 A 
ATOM     37  C   UNL A   1      36.482  31.730  28.580  1.00  0.00     0.010 A 
ATOM     38  C   UNL A   1      36.774  30.422  29.005  1.00  0.00    -0.014 A 
BRANCH  38  39
ATOM     39  C   UNL A   1      38.005  30.108  29.797  1.00  0.00     0.031 A 
ATOM     40  C   UNL A   1      39.083  29.217  29.224  1.00  0.00     0.074 A 
ATOM     41  C   UNL A   1      38.178  30.633  31.029  1.00  0.00     0.049 A 
ATOM     42  N   UNL A   1      40.127  28.690  29.815  1.00  0.00    -0.248 NA
ATOM     43  C   UNL A   1      38.958  28.853  27.805  1.00  0.00     0.031 C 
ATOM     44  C   UNL A   1      37.242  31.536  31.706  1.00  0.00     0.029 A 
ATOM     45  N   UNL A   1      39.203  30.493  31.934  1.00  0.00    -0.354 N 
ATOM     46  C   UNL A   1      40.742  27.881  28.863  1.00  0.00     0.074 A 
ATOM     47  C   UNL A   1      39.945  27.982  27.658  1.00  0.00     0.031 C 
ATOM     48  C   UNL A   1      37.761  31.911  32.884  1.00  0.00     0.029 A 
ATOM     49  C   UNL A   1      39.009  31.193  33.103  1.00  0.00     0.049 A 
ATOM     50  H   UNL A   1      40.002  29.944  31.761  1.00  0.00     0.167 HD
ATOM     51  C   UNL A   1      41.864  27.125  28.983  1.00  0.00     0.034 A 
ATOM     52  C   UNL A   1      39.720  31.222  34.248  1.00  0.00     0.034 A 
ATOM     53  C   UNL A   1      42.681  27.075  30.173  1.00  0.00     0.049 A 
ATOM     54  C   UNL A   1      40.951  30.366  34.365  1.00  0.00     0.074 A 
ATOM     55  C   UNL A   1      43.845  26.356  30.392  1.00  0.00     0.029 A 
ATOM     56  N   UNL A   1      42.433  27.784  31.341  1.00  0.00    -0.354 N 
ATOM     57  N   UNL A   1      41.476  29.553  33.478  1.00  0.00    -0.248 NA
ATOM     58  C   UNL A   1      41.675  30.421  35.640  1.00  0.00     0.031 C 
ATOM     59  C   UNL A   1      44.269  26.588  31.706  1.00  0.00     0.029 A 
ATOM     60  C   UNL A   1      43.410  27.507  32.286  1.00  0.00     0.049 A 
ATOM     61  H   UNL A   1      41.673  28.395  31.479  1.00  0.00     0.167 HD
ATOM     62  C   UNL A   1      42.603  29.009  34.087  1.00  0.00     0.074 A 
ATOM     63  C   UNL A   1      42.693  29.605  35.405  1.00  0.00     0.031 C 
ATOM     64  C   UNL A   1      43.482  28.097  33.602  1.00  0.00     0.034 A 
BRANCH  51  65
ATOM     65  C   UNL A   1      42.240  26.243  27.813  1.00  0.00     0.023 A 
ATOM     66  C   UNL A   1      41.753  24.932  27.674  1.00  0.00     0.031 A 
ATOM     67  C   UNL A   1      43.128  26.720  26.830  1.00  0.00     0.131 A 
ATOM     68  C   UNL A   1      42.212  24.122  26.623  1.00  0.00     0.055 A 
ATOM     69  C   UNL A   1      43.517  25.936  25.742  1.00  0.00     0.041 A 
ATOM     70  F   UNL A   1      43.641  27.957  26.916  1.00  0.00    -0.206 F 
ATOM     71  C   UNL A   1      43.072  24.623  25.643  1.00  0.00     0.022 A 
BRANCH  68  72
ATOM     72  S   UNL A   1      41.781  22.360  26.635  1.00  0.00     0.124 S 
ATOM     73  O   UNL A   1      42.475  21.896  27.835  1.00  0.00    -0.237 OA
ATOM     74  O   UNL A   1      40.326  22.392  26.712  1.00  0.00    -0.237 OA
ATOM     75  O   UNL A   1      42.331  21.863  25.375  1.00  0.00    -0.744 OA
ENDBRANCH  68  72
ENDBRANCH  51  65
BRANCH  52  76
ATOM     76  C   UNL A   1      39.250  32.042  35.402  1.00  0.00     0.023 A 
ATOM     77  C   UNL A   1      39.704  33.356  35.590  1.00  0.00     0.031 A 
ATOM     78  C   UNL A   1      38.357  31.510  36.351  1.00  0.00     0.131 A 
ATOM     79  C   UNL A   1      39.289  34.084  36.717  1.00  0.00     0.055 A 
ATOM     80  C   UNL A   1      37.905  32.256  37.439  1.00  0.00     0.041 A 
ATOM     81  F   UNL A   1      37.893  30.258  36.218  1.00  0.00    -0.206 F 
ATOM     82  C   UNL A   1      38.380  33.550  37.633  1.00  0.00     0.022 A 
BRANCH  79  83
ATOM     83  S   UNL A   1      40.012  35.721  37.007  1.00  0.00     0.124 S 
ATOM     84  O   UNL A   1      39.329  36.136  38.227  1.00  0.00    -0.237 OA
ATOM     85  O   UNL A   1      41.430  35.406  37.142  1.00  0.00    -0.237 OA
ATOM     86  O   UNL A   1      39.653  36.470  35.804  1.00  0.00    -0.744 OA
ENDBRANCH  79  83
ENDBRANCH  52  76
BRANCH  64  87
ATOM     87  C   UNL A   1      44.641  27.731  34.495  1.00  0.00     0.023 A 
ATOM     88  C   UNL A   1      44.558  26.671  35.416  1.00  0.00     0.031 A 
ATOM     89  C   UNL A   1      45.831  28.478  34.448  1.00  0.00     0.131 A 
ATOM     90  C   UNL A   1      45.625  26.425  36.294  1.00  0.00     0.055 A 
ATOM     91  C   UNL A   1      46.910  28.194  35.286  1.00  0.00     0.041 A 
ATOM     92  F   UNL A   1      45.960  29.503  33.590  1.00  0.00    -0.206 F 
ATOM     93  C   UNL A   1      46.805  27.171  36.225  1.00  0.00     0.022 A 
BRANCH  90  94
ATOM     94  S   UNL A   1      45.413  25.179  37.595  1.00  0.00     0.124 S 
ATOM     95  O   UNL A   1      46.534  25.473  38.482  1.00  0.00    -0.237 OA
ATOM     96  O   UNL A   1      44.087  25.495  38.115  1.00  0.00    -0.237 OA
ATOM     97  O   UNL A   1      45.510  23.911  36.874  1.00  0.00    -0.744 OA
ENDBRANCH  90  94
ENDBRANCH  64  87
ENDBRANCH  38  39
ENDBRANCH  31  33
ENDBRANCH  30  31
ENDBRANCH  29  30
ENDBRANCH   1  29
TORSDOF 18
ENDMDL
MODEL 3
REMARK VINA RESULT:     -12.2      1.035      7.479
REMARK SMILES CC1(C)[C@H](C(=O)Nc2ccccc2C(=O)Nc2nccs2)[C@H]1C(=O)OCCOC(=O)c1ccc(-c2c3nc(c(-c4cc(S(=O)(=O)[O-])ccc4F)c4ccc([nH]4)c(-c4cc(S(=O)(=O)[O-])ccc4F)c4nc(c(-c5cc(S(=O)(=O)[O-])ccc5F)c5ccc2[nH]5)C=C4)C=C3)cc1
REMARK SMILES IDX 26 1 25 2 23 3 24 4 22 5 1 6 2 7 3 8 4 9 5 10 6 11 7 12 8 14
REMARK SMILES IDX 9 15 13 16 10 17 12 18 11 19 14 20 15 21 16 22 17 24 18 25
REMARK SMILES IDX 21 26 19 27 20 28 27 29 28 30 29 31 30 32 31 33 32 34 93 35
REMARK SMILES IDX 33 36 92 37 34 38 35 39 36 40 86 41 37 42 91 43 85 44 87 45
REMARK SMILES IDX 38 46 90 47 84 48 83 49 39 51 71 52 51 53 70 54 52 55 55 56
REMARK SMILES IDX 69 57 88 58 53 59 54 60 68 62 89 63 56 64 40 65 41 66 49 67
REMARK SMILES IDX 42 68 48 69 50 70 47 71 43 72 44 73 45 74 46 75 72 76 73 77
REMARK SMILES IDX 81 78 74 79 80 80 82 81 79 82 75 83 76 84 77 85 78 86 57 87
REMARK SMILES IDX 58 88 66 89 59 90 65 91 67 92 64 93 60 94 61 95 62 96 63 97
REMARK H PARENT 7 13 16 23 87 50 55 61
REMARK Flexibility Score: inf
ROOT
ATOM      1  C   UNL A   1      35.921  20.396  25.006  1.00  0.00     0.274 C 
ENDROOT
BRANCH   1   2
ATOM      2  O   UNL A   1      35.986  21.732  24.489  1.00  0.00    -0.462 OA
BRANCH   2   3
ATOM      3  C   UNL A   1      35.015  22.560  24.952  1.00  0.00     0.310 C 
ATOM      4  O   UNL A   1      35.061  23.218  25.971  1.00  0.00    -0.252 OA
BRANCH   3   5
ATOM      5  C   UNL A   1      34.000  22.811  23.924  1.00  0.00     0.118 C 
ATOM      6  C   UNL A   1      31.950  21.649  24.987  1.00  0.00     0.013 C 
ATOM      7  C   UNL A   1      32.577  22.410  23.838  1.00  0.00    -0.009 C 
ATOM      8  C   UNL A   1      32.162  21.859  22.496  1.00  0.00     0.013 C 
ATOM      9  C   UNL A   1      32.922  23.873  24.134  1.00  0.00     0.100 C 
BRANCH   9  10
ATOM     10  C   UNL A   1      33.383  25.107  23.443  1.00  0.00     0.228 C 
ATOM     11  O   UNL A   1      33.989  24.955  22.381  1.00  0.00    -0.274 OA
ATOM     12  N   UNL A   1      33.086  26.380  23.814  1.00  0.00    -0.325 N 
ATOM     13  H   UNL A   1      33.137  27.009  23.058  1.00  0.00     0.169 HD
BRANCH  12  14
ATOM     14  C   UNL A   1      32.724  27.012  25.008  1.00  0.00     0.054 A 
ATOM     15  C   UNL A   1      33.824  27.596  25.673  1.00  0.00     0.027 A 
ATOM     16  C   UNL A   1      31.449  27.111  25.585  1.00  0.00     0.063 A 
ATOM     17  C   UNL A   1      33.656  28.408  26.791  1.00  0.00     0.002 A 
ATOM     18  C   UNL A   1      31.295  27.959  26.707  1.00  0.00     0.016 A 
ATOM     19  C   UNL A   1      32.381  28.618  27.289  1.00  0.00     0.001 A 
BRANCH  16  20
ATOM     20  C   UNL A   1      30.189  26.461  25.127  1.00  0.00     0.259 C 
ATOM     21  O   UNL A   1      29.853  25.396  25.657  1.00  0.00    -0.269 OA
ATOM     22  N   UNL A   1      29.340  26.956  24.175  1.00  0.00    -0.298 N 
ATOM     23  H   UNL A   1      28.457  26.524  24.132  1.00  0.00     0.172 HD
BRANCH  22  24
ATOM     24  C   UNL A   1      29.539  27.958  23.280  1.00  0.00     0.189 A 
ATOM     25  N   UNL A   1      30.640  28.381  22.719  1.00  0.00    -0.229 NA
ATOM     26  S   UNL A   1      28.107  28.816  22.902  1.00  0.00    -0.105 S 
ATOM     27  C   UNL A   1      30.370  29.552  22.034  1.00  0.00     0.125 A 
ATOM     28  C   UNL A   1      29.055  29.968  22.058  1.00  0.00     0.088 A 
ENDBRANCH  22  24
ENDBRANCH  16  20
ENDBRANCH  12  14
ENDBRANCH   9  10
ENDBRANCH   3   5
ENDBRANCH   2   3
ENDBRANCH   1   2
BRANCH   1  29
ATOM     29  C   UNL A   1      37.326  19.797  24.991  1.00  0.00     0.275 C 
BRANCH  29  30
ATOM     30  O   UNL A   1      38.341  20.830  24.956  1.00  0.00    -0.458 OA
BRANCH  30  31
ATOM     31  C   UNL A   1      39.309  20.705  25.896  1.00  0.00     0.338 C 
ATOM     32  O   UNL A   1      39.843  19.670  26.263  1.00  0.00    -0.246 OA
BRANCH  31  33
ATOM     33  C   UNL A   1      39.658  22.007  26.494  1.00  0.00     0.060 A 
ATOM     34  C   UNL A   1      38.957  23.153  26.134  1.00  0.00     0.016 A 
ATOM     35  C   UNL A   1      40.826  22.122  27.247  1.00  0.00     0.016 A 
ATOM     36  C   UNL A   1      39.503  24.410  26.382  1.00  0.00     0.010 A 
ATOM     37  C   UNL A   1      41.291  23.390  27.623  1.00  0.00     0.010 A 
ATOM     38  C   UNL A   1      40.668  24.557  27.147  1.00  0.00    -0.014 A 
BRANCH  38  39
ATOM     39  C   UNL A   1      41.232  25.917  27.418  1.00  0.00     0.031 A 
ATOM     40  C   UNL A   1      42.587  26.310  26.874  1.00  0.00     0.074 A 
ATOM     41  C   UNL A   1      40.531  26.818  28.138  1.00  0.00     0.049 A 
ATOM     42  N   UNL A   1      43.317  27.363  27.145  1.00  0.00    -0.248 NA
ATOM     43  C   UNL A   1      43.211  25.385  25.917  1.00  0.00     0.031 C 
ATOM     44  C   UNL A   1      39.196  26.599  28.703  1.00  0.00     0.029 A 
ATOM     45  N   UNL A   1      40.833  28.106  28.513  1.00  0.00    -0.354 N 
ATOM     46  C   UNL A   1      44.511  27.195  26.448  1.00  0.00     0.074 A 
ATOM     47  C   UNL A   1      44.407  25.931  25.749  1.00  0.00     0.031 C 
ATOM     48  C   UNL A   1      38.775  27.725  29.297  1.00  0.00     0.029 A 
ATOM     49  C   UNL A   1      39.847  28.711  29.259  1.00  0.00     0.049 A 
ATOM     50  H   UNL A   1      41.675  28.553  28.270  1.00  0.00     0.167 HD
ATOM     51  C   UNL A   1      45.592  28.017  26.396  1.00  0.00     0.034 A 
ATOM     52  C   UNL A   1      39.817  29.902  29.891  1.00  0.00     0.034 A 
ATOM     53  C   UNL A   1      45.661  29.302  27.052  1.00  0.00     0.049 A 
ATOM     54  C   UNL A   1      41.030  30.789  29.833  1.00  0.00     0.074 A 
ATOM     55  C   UNL A   1      46.701  30.218  27.049  1.00  0.00     0.029 A 
ATOM     56  N   UNL A   1      44.647  29.863  27.817  1.00  0.00    -0.354 N 
ATOM     57  N   UNL A   1      42.176  30.580  29.227  1.00  0.00    -0.248 NA
ATOM     58  C   UNL A   1      40.950  32.064  30.554  1.00  0.00     0.031 C 
ATOM     59  C   UNL A   1      46.336  31.304  27.853  1.00  0.00     0.029 A 
ATOM     60  C   UNL A   1      45.042  31.102  28.301  1.00  0.00     0.049 A 
ATOM     61  H   UNL A   1      43.774  29.443  27.990  1.00  0.00     0.167 HD
ATOM     62  C   UNL A   1      42.949  31.708  29.486  1.00  0.00     0.074 A 
ATOM     63  C   UNL A   1      42.130  32.601  30.279  1.00  0.00     0.031 C 
ATOM     64  C   UNL A   1      44.222  31.978  29.103  1.00  0.00     0.034 A 
BRANCH  51  65
ATOM     65  C   UNL A   1      46.809  27.522  25.649  1.00  0.00     0.023 A 
ATOM     66  C   UNL A   1      47.093  27.916  24.330  1.00  0.00     0.031 A 
ATOM     67  C   UNL A   1      47.690  26.612  26.265  1.00  0.00     0.131 A 
ATOM     68  C   UNL A   1      48.181  27.349  23.647  1.00  0.00     0.055 A 
ATOM     69  C   UNL A   1      48.818  26.114  25.608  1.00  0.00     0.041 A 
ATOM     70  F   UNL A   1      47.464  26.184  27.516  1.00  0.00    -0.206 F 
ATOM     71  C   UNL A   1      49.059  26.470  24.285  1.00  0.00     0.022 A 
BRANCH  68  72
ATOM     72  S   UNL A   1      48.351  27.668  21.870  1.00  0.00     0.124 S 
ATOM     73  O   UNL A   1      48.591  26.322  21.352  1.00  0.00    -0.237 OA
ATOM     74  O   UNL A   1      47.064  28.262  21.532  1.00  0.00    -0.237 OA
ATOM     75  O   UNL A   1      49.498  28.571  21.791  1.00  0.00    -0.744 OA
ENDBRANCH  68  72
ENDBRANCH  51  65
BRANCH  52  76
ATOM     76  C   UNL A   1      38.621  30.297  30.688  1.00  0.00     0.023 A 
ATOM     77  C   UNL A   1      37.577  31.037  30.112  1.00  0.00     0.031 A 
ATOM     78  C   UNL A   1      38.518  29.962  32.051  1.00  0.00     0.131 A 
ATOM     79  C   UNL A   1      36.490  31.444  30.902  1.00  0.00     0.055 A 
ATOM     80  C   UNL A   1      37.410  30.322  32.818  1.00  0.00     0.041 A 
ATOM     81  F   UNL A   1      39.488  29.256  32.652  1.00  0.00    -0.206 F 
ATOM     82  C   UNL A   1      36.392  31.078  32.246  1.00  0.00     0.022 A 
BRANCH  79  83
ATOM     83  S   UNL A   1      35.236  32.525  30.162  1.00  0.00     0.124 S 
ATOM     84  O   UNL A   1      34.609  31.633  29.194  1.00  0.00    -0.237 OA
ATOM     85  O   UNL A   1      34.426  32.885  31.321  1.00  0.00    -0.237 OA
ATOM     86  O   UNL A   1      36.023  33.616  29.590  1.00  0.00    -0.744 OA
ENDBRANCH  79  83
ENDBRANCH  52  76
BRANCH  64  87
ATOM     87  C   UNL A   1      44.780  33.320  29.508  1.00  0.00     0.023 A 
ATOM     88  C   UNL A   1      44.666  34.448  28.677  1.00  0.00     0.031 A 
ATOM     89  C   UNL A   1      45.469  33.459  30.725  1.00  0.00     0.131 A 
ATOM     90  C   UNL A   1      45.282  35.653  29.049  1.00  0.00     0.055 A 
ATOM     91  C   UNL A   1      46.033  34.674  31.116  1.00  0.00     0.041 A 
ATOM     92  F   UNL A   1      45.611  32.411  31.553  1.00  0.00    -0.206 F 
ATOM     93  C   UNL A   1      45.953  35.776  30.268  1.00  0.00     0.022 A 
BRANCH  90  94
ATOM     94  S   UNL A   1      45.280  37.033  27.870  1.00  0.00     0.124 S 
ATOM     95  O   UNL A   1      45.653  36.369  26.626  1.00  0.00    -0.237 OA
ATOM     96  O   UNL A   1      43.903  37.509  27.952  1.00  0.00    -0.237 OA
ATOM     97  O   UNL A   1      46.284  37.947  28.411  1.00  0.00    -0.744 OA
ENDBRANCH  90  94
ENDBRANCH  64  87
ENDBRANCH  38  39
ENDBRANCH  31  33
ENDBRANCH  30  31
ENDBRANCH  29  30
ENDBRANCH   1  29
TORSDOF 18
ENDMDL
