MODEL 1
REMARK VINA RESULT:     -12.7      0.000      0.000
REMARK SMILES Cc1cc(NC(=O)c2ccc(Br)cc2N)ccc1C(=O)OCCOC(=O)c1ccc(-c2c3nc(c(-c4cc(S(=O)(=O)[O-])ccc4F)c4ccc([nH]4)c(-c4cc(S(=O)(=O)[O-])ccc4F)c4nc(c(-c5cc(S(=O)(=O)[O-])ccc5F)c5ccc2[nH]5)C=C4)C=C3)cc1
REMARK SMILES IDX 22 1 21 2 19 3 20 4 18 5 1 6 2 7 3 8 4 9 17 10 16 11 5 12
REMARK SMILES IDX 6 13 7 15 8 16 9 17 14 18 10 19 13 20 11 21 12 22 15 23
REMARK SMILES IDX 23 26 24 27 25 28 26 29 27 30 28 31 89 32 29 33 88 34 30 35
REMARK SMILES IDX 31 36 32 37 82 38 33 39 87 40 81 41 83 42 34 43 86 44 80 45
REMARK SMILES IDX 79 46 35 48 67 49 47 50 66 51 48 52 51 53 65 54 84 55 49 56
REMARK SMILES IDX 50 57 64 59 85 60 52 61 36 62 37 63 45 64 38 65 44 66 46 67
REMARK SMILES IDX 43 68 39 69 40 70 41 71 42 72 68 73 69 74 77 75 70 76 76 77
REMARK SMILES IDX 78 78 75 79 71 80 72 81 73 82 74 83 53 84 54 85 62 86 55 87
REMARK SMILES IDX 61 88 63 89 60 90 56 91 57 92 58 93 59 94
REMARK H PARENT 5 14 15 24 15 25 83 47 51 58
REMARK Flexibility Score: inf
ROOT
ATOM      1  C   UNL A   1      32.779  29.143  25.964  1.00  0.00     0.275 C 
ENDROOT
BRANCH   1   2
ATOM      2  O   UNL A   1      32.812  27.716  26.105  1.00  0.00    -0.458 OA
BRANCH   2   3
ATOM      3  C   UNL A   1      31.639  27.220  26.563  1.00  0.00     0.338 C 
ATOM      4  O   UNL A   1      31.029  27.603  27.549  1.00  0.00    -0.246 OA
BRANCH   3   5
ATOM      5  C   UNL A   1      31.210  26.004  25.862  1.00  0.00     0.063 A 
ATOM      6  C   UNL A   1      30.257  27.492  24.007  1.00  0.00     0.045 C 
ATOM      7  C   UNL A   1      30.628  26.161  24.599  1.00  0.00    -0.035 A 
ATOM      8  C   UNL A   1      30.457  25.028  23.802  1.00  0.00     0.030 A 
ATOM      9  C   UNL A   1      30.955  23.784  24.186  1.00  0.00     0.041 A 
ATOM     10  C   UNL A   1      31.559  24.730  26.331  1.00  0.00     0.018 A 
ATOM     11  C   UNL A   1      31.440  23.618  25.484  1.00  0.00     0.027 A 
BRANCH   9  12
ATOM     12  N   UNL A   1      31.010  22.703  23.286  1.00  0.00    -0.322 N 
ATOM     13  C   UNL A   1      32.125  22.062  22.768  1.00  0.00     0.257 C 
ATOM     14  H   UNL A   1      30.140  22.356  22.984  1.00  0.00     0.170 HD
ATOM     15  O   UNL A   1      32.027  21.385  21.745  1.00  0.00    -0.269 OA
BRANCH  13  16
ATOM     16  C   UNL A   1      33.448  22.151  23.451  1.00  0.00     0.063 A 
ATOM     17  C   UNL A   1      34.261  23.247  23.106  1.00  0.00     0.017 A 
ATOM     18  C   UNL A   1      33.876  21.224  24.428  1.00  0.00     0.045 A 
ATOM     19  C   UNL A   1      35.484  23.446  23.749  1.00  0.00     0.016 A 
ATOM     20  C   UNL A   1      35.125  21.426  25.035  1.00  0.00     0.042 A 
ATOM     21  C   UNL A   1      35.907  22.536  24.714  1.00  0.00     0.020 A 
ATOM     22  Br  UNL A   1      37.562  22.803  25.589  1.00  0.00    -0.051 Br
BRANCH  18  23
ATOM     23  N   UNL A   1      33.184  20.054  24.729  1.00  0.00    -0.398 N 
ATOM     24  H   UNL A   1      32.779  19.522  24.006  1.00  0.00     0.156 HD
ATOM     25  H   UNL A   1      33.100  19.759  25.664  1.00  0.00     0.156 HD
ENDBRANCH  18  23
ENDBRANCH  13  16
ENDBRANCH   9  12
ENDBRANCH   3   5
ENDBRANCH   2   3
ENDBRANCH   1   2
BRANCH   1  26
ATOM     26  C   UNL A   1      34.053  29.839  26.460  1.00  0.00     0.275 C 
BRANCH  26  27
ATOM     27  O   UNL A   1      34.454  29.758  27.854  1.00  0.00    -0.458 OA
BRANCH  27  28
ATOM     28  C   UNL A   1      35.328  30.610  28.445  1.00  0.00     0.338 C 
ATOM     29  O   UNL A   1      34.979  31.696  28.904  1.00  0.00    -0.246 OA
BRANCH  28  30
ATOM     30  C   UNL A   1      36.692  30.074  28.640  1.00  0.00     0.060 A 
ATOM     31  C   UNL A   1      36.949  29.263  29.760  1.00  0.00     0.016 A 
ATOM     32  C   UNL A   1      37.625  30.186  27.615  1.00  0.00     0.016 A 
ATOM     33  C   UNL A   1      38.075  28.453  29.789  1.00  0.00     0.010 A 
ATOM     34  C   UNL A   1      38.642  29.271  27.555  1.00  0.00     0.010 A 
ATOM     35  C   UNL A   1      38.890  28.443  28.659  1.00  0.00    -0.014 A 
BRANCH  35  36
ATOM     36  C   UNL A   1      40.236  27.903  28.659  1.00  0.00     0.031 A 
ATOM     37  C   UNL A   1      40.495  26.486  28.362  1.00  0.00     0.074 A 
ATOM     38  C   UNL A   1      41.135  28.889  28.871  1.00  0.00     0.049 A 
ATOM     39  N   UNL A   1      41.485  25.812  28.830  1.00  0.00    -0.248 NA
ATOM     40  C   UNL A   1      39.601  25.656  27.556  1.00  0.00     0.031 C 
ATOM     41  C   UNL A   1      42.575  28.958  28.740  1.00  0.00     0.029 A 
ATOM     42  N   UNL A   1      40.816  30.115  29.452  1.00  0.00    -0.354 N 
ATOM     43  C   UNL A   1      41.574  24.651  28.081  1.00  0.00     0.074 A 
ATOM     44  C   UNL A   1      40.282  24.507  27.467  1.00  0.00     0.031 C 
ATOM     45  C   UNL A   1      43.017  29.996  29.488  1.00  0.00     0.029 A 
ATOM     46  C   UNL A   1      41.874  30.542  30.224  1.00  0.00     0.049 A 
ATOM     47  H   UNL A   1      39.968  30.600  29.331  1.00  0.00     0.167 HD
ATOM     48  C   UNL A   1      42.805  24.096  27.879  1.00  0.00     0.034 A 
ATOM     49  C   UNL A   1      41.691  30.493  31.579  1.00  0.00     0.034 A 
ATOM     50  C   UNL A   1      43.804  24.912  28.567  1.00  0.00     0.049 A 
ATOM     51  C   UNL A   1      42.553  29.391  32.150  1.00  0.00     0.074 A 
ATOM     52  C   UNL A   1      44.607  25.943  28.113  1.00  0.00     0.029 A 
ATOM     53  N   UNL A   1      43.772  25.005  29.950  1.00  0.00    -0.354 N 
ATOM     54  N   UNL A   1      42.809  28.257  31.548  1.00  0.00    -0.248 NA
ATOM     55  C   UNL A   1      43.313  29.581  33.376  1.00  0.00     0.031 C 
ATOM     56  C   UNL A   1      44.961  26.733  29.240  1.00  0.00     0.029 A 
ATOM     57  C   UNL A   1      44.379  26.173  30.365  1.00  0.00     0.049 A 
ATOM     58  H   UNL A   1      43.373  24.334  30.549  1.00  0.00     0.167 HD
ATOM     59  C   UNL A   1      43.833  27.630  32.212  1.00  0.00     0.074 A 
ATOM     60  C   UNL A   1      44.096  28.492  33.358  1.00  0.00     0.031 C 
ATOM     61  C   UNL A   1      44.452  26.489  31.778  1.00  0.00     0.034 A 
BRANCH  48  62
ATOM     62  C   UNL A   1      43.198  23.084  26.818  1.00  0.00     0.023 A 
ATOM     63  C   UNL A   1      42.719  21.760  26.953  1.00  0.00     0.031 A 
ATOM     64  C   UNL A   1      44.025  23.305  25.700  1.00  0.00     0.131 A 
ATOM     65  C   UNL A   1      43.108  20.728  26.080  1.00  0.00     0.055 A 
ATOM     66  C   UNL A   1      44.430  22.273  24.836  1.00  0.00     0.041 A 
ATOM     67  F   UNL A   1      44.452  24.527  25.364  1.00  0.00    -0.206 F 
ATOM     68  C   UNL A   1      43.979  20.975  25.026  1.00  0.00     0.022 A 
BRANCH  65  69
ATOM     69  S   UNL A   1      42.459  19.056  26.355  1.00  0.00     0.124 S 
ATOM     70  O   UNL A   1      43.474  18.223  25.718  1.00  0.00    -0.237 OA
ATOM     71  O   UNL A   1      42.383  18.986  27.809  1.00  0.00    -0.237 OA
ATOM     72  O   UNL A   1      41.165  19.078  25.671  1.00  0.00    -0.744 OA
ENDBRANCH  65  69
ENDBRANCH  48  62
BRANCH  49  73
ATOM     73  C   UNL A   1      40.309  30.878  32.055  1.00  0.00     0.023 A 
ATOM     74  C   UNL A   1      39.764  32.099  31.584  1.00  0.00     0.031 A 
ATOM     75  C   UNL A   1      39.428  30.019  32.726  1.00  0.00     0.131 A 
ATOM     76  C   UNL A   1      38.385  32.364  31.652  1.00  0.00     0.055 A 
ATOM     77  C   UNL A   1      38.056  30.319  32.857  1.00  0.00     0.041 A 
ATOM     78  F   UNL A   1      39.846  28.838  33.202  1.00  0.00    -0.206 F 
ATOM     79  C   UNL A   1      37.522  31.477  32.289  1.00  0.00     0.022 A 
BRANCH  76  80
ATOM     80  S   UNL A   1      37.721  33.746  30.671  1.00  0.00     0.124 S 
ATOM     81  O   UNL A   1      37.928  33.279  29.304  1.00  0.00    -0.237 OA
ATOM     82  O   UNL A   1      36.331  33.812  31.121  1.00  0.00    -0.237 OA
ATOM     83  O   UNL A   1      38.543  34.880  31.079  1.00  0.00    -0.744 OA
ENDBRANCH  76  80
ENDBRANCH  49  73
BRANCH  61  84
ATOM     84  C   UNL A   1      45.290  25.602  32.662  1.00  0.00     0.023 A 
ATOM     85  C   UNL A   1      44.732  24.526  33.355  1.00  0.00     0.031 A 
ATOM     86  C   UNL A   1      46.696  25.736  32.758  1.00  0.00     0.131 A 
ATOM     87  C   UNL A   1      45.504  23.746  34.218  1.00  0.00     0.055 A 
ATOM     88  C   UNL A   1      47.486  24.864  33.508  1.00  0.00     0.041 A 
ATOM     89  F   UNL A   1      47.366  26.707  32.121  1.00  0.00    -0.206 F 
ATOM     90  C   UNL A   1      46.886  23.879  34.274  1.00  0.00     0.022 A 
BRANCH  87  91
ATOM     91  S   UNL A   1      44.612  22.670  35.362  1.00  0.00     0.124 S 
ATOM     92  O   UNL A   1      44.712  21.378  34.687  1.00  0.00    -0.237 OA
ATOM     93  O   UNL A   1      45.389  22.802  36.590  1.00  0.00    -0.237 OA
ATOM     94  O   UNL A   1      43.273  23.249  35.402  1.00  0.00    -0.744 OA
ENDBRANCH  87  91
ENDBRANCH  61  84
ENDBRANCH  35  36
ENDBRANCH  28  30
ENDBRANCH  27  28
ENDBRANCH  26  27
ENDBRANCH   1  26
TORSDOF 17
ENDMDL
MODEL 2
REMARK VINA RESULT:     -12.6      1.607      2.091
REMARK SMILES Cc1cc(NC(=O)c2ccc(Br)cc2N)ccc1C(=O)OCCOC(=O)c1ccc(-c2c3nc(c(-c4cc(S(=O)(=O)[O-])ccc4F)c4ccc([nH]4)c(-c4cc(S(=O)(=O)[O-])ccc4F)c4nc(c(-c5cc(S(=O)(=O)[O-])ccc5F)c5ccc2[nH]5)C=C4)C=C3)cc1
REMARK SMILES IDX 22 1 21 2 19 3 20 4 18 5 1 6 2 7 3 8 4 9 17 10 16 11 5 12
REMARK SMILES IDX 6 13 7 15 8 16 9 17 14 18 10 19 13 20 11 21 12 22 15 23
REMARK SMILES IDX 23 26 24 27 25 28 26 29 27 30 28 31 89 32 29 33 88 34 30 35
REMARK SMILES IDX 31 36 32 37 82 38 33 39 87 40 81 41 83 42 34 43 86 44 80 45
REMARK SMILES IDX 79 46 35 48 67 49 47 50 66 51 48 52 51 53 65 54 84 55 49 56
REMARK SMILES IDX 50 57 64 59 85 60 52 61 36 62 37 63 45 64 38 65 44 66 46 67
REMARK SMILES IDX 43 68 39 69 40 70 41 71 42 72 68 73 69 74 77 75 70 76 76 77
REMARK SMILES IDX 78 78 75 79 71 80 72 81 73 82 74 83 53 84 54 85 62 86 55 87
REMARK SMILES IDX 61 88 63 89 60 90 56 91 57 92 58 93 59 94
REMARK H PARENT 5 14 15 24 15 25 83 47 51 58
REMARK Flexibility Score: inf
ROOT
ATOM      1  C   UNL A   1      33.391  29.343  26.411  1.00  0.00     0.275 C 
ENDROOT
BRANCH   1   2
ATOM      2  O   UNL A   1      32.774  28.125  25.968  1.00  0.00    -0.458 OA
BRANCH   2   3
ATOM      3  C   UNL A   1      31.878  28.338  24.976  1.00  0.00     0.338 C 
ATOM      4  O   UNL A   1      31.367  29.407  24.682  1.00  0.00    -0.246 OA
BRANCH   3   5
ATOM      5  C   UNL A   1      31.394  27.098  24.357  1.00  0.00     0.063 A 
ATOM      6  C   UNL A   1      32.913  27.590  22.353  1.00  0.00     0.045 C 
ATOM      7  C   UNL A   1      31.971  26.721  23.139  1.00  0.00    -0.035 A 
ATOM      8  C   UNL A   1      31.732  25.431  22.662  1.00  0.00     0.030 A 
ATOM      9  C   UNL A   1      31.038  24.490  23.422  1.00  0.00     0.041 A 
ATOM     10  C   UNL A   1      30.551  26.217  25.048  1.00  0.00     0.018 A 
ATOM     11  C   UNL A   1      30.382  24.904  24.583  1.00  0.00     0.027 A 
BRANCH   9  12
ATOM     12  N   UNL A   1      31.011  23.130  23.064  1.00  0.00    -0.322 N 
ATOM     13  C   UNL A   1      32.061  22.225  23.015  1.00  0.00     0.257 C 
ATOM     14  H   UNL A   1      30.128  22.772  22.813  1.00  0.00     0.170 HD
ATOM     15  O   UNL A   1      31.953  21.189  22.358  1.00  0.00    -0.269 OA
BRANCH  13  16
ATOM     16  C   UNL A   1      33.320  22.468  23.778  1.00  0.00     0.063 A 
ATOM     17  C   UNL A   1      34.374  23.078  23.072  1.00  0.00     0.017 A 
ATOM     18  C   UNL A   1      33.465  22.152  25.147  1.00  0.00     0.045 A 
ATOM     19  C   UNL A   1      35.562  23.406  23.726  1.00  0.00     0.016 A 
ATOM     20  C   UNL A   1      34.682  22.460  25.775  1.00  0.00     0.042 A 
ATOM     21  C   UNL A   1      35.708  23.099  25.077  1.00  0.00     0.020 A 
ATOM     22  Br  UNL A   1      37.315  23.544  25.968  1.00  0.00    -0.051 Br
BRANCH  18  23
ATOM     23  N   UNL A   1      32.516  21.440  25.875  1.00  0.00    -0.398 N 
ATOM     24  H   UNL A   1      31.892  21.917  26.468  1.00  0.00     0.156 HD
ATOM     25  H   UNL A   1      32.469  20.460  25.795  1.00  0.00     0.156 HD
ENDBRANCH  18  23
ENDBRANCH  13  16
ENDBRANCH   9  12
ENDBRANCH   3   5
ENDBRANCH   2   3
ENDBRANCH   1   2
BRANCH   1  26
ATOM     26  C   UNL A   1      34.643  29.121  27.267  1.00  0.00     0.275 C 
BRANCH  26  27
ATOM     27  O   UNL A   1      35.467  30.241  27.691  1.00  0.00    -0.458 OA
BRANCH  27  28
ATOM     28  C   UNL A   1      36.231  30.242  28.811  1.00  0.00     0.338 C 
ATOM     29  O   UNL A   1      35.860  30.765  29.859  1.00  0.00    -0.246 OA
BRANCH  28  30
ATOM     30  C   UNL A   1      37.466  29.432  28.728  1.00  0.00     0.060 A 
ATOM     31  C   UNL A   1      38.393  29.710  27.708  1.00  0.00     0.016 A 
ATOM     32  C   UNL A   1      37.796  28.578  29.775  1.00  0.00     0.016 A 
ATOM     33  C   UNL A   1      39.698  29.248  27.808  1.00  0.00     0.010 A 
ATOM     34  C   UNL A   1      39.114  28.263  29.970  1.00  0.00     0.010 A 
ATOM     35  C   UNL A   1      40.048  28.558  28.966  1.00  0.00    -0.014 A 
BRANCH  35  36
ATOM     36  C   UNL A   1      41.255  27.760  29.078  1.00  0.00     0.031 A 
ATOM     37  C   UNL A   1      41.298  26.365  28.619  1.00  0.00     0.074 A 
ATOM     38  C   UNL A   1      42.270  28.513  29.558  1.00  0.00     0.049 A 
ATOM     39  N   UNL A   1      42.057  25.455  29.119  1.00  0.00    -0.248 NA
ATOM     40  C   UNL A   1      40.417  25.831  27.581  1.00  0.00     0.031 C 
ATOM     41  C   UNL A   1      43.699  28.305  29.645  1.00  0.00     0.029 A 
ATOM     42  N   UNL A   1      42.086  29.703  30.260  1.00  0.00    -0.354 N 
ATOM     43  C   UNL A   1      42.058  24.394  28.229  1.00  0.00     0.074 A 
ATOM     44  C   UNL A   1      40.883  24.586  27.423  1.00  0.00     0.031 C 
ATOM     45  C   UNL A   1      44.190  29.138  30.591  1.00  0.00     0.029 A 
ATOM     46  C   UNL A   1      43.058  29.815  31.229  1.00  0.00     0.049 A 
ATOM     47  H   UNL A   1      41.372  30.360  30.092  1.00  0.00     0.167 HD
ATOM     48  C   UNL A   1      43.184  23.629  28.125  1.00  0.00     0.034 A 
ATOM     49  C   UNL A   1      42.645  29.648  32.522  1.00  0.00     0.034 A 
ATOM     50  C   UNL A   1      44.184  24.141  29.060  1.00  0.00     0.049 A 
ATOM     51  C   UNL A   1      43.184  28.336  33.043  1.00  0.00     0.074 A 
ATOM     52  C   UNL A   1      45.226  25.034  28.880  1.00  0.00     0.029 A 
ATOM     53  N   UNL A   1      43.938  24.078  30.423  1.00  0.00    -0.354 N 
ATOM     54  N   UNL A   1      43.327  27.251  32.325  1.00  0.00    -0.248 NA
ATOM     55  C   UNL A   1      43.749  28.226  34.379  1.00  0.00     0.031 C 
ATOM     56  C   UNL A   1      45.523  25.601  30.149  1.00  0.00     0.029 A 
ATOM     57  C   UNL A   1      44.669  25.043  31.087  1.00  0.00     0.049 A 
ATOM     58  H   UNL A   1      43.329  23.437  30.855  1.00  0.00     0.167 HD
ATOM     59  C   UNL A   1      44.094  26.358  33.029  1.00  0.00     0.074 A 
ATOM     60  C   UNL A   1      44.313  27.010  34.315  1.00  0.00     0.031 C 
ATOM     61  C   UNL A   1      44.560  25.173  32.526  1.00  0.00     0.034 A 
BRANCH  48  62
ATOM     62  C   UNL A   1      43.559  22.688  26.995  1.00  0.00     0.023 A 
ATOM     63  C   UNL A   1      42.969  21.402  26.978  1.00  0.00     0.031 A 
ATOM     64  C   UNL A   1      44.467  22.939  25.949  1.00  0.00     0.131 A 
ATOM     65  C   UNL A   1      43.328  20.425  26.032  1.00  0.00     0.055 A 
ATOM     66  C   UNL A   1      44.840  21.959  25.012  1.00  0.00     0.041 A 
ATOM     67  F   UNL A   1      45.008  24.146  25.754  1.00  0.00    -0.206 F 
ATOM     68  C   UNL A   1      44.278  20.691  25.054  1.00  0.00     0.022 A 
BRANCH  65  69
ATOM     69  S   UNL A   1      42.534  18.795  26.112  1.00  0.00     0.124 S 
ATOM     70  O   UNL A   1      41.160  19.103  25.728  1.00  0.00    -0.237 OA
ATOM     71  O   UNL A   1      43.314  18.020  25.156  1.00  0.00    -0.237 OA
ATOM     72  O   UNL A   1      42.707  18.402  27.511  1.00  0.00    -0.744 OA
ENDBRANCH  65  69
ENDBRANCH  48  62
BRANCH  49  73
ATOM     73  C   UNL A   1      41.295  30.247  32.848  1.00  0.00     0.023 A 
ATOM     74  C   UNL A   1      41.144  31.650  32.709  1.00  0.00     0.031 A 
ATOM     75  C   UNL A   1      40.119  29.509  33.039  1.00  0.00     0.131 A 
ATOM     76  C   UNL A   1      39.876  32.247  32.617  1.00  0.00     0.055 A 
ATOM     77  C   UNL A   1      38.848  30.120  33.018  1.00  0.00     0.041 A 
ATOM     78  F   UNL A   1      40.158  28.176  33.174  1.00  0.00    -0.206 F 
ATOM     79  C   UNL A   1      38.719  31.488  32.771  1.00  0.00     0.022 A 
BRANCH  76  80
ATOM     80  S   UNL A   1      39.772  33.969  32.035  1.00  0.00     0.124 S 
ATOM     81  O   UNL A   1      41.072  34.503  32.424  1.00  0.00    -0.237 OA
ATOM     82  O   UNL A   1      39.552  33.803  30.599  1.00  0.00    -0.237 OA
ATOM     83  O   UNL A   1      38.628  34.507  32.763  1.00  0.00    -0.744 OA
ENDBRANCH  76  80
ENDBRANCH  49  73
BRANCH  61  84
ATOM     84  C   UNL A   1      45.062  24.039  33.381  1.00  0.00     0.023 A 
ATOM     85  C   UNL A   1      46.366  24.023  33.880  1.00  0.00     0.031 A 
ATOM     86  C   UNL A   1      44.221  22.986  33.815  1.00  0.00     0.131 A 
ATOM     87  C   UNL A   1      46.841  22.938  34.620  1.00  0.00     0.055 A 
ATOM     88  C   UNL A   1      44.659  21.978  34.676  1.00  0.00     0.041 A 
ATOM     89  F   UNL A   1      42.938  22.893  33.437  1.00  0.00    -0.206 F 
ATOM     90  C   UNL A   1      45.990  21.930  35.058  1.00  0.00     0.022 A 
BRANCH  87  91
ATOM     91  S   UNL A   1      48.629  22.829  34.852  1.00  0.00     0.124 S 
ATOM     92  O   UNL A   1      48.776  23.300  36.227  1.00  0.00    -0.237 OA
ATOM     93  O   UNL A   1      48.889  21.410  34.640  1.00  0.00    -0.237 OA
ATOM     94  O   UNL A   1      49.161  23.724  33.828  1.00  0.00    -0.744 OA
ENDBRANCH  87  91
ENDBRANCH  61  84
ENDBRANCH  35  36
ENDBRANCH  28  30
ENDBRANCH  27  28
ENDBRANCH  26  27
ENDBRANCH   1  26
TORSDOF 17
ENDMDL
MODEL 3
REMARK VINA RESULT:     -12.6      2.187      2.710
REMARK SMILES Cc1cc(NC(=O)c2ccc(Br)cc2N)ccc1C(=O)OCCOC(=O)c1ccc(-c2c3nc(c(-c4cc(S(=O)(=O)[O-])ccc4F)c4ccc([nH]4)c(-c4cc(S(=O)(=O)[O-])ccc4F)c4nc(c(-c5cc(S(=O)(=O)[O-])ccc5F)c5ccc2[nH]5)C=C4)C=C3)cc1
REMARK SMILES IDX 22 1 21 2 19 3 20 4 18 5 1 6 2 7 3 8 4 9 17 10 16 11 5 12
REMARK SMILES IDX 6 13 7 15 8 16 9 17 14 18 10 19 13 20 11 21 12 22 15 23
REMARK SMILES IDX 23 26 24 27 25 28 26 29 27 30 28 31 89 32 29 33 88 34 30 35
REMARK SMILES IDX 31 36 32 37 82 38 33 39 87 40 81 41 83 42 34 43 86 44 80 45
REMARK SMILES IDX 79 46 35 48 67 49 47 50 66 51 48 52 51 53 65 54 84 55 49 56
REMARK SMILES IDX 50 57 64 59 85 60 52 61 36 62 37 63 45 64 38 65 44 66 46 67
REMARK SMILES IDX 43 68 39 69 40 70 41 71 42 72 68 73 69 74 77 75 70 76 76 77
REMARK SMILES IDX 78 78 75 79 71 80 72 81 73 82 74 83 53 84 54 85 62 86 55 87
REMARK SMILES IDX 61 88 63 89 60 90 56 91 57 92 58 93 59 94
REMARK H PARENT 5 14 15 24 15 25 83 47 51 58
REMARK Flexibility Score: inf
ROOT
ATOM      1  C   UNL A   1      33.622  28.859  26.618  1.00  0.00     0.275 C 
ENDROOT
BRANCH   1   2
ATOM      2  O   UNL A   1      33.304  27.466  26.489  1.00  0.00    -0.458 OA
BRANCH   2   3
ATOM      3  C   UNL A   1      32.001  27.212  26.759  1.00  0.00     0.338 C 
ATOM      4  O   UNL A   1      31.321  27.762  27.611  1.00  0.00    -0.246 OA
BRANCH   3   5
ATOM      5  C   UNL A   1      31.478  26.042  26.045  1.00  0.00     0.063 A 
ATOM      6  C   UNL A   1      30.665  27.621  24.198  1.00  0.00     0.045 C 
ATOM      7  C   UNL A   1      30.919  26.258  24.780  1.00  0.00    -0.035 A 
ATOM      8  C   UNL A   1      30.659  25.151  23.971  1.00  0.00     0.030 A 
ATOM      9  C   UNL A   1      31.050  23.866  24.347  1.00  0.00     0.041 A 
ATOM     10  C   UNL A   1      31.716  24.739  26.504  1.00  0.00     0.018 A 
ATOM     11  C   UNL A   1      31.511  23.648  25.647  1.00  0.00     0.027 A 
BRANCH   9  12
ATOM     12  N   UNL A   1      31.021  22.792  23.438  1.00  0.00    -0.322 N 
ATOM     13  C   UNL A   1      32.084  22.089  22.892  1.00  0.00     0.257 C 
ATOM     14  H   UNL A   1      30.125  22.502  23.150  1.00  0.00     0.170 HD
ATOM     15  O   UNL A   1      31.925  21.429  21.865  1.00  0.00    -0.269 OA
BRANCH  13  16
ATOM     16  C   UNL A   1      33.424  22.091  23.549  1.00  0.00     0.063 A 
ATOM     17  C   UNL A   1      34.330  23.080  23.124  1.00  0.00     0.017 A 
ATOM     18  C   UNL A   1      33.780  21.186  24.574  1.00  0.00     0.045 A 
ATOM     19  C   UNL A   1      35.579  23.198  23.736  1.00  0.00     0.016 A 
ATOM     20  C   UNL A   1      35.055  21.303  25.150  1.00  0.00     0.042 A 
ATOM     21  C   UNL A   1      35.933  22.311  24.749  1.00  0.00     0.020 A 
ATOM     22  Br  UNL A   1      37.624  22.469  25.581  1.00  0.00    -0.051 Br
BRANCH  18  23
ATOM     23  N   UNL A   1      32.986  20.110  24.957  1.00  0.00    -0.398 N 
ATOM     24  H   UNL A   1      32.013  20.139  24.810  1.00  0.00     0.156 HD
ATOM     25  H   UNL A   1      33.397  19.319  25.375  1.00  0.00     0.156 HD
ENDBRANCH  18  23
ENDBRANCH  13  16
ENDBRANCH   9  12
ENDBRANCH   3   5
ENDBRANCH   2   3
ENDBRANCH   1   2
BRANCH   1  26
ATOM     26  C   UNL A   1      34.833  29.131  27.519  1.00  0.00     0.275 C 
BRANCH  26  27
ATOM     27  O   UNL A   1      35.753  30.217  27.225  1.00  0.00    -0.458 OA
BRANCH  27  28
ATOM     28  C   UNL A   1      36.825  30.533  27.993  1.00  0.00     0.338 C 
ATOM     29  O   UNL A   1      36.841  31.519  28.725  1.00  0.00    -0.246 OA
BRANCH  28  30
ATOM     30  C   UNL A   1      37.906  29.523  28.008  1.00  0.00     0.060 A 
ATOM     31  C   UNL A   1      38.791  29.459  26.916  1.00  0.00     0.016 A 
ATOM     32  C   UNL A   1      38.167  28.818  29.177  1.00  0.00     0.016 A 
ATOM     33  C   UNL A   1      40.008  28.806  27.045  1.00  0.00     0.010 A 
ATOM     34  C   UNL A   1      39.428  28.321  29.371  1.00  0.00     0.010 A 
ATOM     35  C   UNL A   1      40.325  28.276  28.293  1.00  0.00    -0.014 A 
BRANCH  35  36
ATOM     36  C   UNL A   1      41.393  27.316  28.498  1.00  0.00     0.031 A 
ATOM     37  C   UNL A   1      41.166  25.871  28.346  1.00  0.00     0.074 A 
ATOM     38  C   UNL A   1      42.557  27.957  28.742  1.00  0.00     0.049 A 
ATOM     39  N   UNL A   1      41.814  24.960  28.982  1.00  0.00    -0.248 NA
ATOM     40  C   UNL A   1      40.114  25.306  27.503  1.00  0.00     0.031 C 
ATOM     41  C   UNL A   1      43.936  27.520  28.783  1.00  0.00     0.029 A 
ATOM     42  N   UNL A   1      42.636  29.276  29.184  1.00  0.00    -0.354 N 
ATOM     43  C   UNL A   1      41.558  23.760  28.340  1.00  0.00     0.074 A 
ATOM     44  C   UNL A   1      40.357  23.992  27.586  1.00  0.00     0.031 C 
ATOM     45  C   UNL A   1      44.644  28.425  29.497  1.00  0.00     0.029 A 
ATOM     46  C   UNL A   1      43.703  29.406  30.045  1.00  0.00     0.049 A 
ATOM     47  H   UNL A   1      42.024  30.003  28.924  1.00  0.00     0.167 HD
ATOM     48  C   UNL A   1      42.532  22.802  28.333  1.00  0.00     0.034 A 
ATOM     49  C   UNL A   1      43.397  29.577  31.367  1.00  0.00     0.034 A 
ATOM     50  C   UNL A   1      43.687  23.304  29.073  1.00  0.00     0.049 A 
ATOM     51  C   UNL A   1      43.766  28.321  32.122  1.00  0.00     0.074 A 
ATOM     52  C   UNL A   1      44.837  23.945  28.642  1.00  0.00     0.029 A 
ATOM     53  N   UNL A   1      43.568  23.560  30.431  1.00  0.00    -0.354 N 
ATOM     54  N   UNL A   1      43.663  27.106  31.644  1.00  0.00    -0.248 NA
ATOM     55  C   UNL A   1      44.434  28.382  33.413  1.00  0.00     0.031 C 
ATOM     56  C   UNL A   1      45.343  24.692  29.740  1.00  0.00     0.029 A 
ATOM     57  C   UNL A   1      44.505  24.494  30.826  1.00  0.00     0.049 A 
ATOM     58  H   UNL A   1      42.909  23.137  31.027  1.00  0.00     0.167 HD
ATOM     59  C   UNL A   1      44.341  26.251  32.474  1.00  0.00     0.074 A 
ATOM     60  C   UNL A   1      44.786  27.098  33.575  1.00  0.00     0.031 C 
ATOM     61  C   UNL A   1      44.560  24.926  32.209  1.00  0.00     0.034 A 
BRANCH  48  62
ATOM     62  C   UNL A   1      42.638  21.603  27.409  1.00  0.00     0.023 A 
ATOM     63  C   UNL A   1      43.673  21.597  26.443  1.00  0.00     0.031 A 
ATOM     64  C   UNL A   1      41.793  20.477  27.380  1.00  0.00     0.131 A 
ATOM     65  C   UNL A   1      43.792  20.581  25.478  1.00  0.00     0.055 A 
ATOM     66  C   UNL A   1      41.899  19.469  26.406  1.00  0.00     0.041 A 
ATOM     67  F   UNL A   1      40.850  20.274  28.306  1.00  0.00    -0.206 F 
ATOM     68  C   UNL A   1      42.897  19.520  25.443  1.00  0.00     0.022 A 
BRANCH  65  69
ATOM     69  S   UNL A   1      45.138  20.679  24.265  1.00  0.00     0.124 S 
ATOM     70  O   UNL A   1      45.005  19.412  23.554  1.00  0.00    -0.237 OA
ATOM     71  O   UNL A   1      44.795  21.881  23.516  1.00  0.00    -0.237 OA
ATOM     72  O   UNL A   1      46.337  20.794  25.098  1.00  0.00    -0.744 OA
ENDBRANCH  65  69
ENDBRANCH  48  62
BRANCH  49  73
ATOM     73  C   UNL A   1      42.199  30.458  31.640  1.00  0.00     0.023 A 
ATOM     74  C   UNL A   1      40.961  29.826  31.915  1.00  0.00     0.031 A 
ATOM     75  C   UNL A   1      42.262  31.838  31.882  1.00  0.00     0.131 A 
ATOM     76  C   UNL A   1      39.906  30.513  32.538  1.00  0.00     0.055 A 
ATOM     77  C   UNL A   1      41.177  32.543  32.442  1.00  0.00     0.041 A 
ATOM     78  F   UNL A   1      43.391  32.524  31.660  1.00  0.00    -0.206 F 
ATOM     79  C   UNL A   1      40.006  31.876  32.806  1.00  0.00     0.022 A 
BRANCH  76  80
ATOM     80  S   UNL A   1      38.525  29.543  33.221  1.00  0.00     0.124 S 
ATOM     81  O   UNL A   1      38.579  29.887  34.637  1.00  0.00    -0.237 OA
ATOM     82  O   UNL A   1      37.377  30.064  32.479  1.00  0.00    -0.237 OA
ATOM     83  O   UNL A   1      38.881  28.166  32.894  1.00  0.00    -0.744 OA
ENDBRANCH  76  80
ENDBRANCH  49  73
BRANCH  61  84
ATOM     84  C   UNL A   1      44.954  23.915  33.253  1.00  0.00     0.023 A 
ATOM     85  C   UNL A   1      46.260  23.840  33.740  1.00  0.00     0.031 A 
ATOM     86  C   UNL A   1      44.013  23.060  33.876  1.00  0.00     0.131 A 
ATOM     87  C   UNL A   1      46.631  22.860  34.663  1.00  0.00     0.055 A 
ATOM     88  C   UNL A   1      44.358  22.181  34.904  1.00  0.00     0.041 A 
ATOM     89  F   UNL A   1      42.718  23.048  33.527  1.00  0.00    -0.206 F 
ATOM     90  C   UNL A   1      45.684  22.051  35.281  1.00  0.00     0.022 A 
BRANCH  87  91
ATOM     91  S   UNL A   1      48.401  22.592  34.902  1.00  0.00     0.124 S 
ATOM     92  O   UNL A   1      48.573  21.253  34.342  1.00  0.00    -0.237 OA
ATOM     93  O   UNL A   1      48.992  23.679  34.130  1.00  0.00    -0.237 OA
ATOM     94  O   UNL A   1      48.568  22.687  36.350  1.00  0.00    -0.744 OA
ENDBRANCH  87  91
ENDBRANCH  61  84
ENDBRANCH  35  36
ENDBRANCH  28  30
ENDBRANCH  27  28
ENDBRANCH  26  27
ENDBRANCH   1  26
TORSDOF 17
ENDMDL
