MODEL 1
REMARK VINA RESULT:     -12.7      0.000      0.000
REMARK SMILES CNC(=O)c1cccc(-c2cnc(O)c(C(=O)OCCOC(=O)c3ccc(-c4c5nc(c(-c6cc(S(=O)(=O)[O-])ccc6F)c6ccc([nH]6)c(-c6cc(S(=O)(=O)[O-])ccc6F)c6nc(c(-c7cc(S(=O)(=O)[O-])ccc7F)c7ccc4[nH]7)C=C6)C=C5)cc3)c2)c1
REMARK SMILES IDX 20 1 19 2 18 3 16 4 17 5 15 6 10 7 11 8 87 9 12 10 13 11
REMARK SMILES IDX 9 12 5 13 6 14 88 15 7 16 8 17 3 18 1 19 2 20 4 22 14 23
REMARK SMILES IDX 21 25 22 26 23 27 24 28 25 29 86 30 26 31 85 32 27 33 28 34
REMARK SMILES IDX 29 35 79 36 30 37 84 38 78 39 80 40 31 41 83 42 77 43 76 44
REMARK SMILES IDX 32 46 64 47 44 48 63 49 45 50 48 51 62 52 81 53 46 54 47 55
REMARK SMILES IDX 61 57 82 58 49 59 33 60 34 61 42 62 35 63 41 64 43 65 40 66
REMARK SMILES IDX 36 67 37 68 38 69 39 70 65 71 66 72 74 73 67 74 73 75 75 76
REMARK SMILES IDX 72 77 68 78 69 79 70 80 71 81 50 82 51 83 59 84 52 85 58 86
REMARK SMILES IDX 60 87 57 88 53 89 54 90 55 91 56 92
REMARK H PARENT 2 21 14 24 80 45 48 56
REMARK Flexibility Score: inf
ROOT
ATOM      1  C   UNL A   1      31.889  30.433  26.198  1.00  0.00     0.275 C 
ENDROOT
BRANCH   1   2
ATOM      2  C   UNL A   1      31.861  28.991  25.686  1.00  0.00     0.275 C 
BRANCH   2   3
ATOM      3  O   UNL A   1      33.166  28.564  25.241  1.00  0.00    -0.458 OA
BRANCH   3   4
ATOM      4  C   UNL A   1      33.320  28.443  23.895  1.00  0.00     0.343 C 
ATOM      5  O   UNL A   1      33.252  29.347  23.086  1.00  0.00    -0.246 OA
BRANCH   4   6
ATOM      6  C   UNL A   1      33.564  27.032  23.537  1.00  0.00     0.122 A 
ATOM      7  C   UNL A   1      33.894  24.702  24.088  1.00  0.00     0.001 A 
ATOM      8  C   UNL A   1      33.864  24.439  22.716  1.00  0.00     0.124 A 
ATOM      9  C   UNL A   1      33.735  26.038  24.496  1.00  0.00     0.031 A 
ATOM     10  N   UNL A   1      33.772  25.383  21.770  1.00  0.00    -0.221 NA
ATOM     11  C   UNL A   1      33.619  26.640  22.213  1.00  0.00     0.225 A 
BRANCH   7  12
ATOM     12  C   UNL A   1      34.040  23.604  25.037  1.00  0.00    -0.016 A 
ATOM     13  C   UNL A   1      34.819  21.364  25.537  1.00  0.00     0.040 A 
ATOM     14  C   UNL A   1      34.528  21.551  26.891  1.00  0.00     0.014 A 
ATOM     15  C   UNL A   1      34.527  22.365  24.610  1.00  0.00     0.022 A 
ATOM     16  C   UNL A   1      33.999  22.765  27.325  1.00  0.00     0.001 A 
ATOM     17  C   UNL A   1      33.769  23.787  26.405  1.00  0.00     0.009 A 
BRANCH  13  18
ATOM     18  C   UNL A   1      35.425  20.092  25.092  1.00  0.00     0.251 C 
ATOM     19  C   UNL A   1      33.187  18.946  24.635  1.00  0.00     0.143 C 
ATOM     20  N   UNL A   1      34.627  19.016  24.788  1.00  0.00    -0.355 N 
ATOM     21  H   UNL A   1      35.103  18.165  24.653  1.00  0.00     0.163 HD
ATOM     22  O   UNL A   1      36.645  20.005  24.989  1.00  0.00    -0.269 OA
ENDBRANCH  13  18
ENDBRANCH   7  12
BRANCH  11  23
ATOM     23  O   UNL A   1      33.674  27.526  21.207  1.00  0.00    -0.493 OA
ATOM     24  H   UNL A   1      34.502  27.782  20.852  1.00  0.00     0.295 HD
ENDBRANCH  11  23
ENDBRANCH   4   6
ENDBRANCH   3   4
ENDBRANCH   2   3
ENDBRANCH   1   2
BRANCH   1  25
ATOM     25  O   UNL A   1      32.650  30.549  27.415  1.00  0.00    -0.458 OA
BRANCH  25  26
ATOM     26  C   UNL A   1      33.398  31.672  27.496  1.00  0.00     0.338 C 
ATOM     27  O   UNL A   1      32.992  32.823  27.527  1.00  0.00    -0.246 OA
BRANCH  26  28
ATOM     28  C   UNL A   1      34.824  31.357  27.658  1.00  0.00     0.060 A 
ATOM     29  C   UNL A   1      35.136  30.033  27.902  1.00  0.00     0.016 A 
ATOM     30  C   UNL A   1      35.764  32.351  27.922  1.00  0.00     0.016 A 
ATOM     31  C   UNL A   1      36.272  29.728  28.643  1.00  0.00     0.010 A 
ATOM     32  C   UNL A   1      37.008  32.001  28.474  1.00  0.00     0.010 A 
ATOM     33  C   UNL A   1      37.259  30.686  28.908  1.00  0.00    -0.014 A 
BRANCH  33  34
ATOM     34  C   UNL A   1      38.512  30.295  29.638  1.00  0.00     0.031 A 
ATOM     35  C   UNL A   1      39.515  29.345  29.019  1.00  0.00     0.074 A 
ATOM     36  C   UNL A   1      38.779  30.816  30.857  1.00  0.00     0.049 A 
ATOM     37  N   UNL A   1      40.519  28.716  29.580  1.00  0.00    -0.248 NA
ATOM     38  C   UNL A   1      39.360  29.048  27.587  1.00  0.00     0.031 C 
ATOM     39  C   UNL A   1      37.950  31.800  31.562  1.00  0.00     0.029 A 
ATOM     40  N   UNL A   1      39.829  30.613  31.722  1.00  0.00    -0.354 N 
ATOM     41  C   UNL A   1      41.070  27.901  28.593  1.00  0.00     0.074 A 
ATOM     42  C   UNL A   1      40.279  28.110  27.398  1.00  0.00     0.031 C 
ATOM     43  C   UNL A   1      38.559  32.175  32.692  1.00  0.00     0.029 A 
ATOM     44  C   UNL A   1      39.723  31.331  32.893  1.00  0.00     0.049 A 
ATOM     45  H   UNL A   1      40.583  30.012  31.521  1.00  0.00     0.167 HD
ATOM     46  C   UNL A   1      42.130  27.056  28.683  1.00  0.00     0.034 A 
ATOM     47  C   UNL A   1      40.417  31.269  34.044  1.00  0.00     0.034 A 
ATOM     48  C   UNL A   1      42.933  26.904  29.878  1.00  0.00     0.049 A 
ATOM     49  C   UNL A   1      41.525  30.261  34.155  1.00  0.00     0.074 A 
ATOM     50  C   UNL A   1      44.026  26.078  30.084  1.00  0.00     0.029 A 
ATOM     51  N   UNL A   1      42.738  27.600  31.066  1.00  0.00    -0.354 N 
ATOM     52  N   UNL A   1      41.968  29.422  33.248  1.00  0.00    -0.248 NA
ATOM     53  C   UNL A   1      42.212  30.178  35.447  1.00  0.00     0.031 C 
ATOM     54  C   UNL A   1      44.440  26.218  31.414  1.00  0.00     0.029 A 
ATOM     55  C   UNL A   1      43.668  27.199  32.014  1.00  0.00     0.049 A 
ATOM     56  H   UNL A   1      42.041  28.279  31.212  1.00  0.00     0.167 HD
ATOM     57  C   UNL A   1      43.006  28.725  33.857  1.00  0.00     0.074 A 
ATOM     58  C   UNL A   1      43.134  29.260  35.198  1.00  0.00     0.031 C 
ATOM     59  C   UNL A   1      43.780  27.733  33.352  1.00  0.00     0.034 A 
BRANCH  46  60
ATOM     60  C   UNL A   1      42.441  26.178  27.488  1.00  0.00     0.023 A 
ATOM     61  C   UNL A   1      41.969  24.859  27.375  1.00  0.00     0.031 A 
ATOM     62  C   UNL A   1      43.247  26.673  26.444  1.00  0.00     0.131 A 
ATOM     63  C   UNL A   1      42.364  24.061  26.288  1.00  0.00     0.055 A 
ATOM     64  C   UNL A   1      43.564  25.903  25.322  1.00  0.00     0.041 A 
ATOM     65  F   UNL A   1      43.749  27.917  26.498  1.00  0.00    -0.206 F 
ATOM     66  C   UNL A   1      43.136  24.583  25.246  1.00  0.00     0.022 A 
BRANCH  63  67
ATOM     67  S   UNL A   1      41.987  22.287  26.329  1.00  0.00     0.124 S 
ATOM     68  O   UNL A   1      42.755  21.795  25.188  1.00  0.00    -0.237 OA
ATOM     69  O   UNL A   1      42.472  21.890  27.646  1.00  0.00    -0.237 OA
ATOM     70  O   UNL A   1      40.535  22.240  26.158  1.00  0.00    -0.744 OA
ENDBRANCH  63  67
ENDBRANCH  46  60
BRANCH  47  71
ATOM     71  C   UNL A   1      40.019  32.110  35.213  1.00  0.00     0.023 A 
ATOM     72  C   UNL A   1      39.161  31.614  36.203  1.00  0.00     0.031 A 
ATOM     73  C   UNL A   1      40.467  33.441  35.339  1.00  0.00     0.131 A 
ATOM     74  C   UNL A   1      38.748  32.449  37.254  1.00  0.00     0.055 A 
ATOM     75  C   UNL A   1      40.116  34.242  36.426  1.00  0.00     0.041 A 
ATOM     76  F   UNL A   1      41.281  33.977  34.416  1.00  0.00    -0.206 F 
ATOM     77  C   UNL A   1      39.238  33.750  37.385  1.00  0.00     0.022 A 
BRANCH  74  78
ATOM     78  S   UNL A   1      37.471  31.844  38.389  1.00  0.00     0.124 S 
ATOM     79  O   UNL A   1      38.146  31.948  39.677  1.00  0.00    -0.237 OA
ATOM     80  O   UNL A   1      36.385  32.790  38.155  1.00  0.00    -0.237 OA
ATOM     81  O   UNL A   1      37.220  30.481  37.923  1.00  0.00    -0.744 OA
ENDBRANCH  74  78
ENDBRANCH  47  71
BRANCH  59  82
ATOM     82  C   UNL A   1      44.877  27.211  34.246  1.00  0.00     0.023 A 
ATOM     83  C   UNL A   1      44.688  26.093  35.076  1.00  0.00     0.031 A 
ATOM     84  C   UNL A   1      46.119  27.868  34.294  1.00  0.00     0.131 A 
ATOM     85  C   UNL A   1      45.699  25.706  35.967  1.00  0.00     0.055 A 
ATOM     86  C   UNL A   1      47.148  27.433  35.130  1.00  0.00     0.041 A 
ATOM     87  F   UNL A   1      46.353  28.946  33.529  1.00  0.00    -0.206 F 
ATOM     88  C   UNL A   1      46.935  26.356  35.985  1.00  0.00     0.022 A 
BRANCH  85  89
ATOM     89  S   UNL A   1      45.336  24.412  37.185  1.00  0.00     0.124 S 
ATOM     90  O   UNL A   1      44.350  25.066  38.038  1.00  0.00    -0.237 OA
ATOM     91  O   UNL A   1      44.834  23.326  36.348  1.00  0.00    -0.237 OA
ATOM     92  O   UNL A   1      46.631  24.160  37.814  1.00  0.00    -0.744 OA
ENDBRANCH  85  89
ENDBRANCH  59  82
ENDBRANCH  33  34
ENDBRANCH  26  28
ENDBRANCH  25  26
ENDBRANCH   1  25
TORSDOF 17
ENDMDL
MODEL 2
REMARK VINA RESULT:     -12.5      1.633      2.038
REMARK SMILES CNC(=O)c1cccc(-c2cnc(O)c(C(=O)OCCOC(=O)c3ccc(-c4c5nc(c(-c6cc(S(=O)(=O)[O-])ccc6F)c6ccc([nH]6)c(-c6cc(S(=O)(=O)[O-])ccc6F)c6nc(c(-c7cc(S(=O)(=O)[O-])ccc7F)c7ccc4[nH]7)C=C6)C=C5)cc3)c2)c1
REMARK SMILES IDX 20 1 19 2 18 3 16 4 17 5 15 6 10 7 11 8 87 9 12 10 13 11
REMARK SMILES IDX 9 12 5 13 6 14 88 15 7 16 8 17 3 18 1 19 2 20 4 22 14 23
REMARK SMILES IDX 21 25 22 26 23 27 24 28 25 29 86 30 26 31 85 32 27 33 28 34
REMARK SMILES IDX 29 35 79 36 30 37 84 38 78 39 80 40 31 41 83 42 77 43 76 44
REMARK SMILES IDX 32 46 64 47 44 48 63 49 45 50 48 51 62 52 81 53 46 54 47 55
REMARK SMILES IDX 61 57 82 58 49 59 33 60 34 61 42 62 35 63 41 64 43 65 40 66
REMARK SMILES IDX 36 67 37 68 38 69 39 70 65 71 66 72 74 73 67 74 73 75 75 76
REMARK SMILES IDX 72 77 68 78 69 79 70 80 71 81 50 82 51 83 59 84 52 85 58 86
REMARK SMILES IDX 60 87 57 88 53 89 54 90 55 91 56 92
REMARK H PARENT 2 21 14 24 80 45 48 56
REMARK Flexibility Score: inf
ROOT
ATOM      1  C   UNL A   1      31.743  30.779  26.136  1.00  0.00     0.275 C 
ENDROOT
BRANCH   1   2
ATOM      2  C   UNL A   1      31.685  29.407  25.461  1.00  0.00     0.275 C 
BRANCH   2   3
ATOM      3  O   UNL A   1      32.463  28.430  26.183  1.00  0.00    -0.458 OA
BRANCH   3   4
ATOM      4  C   UNL A   1      31.749  27.491  26.861  1.00  0.00     0.343 C 
ATOM      5  O   UNL A   1      31.003  27.701  27.797  1.00  0.00    -0.246 OA
BRANCH   4   6
ATOM      6  C   UNL A   1      32.023  26.150  26.309  1.00  0.00     0.122 A 
ATOM      7  C   UNL A   1      33.484  24.475  25.359  1.00  0.00     0.001 A 
ATOM      8  C   UNL A   1      32.415  23.580  25.455  1.00  0.00     0.124 A 
ATOM      9  C   UNL A   1      33.270  25.790  25.805  1.00  0.00     0.031 A 
ATOM     10  N   UNL A   1      31.186  23.916  25.869  1.00  0.00    -0.221 NA
ATOM     11  C   UNL A   1      31.036  25.182  26.286  1.00  0.00     0.225 A 
BRANCH   7  12
ATOM     12  C   UNL A   1      34.774  24.017  24.855  1.00  0.00    -0.016 A 
ATOM     13  C   UNL A   1      37.101  23.476  25.256  1.00  0.00     0.040 A 
ATOM     14  C   UNL A   1      37.212  22.940  23.970  1.00  0.00     0.014 A 
ATOM     15  C   UNL A   1      35.905  24.057  25.675  1.00  0.00     0.022 A 
ATOM     16  C   UNL A   1      36.105  22.934  23.124  1.00  0.00     0.001 A 
ATOM     17  C   UNL A   1      34.892  23.458  23.570  1.00  0.00     0.009 A 
BRANCH  13  18
ATOM     18  C   UNL A   1      38.267  23.434  26.164  1.00  0.00     0.251 C 
ATOM     19  C   UNL A   1      38.697  20.937  25.834  1.00  0.00     0.143 C 
ATOM     20  N   UNL A   1      38.879  22.238  26.447  1.00  0.00    -0.355 N 
ATOM     21  H   UNL A   1      39.542  22.268  27.174  1.00  0.00     0.163 HD
ATOM     22  O   UNL A   1      38.688  24.476  26.657  1.00  0.00    -0.269 OA
ENDBRANCH  13  18
ENDBRANCH   7  12
BRANCH  11  23
ATOM     23  O   UNL A   1      29.752  25.465  26.550  1.00  0.00    -0.493 OA
ATOM     24  H   UNL A   1      29.536  26.078  27.225  1.00  0.00     0.295 HD
ENDBRANCH  11  23
ENDBRANCH   4   6
ENDBRANCH   3   4
ENDBRANCH   2   3
ENDBRANCH   1   2
BRANCH   1  25
ATOM     25  O   UNL A   1      32.554  30.752  27.325  1.00  0.00    -0.458 OA
BRANCH  25  26
ATOM     26  C   UNL A   1      33.308  31.859  27.508  1.00  0.00     0.338 C 
ATOM     27  O   UNL A   1      32.908  33.009  27.614  1.00  0.00    -0.246 OA
BRANCH  26  28
ATOM     28  C   UNL A   1      34.727  31.520  27.685  1.00  0.00     0.060 A 
ATOM     29  C   UNL A   1      35.009  30.207  28.009  1.00  0.00     0.016 A 
ATOM     30  C   UNL A   1      35.691  32.507  27.885  1.00  0.00     0.016 A 
ATOM     31  C   UNL A   1      36.141  29.922  28.764  1.00  0.00     0.010 A 
ATOM     32  C   UNL A   1      36.929  32.161  28.453  1.00  0.00     0.010 A 
ATOM     33  C   UNL A   1      37.151  30.870  28.967  1.00  0.00    -0.014 A 
BRANCH  33  34
ATOM     34  C   UNL A   1      38.397  30.495  29.715  1.00  0.00     0.031 A 
ATOM     35  C   UNL A   1      39.428  29.568  29.105  1.00  0.00     0.074 A 
ATOM     36  C   UNL A   1      38.633  31.010  30.943  1.00  0.00     0.049 A 
ATOM     37  N   UNL A   1      40.433  28.953  29.679  1.00  0.00    -0.248 NA
ATOM     38  C   UNL A   1      39.304  29.282  27.668  1.00  0.00     0.031 C 
ATOM     39  C   UNL A   1      37.774  31.972  31.642  1.00  0.00     0.029 A 
ATOM     40  N   UNL A   1      39.672  30.818  31.824  1.00  0.00    -0.354 N 
ATOM     41  C   UNL A   1      41.016  28.157  28.695  1.00  0.00     0.074 A 
ATOM     42  C   UNL A   1      40.242  28.362  27.488  1.00  0.00     0.031 C 
ATOM     43  C   UNL A   1      38.357  32.347  32.786  1.00  0.00     0.029 A 
ATOM     44  C   UNL A   1      39.533  31.523  33.000  1.00  0.00     0.049 A 
ATOM     45  H   UNL A   1      40.440  30.232  31.632  1.00  0.00     0.167 HD
ATOM     46  C   UNL A   1      42.089  27.330  28.797  1.00  0.00     0.034 A 
ATOM     47  C   UNL A   1      40.207  31.462  34.163  1.00  0.00     0.034 A 
ATOM     48  C   UNL A   1      42.874  27.181  30.004  1.00  0.00     0.049 A 
ATOM     49  C   UNL A   1      41.331  30.473  34.285  1.00  0.00     0.074 A 
ATOM     50  C   UNL A   1      43.978  26.373  30.222  1.00  0.00     0.029 A 
ATOM     51  N   UNL A   1      42.646  27.862  31.194  1.00  0.00    -0.354 N 
ATOM     52  N   UNL A   1      41.805  29.651  33.378  1.00  0.00    -0.248 NA
ATOM     53  C   UNL A   1      41.996  30.391  35.588  1.00  0.00     0.031 C 
ATOM     54  C   UNL A   1      44.366  26.508  31.560  1.00  0.00     0.029 A 
ATOM     55  C   UNL A   1      43.566  27.470  32.155  1.00  0.00     0.049 A 
ATOM     56  H   UNL A   1      41.934  28.528  31.334  1.00  0.00     0.167 HD
ATOM     57  C   UNL A   1      42.844  28.967  33.999  1.00  0.00     0.074 A 
ATOM     58  C   UNL A   1      42.939  29.492  35.347  1.00  0.00     0.031 C 
ATOM     59  C   UNL A   1      43.645  27.993  33.499  1.00  0.00     0.034 A 
BRANCH  46  60
ATOM     60  C   UNL A   1      42.437  26.468  27.600  1.00  0.00     0.023 A 
ATOM     61  C   UNL A   1      42.166  25.090  27.555  1.00  0.00     0.031 A 
ATOM     62  C   UNL A   1      43.072  27.043  26.481  1.00  0.00     0.131 A 
ATOM     63  C   UNL A   1      42.593  24.324  26.457  1.00  0.00     0.055 A 
ATOM     64  C   UNL A   1      43.415  26.292  25.354  1.00  0.00     0.041 A 
ATOM     65  F   UNL A   1      43.379  28.350  26.465  1.00  0.00    -0.206 F 
ATOM     66  C   UNL A   1      43.191  24.921  25.343  1.00  0.00     0.022 A 
BRANCH  63  67
ATOM     67  S   UNL A   1      42.498  22.515  26.568  1.00  0.00     0.124 S 
ATOM     68  O   UNL A   1      43.905  22.155  26.728  1.00  0.00    -0.237 OA
ATOM     69  O   UNL A   1      41.649  22.314  27.737  1.00  0.00    -0.237 OA
ATOM     70  O   UNL A   1      41.904  22.122  25.291  1.00  0.00    -0.744 OA
ENDBRANCH  63  67
ENDBRANCH  46  60
BRANCH  47  71
ATOM     71  C   UNL A   1      39.774  32.286  35.331  1.00  0.00     0.023 A 
ATOM     72  C   UNL A   1      38.993  31.734  36.356  1.00  0.00     0.031 A 
ATOM     73  C   UNL A   1      40.108  33.653  35.425  1.00  0.00     0.131 A 
ATOM     74  C   UNL A   1      38.541  32.549  37.407  1.00  0.00     0.055 A 
ATOM     75  C   UNL A   1      39.722  34.438  36.510  1.00  0.00     0.041 A 
ATOM     76  F   UNL A   1      40.844  34.241  34.468  1.00  0.00    -0.206 F 
ATOM     77  C   UNL A   1      38.920  33.889  37.504  1.00  0.00     0.022 A 
BRANCH  74  78
ATOM     78  S   UNL A   1      37.356  31.855  38.591  1.00  0.00     0.124 S 
ATOM     79  O   UNL A   1      38.098  31.952  39.843  1.00  0.00    -0.237 OA
ATOM     80  O   UNL A   1      36.219  32.757  38.446  1.00  0.00    -0.237 OA
ATOM     81  O   UNL A   1      37.139  30.496  38.097  1.00  0.00    -0.744 OA
ENDBRANCH  74  78
ENDBRANCH  47  71
BRANCH  59  82
ATOM     82  C   UNL A   1      44.735  27.483  34.408  1.00  0.00     0.023 A 
ATOM     83  C   UNL A   1      44.522  26.411  35.292  1.00  0.00     0.031 A 
ATOM     84  C   UNL A   1      45.996  28.106  34.415  1.00  0.00     0.131 A 
ATOM     85  C   UNL A   1      45.530  26.037  36.192  1.00  0.00     0.055 A 
ATOM     86  C   UNL A   1      47.019  27.682  35.263  1.00  0.00     0.041 A 
ATOM     87  F   UNL A   1      46.252  29.140  33.598  1.00  0.00    -0.206 F 
ATOM     88  C   UNL A   1      46.784  26.652  36.169  1.00  0.00     0.022 A 
BRANCH  85  89
ATOM     89  S   UNL A   1      45.143  24.812  37.472  1.00  0.00     0.124 S 
ATOM     90  O   UNL A   1      43.700  24.973  37.618  1.00  0.00    -0.237 OA
ATOM     91  O   UNL A   1      45.585  23.565  36.856  1.00  0.00    -0.237 OA
ATOM     92  O   UNL A   1      45.936  25.252  38.618  1.00  0.00    -0.744 OA
ENDBRANCH  85  89
ENDBRANCH  59  82
ENDBRANCH  33  34
ENDBRANCH  26  28
ENDBRANCH  25  26
ENDBRANCH   1  25
TORSDOF 17
ENDMDL
MODEL 3
REMARK VINA RESULT:     -12.4      1.630      1.942
REMARK SMILES CNC(=O)c1cccc(-c2cnc(O)c(C(=O)OCCOC(=O)c3ccc(-c4c5nc(c(-c6cc(S(=O)(=O)[O-])ccc6F)c6ccc([nH]6)c(-c6cc(S(=O)(=O)[O-])ccc6F)c6nc(c(-c7cc(S(=O)(=O)[O-])ccc7F)c7ccc4[nH]7)C=C6)C=C5)cc3)c2)c1
REMARK SMILES IDX 20 1 19 2 18 3 16 4 17 5 15 6 10 7 11 8 87 9 12 10 13 11
REMARK SMILES IDX 9 12 5 13 6 14 88 15 7 16 8 17 3 18 1 19 2 20 4 22 14 23
REMARK SMILES IDX 21 25 22 26 23 27 24 28 25 29 86 30 26 31 85 32 27 33 28 34
REMARK SMILES IDX 29 35 79 36 30 37 84 38 78 39 80 40 31 41 83 42 77 43 76 44
REMARK SMILES IDX 32 46 64 47 44 48 63 49 45 50 48 51 62 52 81 53 46 54 47 55
REMARK SMILES IDX 61 57 82 58 49 59 33 60 34 61 42 62 35 63 41 64 43 65 40 66
REMARK SMILES IDX 36 67 37 68 38 69 39 70 65 71 66 72 74 73 67 74 73 75 75 76
REMARK SMILES IDX 72 77 68 78 69 79 70 80 71 81 50 82 51 83 59 84 52 85 58 86
REMARK SMILES IDX 60 87 57 88 53 89 54 90 55 91 56 92
REMARK H PARENT 2 21 14 24 80 45 48 56
REMARK Flexibility Score: inf
ROOT
ATOM      1  C   UNL A   1      31.453  30.340  26.043  1.00  0.00     0.275 C 
ENDROOT
BRANCH   1   2
ATOM      2  C   UNL A   1      31.698  29.298  24.949  1.00  0.00     0.275 C 
BRANCH   2   3
ATOM      3  O   UNL A   1      31.129  28.020  25.300  1.00  0.00    -0.458 OA
BRANCH   3   4
ATOM      4  C   UNL A   1      30.493  27.361  24.294  1.00  0.00     0.343 C 
ATOM      5  O   UNL A   1      29.303  27.407  24.052  1.00  0.00    -0.246 OA
BRANCH   4   6
ATOM      6  C   UNL A   1      31.459  26.548  23.529  1.00  0.00     0.122 A 
ATOM      7  C   UNL A   1      33.154  24.835  23.347  1.00  0.00     0.001 A 
ATOM      8  C   UNL A   1      33.092  25.011  21.961  1.00  0.00     0.124 A 
ATOM      9  C   UNL A   1      32.307  25.628  24.139  1.00  0.00     0.031 A 
ATOM     10  N   UNL A   1      32.338  25.937  21.353  1.00  0.00    -0.221 NA
ATOM     11  C   UNL A   1      31.546  26.664  22.155  1.00  0.00     0.225 A 
BRANCH   7  12
ATOM     12  C   UNL A   1      34.041  23.825  23.913  1.00  0.00    -0.016 A 
ATOM     13  C   UNL A   1      34.428  22.041  25.506  1.00  0.00     0.040 A 
ATOM     14  C   UNL A   1      35.641  21.731  24.884  1.00  0.00     0.014 A 
ATOM     15  C   UNL A   1      33.661  23.114  25.055  1.00  0.00     0.022 A 
ATOM     16  C   UNL A   1      36.055  22.460  23.771  1.00  0.00     0.001 A 
ATOM     17  C   UNL A   1      35.253  23.491  23.283  1.00  0.00     0.009 A 
BRANCH  13  18
ATOM     18  C   UNL A   1      33.973  21.231  26.656  1.00  0.00     0.251 C 
ATOM     19  C   UNL A   1      32.812  19.466  25.219  1.00  0.00     0.143 C 
ATOM     20  N   UNL A   1      33.171  20.134  26.454  1.00  0.00    -0.355 N 
ATOM     21  H   UNL A   1      32.783  19.742  27.269  1.00  0.00     0.163 HD
ATOM     22  O   UNL A   1      34.321  21.541  27.791  1.00  0.00    -0.269 OA
ENDBRANCH  13  18
ENDBRANCH   7  12
BRANCH  11  23
ATOM     23  O   UNL A   1      30.936  27.650  21.482  1.00  0.00    -0.493 OA
ATOM     24  H   UNL A   1      31.036  28.540  21.758  1.00  0.00     0.295 HD
ENDBRANCH  11  23
ENDBRANCH   4   6
ENDBRANCH   3   4
ENDBRANCH   2   3
ENDBRANCH   1   2
BRANCH   1  25
ATOM     25  O   UNL A   1      32.449  30.264  27.080  1.00  0.00    -0.458 OA
BRANCH  25  26
ATOM     26  C   UNL A   1      33.108  31.423  27.302  1.00  0.00     0.338 C 
ATOM     27  O   UNL A   1      32.616  32.536  27.416  1.00  0.00    -0.246 OA
BRANCH  26  28
ATOM     28  C   UNL A   1      34.544  31.193  27.510  1.00  0.00     0.060 A 
ATOM     29  C   UNL A   1      34.926  29.891  27.768  1.00  0.00     0.016 A 
ATOM     30  C   UNL A   1      35.414  32.242  27.801  1.00  0.00     0.016 A 
ATOM     31  C   UNL A   1      36.054  29.655  28.546  1.00  0.00     0.010 A 
ATOM     32  C   UNL A   1      36.659  31.967  28.393  1.00  0.00     0.010 A 
ATOM     33  C   UNL A   1      36.974  30.671  28.839  1.00  0.00    -0.014 A 
BRANCH  33  34
ATOM     34  C   UNL A   1      38.223  30.355  29.609  1.00  0.00     0.031 A 
ATOM     35  C   UNL A   1      39.316  29.494  29.011  1.00  0.00     0.074 A 
ATOM     36  C   UNL A   1      38.405  30.867  30.848  1.00  0.00     0.049 A 
ATOM     37  N   UNL A   1      40.342  28.928  29.600  1.00  0.00    -0.248 NA
ATOM     38  C   UNL A   1      39.237  29.219  27.569  1.00  0.00     0.031 C 
ATOM     39  C   UNL A   1      37.480  31.772  31.540  1.00  0.00     0.029 A 
ATOM     40  N   UNL A   1      39.435  30.722  31.749  1.00  0.00    -0.354 N 
ATOM     41  C   UNL A   1      40.988  28.178  28.619  1.00  0.00     0.074 A 
ATOM     42  C   UNL A   1      40.229  28.355  27.399  1.00  0.00     0.031 C 
ATOM     43  C   UNL A   1      38.018  32.165  32.699  1.00  0.00     0.029 A 
ATOM     44  C   UNL A   1      39.233  31.404  32.929  1.00  0.00     0.049 A 
ATOM     45  H   UNL A   1      40.238  30.182  31.567  1.00  0.00     0.167 HD
ATOM     46  C   UNL A   1      42.103  27.410  28.734  1.00  0.00     0.034 A 
ATOM     47  C   UNL A   1      39.886  31.366  34.105  1.00  0.00     0.034 A 
ATOM     48  C   UNL A   1      42.870  27.290  29.956  1.00  0.00     0.049 A 
ATOM     49  C   UNL A   1      41.059  30.439  34.239  1.00  0.00     0.074 A 
ATOM     50  C   UNL A   1      44.012  26.541  30.189  1.00  0.00     0.029 A 
ATOM     51  N   UNL A   1      42.580  27.943  31.148  1.00  0.00    -0.354 N 
ATOM     52  N   UNL A   1      41.597  29.655  33.334  1.00  0.00    -0.248 NA
ATOM     53  C   UNL A   1      41.702  30.378  35.555  1.00  0.00     0.031 C 
ATOM     54  C   UNL A   1      44.365  26.682  31.536  1.00  0.00     0.029 A 
ATOM     55  C   UNL A   1      43.501  27.590  32.124  1.00  0.00     0.049 A 
ATOM     56  H   UNL A   1      41.829  28.566  31.281  1.00  0.00     0.167 HD
ATOM     57  C   UNL A   1      42.659  29.023  33.969  1.00  0.00     0.074 A 
ATOM     58  C   UNL A   1      42.698  29.536  35.324  1.00  0.00     0.031 C 
ATOM     59  C   UNL A   1      43.523  28.101  33.476  1.00  0.00     0.034 A 
BRANCH  46  60
ATOM     60  C   UNL A   1      42.522  26.583  27.535  1.00  0.00     0.023 A 
ATOM     61  C   UNL A   1      42.105  25.255  27.349  1.00  0.00     0.031 A 
ATOM     62  C   UNL A   1      43.377  27.140  26.563  1.00  0.00     0.131 A 
ATOM     63  C   UNL A   1      42.599  24.507  26.266  1.00  0.00     0.055 A 
ATOM     64  C   UNL A   1      43.794  26.419  25.441  1.00  0.00     0.041 A 
ATOM     65  F   UNL A   1      43.831  28.397  26.690  1.00  0.00    -0.206 F 
ATOM     66  C   UNL A   1      43.419  25.090  25.295  1.00  0.00     0.022 A 
BRANCH  63  67
ATOM     67  S   UNL A   1      42.282  22.721  26.225  1.00  0.00     0.124 S 
ATOM     68  O   UNL A   1      42.803  22.359  24.909  1.00  0.00    -0.237 OA
ATOM     69  O   UNL A   1      43.045  22.238  27.370  1.00  0.00    -0.237 OA
ATOM     70  O   UNL A   1      40.828  22.626  26.358  1.00  0.00    -0.744 OA
ENDBRANCH  63  67
ENDBRANCH  46  60
BRANCH  47  71
ATOM     71  C   UNL A   1      39.383  32.151  35.273  1.00  0.00     0.023 A 
ATOM     72  C   UNL A   1      39.799  33.472  35.491  1.00  0.00     0.031 A 
ATOM     73  C   UNL A   1      38.501  31.577  36.212  1.00  0.00     0.131 A 
ATOM     74  C   UNL A   1      39.365  34.162  36.634  1.00  0.00     0.055 A 
ATOM     75  C   UNL A   1      38.012  32.293  37.304  1.00  0.00     0.041 A 
ATOM     76  F   UNL A   1      38.077  30.312  36.063  1.00  0.00    -0.206 F 
ATOM     77  C   UNL A   1      38.457  33.591  37.528  1.00  0.00     0.022 A 
BRANCH  74  78
ATOM     78  S   UNL A   1      40.095  35.782  36.996  1.00  0.00     0.124 S 
ATOM     79  O   UNL A   1      41.504  35.442  37.157  1.00  0.00    -0.237 OA
ATOM     80  O   UNL A   1      39.750  36.543  35.800  1.00  0.00    -0.237 OA
ATOM     81  O   UNL A   1      39.409  36.198  38.218  1.00  0.00    -0.744 OA
ENDBRANCH  74  78
ENDBRANCH  47  71
BRANCH  59  82
ATOM     82  C   UNL A   1      44.621  27.641  34.402  1.00  0.00     0.023 A 
ATOM     83  C   UNL A   1      44.462  26.526  35.244  1.00  0.00     0.031 A 
ATOM     84  C   UNL A   1      45.832  28.352  34.467  1.00  0.00     0.131 A 
ATOM     85  C   UNL A   1      45.468  26.197  36.163  1.00  0.00     0.055 A 
ATOM     86  C   UNL A   1      46.859  27.975  35.332  1.00  0.00     0.041 A 
ATOM     87  F   UNL A   1      46.035  29.429  33.692  1.00  0.00    -0.206 F 
ATOM     88  C   UNL A   1      46.674  26.901  36.198  1.00  0.00     0.022 A 
BRANCH  85  89
ATOM     89  S   UNL A   1      45.135  24.905  37.391  1.00  0.00     0.124 S 
ATOM     90  O   UNL A   1      46.465  24.655  37.936  1.00  0.00    -0.237 OA
ATOM     91  O   UNL A   1      44.192  25.563  38.290  1.00  0.00    -0.237 OA
ATOM     92  O   UNL A   1      44.574  23.813  36.598  1.00  0.00    -0.744 OA
ENDBRANCH  85  89
ENDBRANCH  59  82
ENDBRANCH  33  34
ENDBRANCH  26  28
ENDBRANCH  25  26
ENDBRANCH   1  25
TORSDOF 17
ENDMDL
