MODEL 1
REMARK VINA RESULT:     -12.9      0.000      0.000
REMARK SMILES NC(=O)C[C@H](NC(=O)C1(c2ccccc2)CCN(C(=O)[C@@H]2CCC[NH2+]2)CC1)C(=O)OCCOC(=O)c1ccc(-c2c3nc(c(-c4cc(S(=O)(=O)[O-])ccc4F)c4ccc([nH]4)c(-c4cc(S(=O)(=O)[O-])ccc4F)c4nc(c(-c5cc(S(=O)(=O)[O-])ccc5F)c5ccc2[nH]5)C=C4)C=C3)cc1
REMARK SMILES IDX 31 1 30 2 28 3 29 4 5 5 4 6 2 7 1 8 3 11 6 12 7 13 8 15 9 16
REMARK SMILES IDX 16 17 27 18 17 19 26 20 18 21 19 22 20 23 10 24 11 25 15 26
REMARK SMILES IDX 12 27 14 28 13 29 21 30 22 31 25 32 23 33 24 34 32 37 33 38
REMARK SMILES IDX 34 39 35 40 36 41 37 42 98 43 38 44 97 45 39 46 40 47 41 48
REMARK SMILES IDX 91 49 42 50 96 51 90 52 92 53 43 54 95 55 89 56 88 57 44 59
REMARK SMILES IDX 76 60 56 61 75 62 57 63 60 64 74 65 93 66 58 67 59 68 73 70
REMARK SMILES IDX 94 71 61 72 45 73 46 74 54 75 47 76 53 77 55 78 52 79 48 80
REMARK SMILES IDX 49 81 50 82 51 83 77 84 78 85 86 86 79 87 85 88 87 89 84 90
REMARK SMILES IDX 80 91 81 92 82 93 83 94 62 95 63 96 71 97 64 98 70 99 72 100
REMARK SMILES IDX 69 101 65 102 66 103 67 104 68 105
REMARK H PARENT 1 9 1 10 6 14 25 35 25 36 92 58 60 69
REMARK Flexibility Score: inf
ROOT
ATOM      1  C   UNL A   1      32.808  27.130  26.074  1.00  0.00     0.274 C 
ENDROOT
BRANCH   1   2
ATOM      2  O   UNL A   1      33.894  26.162  25.622  1.00  0.00    -0.461 OA
BRANCH   2   3
ATOM      3  C   UNL A   1      33.975  24.783  25.866  1.00  0.00     0.329 C 
ATOM      4  O   UNL A   1      33.622  24.276  26.923  1.00  0.00    -0.250 OA
BRANCH   3   5
ATOM      5  C   UNL A   1      34.829  23.968  24.728  1.00  0.00     0.201 C 
BRANCH   5   6
ATOM      6  C   UNL A   1      36.360  23.825  24.798  1.00  0.00     0.136 C 
BRANCH   6   7
ATOM      7  C   UNL A   1      36.908  22.435  24.473  1.00  0.00     0.220 C 
ATOM      8  N   UNL A   1      37.615  21.803  25.468  1.00  0.00    -0.370 N 
ATOM      9  H   UNL A   1      37.989  20.906  25.312  1.00  0.00     0.159 HD
ATOM     10  H   UNL A   1      37.747  22.247  26.337  1.00  0.00     0.159 HD
ATOM     11  O   UNL A   1      36.723  21.893  23.411  1.00  0.00    -0.275 OA
ENDBRANCH   6   7
ENDBRANCH   5   6
BRANCH   5  12
ATOM     12  N   UNL A   1      34.279  24.105  23.385  1.00  0.00    -0.342 N 
ATOM     13  C   UNL A   1      33.457  23.196  22.774  1.00  0.00     0.231 C 
ATOM     14  H   UNL A   1      34.518  24.914  22.878  1.00  0.00     0.164 HD
ATOM     15  O   UNL A   1      33.475  23.189  21.538  1.00  0.00    -0.274 OA
BRANCH  13  16
ATOM     16  C   UNL A   1      32.434  22.290  23.565  1.00  0.00     0.077 C 
ATOM     17  C   UNL A   1      32.756  21.670  24.907  1.00  0.00     0.043 C 
ATOM     18  C   UNL A   1      32.058  21.052  22.693  1.00  0.00     0.043 C 
ATOM     19  C   UNL A   1      33.606  20.386  25.059  1.00  0.00     0.121 C 
ATOM     20  C   UNL A   1      32.841  19.668  22.929  1.00  0.00     0.121 C 
ATOM     21  N   UNL A   1      33.213  19.272  24.310  1.00  0.00    -0.337 N 
ATOM     22  C   UNL A   1      34.063  18.184  24.682  1.00  0.00     0.280 C 
ATOM     23  O   UNL A   1      35.253  18.228  24.336  1.00  0.00    -0.268 OA
BRANCH  16  24
ATOM     24  C   UNL A   1      31.315  23.340  24.073  1.00  0.00    -0.032 A 
ATOM     25  C   UNL A   1      30.887  23.417  25.408  1.00  0.00     0.005 A 
ATOM     26  C   UNL A   1      30.976  24.450  23.240  1.00  0.00     0.005 A 
ATOM     27  C   UNL A   1      30.182  24.542  25.882  1.00  0.00     0.000 A 
ATOM     28  C   UNL A   1      30.259  25.559  23.710  1.00  0.00     0.000 A 
ATOM     29  C   UNL A   1      29.869  25.608  25.039  1.00  0.00     0.000 A 
ENDBRANCH  16  24
BRANCH  22  30
ATOM     30  C   UNL A   1      33.610  16.990  25.660  1.00  0.00     0.272 C 
ATOM     31  C   UNL A   1      34.115  15.665  25.149  1.00  0.00     0.081 C 
ATOM     32  N   UNL A   1      32.195  16.796  26.050  1.00  0.00    -0.336 N 
ATOM     33  C   UNL A   1      33.038  14.625  25.393  1.00  0.00     0.068 C 
ATOM     34  C   UNL A   1      31.841  15.372  25.942  1.00  0.00     0.261 C 
ATOM     35  H   UNL A   1      31.595  17.343  25.431  1.00  0.00     0.346 HD
ATOM     36  H   UNL A   1      32.066  17.106  27.013  1.00  0.00     0.346 HD
ENDBRANCH  22  30
ENDBRANCH  13  16
ENDBRANCH   5  12
ENDBRANCH   3   5
ENDBRANCH   2   3
ENDBRANCH   1   2
BRANCH   1  37
ATOM     37  C   UNL A   1      32.168  28.517  25.170  1.00  0.00     0.275 C 
BRANCH  37  38
ATOM     38  O   UNL A   1      32.540  30.020  25.253  1.00  0.00    -0.458 OA
BRANCH  38  39
ATOM     39  C   UNL A   1      32.548  30.755  26.476  1.00  0.00     0.338 C 
ATOM     40  O   UNL A   1      31.519  31.233  26.937  1.00  0.00    -0.246 OA
BRANCH  39  41
ATOM     41  C   UNL A   1      33.918  30.899  27.283  1.00  0.00     0.060 A 
ATOM     42  C   UNL A   1      34.566  29.786  27.744  1.00  0.00     0.016 A 
ATOM     43  C   UNL A   1      34.625  32.050  27.664  1.00  0.00     0.016 A 
ATOM     44  C   UNL A   1      35.734  29.706  28.550  1.00  0.00     0.010 A 
ATOM     45  C   UNL A   1      35.909  31.994  28.405  1.00  0.00     0.010 A 
ATOM     46  C   UNL A   1      36.512  30.791  28.856  1.00  0.00    -0.014 A 
BRANCH  46  47
ATOM     47  C   UNL A   1      37.864  30.597  29.586  1.00  0.00     0.031 A 
ATOM     48  C   UNL A   1      38.902  29.671  29.004  1.00  0.00     0.074 A 
ATOM     49  C   UNL A   1      38.311  31.283  30.686  1.00  0.00     0.049 A 
ATOM     50  N   UNL A   1      39.926  29.087  29.573  1.00  0.00    -0.248 NA
ATOM     51  C   UNL A   1      38.805  29.445  27.558  1.00  0.00     0.031 C 
ATOM     52  C   UNL A   1      37.779  32.529  31.215  1.00  0.00     0.029 A 
ATOM     53  N   UNL A   1      39.325  31.027  31.604  1.00  0.00    -0.354 N 
ATOM     54  C   UNL A   1      40.573  28.378  28.565  1.00  0.00     0.074 A 
ATOM     55  C   UNL A   1      39.819  28.617  27.349  1.00  0.00     0.031 C 
ATOM     56  C   UNL A   1      38.293  32.833  32.410  1.00  0.00     0.029 A 
ATOM     57  C   UNL A   1      39.238  31.801  32.759  1.00  0.00     0.049 A 
ATOM     58  H   UNL A   1      40.035  30.362  31.452  1.00  0.00     0.167 HD
ATOM     59  C   UNL A   1      41.687  27.603  28.654  1.00  0.00     0.034 A 
ATOM     60  C   UNL A   1      39.804  31.708  33.982  1.00  0.00     0.034 A 
ATOM     61  C   UNL A   1      42.438  27.410  29.874  1.00  0.00     0.049 A 
ATOM     62  C   UNL A   1      40.850  30.656  34.170  1.00  0.00     0.074 A 
ATOM     63  C   UNL A   1      43.503  26.558  30.116  1.00  0.00     0.029 A 
ATOM     64  N   UNL A   1      42.210  28.096  31.064  1.00  0.00    -0.354 N 
ATOM     65  N   UNL A   1      41.321  29.823  33.273  1.00  0.00    -0.248 NA
ATOM     66  C   UNL A   1      41.465  30.543  35.495  1.00  0.00     0.031 C 
ATOM     67  C   UNL A   1      43.869  26.678  31.464  1.00  0.00     0.029 A 
ATOM     68  C   UNL A   1      43.086  27.660  32.048  1.00  0.00     0.049 A 
ATOM     69  H   UNL A   1      41.524  28.792  31.188  1.00  0.00     0.167 HD
ATOM     70  C   UNL A   1      42.332  29.123  33.910  1.00  0.00     0.074 A 
ATOM     71  C   UNL A   1      42.396  29.627  35.269  1.00  0.00     0.031 C 
ATOM     72  C   UNL A   1      43.143  28.164  33.401  1.00  0.00     0.034 A 
BRANCH  59  73
ATOM     73  C   UNL A   1      42.053  26.812  27.420  1.00  0.00     0.023 A 
ATOM     74  C   UNL A   1      41.667  25.471  27.244  1.00  0.00     0.031 A 
ATOM     75  C   UNL A   1      42.917  27.377  26.462  1.00  0.00     0.131 A 
ATOM     76  C   UNL A   1      42.240  24.712  26.210  1.00  0.00     0.055 A 
ATOM     77  C   UNL A   1      43.408  26.641  25.383  1.00  0.00     0.041 A 
ATOM     78  F   UNL A   1      43.336  28.646  26.586  1.00  0.00    -0.206 F 
ATOM     79  C   UNL A   1      43.090  25.292  25.265  1.00  0.00     0.022 A 
BRANCH  76  80
ATOM     80  S   UNL A   1      42.024  22.910  26.241  1.00  0.00     0.124 S 
ATOM     81  O   UNL A   1      42.714  22.557  27.480  1.00  0.00    -0.237 OA
ATOM     82  O   UNL A   1      40.573  22.765  26.252  1.00  0.00    -0.237 OA
ATOM     83  O   UNL A   1      42.687  22.463  25.017  1.00  0.00    -0.744 OA
ENDBRANCH  76  80
ENDBRANCH  59  73
BRANCH  60  84
ATOM     84  C   UNL A   1      39.341  32.560  35.133  1.00  0.00     0.023 A 
ATOM     85  C   UNL A   1      39.847  33.850  35.374  1.00  0.00     0.031 A 
ATOM     86  C   UNL A   1      38.415  32.046  36.065  1.00  0.00     0.131 A 
ATOM     87  C   UNL A   1      39.458  34.558  36.530  1.00  0.00     0.055 A 
ATOM     88  C   UNL A   1      38.003  32.768  37.189  1.00  0.00     0.041 A 
ATOM     89  F   UNL A   1      37.893  30.820  35.898  1.00  0.00    -0.206 F 
ATOM     90  C   UNL A   1      38.536  34.027  37.435  1.00  0.00     0.022 A 
BRANCH  87  91
ATOM     91  S   UNL A   1      40.241  36.159  36.887  1.00  0.00     0.124 S 
ATOM     92  O   UNL A   1      39.528  36.581  38.087  1.00  0.00    -0.237 OA
ATOM     93  O   UNL A   1      41.636  35.776  37.068  1.00  0.00    -0.237 OA
ATOM     94  O   UNL A   1      39.964  36.949  35.688  1.00  0.00    -0.744 OA
ENDBRANCH  87  91
ENDBRANCH  60  84
BRANCH  72  95
ATOM     95  C   UNL A   1      44.213  27.643  34.318  1.00  0.00     0.023 A 
ATOM     96  C   UNL A   1      43.933  26.690  35.310  1.00  0.00     0.031 A 
ATOM     97  C   UNL A   1      45.526  28.135  34.216  1.00  0.00     0.131 A 
ATOM     98  C   UNL A   1      44.941  26.300  36.203  1.00  0.00     0.055 A 
ATOM     99  C   UNL A   1      46.540  27.693  35.064  1.00  0.00     0.041 A 
ATOM    100  F   UNL A   1      45.839  29.058  33.293  1.00  0.00    -0.206 F 
ATOM    101  C   UNL A   1      46.247  26.778  36.073  1.00  0.00     0.022 A 
BRANCH  98 102
ATOM    102  S   UNL A   1      44.494  25.230  37.595  1.00  0.00     0.124 S 
ATOM    103  O   UNL A   1      43.100  24.917  37.299  1.00  0.00    -0.237 OA
ATOM    104  O   UNL A   1      45.438  24.125  37.456  1.00  0.00    -0.237 OA
ATOM    105  O   UNL A   1      44.706  26.082  38.763  1.00  0.00    -0.744 OA
ENDBRANCH  98 102
ENDBRANCH  72  95
ENDBRANCH  46  47
ENDBRANCH  39  41
ENDBRANCH  38  39
ENDBRANCH  37  38
ENDBRANCH   1  37
TORSDOF 20
ENDMDL
MODEL 2
REMARK VINA RESULT:     -12.7      1.850      2.851
REMARK SMILES NC(=O)C[C@H](NC(=O)C1(c2ccccc2)CCN(C(=O)[C@@H]2CCC[NH2+]2)CC1)C(=O)OCCOC(=O)c1ccc(-c2c3nc(c(-c4cc(S(=O)(=O)[O-])ccc4F)c4ccc([nH]4)c(-c4cc(S(=O)(=O)[O-])ccc4F)c4nc(c(-c5cc(S(=O)(=O)[O-])ccc5F)c5ccc2[nH]5)C=C4)C=C3)cc1
REMARK SMILES IDX 31 1 30 2 28 3 29 4 5 5 4 6 2 7 1 8 3 11 6 12 7 13 8 15 9 16
REMARK SMILES IDX 16 17 27 18 17 19 26 20 18 21 19 22 20 23 10 24 11 25 15 26
REMARK SMILES IDX 12 27 14 28 13 29 21 30 22 31 25 32 23 33 24 34 32 37 33 38
REMARK SMILES IDX 34 39 35 40 36 41 37 42 98 43 38 44 97 45 39 46 40 47 41 48
REMARK SMILES IDX 91 49 42 50 96 51 90 52 92 53 43 54 95 55 89 56 88 57 44 59
REMARK SMILES IDX 76 60 56 61 75 62 57 63 60 64 74 65 93 66 58 67 59 68 73 70
REMARK SMILES IDX 94 71 61 72 45 73 46 74 54 75 47 76 53 77 55 78 52 79 48 80
REMARK SMILES IDX 49 81 50 82 51 83 77 84 78 85 86 86 79 87 85 88 87 89 84 90
REMARK SMILES IDX 80 91 81 92 82 93 83 94 62 95 63 96 71 97 64 98 70 99 72 100
REMARK SMILES IDX 69 101 65 102 66 103 67 104 68 105
REMARK H PARENT 1 9 1 10 6 14 25 35 25 36 92 58 60 69
REMARK Flexibility Score: inf
ROOT
ATOM      1  C   UNL A   1      30.643  28.108  24.041  1.00  0.00     0.274 C 
ENDROOT
BRANCH   1   2
ATOM      2  O   UNL A   1      29.796  26.843  23.996  1.00  0.00    -0.461 OA
BRANCH   2   3
ATOM      3  C   UNL A   1      30.234  25.516  23.880  1.00  0.00     0.329 C 
ATOM      4  O   UNL A   1      29.998  24.824  22.898  1.00  0.00    -0.250 OA
BRANCH   3   5
ATOM      5  C   UNL A   1      30.842  24.905  25.275  1.00  0.00     0.201 C 
BRANCH   5   6
ATOM      6  C   UNL A   1      29.940  24.512  26.459  1.00  0.00     0.136 C 
BRANCH   6   7
ATOM      7  C   UNL A   1      30.222  23.142  27.076  1.00  0.00     0.220 C 
ATOM      8  N   UNL A   1      29.215  22.210  26.997  1.00  0.00    -0.370 N 
ATOM      9  H   UNL A   1      29.343  21.312  27.377  1.00  0.00     0.159 HD
ATOM     10  H   UNL A   1      28.363  22.441  26.558  1.00  0.00     0.159 HD
ATOM     11  O   UNL A   1      31.276  22.863  27.593  1.00  0.00    -0.275 OA
ENDBRANCH   6   7
ENDBRANCH   5   6
BRANCH   5  12
ATOM     12  N   UNL A   1      32.133  25.472  25.640  1.00  0.00    -0.342 N 
ATOM     13  C   UNL A   1      33.341  24.845  25.488  1.00  0.00     0.231 C 
ATOM     14  H   UNL A   1      32.138  26.378  26.027  1.00  0.00     0.164 HD
ATOM     15  O   UNL A   1      34.243  25.205  26.253  1.00  0.00    -0.274 OA
BRANCH  13  16
ATOM     16  C   UNL A   1      33.638  23.816  24.328  1.00  0.00     0.077 C 
ATOM     17  C   UNL A   1      32.647  22.757  23.898  1.00  0.00     0.043 C 
ATOM     18  C   UNL A   1      34.904  22.978  24.691  1.00  0.00     0.043 C 
ATOM     19  C   UNL A   1      32.447  21.429  24.667  1.00  0.00     0.121 C 
ATOM     20  C   UNL A   1      34.712  21.535  25.372  1.00  0.00     0.121 C 
ATOM     21  N   UNL A   1      33.591  20.669  24.929  1.00  0.00    -0.337 N 
ATOM     22  C   UNL A   1      33.164  19.451  25.546  1.00  0.00     0.280 C 
ATOM     23  O   UNL A   1      32.712  19.508  26.700  1.00  0.00    -0.268 OA
BRANCH  16  24
ATOM     24  C   UNL A   1      33.578  24.725  22.994  1.00  0.00    -0.032 A 
ATOM     25  C   UNL A   1      33.055  24.264  21.775  1.00  0.00     0.005 A 
ATOM     26  C   UNL A   1      33.748  26.140  23.109  1.00  0.00     0.005 A 
ATOM     27  C   UNL A   1      32.705  25.163  20.747  1.00  0.00     0.000 A 
ATOM     28  C   UNL A   1      33.417  27.029  22.077  1.00  0.00     0.000 A 
ATOM     29  C   UNL A   1      32.884  26.538  20.895  1.00  0.00     0.000 A 
ENDBRANCH  16  24
BRANCH  22  30
ATOM     30  C   UNL A   1      33.080  18.041  24.777  1.00  0.00     0.272 C 
ATOM     31  C   UNL A   1      34.460  17.526  24.461  1.00  0.00     0.081 C 
ATOM     32  N   UNL A   1      32.260  17.867  23.557  1.00  0.00    -0.336 N 
ATOM     33  C   UNL A   1      34.420  16.882  23.088  1.00  0.00     0.068 C 
ATOM     34  C   UNL A   1      33.030  17.129  22.542  1.00  0.00     0.261 C 
ATOM     35  H   UNL A   1      32.002  18.783  23.188  1.00  0.00     0.346 HD
ATOM     36  H   UNL A   1      31.417  17.342  23.790  1.00  0.00     0.346 HD
ENDBRANCH  22  30
ENDBRANCH  13  16
ENDBRANCH   5  12
ENDBRANCH   3   5
ENDBRANCH   2   3
ENDBRANCH   1   2
BRANCH   1  37
ATOM     37  C   UNL A   1      31.613  28.698  25.407  1.00  0.00     0.275 C 
BRANCH  37  38
ATOM     38  O   UNL A   1      32.707  29.796  25.452  1.00  0.00    -0.458 OA
BRANCH  38  39
ATOM     39  C   UNL A   1      32.803  30.758  26.501  1.00  0.00     0.338 C 
ATOM     40  O   UNL A   1      31.847  31.457  26.812  1.00  0.00    -0.246 OA
BRANCH  39  41
ATOM     41  C   UNL A   1      34.170  30.877  27.319  1.00  0.00     0.060 A 
ATOM     42  C   UNL A   1      34.756  29.759  27.845  1.00  0.00     0.016 A 
ATOM     43  C   UNL A   1      34.928  32.010  27.651  1.00  0.00     0.016 A 
ATOM     44  C   UNL A   1      35.909  29.664  28.670  1.00  0.00     0.010 A 
ATOM     45  C   UNL A   1      36.198  31.929  28.412  1.00  0.00     0.010 A 
ATOM     46  C   UNL A   1      36.737  30.723  28.931  1.00  0.00    -0.014 A 
BRANCH  46  47
ATOM     47  C   UNL A   1      38.069  30.501  29.690  1.00  0.00     0.031 A 
ATOM     48  C   UNL A   1      39.127  29.605  29.096  1.00  0.00     0.074 A 
ATOM     49  C   UNL A   1      38.482  31.139  30.831  1.00  0.00     0.049 A 
ATOM     50  N   UNL A   1      40.137  29.000  29.667  1.00  0.00    -0.248 NA
ATOM     51  C   UNL A   1      39.071  29.444  27.639  1.00  0.00     0.031 C 
ATOM     52  C   UNL A   1      37.930  32.358  31.399  1.00  0.00     0.029 A 
ATOM     53  N   UNL A   1      39.472  30.845  31.764  1.00  0.00    -0.354 N 
ATOM     54  C   UNL A   1      40.815  28.339  28.646  1.00  0.00     0.074 A 
ATOM     55  C   UNL A   1      40.094  28.629  27.422  1.00  0.00     0.031 C 
ATOM     56  C   UNL A   1      38.410  32.610  32.621  1.00  0.00     0.029 A 
ATOM     57  C   UNL A   1      39.350  31.567  32.950  1.00  0.00     0.049 A 
ATOM     58  H   UNL A   1      40.188  30.190  31.602  1.00  0.00     0.167 HD
ATOM     59  C   UNL A   1      41.929  27.565  28.731  1.00  0.00     0.034 A 
ATOM     60  C   UNL A   1      39.882  31.421  34.182  1.00  0.00     0.034 A 
ATOM     61  C   UNL A   1      42.647  27.319  29.963  1.00  0.00     0.049 A 
ATOM     62  C   UNL A   1      40.926  30.365  34.352  1.00  0.00     0.074 A 
ATOM     63  C   UNL A   1      43.709  26.461  30.195  1.00  0.00     0.029 A 
ATOM     64  N   UNL A   1      42.383  27.951  31.175  1.00  0.00    -0.354 N 
ATOM     65  N   UNL A   1      41.426  29.575  33.433  1.00  0.00    -0.248 NA
ATOM     66  C   UNL A   1      41.506  30.196  35.688  1.00  0.00     0.031 C 
ATOM     67  C   UNL A   1      44.037  26.522  31.557  1.00  0.00     0.029 A 
ATOM     68  C   UNL A   1      43.234  27.475  32.163  1.00  0.00     0.049 A 
ATOM     69  H   UNL A   1      41.691  28.639  31.311  1.00  0.00     0.167 HD
ATOM     70  C   UNL A   1      42.422  28.850  34.066  1.00  0.00     0.074 A 
ATOM     71  C   UNL A   1      42.446  29.293  35.448  1.00  0.00     0.031 C 
ATOM     72  C   UNL A   1      43.251  27.917  33.538  1.00  0.00     0.034 A 
BRANCH  59  73
ATOM     73  C   UNL A   1      42.333  26.830  27.474  1.00  0.00     0.023 A 
ATOM     74  C   UNL A   1      41.958  25.497  27.228  1.00  0.00     0.031 A 
ATOM     75  C   UNL A   1      43.219  27.440  26.567  1.00  0.00     0.131 A 
ATOM     76  C   UNL A   1      42.563  24.787  26.178  1.00  0.00     0.055 A 
ATOM     77  C   UNL A   1      43.743  26.755  25.469  1.00  0.00     0.041 A 
ATOM     78  F   UNL A   1      43.629  28.705  26.758  1.00  0.00    -0.206 F 
ATOM     79  C   UNL A   1      43.436  25.411  25.284  1.00  0.00     0.022 A 
BRANCH  76  80
ATOM     80  S   UNL A   1      42.355  22.984  26.123  1.00  0.00     0.124 S 
ATOM     81  O   UNL A   1      40.915  22.852  26.330  1.00  0.00    -0.237 OA
ATOM     82  O   UNL A   1      42.844  22.649  24.791  1.00  0.00    -0.237 OA
ATOM     83  O   UNL A   1      43.183  22.510  27.230  1.00  0.00    -0.744 OA
ENDBRANCH  76  80
ENDBRANCH  59  73
BRANCH  60  84
ATOM     84  C   UNL A   1      39.383  32.220  35.357  1.00  0.00     0.023 A 
ATOM     85  C   UNL A   1      39.803  33.537  35.612  1.00  0.00     0.031 A 
ATOM     86  C   UNL A   1      38.514  31.627  36.297  1.00  0.00     0.131 A 
ATOM     87  C   UNL A   1      39.389  34.197  36.788  1.00  0.00     0.055 A 
ATOM     88  C   UNL A   1      38.075  32.300  37.441  1.00  0.00     0.041 A 
ATOM     89  F   UNL A   1      38.075  30.370  36.118  1.00  0.00    -0.206 F 
ATOM     90  C   UNL A   1      38.524  33.589  37.699  1.00  0.00     0.022 A 
BRANCH  87  91
ATOM     91  S   UNL A   1      40.065  35.844  37.159  1.00  0.00     0.124 S 
ATOM     92  O   UNL A   1      39.752  36.578  35.939  1.00  0.00    -0.237 OA
ATOM     93  O   UNL A   1      39.306  36.217  38.347  1.00  0.00    -0.237 OA
ATOM     94  O   UNL A   1      41.486  35.586  37.385  1.00  0.00    -0.744 OA
ENDBRANCH  87  91
ENDBRANCH  60  84
BRANCH  72  95
ATOM     95  C   UNL A   1      44.298  27.360  34.459  1.00  0.00     0.023 A 
ATOM     96  C   UNL A   1      45.558  27.966  34.594  1.00  0.00     0.031 A 
ATOM     97  C   UNL A   1      44.041  26.185  35.187  1.00  0.00     0.131 A 
ATOM     98  C   UNL A   1      46.537  27.362  35.394  1.00  0.00     0.055 A 
ATOM     99  C   UNL A   1      44.997  25.626  36.033  1.00  0.00     0.041 A 
ATOM    100  F   UNL A   1      42.858  25.561  35.080  1.00  0.00    -0.206 F 
ATOM    101  C   UNL A   1      46.259  26.208  36.131  1.00  0.00     0.022 A 
BRANCH  98 102
ATOM    102  S   UNL A   1      48.211  28.055  35.381  1.00  0.00     0.124 S 
ATOM    103  O   UNL A   1      48.840  27.344  36.490  1.00  0.00    -0.237 OA
ATOM    104  O   UNL A   1      48.686  27.701  34.046  1.00  0.00    -0.237 OA
ATOM    105  O   UNL A   1      47.992  29.483  35.601  1.00  0.00    -0.744 OA
ENDBRANCH  98 102
ENDBRANCH  72  95
ENDBRANCH  46  47
ENDBRANCH  39  41
ENDBRANCH  38  39
ENDBRANCH  37  38
ENDBRANCH   1  37
TORSDOF 20
ENDMDL
MODEL 3
REMARK VINA RESULT:     -12.5      1.971      2.899
REMARK SMILES NC(=O)C[C@H](NC(=O)C1(c2ccccc2)CCN(C(=O)[C@@H]2CCC[NH2+]2)CC1)C(=O)OCCOC(=O)c1ccc(-c2c3nc(c(-c4cc(S(=O)(=O)[O-])ccc4F)c4ccc([nH]4)c(-c4cc(S(=O)(=O)[O-])ccc4F)c4nc(c(-c5cc(S(=O)(=O)[O-])ccc5F)c5ccc2[nH]5)C=C4)C=C3)cc1
REMARK SMILES IDX 31 1 30 2 28 3 29 4 5 5 4 6 2 7 1 8 3 11 6 12 7 13 8 15 9 16
REMARK SMILES IDX 16 17 27 18 17 19 26 20 18 21 19 22 20 23 10 24 11 25 15 26
REMARK SMILES IDX 12 27 14 28 13 29 21 30 22 31 25 32 23 33 24 34 32 37 33 38
REMARK SMILES IDX 34 39 35 40 36 41 37 42 98 43 38 44 97 45 39 46 40 47 41 48
REMARK SMILES IDX 91 49 42 50 96 51 90 52 92 53 43 54 95 55 89 56 88 57 44 59
REMARK SMILES IDX 76 60 56 61 75 62 57 63 60 64 74 65 93 66 58 67 59 68 73 70
REMARK SMILES IDX 94 71 61 72 45 73 46 74 54 75 47 76 53 77 55 78 52 79 48 80
REMARK SMILES IDX 49 81 50 82 51 83 77 84 78 85 86 86 79 87 85 88 87 89 84 90
REMARK SMILES IDX 80 91 81 92 82 93 83 94 62 95 63 96 71 97 64 98 70 99 72 100
REMARK SMILES IDX 69 101 65 102 66 103 67 104 68 105
REMARK H PARENT 1 9 1 10 6 14 25 35 25 36 92 58 60 69
REMARK Flexibility Score: inf
ROOT
ATOM      1  C   UNL A   1      30.908  28.157  24.137  1.00  0.00     0.274 C 
ENDROOT
BRANCH   1   2
ATOM      2  O   UNL A   1      29.988  26.944  24.137  1.00  0.00    -0.461 OA
BRANCH   2   3
ATOM      3  C   UNL A   1      30.332  25.601  23.927  1.00  0.00     0.329 C 
ATOM      4  O   UNL A   1      29.971  24.971  22.941  1.00  0.00    -0.250 OA
BRANCH   3   5
ATOM      5  C   UNL A   1      31.020  24.891  25.235  1.00  0.00     0.201 C 
BRANCH   5   6
ATOM      6  C   UNL A   1      30.194  24.454  26.459  1.00  0.00     0.136 C 
BRANCH   6   7
ATOM      7  C   UNL A   1      30.331  22.984  26.856  1.00  0.00     0.220 C 
ATOM      8  N   UNL A   1      31.496  22.621  27.487  1.00  0.00    -0.370 N 
ATOM      9  H   UNL A   1      31.636  21.688  27.765  1.00  0.00     0.159 HD
ATOM     10  H   UNL A   1      32.193  23.296  27.662  1.00  0.00     0.159 HD
ATOM     11  O   UNL A   1      29.463  22.170  26.654  1.00  0.00    -0.275 OA
ENDBRANCH   6   7
ENDBRANCH   5   6
BRANCH   5  12
ATOM     12  N   UNL A   1      32.352  25.399  25.535  1.00  0.00    -0.342 N 
ATOM     13  C   UNL A   1      33.522  24.724  25.308  1.00  0.00     0.231 C 
ATOM     14  H   UNL A   1      32.416  26.297  25.932  1.00  0.00     0.164 HD
ATOM     15  O   UNL A   1      34.479  25.035  26.026  1.00  0.00    -0.274 OA
BRANCH  13  16
ATOM     16  C   UNL A   1      33.711  23.701  24.120  1.00  0.00     0.077 C 
ATOM     17  C   UNL A   1      32.659  22.682  23.741  1.00  0.00     0.043 C 
ATOM     18  C   UNL A   1      34.967  22.816  24.394  1.00  0.00     0.043 C 
ATOM     19  C   UNL A   1      32.461  21.352  24.506  1.00  0.00     0.121 C 
ATOM     20  C   UNL A   1      34.768  21.371  25.068  1.00  0.00     0.121 C 
ATOM     21  N   UNL A   1      33.592  20.550  24.687  1.00  0.00    -0.337 N 
ATOM     22  C   UNL A   1      33.162  19.339  25.315  1.00  0.00     0.280 C 
ATOM     23  O   UNL A   1      32.785  19.396  26.496  1.00  0.00    -0.268 OA
BRANCH  16  24
ATOM     24  C   UNL A   1      33.600  24.630  22.802  1.00  0.00    -0.032 A 
ATOM     25  C   UNL A   1      32.981  24.206  21.616  1.00  0.00     0.005 A 
ATOM     26  C   UNL A   1      33.832  26.035  22.921  1.00  0.00     0.005 A 
ATOM     27  C   UNL A   1      32.600  25.131  20.623  1.00  0.00     0.000 A 
ATOM     28  C   UNL A   1      33.469  26.950  21.923  1.00  0.00     0.000 A 
ATOM     29  C   UNL A   1      32.842  26.496  20.774  1.00  0.00     0.000 A 
ENDBRANCH  16  24
BRANCH  22  30
ATOM     30  C   UNL A   1      32.982  17.943  24.537  1.00  0.00     0.272 C 
ATOM     31  C   UNL A   1      33.609  16.816  25.316  1.00  0.00     0.081 C 
ATOM     32  N   UNL A   1      33.395  17.780  23.125  1.00  0.00    -0.336 N 
ATOM     33  C   UNL A   1      34.269  15.872  24.330  1.00  0.00     0.068 C 
ATOM     34  C   UNL A   1      34.132  16.515  22.966  1.00  0.00     0.261 C 
ATOM     35  H   UNL A   1      33.997  18.559  22.856  1.00  0.00     0.346 HD
ATOM     36  H   UNL A   1      32.567  17.766  22.531  1.00  0.00     0.346 HD
ENDBRANCH  22  30
ENDBRANCH  13  16
ENDBRANCH   5  12
ENDBRANCH   3   5
ENDBRANCH   2   3
ENDBRANCH   1   2
BRANCH   1  37
ATOM     37  C   UNL A   1      31.497  29.054  25.552  1.00  0.00     0.275 C 
BRANCH  37  38
ATOM     38  O   UNL A   1      32.936  29.497  25.924  1.00  0.00    -0.458 OA
BRANCH  38  39
ATOM     39  C   UNL A   1      33.212  30.571  26.822  1.00  0.00     0.338 C 
ATOM     40  O   UNL A   1      32.363  31.410  27.092  1.00  0.00    -0.246 OA
BRANCH  39  41
ATOM     41  C   UNL A   1      34.642  30.637  27.530  1.00  0.00     0.060 A 
ATOM     42  C   UNL A   1      35.191  29.511  28.080  1.00  0.00     0.016 A 
ATOM     43  C   UNL A   1      35.498  31.730  27.738  1.00  0.00     0.016 A 
ATOM     44  C   UNL A   1      36.394  29.380  28.824  1.00  0.00     0.010 A 
ATOM     45  C   UNL A   1      36.815  31.601  28.408  1.00  0.00     0.010 A 
ATOM     46  C   UNL A   1      37.309  30.390  28.960  1.00  0.00    -0.014 A 
BRANCH  46  47
ATOM     47  C   UNL A   1      38.676  30.117  29.632  1.00  0.00     0.031 A 
ATOM     48  C   UNL A   1      39.635  29.136  29.005  1.00  0.00     0.074 A 
ATOM     49  C   UNL A   1      39.208  30.771  30.714  1.00  0.00     0.049 A 
ATOM     50  N   UNL A   1      40.648  28.492  29.528  1.00  0.00    -0.248 NA
ATOM     51  C   UNL A   1      39.465  28.924  27.563  1.00  0.00     0.031 C 
ATOM     52  C   UNL A   1      38.770  32.042  31.268  1.00  0.00     0.029 A 
ATOM     53  N   UNL A   1      40.243  30.453  31.588  1.00  0.00    -0.354 N 
ATOM     54  C   UNL A   1      41.210  27.753  28.492  1.00  0.00     0.074 A 
ATOM     55  C   UNL A   1      40.421  28.040  27.310  1.00  0.00     0.031 C 
ATOM     56  C   UNL A   1      39.350  32.310  32.442  1.00  0.00     0.029 A 
ATOM     57  C   UNL A   1      40.249  31.225  32.748  1.00  0.00     0.049 A 
ATOM     58  H   UNL A   1      40.907  29.750  31.404  1.00  0.00     0.167 HD
ATOM     59  C   UNL A   1      42.281  26.916  28.532  1.00  0.00     0.034 A 
ATOM     60  C   UNL A   1      40.859  31.094  33.945  1.00  0.00     0.034 A 
ATOM     61  C   UNL A   1      43.070  26.674  29.719  1.00  0.00     0.049 A 
ATOM     62  C   UNL A   1      41.850  29.983  34.086  1.00  0.00     0.074 A 
ATOM     63  C   UNL A   1      44.094  25.762  29.913  1.00  0.00     0.029 A 
ATOM     64  N   UNL A   1      42.931  27.366  30.919  1.00  0.00    -0.354 N 
ATOM     65  N   UNL A   1      42.235  29.130  33.169  1.00  0.00    -0.248 NA
ATOM     66  C   UNL A   1      42.514  29.829  35.384  1.00  0.00     0.031 C 
ATOM     67  C   UNL A   1      44.523  25.854  31.245  1.00  0.00     0.029 A 
ATOM     68  C   UNL A   1      43.822  26.877  31.864  1.00  0.00     0.049 A 
ATOM     69  H   UNL A   1      42.292  28.100  31.074  1.00  0.00     0.167 HD
ATOM     70  C   UNL A   1      43.231  28.370  33.760  1.00  0.00     0.074 A 
ATOM     71  C   UNL A   1      43.380  28.863  35.117  1.00  0.00     0.031 C 
ATOM     72  C   UNL A   1      43.964  27.369  33.215  1.00  0.00     0.034 A 
BRANCH  59  73
ATOM     73  C   UNL A   1      42.549  26.111  27.281  1.00  0.00     0.023 A 
ATOM     74  C   UNL A   1      42.090  24.792  27.123  1.00  0.00     0.031 A 
ATOM     75  C   UNL A   1      43.394  26.636  26.285  1.00  0.00     0.131 A 
ATOM     76  C   UNL A   1      42.576  24.008  26.062  1.00  0.00     0.055 A 
ATOM     77  C   UNL A   1      43.797  25.880  25.183  1.00  0.00     0.041 A 
ATOM     78  F   UNL A   1      43.880  27.883  26.390  1.00  0.00    -0.206 F 
ATOM     79  C   UNL A   1      43.408  24.548  25.080  1.00  0.00     0.022 A 
BRANCH  76  80
ATOM     80  S   UNL A   1      42.273  22.219  26.102  1.00  0.00     0.124 S 
ATOM     81  O   UNL A   1      40.821  22.167  25.945  1.00  0.00    -0.237 OA
ATOM     82  O   UNL A   1      43.058  21.740  24.971  1.00  0.00    -0.237 OA
ATOM     83  O   UNL A   1      42.765  21.817  27.419  1.00  0.00    -0.744 OA
ENDBRANCH  76  80
ENDBRANCH  59  73
BRANCH  60  84
ATOM     84  C   UNL A   1      40.494  31.965  35.117  1.00  0.00     0.023 A 
ATOM     85  C   UNL A   1      39.470  31.630  36.021  1.00  0.00     0.031 A 
ATOM     86  C   UNL A   1      41.137  33.207  35.303  1.00  0.00     0.131 A 
ATOM     87  C   UNL A   1      39.097  32.536  37.035  1.00  0.00     0.055 A 
ATOM     88  C   UNL A   1      40.790  34.085  36.334  1.00  0.00     0.041 A 
ATOM     89  F   UNL A   1      42.122  33.592  34.475  1.00  0.00    -0.206 F 
ATOM     90  C   UNL A   1      39.754  33.757  37.200  1.00  0.00     0.022 A 
BRANCH  87  91
ATOM     91  S   UNL A   1      37.675  32.136  38.095  1.00  0.00     0.124 S 
ATOM     92  O   UNL A   1      37.451  30.731  37.778  1.00  0.00    -0.237 OA
ATOM     93  O   UNL A   1      38.205  32.420  39.424  1.00  0.00    -0.237 OA
ATOM     94  O   UNL A   1      36.635  33.054  37.632  1.00  0.00    -0.744 OA
ENDBRANCH  87  91
ENDBRANCH  60  84
BRANCH  72  95
ATOM     95  C   UNL A   1      45.041  26.784  34.084  1.00  0.00     0.023 A 
ATOM     96  C   UNL A   1      44.831  25.611  34.826  1.00  0.00     0.031 A 
ATOM     97  C   UNL A   1      46.283  27.431  34.195  1.00  0.00     0.131 A 
ATOM     98  C   UNL A   1      45.830  25.150  35.695  1.00  0.00     0.055 A 
ATOM     99  C   UNL A   1      47.298  26.931  35.010  1.00  0.00     0.041 A 
ATOM    100  F   UNL A   1      46.526  28.564  33.517  1.00  0.00    -0.206 F 
ATOM    101  C   UNL A   1      47.069  25.790  35.776  1.00  0.00     0.022 A 
BRANCH  98 102
ATOM    102  S   UNL A   1      45.448  23.757  36.788  1.00  0.00     0.124 S 
ATOM    103  O   UNL A   1      46.772  23.192  37.030  1.00  0.00    -0.237 OA
ATOM    104  O   UNL A   1      44.819  24.417  37.929  1.00  0.00    -0.237 OA
ATOM    105  O   UNL A   1      44.554  22.926  35.985  1.00  0.00    -0.744 OA
ENDBRANCH  98 102
ENDBRANCH  72  95
ENDBRANCH  46  47
ENDBRANCH  39  41
ENDBRANCH  38  39
ENDBRANCH  37  38
ENDBRANCH   1  37
TORSDOF 20
ENDMDL
