MODEL 1
REMARK VINA RESULT:     -12.4      0.000      0.000
REMARK SMILES O=C(OCCOC(=O)[C@H]1[C@H]2C[C@@H]3[C@@H](OC(=O)[C@@H]31)[C@@H]2Sc1ccccc1)c1ccc(-c2c3nc(c(-c4cc(S(=O)(=O)[O-])ccc4F)c4ccc([nH]4)c(-c4cc(S(=O)(=O)[O-])ccc4F)c4nc(c(-c5cc(S(=O)(=O)[O-])ccc5F)c5ccc2[nH]5)C=C4)C=C3)cc1
REMARK SMILES IDX 4 1 3 2 2 3 1 4 26 5 27 6 88 7 28 8 87 9 29 10 30 11 31 12
REMARK SMILES IDX 81 13 32 14 86 15 80 16 82 17 33 18 85 19 79 20 78 21 34 23
REMARK SMILES IDX 66 24 46 25 65 26 47 27 50 28 64 29 83 30 48 31 49 32 63 34
REMARK SMILES IDX 84 35 51 36 35 37 36 38 44 39 37 40 43 41 45 42 42 43 38 44
REMARK SMILES IDX 39 45 40 46 41 47 67 48 68 49 76 50 69 51 75 52 77 53 74 54
REMARK SMILES IDX 70 55 71 56 72 57 73 58 52 59 53 60 61 61 54 62 60 63 62 64
REMARK SMILES IDX 59 65 55 66 56 67 57 68 58 69 5 70 6 71 7 72 8 73 9 74 10 75
REMARK SMILES IDX 17 76 11 77 18 78 12 79 15 80 13 81 14 82 16 83 19 84 20 85
REMARK SMILES IDX 21 86 25 87 22 88 24 89 23 90
REMARK H PARENT 82 22 50 33
REMARK Flexibility Score: inf
ROOT
ATOM      1  C   UNL A   1      37.500  20.609  25.049  1.00  0.00     0.275 C 
ENDROOT
BRANCH   1   2
ATOM      2  O   UNL A   1      38.559  21.555  25.190  1.00  0.00    -0.458 OA
BRANCH   2   3
ATOM      3  C   UNL A   1      39.460  21.691  26.185  1.00  0.00     0.338 C 
ATOM      4  O   UNL A   1      40.011  20.663  26.581  1.00  0.00    -0.246 OA
BRANCH   3   5
ATOM      5  C   UNL A   1      39.755  22.976  26.921  1.00  0.00     0.060 A 
ATOM      6  C   UNL A   1      40.819  23.263  27.792  1.00  0.00     0.016 A 
ATOM      7  C   UNL A   1      38.948  24.056  26.542  1.00  0.00     0.016 A 
ATOM      8  C   UNL A   1      41.166  24.588  28.141  1.00  0.00     0.010 A 
ATOM      9  C   UNL A   1      39.334  25.368  26.835  1.00  0.00     0.010 A 
ATOM     10  C   UNL A   1      40.478  25.669  27.602  1.00  0.00    -0.014 A 
BRANCH  10  11
ATOM     11  C   UNL A   1      40.848  27.111  27.804  1.00  0.00     0.031 A 
ATOM     12  C   UNL A   1      42.258  27.508  27.442  1.00  0.00     0.074 A 
ATOM     13  C   UNL A   1      40.060  28.000  28.453  1.00  0.00     0.049 A 
ATOM     14  N   UNL A   1      42.994  28.502  27.860  1.00  0.00    -0.248 NA
ATOM     15  C   UNL A   1      42.959  26.570  26.552  1.00  0.00     0.031 C 
ATOM     16  C   UNL A   1      38.661  27.810  28.848  1.00  0.00     0.029 A 
ATOM     17  N   UNL A   1      40.363  29.244  28.969  1.00  0.00    -0.354 N 
ATOM     18  C   UNL A   1      44.277  28.228  27.389  1.00  0.00     0.074 A 
ATOM     19  C   UNL A   1      44.212  26.933  26.749  1.00  0.00     0.031 C 
ATOM     20  C   UNL A   1      38.261  28.844  29.611  1.00  0.00     0.029 A 
ATOM     21  C   UNL A   1      39.360  29.790  29.746  1.00  0.00     0.049 A 
ATOM     22  H   UNL A   1      41.219  29.701  28.799  1.00  0.00     0.167 HD
ATOM     23  C   UNL A   1      45.395  28.994  27.464  1.00  0.00     0.034 A 
ATOM     24  C   UNL A   1      39.332  30.924  30.479  1.00  0.00     0.034 A 
ATOM     25  C   UNL A   1      45.380  30.332  27.998  1.00  0.00     0.049 A 
ATOM     26  C   UNL A   1      40.525  31.845  30.421  1.00  0.00     0.074 A 
ATOM     27  C   UNL A   1      46.388  31.278  28.008  1.00  0.00     0.029 A 
ATOM     28  N   UNL A   1      44.274  30.922  28.598  1.00  0.00    -0.354 N 
ATOM     29  N   UNL A   1      41.716  31.621  29.916  1.00  0.00    -0.248 NA
ATOM     30  C   UNL A   1      40.343  33.201  30.956  1.00  0.00     0.031 C 
ATOM     31  C   UNL A   1      45.907  32.421  28.658  1.00  0.00     0.029 A 
ATOM     32  C   UNL A   1      44.575  32.215  28.982  1.00  0.00     0.049 A 
ATOM     33  H   UNL A   1      43.402  30.482  28.731  1.00  0.00     0.167 HD
ATOM     34  C   UNL A   1      42.393  32.835  29.995  1.00  0.00     0.074 A 
ATOM     35  C   UNL A   1      41.487  33.777  30.619  1.00  0.00     0.031 C 
ATOM     36  C   UNL A   1      43.641  33.148  29.563  1.00  0.00     0.034 A 
BRANCH  23  37
ATOM     37  C   UNL A   1      46.699  28.374  26.999  1.00  0.00     0.023 A 
ATOM     38  C   UNL A   1      47.147  28.481  25.670  1.00  0.00     0.031 A 
ATOM     39  C   UNL A   1      47.427  27.534  27.860  1.00  0.00     0.131 A 
ATOM     40  C   UNL A   1      48.130  27.600  25.194  1.00  0.00     0.055 A 
ATOM     41  C   UNL A   1      48.519  26.783  27.414  1.00  0.00     0.041 A 
ATOM     42  F   UNL A   1      47.059  27.378  29.141  1.00  0.00    -0.206 F 
ATOM     43  C   UNL A   1      48.848  26.779  26.063  1.00  0.00     0.022 A 
BRANCH  40  44
ATOM     44  S   UNL A   1      48.247  27.340  23.400  1.00  0.00     0.124 S 
ATOM     45  O   UNL A   1      49.587  27.859  23.125  1.00  0.00    -0.237 OA
ATOM     46  O   UNL A   1      48.091  25.897  23.271  1.00  0.00    -0.237 OA
ATOM     47  O   UNL A   1      47.150  28.142  22.865  1.00  0.00    -0.744 OA
ENDBRANCH  40  44
ENDBRANCH  23  37
BRANCH  24  48
ATOM     48  C   UNL A   1      38.122  31.317  31.259  1.00  0.00     0.023 A 
ATOM     49  C   UNL A   1      37.037  31.946  30.627  1.00  0.00     0.031 A 
ATOM     50  C   UNL A   1      38.056  31.137  32.652  1.00  0.00     0.131 A 
ATOM     51  C   UNL A   1      35.959  32.427  31.386  1.00  0.00     0.055 A 
ATOM     52  C   UNL A   1      36.963  31.587  33.401  1.00  0.00     0.041 A 
ATOM     53  F   UNL A   1      39.061  30.531  33.303  1.00  0.00    -0.206 F 
ATOM     54  C   UNL A   1      35.912  32.249  32.769  1.00  0.00     0.022 A 
BRANCH  51  55
ATOM     55  S   UNL A   1      34.653  33.358  30.537  1.00  0.00     0.124 S 
ATOM     56  O   UNL A   1      33.820  33.788  31.655  1.00  0.00    -0.237 OA
ATOM     57  O   UNL A   1      35.418  34.406  29.869  1.00  0.00    -0.237 OA
ATOM     58  O   UNL A   1      34.048  32.368  29.649  1.00  0.00    -0.744 OA
ENDBRANCH  51  55
ENDBRANCH  24  48
BRANCH  36  59
ATOM     59  C   UNL A   1      44.059  34.593  29.632  1.00  0.00     0.023 A 
ATOM     60  C   UNL A   1      43.673  35.537  28.668  1.00  0.00     0.031 A 
ATOM     61  C   UNL A   1      44.849  35.029  30.712  1.00  0.00     0.131 A 
ATOM     62  C   UNL A   1      44.115  36.863  28.780  1.00  0.00     0.055 A 
ATOM     63  C   UNL A   1      45.236  36.361  30.849  1.00  0.00     0.041 A 
ATOM     64  F   UNL A   1      45.248  34.164  31.660  1.00  0.00    -0.206 F 
ATOM     65  C   UNL A   1      44.876  37.285  29.873  1.00  0.00     0.022 A 
BRANCH  62  66
ATOM     66  S   UNL A   1      43.743  38.018  27.432  1.00  0.00     0.124 S 
ATOM     67  O   UNL A   1      42.935  37.191  26.542  1.00  0.00    -0.237 OA
ATOM     68  O   UNL A   1      43.036  39.089  28.127  1.00  0.00    -0.237 OA
ATOM     69  O   UNL A   1      45.063  38.380  26.917  1.00  0.00    -0.744 OA
ENDBRANCH  62  66
ENDBRANCH  36  59
ENDBRANCH  10  11
ENDBRANCH   3   5
ENDBRANCH   2   3
ENDBRANCH   1   2
BRANCH   1  70
ATOM     70  C   UNL A   1      36.132  21.112  25.530  1.00  0.00     0.274 C 
BRANCH  70  71
ATOM     71  O   UNL A   1      35.047  21.004  24.580  1.00  0.00    -0.462 OA
BRANCH  71  72
ATOM     72  C   UNL A   1      33.792  21.266  25.054  1.00  0.00     0.310 C 
ATOM     73  O   UNL A   1      33.200  20.542  25.847  1.00  0.00    -0.252 OA
BRANCH  72  74
ATOM     74  C   UNL A   1      33.153  22.547  24.497  1.00  0.00     0.118 C 
ATOM     75  C   UNL A   1      32.559  23.505  25.578  1.00  0.00     0.022 C 
ATOM     76  C   UNL A   1      34.128  23.473  23.732  1.00  0.00     0.120 C 
ATOM     77  C   UNL A   1      33.804  24.278  25.930  1.00  0.00     0.014 C 
ATOM     78  C   UNL A   1      31.727  24.645  24.912  1.00  0.00     0.097 C 
ATOM     79  C   UNL A   1      34.077  24.762  24.536  1.00  0.00     0.047 C 
ATOM     80  C   UNL A   1      33.513  23.912  22.447  1.00  0.00     0.310 C 
ATOM     81  C   UNL A   1      32.779  25.374  24.050  1.00  0.00     0.194 C 
ATOM     82  O   UNL A   1      32.703  24.987  22.668  1.00  0.00    -0.461 OA
ATOM     83  O   UNL A   1      33.624  23.326  21.375  1.00  0.00    -0.252 OA
BRANCH  78  84
ATOM     84  S   UNL A   1      30.744  25.730  26.081  1.00  0.00    -0.119 SA
BRANCH  84  85
ATOM     85  C   UNL A   1      31.331  27.434  25.998  1.00  0.00     0.008 A 
ATOM     86  C   UNL A   1      31.870  28.006  27.165  1.00  0.00     0.015 A 
ATOM     87  C   UNL A   1      31.098  28.281  24.906  1.00  0.00     0.015 A 
ATOM     88  C   UNL A   1      32.168  29.375  27.236  1.00  0.00     0.001 A 
ATOM     89  C   UNL A   1      31.410  29.649  24.971  1.00  0.00     0.001 A 
ATOM     90  C   UNL A   1      31.931  30.199  26.141  1.00  0.00     0.000 A 
ENDBRANCH  84  85
ENDBRANCH  78  84
ENDBRANCH  72  74
ENDBRANCH  71  72
ENDBRANCH  70  71
ENDBRANCH   1  70
TORSDOF 16
ENDMDL
MODEL 2
REMARK VINA RESULT:     -12.3      4.767     10.227
REMARK SMILES O=C(OCCOC(=O)[C@H]1[C@H]2C[C@@H]3[C@@H](OC(=O)[C@@H]31)[C@@H]2Sc1ccccc1)c1ccc(-c2c3nc(c(-c4cc(S(=O)(=O)[O-])ccc4F)c4ccc([nH]4)c(-c4cc(S(=O)(=O)[O-])ccc4F)c4nc(c(-c5cc(S(=O)(=O)[O-])ccc5F)c5ccc2[nH]5)C=C4)C=C3)cc1
REMARK SMILES IDX 4 1 3 2 2 3 1 4 26 5 27 6 88 7 28 8 87 9 29 10 30 11 31 12
REMARK SMILES IDX 81 13 32 14 86 15 80 16 82 17 33 18 85 19 79 20 78 21 34 23
REMARK SMILES IDX 66 24 46 25 65 26 47 27 50 28 64 29 83 30 48 31 49 32 63 34
REMARK SMILES IDX 84 35 51 36 35 37 36 38 44 39 37 40 43 41 45 42 42 43 38 44
REMARK SMILES IDX 39 45 40 46 41 47 67 48 68 49 76 50 69 51 75 52 77 53 74 54
REMARK SMILES IDX 70 55 71 56 72 57 73 58 52 59 53 60 61 61 54 62 60 63 62 64
REMARK SMILES IDX 59 65 55 66 56 67 57 68 58 69 5 70 6 71 7 72 8 73 9 74 10 75
REMARK SMILES IDX 17 76 11 77 18 78 12 79 15 80 13 81 14 82 16 83 19 84 20 85
REMARK SMILES IDX 21 86 25 87 22 88 24 89 23 90
REMARK H PARENT 82 22 50 33
REMARK Flexibility Score: inf
ROOT
ATOM      1  C   UNL A   1      31.671  32.642  26.335  1.00  0.00     0.275 C 
ENDROOT
BRANCH   1   2
ATOM      2  O   UNL A   1      32.025  33.267  27.568  1.00  0.00    -0.458 OA
BRANCH   2   3
ATOM      3  C   UNL A   1      33.203  33.803  27.952  1.00  0.00     0.338 C 
ATOM      4  O   UNL A   1      33.251  35.030  28.046  1.00  0.00    -0.246 OA
BRANCH   3   5
ATOM      5  C   UNL A   1      34.484  33.030  28.157  1.00  0.00     0.060 A 
ATOM      6  C   UNL A   1      35.801  33.514  28.210  1.00  0.00     0.016 A 
ATOM      7  C   UNL A   1      34.297  31.685  28.502  1.00  0.00     0.016 A 
ATOM      8  C   UNL A   1      36.862  32.745  28.740  1.00  0.00     0.010 A 
ATOM      9  C   UNL A   1      35.334  30.952  29.087  1.00  0.00     0.010 A 
ATOM     10  C   UNL A   1      36.630  31.478  29.264  1.00  0.00    -0.014 A 
BRANCH  10  11
ATOM     11  C   UNL A   1      37.657  30.636  29.965  1.00  0.00     0.031 A 
ATOM     12  C   UNL A   1      37.860  30.898  31.437  1.00  0.00     0.074 A 
ATOM     13  C   UNL A   1      38.515  29.812  29.318  1.00  0.00     0.049 A 
ATOM     14  N   UNL A   1      38.891  30.669  32.206  1.00  0.00    -0.248 NA
ATOM     15  C   UNL A   1      36.763  31.621  32.097  1.00  0.00     0.031 C 
ATOM     16  C   UNL A   1      38.454  29.410  27.911  1.00  0.00     0.029 A 
ATOM     17  N   UNL A   1      39.676  29.213  29.763  1.00  0.00    -0.354 N 
ATOM     18  C   UNL A   1      38.613  31.340  33.396  1.00  0.00     0.074 A 
ATOM     19  C   UNL A   1      37.371  32.050  33.186  1.00  0.00     0.031 C 
ATOM     20  C   UNL A   1      39.561  28.715  27.589  1.00  0.00     0.029 A 
ATOM     21  C   UNL A   1      40.407  28.595  28.768  1.00  0.00     0.049 A 
ATOM     22  H   UNL A   1      39.958  29.225  30.707  1.00  0.00     0.167 HD
ATOM     23  C   UNL A   1      39.316  31.344  34.557  1.00  0.00     0.034 A 
ATOM     24  C   UNL A   1      41.618  27.999  28.805  1.00  0.00     0.034 A 
ATOM     25  C   UNL A   1      40.479  30.519  34.758  1.00  0.00     0.049 A 
ATOM     26  C   UNL A   1      42.313  27.868  30.139  1.00  0.00     0.074 A 
ATOM     27  C   UNL A   1      41.206  30.303  35.914  1.00  0.00     0.029 A 
ATOM     28  N   UNL A   1      41.070  29.746  33.766  1.00  0.00    -0.354 N 
ATOM     29  N   UNL A   1      42.016  28.441  31.281  1.00  0.00    -0.248 NA
ATOM     30  C   UNL A   1      43.454  26.946  30.204  1.00  0.00     0.031 C 
ATOM     31  C   UNL A   1      42.265  29.439  35.609  1.00  0.00     0.029 A 
ATOM     32  C   UNL A   1      42.150  29.055  34.283  1.00  0.00     0.049 A 
ATOM     33  H   UNL A   1      40.764  29.697  32.831  1.00  0.00     0.167 HD
ATOM     34  C   UNL A   1      42.880  27.880  32.218  1.00  0.00     0.074 A 
ATOM     35  C   UNL A   1      43.723  26.946  31.501  1.00  0.00     0.031 C 
ATOM     36  C   UNL A   1      42.948  28.096  33.557  1.00  0.00     0.034 A 
BRANCH  23  37
ATOM     37  C   UNL A   1      38.857  32.293  35.647  1.00  0.00     0.023 A 
ATOM     38  C   UNL A   1      39.231  33.649  35.667  1.00  0.00     0.031 A 
ATOM     39  C   UNL A   1      38.161  31.800  36.765  1.00  0.00     0.131 A 
ATOM     40  C   UNL A   1      39.113  34.386  36.854  1.00  0.00     0.055 A 
ATOM     41  C   UNL A   1      37.897  32.596  37.884  1.00  0.00     0.041 A 
ATOM     42  F   UNL A   1      37.774  30.516  36.822  1.00  0.00    -0.206 F 
ATOM     43  C   UNL A   1      38.413  33.885  37.952  1.00  0.00     0.022 A 
BRANCH  40  44
ATOM     44  S   UNL A   1      40.131  35.880  37.037  1.00  0.00     0.124 S 
ATOM     45  O   UNL A   1      41.478  35.308  37.026  1.00  0.00    -0.237 OA
ATOM     46  O   UNL A   1      39.769  36.664  35.863  1.00  0.00    -0.237 OA
ATOM     47  O   UNL A   1      39.703  36.432  38.319  1.00  0.00    -0.744 OA
ENDBRANCH  40  44
ENDBRANCH  23  37
BRANCH  24  48
ATOM     48  C   UNL A   1      42.227  27.396  27.584  1.00  0.00     0.023 A 
ATOM     49  C   UNL A   1      42.141  26.014  27.350  1.00  0.00     0.031 A 
ATOM     50  C   UNL A   1      42.962  28.171  26.670  1.00  0.00     0.131 A 
ATOM     51  C   UNL A   1      42.824  25.436  26.268  1.00  0.00     0.055 A 
ATOM     52  C   UNL A   1      43.612  27.596  25.572  1.00  0.00     0.041 A 
ATOM     53  F   UNL A   1      43.066  29.499  26.841  1.00  0.00    -0.206 F 
ATOM     54  C   UNL A   1      43.556  26.218  25.374  1.00  0.00     0.022 A 
BRANCH  51  55
ATOM     55  S   UNL A   1      42.796  23.629  26.095  1.00  0.00     0.124 S 
ATOM     56  O   UNL A   1      43.790  23.221  27.081  1.00  0.00    -0.237 OA
ATOM     57  O   UNL A   1      41.407  23.319  26.420  1.00  0.00    -0.237 OA
ATOM     58  O   UNL A   1      43.170  23.412  24.700  1.00  0.00    -0.744 OA
ENDBRANCH  51  55
ENDBRANCH  24  48
BRANCH  36  59
ATOM     59  C   UNL A   1      43.879  27.224  34.357  1.00  0.00     0.023 A 
ATOM     60  C   UNL A   1      45.228  27.551  34.562  1.00  0.00     0.031 A 
ATOM     61  C   UNL A   1      43.381  26.046  34.944  1.00  0.00     0.131 A 
ATOM     62  C   UNL A   1      46.047  26.683  35.299  1.00  0.00     0.055 A 
ATOM     63  C   UNL A   1      44.186  25.218  35.725  1.00  0.00     0.041 A 
ATOM     64  F   UNL A   1      42.098  25.687  34.774  1.00  0.00    -0.206 F 
ATOM     65  C   UNL A   1      45.531  25.530  35.898  1.00  0.00     0.022 A 
BRANCH  62  66
ATOM     66  S   UNL A   1      47.821  27.043  35.403  1.00  0.00     0.124 S 
ATOM     67  O   UNL A   1      47.987  27.325  36.825  1.00  0.00    -0.237 OA
ATOM     68  O   UNL A   1      48.419  25.802  34.924  1.00  0.00    -0.237 OA
ATOM     69  O   UNL A   1      47.989  28.194  34.518  1.00  0.00    -0.744 OA
ENDBRANCH  62  66
ENDBRANCH  36  59
ENDBRANCH  10  11
ENDBRANCH   3   5
ENDBRANCH   2   3
ENDBRANCH   1   2
BRANCH   1  70
ATOM     70  C   UNL A   1      31.408  31.133  26.443  1.00  0.00     0.274 C 
BRANCH  70  71
ATOM     71  O   UNL A   1      31.684  30.355  25.255  1.00  0.00    -0.462 OA
BRANCH  71  72
ATOM     72  C   UNL A   1      32.598  29.348  25.384  1.00  0.00     0.310 C 
ATOM     73  O   UNL A   1      33.666  29.471  25.975  1.00  0.00    -0.252 OA
BRANCH  72  74
ATOM     74  C   UNL A   1      32.197  28.030  24.706  1.00  0.00     0.118 C 
ATOM     75  C   UNL A   1      32.479  26.747  25.551  1.00  0.00     0.022 C 
ATOM     76  C   UNL A   1      30.687  27.898  24.397  1.00  0.00     0.120 C 
ATOM     77  C   UNL A   1      31.215  26.712  26.371  1.00  0.00     0.014 C 
ATOM     78  C   UNL A   1      32.268  25.459  24.694  1.00  0.00     0.097 C 
ATOM     79  C   UNL A   1      30.279  26.672  25.198  1.00  0.00     0.047 C 
ATOM     80  C   UNL A   1      30.493  27.407  23.003  1.00  0.00     0.310 C 
ATOM     81  C   UNL A   1      30.775  25.548  24.312  1.00  0.00     0.194 C 
ATOM     82  O   UNL A   1      30.592  26.047  22.976  1.00  0.00    -0.461 OA
ATOM     83  O   UNL A   1      30.377  28.121  22.012  1.00  0.00    -0.252 OA
BRANCH  78  84
ATOM     84  S   UNL A   1      32.806  23.851  25.489  1.00  0.00    -0.119 SA
BRANCH  84  85
ATOM     85  C   UNL A   1      34.485  23.431  24.980  1.00  0.00     0.008 A 
ATOM     86  C   UNL A   1      35.541  23.751  25.853  1.00  0.00     0.015 A 
ATOM     87  C   UNL A   1      34.816  22.993  23.690  1.00  0.00     0.015 A 
ATOM     88  C   UNL A   1      36.880  23.635  25.451  1.00  0.00     0.001 A 
ATOM     89  C   UNL A   1      36.158  22.861  23.293  1.00  0.00     0.001 A 
ATOM     90  C   UNL A   1      37.189  23.197  24.168  1.00  0.00     0.000 A 
ENDBRANCH  84  85
ENDBRANCH  78  84
ENDBRANCH  72  74
ENDBRANCH  71  72
ENDBRANCH  70  71
ENDBRANCH   1  70
TORSDOF 16
ENDMDL
MODEL 3
REMARK VINA RESULT:     -12.2      4.690     10.268
REMARK SMILES O=C(OCCOC(=O)[C@H]1[C@H]2C[C@@H]3[C@@H](OC(=O)[C@@H]31)[C@@H]2Sc1ccccc1)c1ccc(-c2c3nc(c(-c4cc(S(=O)(=O)[O-])ccc4F)c4ccc([nH]4)c(-c4cc(S(=O)(=O)[O-])ccc4F)c4nc(c(-c5cc(S(=O)(=O)[O-])ccc5F)c5ccc2[nH]5)C=C4)C=C3)cc1
REMARK SMILES IDX 4 1 3 2 2 3 1 4 26 5 27 6 88 7 28 8 87 9 29 10 30 11 31 12
REMARK SMILES IDX 81 13 32 14 86 15 80 16 82 17 33 18 85 19 79 20 78 21 34 23
REMARK SMILES IDX 66 24 46 25 65 26 47 27 50 28 64 29 83 30 48 31 49 32 63 34
REMARK SMILES IDX 84 35 51 36 35 37 36 38 44 39 37 40 43 41 45 42 42 43 38 44
REMARK SMILES IDX 39 45 40 46 41 47 67 48 68 49 76 50 69 51 75 52 77 53 74 54
REMARK SMILES IDX 70 55 71 56 72 57 73 58 52 59 53 60 61 61 54 62 60 63 62 64
REMARK SMILES IDX 59 65 55 66 56 67 57 68 58 69 5 70 6 71 7 72 8 73 9 74 10 75
REMARK SMILES IDX 17 76 11 77 18 78 12 79 15 80 13 81 14 82 16 83 19 84 20 85
REMARK SMILES IDX 21 86 25 87 22 88 24 89 23 90
REMARK H PARENT 82 22 50 33
REMARK Flexibility Score: inf
ROOT
ATOM      1  C   UNL A   1      31.238  31.562  26.612  1.00  0.00     0.275 C 
ENDROOT
BRANCH   1   2
ATOM      2  O   UNL A   1      32.260  32.559  26.590  1.00  0.00    -0.458 OA
BRANCH   2   3
ATOM      3  C   UNL A   1      33.080  32.970  27.580  1.00  0.00     0.338 C 
ATOM      4  O   UNL A   1      32.708  33.940  28.242  1.00  0.00    -0.246 OA
BRANCH   3   5
ATOM      5  C   UNL A   1      34.455  32.412  27.858  1.00  0.00     0.060 A 
ATOM      6  C   UNL A   1      35.644  33.107  28.130  1.00  0.00     0.016 A 
ATOM      7  C   UNL A   1      34.490  31.022  28.026  1.00  0.00     0.016 A 
ATOM      8  C   UNL A   1      36.770  32.471  28.701  1.00  0.00     0.010 A 
ATOM      9  C   UNL A   1      35.581  30.410  28.652  1.00  0.00     0.010 A 
ATOM     10  C   UNL A   1      36.728  31.126  29.048  1.00  0.00    -0.014 A 
BRANCH  10  11
ATOM     11  C   UNL A   1      37.818  30.391  29.775  1.00  0.00     0.031 A 
ATOM     12  C   UNL A   1      38.009  30.729  31.234  1.00  0.00     0.074 A 
ATOM     13  C   UNL A   1      38.731  29.605  29.157  1.00  0.00     0.049 A 
ATOM     14  N   UNL A   1      39.057  30.608  32.003  1.00  0.00    -0.248 NA
ATOM     15  C   UNL A   1      36.865  31.398  31.872  1.00  0.00     0.031 C 
ATOM     16  C   UNL A   1      38.692  29.140  27.768  1.00  0.00     0.029 A 
ATOM     17  N   UNL A   1      39.934  29.111  29.617  1.00  0.00    -0.354 N 
ATOM     18  C   UNL A   1      38.737  31.307  33.166  1.00  0.00     0.074 A 
ATOM     19  C   UNL A   1      37.445  31.915  32.937  1.00  0.00     0.031 C 
ATOM     20  C   UNL A   1      39.845  28.514  27.467  1.00  0.00     0.029 A 
ATOM     21  C   UNL A   1      40.704  28.506  28.644  1.00  0.00     0.049 A 
ATOM     22  H   UNL A   1      40.219  29.184  30.558  1.00  0.00     0.167 HD
ATOM     23  C   UNL A   1      39.443  31.411  34.321  1.00  0.00     0.034 A 
ATOM     24  C   UNL A   1      41.955  28.002  28.696  1.00  0.00     0.034 A 
ATOM     25  C   UNL A   1      40.665  30.682  34.546  1.00  0.00     0.049 A 
ATOM     26  C   UNL A   1      42.664  27.978  30.027  1.00  0.00     0.074 A 
ATOM     27  C   UNL A   1      41.411  30.569  35.705  1.00  0.00     0.029 A 
ATOM     28  N   UNL A   1      41.306  29.912  33.583  1.00  0.00    -0.354 N 
ATOM     29  N   UNL A   1      42.332  28.576  31.148  1.00  0.00    -0.248 NA
ATOM     30  C   UNL A   1      43.870  27.145  30.122  1.00  0.00     0.031 C 
ATOM     31  C   UNL A   1      42.528  29.771  35.428  1.00  0.00     0.029 A 
ATOM     32  C   UNL A   1      42.436  29.324  34.120  1.00  0.00     0.049 A 
ATOM     33  H   UNL A   1      41.000  29.802  32.653  1.00  0.00     0.167 HD
ATOM     34  C   UNL A   1      43.239  28.119  32.100  1.00  0.00     0.074 A 
ATOM     35  C   UNL A   1      44.144  27.219  31.416  1.00  0.00     0.031 C 
ATOM     36  C   UNL A   1      43.298  28.397  33.428  1.00  0.00     0.034 A 
BRANCH  23  37
ATOM     37  C   UNL A   1      38.922  32.370  35.374  1.00  0.00     0.023 A 
ATOM     38  C   UNL A   1      39.271  33.733  35.386  1.00  0.00     0.031 A 
ATOM     39  C   UNL A   1      38.188  31.882  36.470  1.00  0.00     0.131 A 
ATOM     40  C   UNL A   1      39.090  34.487  36.554  1.00  0.00     0.055 A 
ATOM     41  C   UNL A   1      37.862  32.692  37.562  1.00  0.00     0.041 A 
ATOM     42  F   UNL A   1      37.822  30.593  36.532  1.00  0.00    -0.206 F 
ATOM     43  C   UNL A   1      38.353  33.991  37.630  1.00  0.00     0.022 A 
BRANCH  40  44
ATOM     44  S   UNL A   1      40.073  36.002  36.754  1.00  0.00     0.124 S 
ATOM     45  O   UNL A   1      39.739  36.721  35.524  1.00  0.00    -0.237 OA
ATOM     46  O   UNL A   1      39.540  36.574  37.984  1.00  0.00    -0.237 OA
ATOM     47  O   UNL A   1      41.446  35.511  36.831  1.00  0.00    -0.744 OA
ENDBRANCH  40  44
ENDBRANCH  23  37
BRANCH  24  48
ATOM     48  C   UNL A   1      42.600  27.393  27.495  1.00  0.00     0.023 A 
ATOM     49  C   UNL A   1      42.541  26.007  27.278  1.00  0.00     0.031 A 
ATOM     50  C   UNL A   1      43.342  28.169  26.588  1.00  0.00     0.131 A 
ATOM     51  C   UNL A   1      43.257  25.427  26.219  1.00  0.00     0.055 A 
ATOM     52  C   UNL A   1      44.025  27.591  25.512  1.00  0.00     0.041 A 
ATOM     53  F   UNL A   1      43.421  29.500  26.744  1.00  0.00    -0.206 F 
ATOM     54  C   UNL A   1      43.996  26.209  25.331  1.00  0.00     0.022 A 
BRANCH  51  55
ATOM     55  S   UNL A   1      43.261  23.618  26.068  1.00  0.00     0.124 S 
ATOM     56  O   UNL A   1      42.042  23.257  26.784  1.00  0.00    -0.237 OA
ATOM     57  O   UNL A   1      43.231  23.438  24.620  1.00  0.00    -0.237 OA
ATOM     58  O   UNL A   1      44.509  23.223  26.717  1.00  0.00    -0.744 OA
ENDBRANCH  51  55
ENDBRANCH  24  48
BRANCH  36  59
ATOM     59  C   UNL A   1      44.293  27.629  34.256  1.00  0.00     0.023 A 
ATOM     60  C   UNL A   1      44.034  26.337  34.741  1.00  0.00     0.031 A 
ATOM     61  C   UNL A   1      45.543  28.209  34.541  1.00  0.00     0.131 A 
ATOM     62  C   UNL A   1      44.996  25.686  35.526  1.00  0.00     0.055 A 
ATOM     63  C   UNL A   1      46.518  27.532  35.272  1.00  0.00     0.041 A 
ATOM     64  F   UNL A   1      45.839  29.444  34.104  1.00  0.00    -0.206 F 
ATOM     65  C   UNL A   1      46.243  26.265  35.777  1.00  0.00     0.022 A 
BRANCH  62  66
ATOM     66  S   UNL A   1      44.568  24.093  36.279  1.00  0.00     0.124 S 
ATOM     67  O   UNL A   1      44.792  24.360  37.696  1.00  0.00    -0.237 OA
ATOM     68  O   UNL A   1      43.177  23.922  35.874  1.00  0.00    -0.237 OA
ATOM     69  O   UNL A   1      45.510  23.159  35.665  1.00  0.00    -0.744 OA
ENDBRANCH  62  66
ENDBRANCH  36  59
ENDBRANCH  10  11
ENDBRANCH   3   5
ENDBRANCH   2   3
ENDBRANCH   1   2
BRANCH   1  70
ATOM     70  C   UNL A   1      31.397  30.468  25.547  1.00  0.00     0.274 C 
BRANCH  70  71
ATOM     71  O   UNL A   1      32.755  30.098  25.216  1.00  0.00    -0.462 OA
BRANCH  71  72
ATOM     72  C   UNL A   1      32.909  29.120  24.275  1.00  0.00     0.310 C 
ATOM     73  O   UNL A   1      33.409  29.310  23.172  1.00  0.00    -0.252 OA
BRANCH  72  74
ATOM     74  C   UNL A   1      32.381  27.740  24.695  1.00  0.00     0.118 C 
ATOM     75  C   UNL A   1      32.826  26.561  23.773  1.00  0.00     0.022 C 
ATOM     76  C   UNL A   1      32.855  27.267  26.090  1.00  0.00     0.120 C 
ATOM     77  C   UNL A   1      34.158  26.245  24.405  1.00  0.00     0.014 C 
ATOM     78  C   UNL A   1      32.054  25.253  24.132  1.00  0.00     0.097 C 
ATOM     79  C   UNL A   1      33.612  25.987  25.779  1.00  0.00     0.047 C 
ATOM     80  C   UNL A   1      31.699  26.735  26.867  1.00  0.00     0.310 C 
ATOM     81  C   UNL A   1      32.479  24.998  25.593  1.00  0.00     0.194 C 
ATOM     82  O   UNL A   1      31.477  25.432  26.528  1.00  0.00    -0.461 OA
ATOM     83  O   UNL A   1      30.983  27.397  27.612  1.00  0.00    -0.252 OA
BRANCH  78  84
ATOM     84  S   UNL A   1      32.291  23.814  22.956  1.00  0.00    -0.119 SA
BRANCH  84  85
ATOM     85  C   UNL A   1      33.589  22.717  23.561  1.00  0.00     0.008 A 
ATOM     86  C   UNL A   1      33.218  21.655  24.405  1.00  0.00     0.015 A 
ATOM     87  C   UNL A   1      34.958  22.978  23.406  1.00  0.00     0.015 A 
ATOM     88  C   UNL A   1      34.181  20.879  25.069  1.00  0.00     0.001 A 
ATOM     89  C   UNL A   1      35.923  22.191  24.059  1.00  0.00     0.001 A 
ATOM     90  C   UNL A   1      35.534  21.153  24.901  1.00  0.00     0.000 A 
ENDBRANCH  84  85
ENDBRANCH  78  84
ENDBRANCH  72  74
ENDBRANCH  71  72
ENDBRANCH  70  71
ENDBRANCH   1  70
TORSDOF 16
ENDMDL
