MODEL 1
REMARK VINA RESULT:     -12.0      0.000      0.000
REMARK SMILES O=C(OCCOC(=O)c1ccc([C@H]2CCC[N@@H+](CCN3CCCC3=O)C2)cc1)c1ccc(-c2c3nc(c(-c4cc(S(=O)(=O)[O-])ccc4F)c4ccc([nH]4)c(-c4cc(S(=O)(=O)[O-])ccc4F)c4nc(c(-c5cc(S(=O)(=O)[O-])ccc5F)c5ccc2[nH]5)C=C4)C=C3)cc1
REMARK SMILES IDX 5 1 4 2 3 3 2 4 1 5 29 6 30 7 91 8 31 9 90 10 32 11 33 12
REMARK SMILES IDX 34 13 84 14 35 15 89 16 83 17 85 18 36 19 88 20 82 21 81 22
REMARK SMILES IDX 37 24 69 25 49 26 68 27 50 28 53 29 67 30 86 31 51 32 52 33
REMARK SMILES IDX 66 35 87 36 54 37 38 38 39 39 47 40 40 41 46 42 48 43 45 44
REMARK SMILES IDX 41 45 42 46 43 47 44 48 70 49 71 50 79 51 72 52 78 53 80 54
REMARK SMILES IDX 77 55 73 56 74 57 75 58 76 59 55 60 56 61 64 62 57 63 63 64
REMARK SMILES IDX 65 65 62 66 58 67 59 68 60 69 61 70 6 71 7 72 8 73 9 74
REMARK SMILES IDX 10 75 28 76 11 77 27 78 12 79 13 80 14 81 26 82 15 83 17 84
REMARK SMILES IDX 16 85 18 87 19 88 20 89 21 90 24 91 22 92 23 93 25 94
REMARK H PARENT 85 23 53 34 17 86
REMARK Flexibility Score: inf
ROOT
ATOM      1  C   UNL A   1      36.614  20.397  25.013  1.00  0.00     0.275 C 
ENDROOT
BRANCH   1   2
ATOM      2  C   UNL A   1      37.961  21.124  25.162  1.00  0.00     0.275 C 
BRANCH   2   3
ATOM      3  O   UNL A   1      39.001  20.353  25.779  1.00  0.00    -0.458 OA
BRANCH   3   4
ATOM      4  C   UNL A   1      40.205  20.747  26.258  1.00  0.00     0.338 C 
ATOM      5  O   UNL A   1      41.166  19.994  26.093  1.00  0.00    -0.246 OA
BRANCH   4   6
ATOM      6  C   UNL A   1      40.428  21.991  27.067  1.00  0.00     0.060 A 
ATOM      7  C   UNL A   1      41.382  22.158  28.072  1.00  0.00     0.016 A 
ATOM      8  C   UNL A   1      39.664  23.117  26.698  1.00  0.00     0.016 A 
ATOM      9  C   UNL A   1      41.709  23.421  28.542  1.00  0.00     0.010 A 
ATOM     10  C   UNL A   1      40.011  24.395  27.138  1.00  0.00     0.010 A 
ATOM     11  C   UNL A   1      41.102  24.543  27.991  1.00  0.00    -0.014 A 
BRANCH  11  12
ATOM     12  C   UNL A   1      41.705  25.851  28.281  1.00  0.00     0.031 A 
ATOM     13  C   UNL A   1      43.100  26.143  27.802  1.00  0.00     0.074 A 
ATOM     14  C   UNL A   1      40.897  26.812  28.770  1.00  0.00     0.049 A 
ATOM     15  N   UNL A   1      43.831  27.223  27.913  1.00  0.00    -0.248 NA
ATOM     16  C   UNL A   1      43.722  25.064  27.020  1.00  0.00     0.031 C 
ATOM     17  C   UNL A   1      39.490  26.754  29.028  1.00  0.00     0.029 A 
ATOM     18  N   UNL A   1      41.219  28.062  29.146  1.00  0.00    -0.354 N 
ATOM     19  C   UNL A   1      44.981  26.979  27.172  1.00  0.00     0.074 A 
ATOM     20  C   UNL A   1      44.869  25.620  26.669  1.00  0.00     0.031 C 
ATOM     21  C   UNL A   1      39.029  27.946  29.456  1.00  0.00     0.029 A 
ATOM     22  C   UNL A   1      40.158  29.136  29.469  1.00  0.00     0.049 A 
ATOM     23  H   UNL A   1      42.171  28.303  29.218  1.00  0.00     0.167 HD
ATOM     24  C   UNL A   1      46.032  27.795  26.903  1.00  0.00     0.034 A 
ATOM     25  C   UNL A   1      40.375  30.934  30.034  1.00  0.00     0.034 A 
ATOM     26  C   UNL A   1      46.213  29.146  27.418  1.00  0.00     0.049 A 
ATOM     27  C   UNL A   1      41.968  31.904  30.158  1.00  0.00     0.074 A 
ATOM     28  C   UNL A   1      47.315  29.953  27.202  1.00  0.00     0.029 A 
ATOM     29  N   UNL A   1      45.346  29.891  28.244  1.00  0.00    -0.354 N 
ATOM     30  N   UNL A   1      43.175  31.405  29.865  1.00  0.00    -0.248 NA
ATOM     31  C   UNL A   1      42.096  33.304  30.589  1.00  0.00     0.031 C 
ATOM     32  C   UNL A   1      47.167  31.121  27.952  1.00  0.00     0.029 A 
ATOM     33  C   UNL A   1      45.918  31.137  28.565  1.00  0.00     0.049 A 
ATOM     34  H   UNL A   1      44.464  29.583  28.553  1.00  0.00     0.167 HD
ATOM     35  C   UNL A   1      44.103  32.380  29.858  1.00  0.00     0.074 A 
ATOM     36  C   UNL A   1      43.415  33.522  30.435  1.00  0.00     0.031 C 
ATOM     37  C   UNL A   1      45.351  32.261  29.339  1.00  0.00     0.034 A 
BRANCH  24  38
ATOM     38  C   UNL A   1      47.150  27.151  26.080  1.00  0.00     0.023 A 
ATOM     39  C   UNL A   1      48.236  26.465  26.666  1.00  0.00     0.031 A 
ATOM     40  C   UNL A   1      47.191  27.363  24.689  1.00  0.00     0.131 A 
ATOM     41  C   UNL A   1      49.345  26.096  25.877  1.00  0.00     0.055 A 
ATOM     42  C   UNL A   1      48.255  26.916  23.899  1.00  0.00     0.041 A 
ATOM     43  F   UNL A   1      46.215  28.053  24.079  1.00  0.00    -0.206 F 
ATOM     44  C   UNL A   1      49.347  26.292  24.494  1.00  0.00     0.022 A 
BRANCH  41  45
ATOM     45  S   UNL A   1      50.869  25.534  26.699  1.00  0.00     0.124 S 
ATOM     46  O   UNL A   1      50.383  24.390  27.467  1.00  0.00    -0.237 OA
ATOM     47  O   UNL A   1      51.741  25.223  25.573  1.00  0.00    -0.237 OA
ATOM     48  O   UNL A   1      51.274  26.686  27.501  1.00  0.00    -0.744 OA
ENDBRANCH  41  45
ENDBRANCH  24  38
BRANCH  25  49
ATOM     49  C   UNL A   1      39.493  32.040  31.113  1.00  0.00     0.023 A 
ATOM     50  C   UNL A   1      39.372  31.896  32.503  1.00  0.00     0.031 A 
ATOM     51  C   UNL A   1      38.693  33.101  30.597  1.00  0.00     0.131 A 
ATOM     52  C   UNL A   1      38.614  32.861  33.241  1.00  0.00     0.055 A 
ATOM     53  C   UNL A   1      38.166  34.163  31.323  1.00  0.00     0.041 A 
ATOM     54  F   UNL A   1      38.287  33.090  29.335  1.00  0.00    -0.206 F 
ATOM     55  C   UNL A   1      38.128  34.048  32.683  1.00  0.00     0.022 A 
BRANCH  52  56
ATOM     56  S   UNL A   1      37.948  32.421  34.873  1.00  0.00     0.124 S 
ATOM     57  O   UNL A   1      37.940  30.965  34.779  1.00  0.00    -0.237 OA
ATOM     58  O   UNL A   1      38.933  33.008  35.771  1.00  0.00    -0.237 OA
ATOM     59  O   UNL A   1      36.629  33.051  34.891  1.00  0.00    -0.744 OA
ENDBRANCH  52  56
ENDBRANCH  25  49
BRANCH  37  60
ATOM     60  C   UNL A   1      46.218  33.454  29.557  1.00  0.00     0.023 A 
ATOM     61  C   UNL A   1      46.197  34.498  28.625  1.00  0.00     0.031 A 
ATOM     62  C   UNL A   1      47.004  33.587  30.712  1.00  0.00     0.131 A 
ATOM     63  C   UNL A   1      46.972  35.638  28.851  1.00  0.00     0.055 A 
ATOM     64  C   UNL A   1      47.729  34.750  30.961  1.00  0.00     0.041 A 
ATOM     65  F   UNL A   1      47.043  32.609  31.630  1.00  0.00    -0.206 F 
ATOM     66  C   UNL A   1      47.721  35.781  30.022  1.00  0.00     0.022 A 
BRANCH  63  67
ATOM     67  S   UNL A   1      47.036  36.893  27.551  1.00  0.00     0.124 S 
ATOM     68  O   UNL A   1      47.834  36.227  26.525  1.00  0.00    -0.237 OA
ATOM     69  O   UNL A   1      45.624  37.085  27.234  1.00  0.00    -0.237 OA
ATOM     70  O   UNL A   1      47.687  38.025  28.206  1.00  0.00    -0.744 OA
ENDBRANCH  63  67
ENDBRANCH  37  60
ENDBRANCH  11  12
ENDBRANCH   4   6
ENDBRANCH   3   4
ENDBRANCH   2   3
ENDBRANCH   1   2
BRANCH   1  71
ATOM     71  O   UNL A   1      35.484  21.047  25.639  1.00  0.00    -0.458 OA
BRANCH  71  72
ATOM     72  C   UNL A   1      34.475  21.441  24.811  1.00  0.00     0.338 C 
ATOM     73  O   UNL A   1      33.672  20.713  24.253  1.00  0.00    -0.246 OA
BRANCH  72  74
ATOM     74  C   UNL A   1      34.439  22.923  24.721  1.00  0.00     0.060 A 
ATOM     75  C   UNL A   1      34.200  23.529  23.491  1.00  0.00     0.016 A 
ATOM     76  C   UNL A   1      34.644  23.731  25.835  1.00  0.00     0.016 A 
ATOM     77  C   UNL A   1      33.998  24.916  23.403  1.00  0.00     0.005 A 
ATOM     78  C   UNL A   1      34.474  25.130  25.732  1.00  0.00     0.005 A 
ATOM     79  C   UNL A   1      34.056  25.745  24.533  1.00  0.00    -0.039 A 
BRANCH  79  80
ATOM     80  C   UNL A   1      33.697  27.249  24.425  1.00  0.00     0.074 C 
ATOM     81  C   UNL A   1      32.317  27.508  23.768  1.00  0.00     0.020 C 
ATOM     82  C   UNL A   1      33.688  27.974  25.784  1.00  0.00     0.270 C 
ATOM     83  C   UNL A   1      31.937  28.991  23.767  1.00  0.00     0.062 C 
ATOM     84  N   UNL A   1      33.204  29.360  25.775  1.00  0.00    -0.333 N 
ATOM     85  C   UNL A   1      31.889  29.523  25.181  1.00  0.00     0.262 C 
ATOM     86  H   UNL A   1      33.851  29.883  25.187  1.00  0.00     0.348 HD
BRANCH  84  87
ATOM     87  C   UNL A   1      33.192  29.888  27.139  1.00  0.00     0.284 C 
BRANCH  87  88
ATOM     88  C   UNL A   1      34.004  31.175  27.492  1.00  0.00     0.180 C 
BRANCH  88  89
ATOM     89  N   UNL A   1      34.998  31.268  28.630  1.00  0.00    -0.337 N 
ATOM     90  C   UNL A   1      36.223  29.812  29.395  1.00  0.00     0.120 C 
ATOM     91  C   UNL A   1      34.555  32.547  29.964  1.00  0.00     0.222 C 
ATOM     92  C   UNL A   1      36.430  30.219  31.380  1.00  0.00     0.031 C 
ATOM     93  C   UNL A   1      35.325  31.867  31.766  1.00  0.00     0.102 C 
ATOM     94  O   UNL A   1      34.014  33.637  29.819  1.00  0.00    -0.275 OA
ENDBRANCH  88  89
ENDBRANCH  87  88
ENDBRANCH  84  87
ENDBRANCH  79  80
ENDBRANCH  72  74
ENDBRANCH  71  72
ENDBRANCH   1  71
TORSDOF 18
ENDMDL
MODEL 2
REMARK VINA RESULT:     -12.0      2.678      4.322
REMARK SMILES O=C(OCCOC(=O)c1ccc([C@H]2CCC[N@@H+](CCN3CCCC3=O)C2)cc1)c1ccc(-c2c3nc(c(-c4cc(S(=O)(=O)[O-])ccc4F)c4ccc([nH]4)c(-c4cc(S(=O)(=O)[O-])ccc4F)c4nc(c(-c5cc(S(=O)(=O)[O-])ccc5F)c5ccc2[nH]5)C=C4)C=C3)cc1
REMARK SMILES IDX 5 1 4 2 3 3 2 4 1 5 29 6 30 7 91 8 31 9 90 10 32 11 33 12
REMARK SMILES IDX 34 13 84 14 35 15 89 16 83 17 85 18 36 19 88 20 82 21 81 22
REMARK SMILES IDX 37 24 69 25 49 26 68 27 50 28 53 29 67 30 86 31 51 32 52 33
REMARK SMILES IDX 66 35 87 36 54 37 38 38 39 39 47 40 40 41 46 42 48 43 45 44
REMARK SMILES IDX 41 45 42 46 43 47 44 48 70 49 71 50 79 51 72 52 78 53 80 54
REMARK SMILES IDX 77 55 73 56 74 57 75 58 76 59 55 60 56 61 64 62 57 63 63 64
REMARK SMILES IDX 65 65 62 66 58 67 59 68 60 69 61 70 6 71 7 72 8 73 9 74
REMARK SMILES IDX 10 75 28 76 11 77 27 78 12 79 13 80 14 81 26 82 15 83 17 84
REMARK SMILES IDX 16 85 18 87 19 88 20 89 21 90 24 91 22 92 23 93 25 94
REMARK H PARENT 85 23 53 34 17 86
REMARK Flexibility Score: inf
ROOT
ATOM      1  C   UNL A   1      38.158  21.298  25.390  1.00  0.00     0.275 C 
ENDROOT
BRANCH   1   2
ATOM      2  C   UNL A   1      38.757  19.921  25.056  1.00  0.00     0.275 C 
BRANCH   2   3
ATOM      3  O   UNL A   1      39.699  19.421  26.015  1.00  0.00    -0.458 OA
BRANCH   3   4
ATOM      4  C   UNL A   1      41.048  19.533  26.045  1.00  0.00     0.338 C 
ATOM      5  O   UNL A   1      41.715  18.503  25.935  1.00  0.00    -0.246 OA
BRANCH   4   6
ATOM      6  C   UNL A   1      41.786  20.813  26.309  1.00  0.00     0.060 A 
ATOM      7  C   UNL A   1      42.071  21.805  25.370  1.00  0.00     0.016 A 
ATOM      8  C   UNL A   1      42.127  21.069  27.652  1.00  0.00     0.016 A 
ATOM      9  C   UNL A   1      42.481  23.068  25.769  1.00  0.00     0.010 A 
ATOM     10  C   UNL A   1      42.504  22.347  28.067  1.00  0.00     0.010 A 
ATOM     11  C   UNL A   1      42.586  23.366  27.122  1.00  0.00    -0.014 A 
BRANCH  11  12
ATOM     12  C   UNL A   1      42.700  24.782  27.497  1.00  0.00     0.031 A 
ATOM     13  C   UNL A   1      43.919  25.559  27.083  1.00  0.00     0.074 A 
ATOM     14  C   UNL A   1      41.604  25.380  28.003  1.00  0.00     0.049 A 
ATOM     15  N   UNL A   1      44.234  26.815  27.273  1.00  0.00    -0.248 NA
ATOM     16  C   UNL A   1      44.886  24.804  26.273  1.00  0.00     0.031 C 
ATOM     17  C   UNL A   1      40.298  24.832  28.208  1.00  0.00     0.029 A 
ATOM     18  N   UNL A   1      41.472  26.641  28.451  1.00  0.00    -0.354 N 
ATOM     19  C   UNL A   1      45.411  27.021  26.563  1.00  0.00     0.074 A 
ATOM     20  C   UNL A   1      45.779  25.736  25.990  1.00  0.00     0.031 C 
ATOM     21  C   UNL A   1      39.450  25.769  28.677  1.00  0.00     0.029 A 
ATOM     22  C   UNL A   1      40.102  27.269  28.788  1.00  0.00     0.049 A 
ATOM     23  H   UNL A   1      42.284  27.187  28.569  1.00  0.00     0.167 HD
ATOM     24  C   UNL A   1      46.124  28.160  26.372  1.00  0.00     0.034 A 
ATOM     25  C   UNL A   1      39.681  28.997  29.447  1.00  0.00     0.034 A 
ATOM     26  C   UNL A   1      45.823  29.460  26.957  1.00  0.00     0.049 A 
ATOM     27  C   UNL A   1      40.844  30.443  29.675  1.00  0.00     0.074 A 
ATOM     28  C   UNL A   1      46.586  30.605  26.821  1.00  0.00     0.029 A 
ATOM     29  N   UNL A   1      44.739  29.816  27.787  1.00  0.00    -0.354 N 
ATOM     30  N   UNL A   1      42.154  30.403  29.401  1.00  0.00    -0.248 NA
ATOM     31  C   UNL A   1      40.479  31.775  30.178  1.00  0.00     0.031 C 
ATOM     32  C   UNL A   1      46.034  31.607  27.620  1.00  0.00     0.029 A 
ATOM     33  C   UNL A   1      44.845  31.161  28.188  1.00  0.00     0.049 A 
ATOM     34  H   UNL A   1      44.011  29.208  28.049  1.00  0.00     0.167 HD
ATOM     35  C   UNL A   1      42.693  31.635  29.474  1.00  0.00     0.074 A 
ATOM     36  C   UNL A   1      41.646  32.438  30.082  1.00  0.00     0.031 C 
ATOM     37  C   UNL A   1      43.915  31.977  28.995  1.00  0.00     0.034 A 
BRANCH  24  38
ATOM     38  C   UNL A   1      47.408  27.985  25.558  1.00  0.00     0.023 A 
ATOM     39  C   UNL A   1      47.468  28.201  24.163  1.00  0.00     0.031 A 
ATOM     40  C   UNL A   1      48.551  27.448  26.180  1.00  0.00     0.131 A 
ATOM     41  C   UNL A   1      48.609  27.805  23.438  1.00  0.00     0.055 A 
ATOM     42  C   UNL A   1      49.712  27.139  25.465  1.00  0.00     0.041 A 
ATOM     43  F   UNL A   1      48.541  27.171  27.493  1.00  0.00    -0.206 F 
ATOM     44  C   UNL A   1      49.741  27.302  24.084  1.00  0.00     0.022 A 
BRANCH  41  45
ATOM     45  S   UNL A   1      48.533  27.769  21.619  1.00  0.00     0.124 S 
ATOM     46  O   UNL A   1      49.549  28.757  21.263  1.00  0.00    -0.237 OA
ATOM     47  O   UNL A   1      48.858  26.381  21.314  1.00  0.00    -0.237 OA
ATOM     48  O   UNL A   1      47.159  28.167  21.322  1.00  0.00    -0.744 OA
ENDBRANCH  41  45
ENDBRANCH  24  38
BRANCH  25  49
ATOM     49  C   UNL A   1      38.457  29.672  30.546  1.00  0.00     0.023 A 
ATOM     50  C   UNL A   1      37.380  30.486  30.165  1.00  0.00     0.031 A 
ATOM     51  C   UNL A   1      38.582  29.550  31.962  1.00  0.00     0.131 A 
ATOM     52  C   UNL A   1      36.481  30.970  31.170  1.00  0.00     0.055 A 
ATOM     53  C   UNL A   1      37.591  29.810  32.901  1.00  0.00     0.041 A 
ATOM     54  F   UNL A   1      39.752  29.265  32.515  1.00  0.00    -0.206 F 
ATOM     55  C   UNL A   1      36.506  30.534  32.498  1.00  0.00     0.022 A 
BRANCH  52  56
ATOM     56  S   UNL A   1      35.474  32.445  30.836  1.00  0.00     0.124 S 
ATOM     57  O   UNL A   1      36.435  33.502  31.130  1.00  0.00    -0.237 OA
ATOM     58  O   UNL A   1      35.121  32.259  29.436  1.00  0.00    -0.237 OA
ATOM     59  O   UNL A   1      34.366  32.329  31.783  1.00  0.00    -0.744 OA
ENDBRANCH  52  56
ENDBRANCH  25  49
BRANCH  37  60
ATOM     60  C   UNL A   1      44.318  33.381  29.302  1.00  0.00     0.023 A 
ATOM     61  C   UNL A   1      45.023  33.649  30.481  1.00  0.00     0.031 A 
ATOM     62  C   UNL A   1      44.068  34.428  28.403  1.00  0.00     0.131 A 
ATOM     63  C   UNL A   1      45.443  34.954  30.748  1.00  0.00     0.055 A 
ATOM     64  C   UNL A   1      44.540  35.715  28.646  1.00  0.00     0.041 A 
ATOM     65  F   UNL A   1      43.400  34.205  27.260  1.00  0.00    -0.206 F 
ATOM     66  C   UNL A   1      45.226  35.986  29.830  1.00  0.00     0.022 A 
BRANCH  63  67
ATOM     67  S   UNL A   1      46.213  35.288  32.350  1.00  0.00     0.124 S 
ATOM     68  O   UNL A   1      45.050  35.492  33.209  1.00  0.00    -0.237 OA
ATOM     69  O   UNL A   1      46.975  34.066  32.589  1.00  0.00    -0.237 OA
ATOM     70  O   UNL A   1      47.016  36.482  32.097  1.00  0.00    -0.744 OA
ENDBRANCH  63  67
ENDBRANCH  37  60
ENDBRANCH  11  12
ENDBRANCH   4   6
ENDBRANCH   3   4
ENDBRANCH   2   3
ENDBRANCH   1   2
BRANCH   1  71
ATOM     71  O   UNL A   1      37.061  21.719  24.548  1.00  0.00    -0.458 OA
BRANCH  71  72
ATOM     72  C   UNL A   1      35.806  21.426  24.992  1.00  0.00     0.338 C 
ATOM     73  O   UNL A   1      35.313  20.315  25.083  1.00  0.00    -0.246 OA
BRANCH  72  74
ATOM     74  C   UNL A   1      35.116  22.668  25.423  1.00  0.00     0.060 A 
ATOM     75  C   UNL A   1      35.535  23.896  24.917  1.00  0.00     0.016 A 
ATOM     76  C   UNL A   1      34.059  22.645  26.329  1.00  0.00     0.016 A 
ATOM     77  C   UNL A   1      34.801  25.065  25.177  1.00  0.00     0.005 A 
ATOM     78  C   UNL A   1      33.348  23.832  26.612  1.00  0.00     0.005 A 
ATOM     79  C   UNL A   1      33.645  25.053  25.970  1.00  0.00    -0.039 A 
BRANCH  79  80
ATOM     80  C   UNL A   1      32.785  26.332  26.128  1.00  0.00     0.074 C 
ATOM     81  C   UNL A   1      33.625  27.616  26.347  1.00  0.00     0.020 C 
ATOM     82  C   UNL A   1      31.864  26.601  24.923  1.00  0.00     0.270 C 
ATOM     83  C   UNL A   1      32.763  28.881  26.395  1.00  0.00     0.062 C 
ATOM     84  N   UNL A   1      31.139  27.878  24.935  1.00  0.00    -0.333 N 
ATOM     85  C   UNL A   1      31.991  29.041  25.105  1.00  0.00     0.262 C 
ATOM     86  H   UNL A   1      30.527  27.849  25.750  1.00  0.00     0.348 HD
BRANCH  84  87
ATOM     87  C   UNL A   1      30.363  28.017  23.702  1.00  0.00     0.284 C 
BRANCH  87  88
ATOM     88  C   UNL A   1      30.854  27.340  22.383  1.00  0.00     0.180 C 
BRANCH  88  89
ATOM     89  N   UNL A   1      31.062  25.850  22.219  1.00  0.00    -0.337 N 
ATOM     90  C   UNL A   1      30.368  24.313  23.387  1.00  0.00     0.120 C 
ATOM     91  C   UNL A   1      32.692  25.368  21.368  1.00  0.00     0.222 C 
ATOM     92  C   UNL A   1      31.772  22.840  23.294  1.00  0.00     0.031 C 
ATOM     93  C   UNL A   1      33.266  23.519  22.114  1.00  0.00     0.102 C 
ATOM     94  O   UNL A   1      33.277  25.952  20.464  1.00  0.00    -0.275 OA
ENDBRANCH  88  89
ENDBRANCH  87  88
ENDBRANCH  84  87
ENDBRANCH  79  80
ENDBRANCH  72  74
ENDBRANCH  71  72
ENDBRANCH   1  71
TORSDOF 18
ENDMDL
MODEL 3
REMARK VINA RESULT:     -11.9      4.753      7.754
REMARK SMILES O=C(OCCOC(=O)c1ccc([C@H]2CCC[N@@H+](CCN3CCCC3=O)C2)cc1)c1ccc(-c2c3nc(c(-c4cc(S(=O)(=O)[O-])ccc4F)c4ccc([nH]4)c(-c4cc(S(=O)(=O)[O-])ccc4F)c4nc(c(-c5cc(S(=O)(=O)[O-])ccc5F)c5ccc2[nH]5)C=C4)C=C3)cc1
REMARK SMILES IDX 5 1 4 2 3 3 2 4 1 5 29 6 30 7 91 8 31 9 90 10 32 11 33 12
REMARK SMILES IDX 34 13 84 14 35 15 89 16 83 17 85 18 36 19 88 20 82 21 81 22
REMARK SMILES IDX 37 24 69 25 49 26 68 27 50 28 53 29 67 30 86 31 51 32 52 33
REMARK SMILES IDX 66 35 87 36 54 37 38 38 39 39 47 40 40 41 46 42 48 43 45 44
REMARK SMILES IDX 41 45 42 46 43 47 44 48 70 49 71 50 79 51 72 52 78 53 80 54
REMARK SMILES IDX 77 55 73 56 74 57 75 58 76 59 55 60 56 61 64 62 57 63 63 64
REMARK SMILES IDX 65 65 62 66 58 67 59 68 60 69 61 70 6 71 7 72 8 73 9 74
REMARK SMILES IDX 10 75 28 76 11 77 27 78 12 79 13 80 14 81 26 82 15 83 17 84
REMARK SMILES IDX 16 85 18 87 19 88 20 89 21 90 24 91 22 92 23 93 25 94
REMARK H PARENT 85 23 53 34 17 86
REMARK Flexibility Score: inf
ROOT
ATOM      1  C   UNL A   1      42.669  20.820  25.973  1.00  0.00     0.275 C 
ENDROOT
BRANCH   1   2
ATOM      2  C   UNL A   1      42.956  22.209  25.378  1.00  0.00     0.275 C 
BRANCH   2   3
ATOM      3  O   UNL A   1      44.346  22.514  25.194  1.00  0.00    -0.458 OA
BRANCH   3   4
ATOM      4  C   UNL A   1      45.295  22.822  26.109  1.00  0.00     0.338 C 
ATOM      5  O   UNL A   1      46.384  22.254  26.024  1.00  0.00    -0.246 OA
BRANCH   4   6
ATOM      6  C   UNL A   1      45.076  23.732  27.283  1.00  0.00     0.060 A 
ATOM      7  C   UNL A   1      45.451  25.073  27.364  1.00  0.00     0.016 A 
ATOM      8  C   UNL A   1      44.333  23.195  28.354  1.00  0.00     0.016 A 
ATOM      9  C   UNL A   1      44.940  25.897  28.354  1.00  0.00     0.010 A 
ATOM     10  C   UNL A   1      43.785  24.024  29.334  1.00  0.00     0.010 A 
ATOM     11  C   UNL A   1      44.019  25.395  29.267  1.00  0.00    -0.014 A 
BRANCH  11  12
ATOM     12  C   UNL A   1      43.270  26.364  30.077  1.00  0.00     0.031 A 
ATOM     13  C   UNL A   1      43.759  26.711  31.456  1.00  0.00     0.074 A 
ATOM     14  C   UNL A   1      42.299  27.068  29.459  1.00  0.00     0.049 A 
ATOM     15  N   UNL A   1      43.285  27.549  32.342  1.00  0.00    -0.248 NA
ATOM     16  C   UNL A   1      45.014  26.053  31.847  1.00  0.00     0.031 C 
ATOM     17  C   UNL A   1      41.900  27.030  28.086  1.00  0.00     0.029 A 
ATOM     18  N   UNL A   1      41.459  27.973  29.990  1.00  0.00    -0.354 N 
ATOM     19  C   UNL A   1      44.209  27.563  33.380  1.00  0.00     0.074 A 
ATOM     20  C   UNL A   1      45.240  26.599  33.030  1.00  0.00     0.031 C 
ATOM     21  C   UNL A   1      40.931  27.934  27.840  1.00  0.00     0.029 A 
ATOM     22  C   UNL A   1      40.551  28.876  29.127  1.00  0.00     0.049 A 
ATOM     23  H   UNL A   1      41.421  28.065  30.970  1.00  0.00     0.167 HD
ATOM     24  C   UNL A   1      44.234  28.310  34.513  1.00  0.00     0.034 A 
ATOM     25  C   UNL A   1      39.288  30.191  29.649  1.00  0.00     0.034 A 
ATOM     26  C   UNL A   1      43.207  29.255  34.930  1.00  0.00     0.049 A 
ATOM     27  C   UNL A   1      38.970  30.845  31.372  1.00  0.00     0.074 A 
ATOM     28  C   UNL A   1      43.195  29.965  36.117  1.00  0.00     0.029 A 
ATOM     29  N   UNL A   1      42.025  29.620  34.252  1.00  0.00    -0.354 N 
ATOM     30  N   UNL A   1      39.618  30.424  32.465  1.00  0.00    -0.248 NA
ATOM     31  C   UNL A   1      37.989  31.876  31.738  1.00  0.00     0.031 C 
ATOM     32  C   UNL A   1      41.994  30.672  36.203  1.00  0.00     0.029 A 
ATOM     33  C   UNL A   1      41.270  30.524  35.024  1.00  0.00     0.049 A 
ATOM     34  H   UNL A   1      41.764  29.288  33.363  1.00  0.00     0.167 HD
ATOM     35  C   UNL A   1      39.324  31.205  33.522  1.00  0.00     0.074 A 
ATOM     36  C   UNL A   1      38.212  32.017  33.057  1.00  0.00     0.031 C 
ATOM     37  C   UNL A   1      40.010  31.219  34.692  1.00  0.00     0.034 A 
BRANCH  24  38
ATOM     38  C   UNL A   1      45.403  28.011  35.454  1.00  0.00     0.023 A 
ATOM     39  C   UNL A   1      45.323  27.067  36.501  1.00  0.00     0.031 A 
ATOM     40  C   UNL A   1      46.567  28.799  35.380  1.00  0.00     0.131 A 
ATOM     41  C   UNL A   1      46.344  27.001  37.470  1.00  0.00     0.055 A 
ATOM     42  C   UNL A   1      47.615  28.666  36.295  1.00  0.00     0.041 A 
ATOM     43  F   UNL A   1      46.683  29.749  34.440  1.00  0.00    -0.206 F 
ATOM     44  C   UNL A   1      47.502  27.774  37.357  1.00  0.00     0.022 A 
BRANCH  41  45
ATOM     45  S   UNL A   1      46.064  26.036  38.989  1.00  0.00     0.124 S 
ATOM     46  O   UNL A   1      46.659  24.751  38.634  1.00  0.00    -0.237 OA
ATOM     47  O   UNL A   1      46.775  26.814  39.996  1.00  0.00    -0.237 OA
ATOM     48  O   UNL A   1      44.609  26.023  39.125  1.00  0.00    -0.744 OA
ENDBRANCH  41  45
ENDBRANCH  24  38
BRANCH  25  49
ATOM     49  C   UNL A   1      37.720  30.761  29.030  1.00  0.00     0.023 A 
ATOM     50  C   UNL A   1      37.330  32.103  28.914  1.00  0.00     0.031 A 
ATOM     51  C   UNL A   1      36.660  29.852  28.743  1.00  0.00     0.131 A 
ATOM     52  C   UNL A   1      36.024  32.409  28.410  1.00  0.00     0.055 A 
ATOM     53  C   UNL A   1      35.499  30.138  28.035  1.00  0.00     0.041 A 
ATOM     54  F   UNL A   1      36.663  28.627  29.252  1.00  0.00    -0.206 F 
ATOM     55  C   UNL A   1      35.170  31.451  27.857  1.00  0.00     0.022 A 
BRANCH  52  56
ATOM     56  S   UNL A   1      35.274  34.020  28.786  1.00  0.00     0.124 S 
ATOM     57  O   UNL A   1      34.348  33.648  29.850  1.00  0.00    -0.237 OA
ATOM     58  O   UNL A   1      36.433  34.809  29.179  1.00  0.00    -0.237 OA
ATOM     59  O   UNL A   1      34.647  34.413  27.525  1.00  0.00    -0.744 OA
ENDBRANCH  52  56
ENDBRANCH  25  49
BRANCH  37  60
ATOM     60  C   UNL A   1      39.410  32.096  35.739  1.00  0.00     0.023 A 
ATOM     61  C   UNL A   1      39.861  33.414  35.871  1.00  0.00     0.031 A 
ATOM     62  C   UNL A   1      38.354  31.652  36.549  1.00  0.00     0.131 A 
ATOM     63  C   UNL A   1      39.268  34.252  36.818  1.00  0.00     0.055 A 
ATOM     64  C   UNL A   1      37.728  32.508  37.451  1.00  0.00     0.041 A 
ATOM     65  F   UNL A   1      37.891  30.396  36.444  1.00  0.00    -0.206 F 
ATOM     66  C   UNL A   1      38.191  33.816  37.595  1.00  0.00     0.022 A 
BRANCH  63  67
ATOM     67  S   UNL A   1      39.982  35.895  37.065  1.00  0.00     0.124 S 
ATOM     68  O   UNL A   1      39.658  36.559  35.806  1.00  0.00    -0.237 OA
ATOM     69  O   UNL A   1      39.264  36.373  38.241  1.00  0.00    -0.237 OA
ATOM     70  O   UNL A   1      41.402  35.618  37.273  1.00  0.00    -0.744 OA
ENDBRANCH  63  67
ENDBRANCH  37  60
ENDBRANCH  11  12
ENDBRANCH   4   6
ENDBRANCH   3   4
ENDBRANCH   2   3
ENDBRANCH   1   2
BRANCH   1  71
ATOM     71  O   UNL A   1      41.303  20.591  26.385  1.00  0.00    -0.458 OA
BRANCH  71  72
ATOM     72  C   UNL A   1      40.749  21.530  27.204  1.00  0.00     0.338 C 
ATOM     73  O   UNL A   1      41.146  21.846  28.313  1.00  0.00    -0.246 OA
BRANCH  72  74
ATOM     74  C   UNL A   1      39.599  22.182  26.528  1.00  0.00     0.060 A 
ATOM     75  C   UNL A   1      38.789  21.432  25.679  1.00  0.00     0.016 A 
ATOM     76  C   UNL A   1      39.307  23.530  26.712  1.00  0.00     0.016 A 
ATOM     77  C   UNL A   1      37.604  21.976  25.156  1.00  0.00     0.005 A 
ATOM     78  C   UNL A   1      38.131  24.079  26.153  1.00  0.00     0.005 A 
ATOM     79  C   UNL A   1      37.205  23.290  25.439  1.00  0.00    -0.039 A 
BRANCH  79  80
ATOM     80  C   UNL A   1      35.829  23.816  24.957  1.00  0.00     0.074 C 
ATOM     81  C   UNL A   1      35.353  23.169  23.631  1.00  0.00     0.020 C 
ATOM     82  C   UNL A   1      34.701  23.608  25.986  1.00  0.00     0.270 C 
ATOM     83  C   UNL A   1      33.947  23.624  23.228  1.00  0.00     0.062 C 
ATOM     84  N   UNL A   1      33.344  23.938  25.533  1.00  0.00    -0.333 N 
ATOM     85  C   UNL A   1      32.949  23.267  24.307  1.00  0.00     0.262 C 
ATOM     86  H   UNL A   1      33.349  24.936  25.325  1.00  0.00     0.348 HD
BRANCH  84  87
ATOM     87  C   UNL A   1      32.382  23.627  26.591  1.00  0.00     0.284 C 
BRANCH  87  88
ATOM     88  C   UNL A   1      30.921  24.174  26.511  1.00  0.00     0.180 C 
BRANCH  88  89
ATOM     89  N   UNL A   1      30.516  25.407  25.732  1.00  0.00    -0.337 N 
ATOM     90  C   UNL A   1      30.116  25.595  23.729  1.00  0.00     0.120 C 
ATOM     91  C   UNL A   1      31.170  27.043  26.446  1.00  0.00     0.222 C 
ATOM     92  C   UNL A   1      30.686  27.478  23.202  1.00  0.00     0.031 C 
ATOM     93  C   UNL A   1      31.427  28.360  24.864  1.00  0.00     0.102 C 
ATOM     94  O   UNL A   1      31.324  27.349  27.622  1.00  0.00    -0.275 OA
ENDBRANCH  88  89
ENDBRANCH  87  88
ENDBRANCH  84  87
ENDBRANCH  79  80
ENDBRANCH  72  74
ENDBRANCH  71  72
ENDBRANCH   1  71
TORSDOF 18
ENDMDL
