MODEL 1
REMARK VINA RESULT:     -10.6      0.000      0.000
REMARK SMILES CCC(CC)(CC)NC(=O)NC[C@@H]1CC[C@H](C(=O)OCCOC(=O)c2ccc(-c3c4nc(c(-c5cc(S(=O)(=O)[O-])ccc5F)c5ccc([nH]5)c(-c5cc(S(=O)(=O)[O-])ccc5F)c5nc(c(-c6cc(S(=O)(=O)[O-])ccc6F)c6ccc3[nH]6)C=C5)C=C4)cc2)O1
REMARK SMILES IDX 20 1 19 2 17 3 18 4 16 5 13 6 14 7 88 8 15 9 12 10 11 11
REMARK SMILES IDX 8 12 9 13 10 15 3 17 2 18 1 19 4 20 5 21 6 22 7 23 21 24
REMARK SMILES IDX 22 25 23 26 24 27 25 28 26 29 87 30 27 31 86 32 28 33 29 34
REMARK SMILES IDX 30 35 80 36 31 37 85 38 79 39 81 40 32 41 84 42 78 43 77 44
REMARK SMILES IDX 33 46 65 47 45 48 64 49 46 50 49 51 63 52 82 53 47 54 48 55
REMARK SMILES IDX 62 57 83 58 50 59 34 60 35 61 43 62 36 63 42 64 44 65 41 66
REMARK SMILES IDX 37 67 38 68 39 69 40 70 66 71 67 72 75 73 68 74 74 75 76 76
REMARK SMILES IDX 73 77 69 78 70 79 71 80 72 81 51 82 52 83 60 84 53 85 59 86
REMARK SMILES IDX 61 87 58 88 54 89 55 90 56 91 57 92
REMARK H PARENT 8 14 11 16 81 45 49 56
REMARK Flexibility Score: inf
ROOT
ATOM      1  C   UNL A   1      36.702  22.846  23.712  1.00  0.00     0.274 C 
ENDROOT
BRANCH   1   2
ATOM      2  O   UNL A   1      35.324  22.906  23.306  1.00  0.00    -0.460 OA
BRANCH   2   3
ATOM      3  C   UNL A   1      34.407  22.905  24.314  1.00  0.00     0.335 C 
ATOM      4  O   UNL A   1      34.394  23.717  25.232  1.00  0.00    -0.249 OA
BRANCH   3   5
ATOM      5  C   UNL A   1      33.406  21.748  24.196  1.00  0.00     0.228 C 
ATOM      6  C   UNL A   1      31.259  22.600  23.924  1.00  0.00     0.138 C 
ATOM      7  C   UNL A   1      31.466  22.338  25.411  1.00  0.00     0.037 C 
ATOM      8  O   UNL A   1      32.397  22.066  23.241  1.00  0.00    -0.361 OA
ATOM      9  C   UNL A   1      32.636  21.380  25.445  1.00  0.00     0.047 C 
BRANCH   6  10
ATOM     10  C   UNL A   1      31.007  24.077  23.538  1.00  0.00     0.149 C 
BRANCH  10  11
ATOM     11  N   UNL A   1      31.712  24.573  22.367  1.00  0.00    -0.336 N 
ATOM     12  N   UNL A   1      32.865  26.627  22.809  1.00  0.00    -0.333 N 
ATOM     13  C   UNL A   1      32.603  25.527  22.108  1.00  0.00     0.315 C 
ATOM     14  H   UNL A   1      33.659  27.064  22.427  1.00  0.00     0.165 HD
ATOM     15  O   UNL A   1      33.277  25.371  21.081  1.00  0.00    -0.249 OA
ATOM     16  H   UNL A   1      31.466  24.074  21.555  1.00  0.00     0.165 HD
BRANCH  12  17
ATOM     17  C   UNL A   1      32.387  27.434  23.966  1.00  0.00     0.041 C 
BRANCH  17  18
ATOM     18  C   UNL A   1      30.895  27.822  23.887  1.00  0.00     0.025 C 
ATOM     19  C   UNL A   1      30.386  28.095  22.470  1.00  0.00     0.006 C 
ENDBRANCH  17  18
BRANCH  17  20
ATOM     20  C   UNL A   1      33.226  28.778  23.936  1.00  0.00     0.025 C 
ATOM     21  C   UNL A   1      34.172  28.949  22.745  1.00  0.00     0.006 C 
ENDBRANCH  17  20
BRANCH  17  22
ATOM     22  C   UNL A   1      32.754  26.737  25.319  1.00  0.00     0.025 C 
ATOM     23  C   UNL A   1      31.632  26.353  26.273  1.00  0.00     0.006 C 
ENDBRANCH  17  22
ENDBRANCH  12  17
ENDBRANCH  10  11
ENDBRANCH   6  10
ENDBRANCH   3   5
ENDBRANCH   2   3
ENDBRANCH   1   2
BRANCH   1  24
ATOM     24  C   UNL A   1      36.992  21.546  24.466  1.00  0.00     0.275 C 
BRANCH  24  25
ATOM     25  O   UNL A   1      37.441  21.795  25.810  1.00  0.00    -0.458 OA
BRANCH  25  26
ATOM     26  C   UNL A   1      38.761  21.585  26.030  1.00  0.00     0.338 C 
ATOM     27  O   UNL A   1      39.406  20.590  25.753  1.00  0.00    -0.246 OA
BRANCH  26  28
ATOM     28  C   UNL A   1      39.361  22.791  26.610  1.00  0.00     0.060 A 
ATOM     29  C   UNL A   1      38.992  24.047  26.121  1.00  0.00     0.016 A 
ATOM     30  C   UNL A   1      40.362  22.665  27.572  1.00  0.00     0.016 A 
ATOM     31  C   UNL A   1      39.636  25.191  26.585  1.00  0.00     0.010 A 
ATOM     32  C   UNL A   1      40.984  23.816  28.058  1.00  0.00     0.010 A 
ATOM     33  C   UNL A   1      40.632  25.084  27.561  1.00  0.00    -0.014 A 
BRANCH  33  34
ATOM     34  C   UNL A   1      41.332  26.290  28.063  1.00  0.00     0.031 A 
ATOM     35  C   UNL A   1      40.555  27.349  28.790  1.00  0.00     0.074 A 
ATOM     36  C   UNL A   1      42.645  26.450  27.815  1.00  0.00     0.049 A 
ATOM     37  N   UNL A   1      40.915  28.560  29.122  1.00  0.00    -0.248 NA
ATOM     38  C   UNL A   1      39.182  26.996  29.177  1.00  0.00     0.031 C 
ATOM     39  C   UNL A   1      43.504  25.466  27.155  1.00  0.00     0.029 A 
ATOM     40  N   UNL A   1      43.479  27.511  28.061  1.00  0.00    -0.354 N 
ATOM     41  C   UNL A   1      39.802  29.133  29.727  1.00  0.00     0.074 A 
ATOM     42  C   UNL A   1      38.751  28.136  29.698  1.00  0.00     0.031 C 
ATOM     43  C   UNL A   1      44.739  25.978  27.028  1.00  0.00     0.029 A 
ATOM     44  C   UNL A   1      44.739  27.346  27.536  1.00  0.00     0.049 A 
ATOM     45  H   UNL A   1      43.201  28.312  28.563  1.00  0.00     0.167 HD
ATOM     46  C   UNL A   1      39.675  30.378  30.249  1.00  0.00     0.034 A 
ATOM     47  C   UNL A   1      45.760  28.218  27.425  1.00  0.00     0.034 A 
ATOM     48  C   UNL A   1      40.745  31.348  30.266  1.00  0.00     0.049 A 
ATOM     49  C   UNL A   1      45.580  29.615  27.957  1.00  0.00     0.074 A 
ATOM     50  C   UNL A   1      40.743  32.628  30.793  1.00  0.00     0.029 A 
ATOM     51  N   UNL A   1      42.009  31.147  29.722  1.00  0.00    -0.354 N 
ATOM     52  N   UNL A   1      44.521  30.156  28.515  1.00  0.00    -0.248 NA
ATOM     53  C   UNL A   1      46.730  30.519  27.847  1.00  0.00     0.031 C 
ATOM     54  C   UNL A   1      41.978  33.223  30.508  1.00  0.00     0.029 A 
ATOM     55  C   UNL A   1      42.781  32.290  29.873  1.00  0.00     0.049 A 
ATOM     56  H   UNL A   1      42.312  30.314  29.292  1.00  0.00     0.167 HD
ATOM     57  C   UNL A   1      44.888  31.457  28.845  1.00  0.00     0.074 A 
ATOM     58  C   UNL A   1      46.268  31.614  28.433  1.00  0.00     0.031 C 
ATOM     59  C   UNL A   1      44.154  32.431  29.442  1.00  0.00     0.034 A 
BRANCH  46  60
ATOM     60  C   UNL A   1      38.316  30.776  30.776  1.00  0.00     0.023 A 
ATOM     61  C   UNL A   1      37.350  31.393  29.963  1.00  0.00     0.031 A 
ATOM     62  C   UNL A   1      37.999  30.567  32.131  1.00  0.00     0.131 A 
ATOM     63  C   UNL A   1      36.147  31.847  30.527  1.00  0.00     0.055 A 
ATOM     64  C   UNL A   1      36.767  30.949  32.668  1.00  0.00     0.041 A 
ATOM     65  F   UNL A   1      38.888  30.004  32.964  1.00  0.00    -0.206 F 
ATOM     66  C   UNL A   1      35.839  31.607  31.868  1.00  0.00     0.022 A 
BRANCH  63  67
ATOM     67  S   UNL A   1      35.053  32.887  29.518  1.00  0.00     0.124 S 
ATOM     68  O   UNL A   1      34.163  33.449  30.530  1.00  0.00    -0.237 OA
ATOM     69  O   UNL A   1      35.988  33.818  28.898  1.00  0.00    -0.237 OA
ATOM     70  O   UNL A   1      34.422  31.935  28.605  1.00  0.00    -0.744 OA
ENDBRANCH  63  67
ENDBRANCH  46  60
BRANCH  47  71
ATOM     71  C   UNL A   1      47.012  27.815  26.726  1.00  0.00     0.023 A 
ATOM     72  C   UNL A   1      47.127  27.897  25.331  1.00  0.00     0.031 A 
ATOM     73  C   UNL A   1      48.113  27.321  27.452  1.00  0.00     0.131 A 
ATOM     74  C   UNL A   1      48.303  27.464  24.700  1.00  0.00     0.055 A 
ATOM     75  C   UNL A   1      49.299  26.939  26.824  1.00  0.00     0.041 A 
ATOM     76  F   UNL A   1      48.055  27.223  28.789  1.00  0.00    -0.206 F 
ATOM     77  C   UNL A   1      49.395  27.000  25.438  1.00  0.00     0.022 A 
BRANCH  74  78
ATOM     78  S   UNL A   1      48.362  27.452  22.887  1.00  0.00     0.124 S 
ATOM     79  O   UNL A   1      48.301  26.024  22.597  1.00  0.00    -0.237 OA
ATOM     80  O   UNL A   1      47.177  28.229  22.539  1.00  0.00    -0.237 OA
ATOM     81  O   UNL A   1      49.638  28.096  22.584  1.00  0.00    -0.744 OA
ENDBRANCH  74  78
ENDBRANCH  47  71
BRANCH  59  82
ATOM     82  C   UNL A   1      44.857  33.735  29.728  1.00  0.00     0.023 A 
ATOM     83  C   UNL A   1      44.871  34.790  28.800  1.00  0.00     0.031 A 
ATOM     84  C   UNL A   1      45.528  33.917  30.950  1.00  0.00     0.131 A 
ATOM     85  C   UNL A   1      45.586  35.963  29.088  1.00  0.00     0.055 A 
ATOM     86  C   UNL A   1      46.190  35.107  31.254  1.00  0.00     0.041 A 
ATOM     87  F   UNL A   1      45.548  32.940  31.871  1.00  0.00    -0.206 F 
ATOM     88  C   UNL A   1      46.231  36.134  30.316  1.00  0.00     0.022 A 
BRANCH  85  89
ATOM     89  S   UNL A   1      45.729  37.237  27.805  1.00  0.00     0.124 S 
ATOM     90  O   UNL A   1      45.543  36.460  26.584  1.00  0.00    -0.237 OA
ATOM     91  O   UNL A   1      44.644  38.151  28.149  1.00  0.00    -0.237 OA
ATOM     92  O   UNL A   1      47.075  37.772  28.001  1.00  0.00    -0.744 OA
ENDBRANCH  85  89
ENDBRANCH  59  82
ENDBRANCH  33  34
ENDBRANCH  26  28
ENDBRANCH  25  26
ENDBRANCH  24  25
ENDBRANCH   1  24
TORSDOF 20
ENDMDL
MODEL 2
REMARK VINA RESULT:     -10.5      1.706      2.204
REMARK SMILES CCC(CC)(CC)NC(=O)NC[C@@H]1CC[C@H](C(=O)OCCOC(=O)c2ccc(-c3c4nc(c(-c5cc(S(=O)(=O)[O-])ccc5F)c5ccc([nH]5)c(-c5cc(S(=O)(=O)[O-])ccc5F)c5nc(c(-c6cc(S(=O)(=O)[O-])ccc6F)c6ccc3[nH]6)C=C5)C=C4)cc2)O1
REMARK SMILES IDX 20 1 19 2 17 3 18 4 16 5 13 6 14 7 88 8 15 9 12 10 11 11
REMARK SMILES IDX 8 12 9 13 10 15 3 17 2 18 1 19 4 20 5 21 6 22 7 23 21 24
REMARK SMILES IDX 22 25 23 26 24 27 25 28 26 29 87 30 27 31 86 32 28 33 29 34
REMARK SMILES IDX 30 35 80 36 31 37 85 38 79 39 81 40 32 41 84 42 78 43 77 44
REMARK SMILES IDX 33 46 65 47 45 48 64 49 46 50 49 51 63 52 82 53 47 54 48 55
REMARK SMILES IDX 62 57 83 58 50 59 34 60 35 61 43 62 36 63 42 64 44 65 41 66
REMARK SMILES IDX 37 67 38 68 39 69 40 70 66 71 67 72 75 73 68 74 74 75 76 76
REMARK SMILES IDX 73 77 69 78 70 79 71 80 72 81 51 82 52 83 60 84 53 85 59 86
REMARK SMILES IDX 61 87 58 88 54 89 55 90 56 91 57 92
REMARK H PARENT 8 14 11 16 81 45 49 56
REMARK Flexibility Score: inf
ROOT
ATOM      1  C   UNL A   1      35.941  22.322  23.874  1.00  0.00     0.274 C 
ENDROOT
BRANCH   1   2
ATOM      2  O   UNL A   1      34.850  22.591  24.772  1.00  0.00    -0.460 OA
BRANCH   2   3
ATOM      3  C   UNL A   1      33.651  22.039  24.434  1.00  0.00     0.335 C 
ATOM      4  O   UNL A   1      33.152  22.113  23.316  1.00  0.00    -0.249 OA
BRANCH   3   5
ATOM      5  C   UNL A   1      32.971  21.341  25.618  1.00  0.00     0.228 C 
ATOM      6  C   UNL A   1      31.557  22.840  26.698  1.00  0.00     0.138 C 
ATOM      7  C   UNL A   1      32.899  22.870  27.420  1.00  0.00     0.037 C 
ATOM      8  O   UNL A   1      31.621  21.780  25.738  1.00  0.00    -0.361 OA
ATOM      9  C   UNL A   1      33.566  21.583  26.987  1.00  0.00     0.047 C 
BRANCH   6  10
ATOM     10  C   UNL A   1      31.124  24.173  26.044  1.00  0.00     0.149 C 
BRANCH  10  11
ATOM     11  N   UNL A   1      31.397  25.387  26.799  1.00  0.00    -0.336 N 
ATOM     12  N   UNL A   1      31.451  27.329  25.396  1.00  0.00    -0.333 N 
ATOM     13  C   UNL A   1      31.372  26.696  26.564  1.00  0.00     0.315 C 
ATOM     14  H   UNL A   1      31.278  28.286  25.543  1.00  0.00     0.165 HD
ATOM     15  O   UNL A   1      31.258  27.421  27.561  1.00  0.00    -0.249 OA
ATOM     16  H   UNL A   1      31.672  25.187  27.722  1.00  0.00     0.165 HD
BRANCH  12  17
ATOM     17  C   UNL A   1      31.709  27.108  23.946  1.00  0.00     0.041 C 
BRANCH  17  18
ATOM     18  C   UNL A   1      32.892  26.159  23.657  1.00  0.00     0.025 C 
ATOM     19  C   UNL A   1      32.837  25.477  22.288  1.00  0.00     0.006 C 
ENDBRANCH  17  18
BRANCH  17  20
ATOM     20  C   UNL A   1      32.088  28.527  23.351  1.00  0.00     0.025 C 
ATOM     21  C   UNL A   1      33.554  28.941  23.488  1.00  0.00     0.006 C 
ENDBRANCH  17  20
BRANCH  17  22
ATOM     22  C   UNL A   1      30.398  26.676  23.208  1.00  0.00     0.025 C 
ATOM     23  C   UNL A   1      29.205  27.620  23.221  1.00  0.00     0.006 C 
ENDBRANCH  17  22
ENDBRANCH  12  17
ENDBRANCH  10  11
ENDBRANCH   6  10
ENDBRANCH   3   5
ENDBRANCH   2   3
ENDBRANCH   1   2
BRANCH   1  24
ATOM     24  C   UNL A   1      36.813  21.181  24.402  1.00  0.00     0.275 C 
BRANCH  24  25
ATOM     25  O   UNL A   1      37.308  21.455  25.726  1.00  0.00    -0.458 OA
BRANCH  25  26
ATOM     26  C   UNL A   1      38.624  21.198  25.918  1.00  0.00     0.338 C 
ATOM     27  O   UNL A   1      39.228  20.181  25.628  1.00  0.00    -0.246 OA
BRANCH  26  28
ATOM     28  C   UNL A   1      39.279  22.383  26.483  1.00  0.00     0.060 A 
ATOM     29  C   UNL A   1      38.853  23.656  26.094  1.00  0.00     0.016 A 
ATOM     30  C   UNL A   1      40.379  22.224  27.324  1.00  0.00     0.016 A 
ATOM     31  C   UNL A   1      39.538  24.784  26.536  1.00  0.00     0.010 A 
ATOM     32  C   UNL A   1      41.046  23.357  27.790  1.00  0.00     0.010 A 
ATOM     33  C   UNL A   1      40.636  24.643  27.392  1.00  0.00    -0.014 A 
BRANCH  33  34
ATOM     34  C   UNL A   1      41.381  25.832  27.870  1.00  0.00     0.031 A 
ATOM     35  C   UNL A   1      40.660  26.898  28.643  1.00  0.00     0.074 A 
ATOM     36  C   UNL A   1      42.683  25.971  27.558  1.00  0.00     0.049 A 
ATOM     37  N   UNL A   1      41.057  28.099  28.967  1.00  0.00    -0.248 NA
ATOM     38  C   UNL A   1      39.301  26.565  29.094  1.00  0.00     0.031 C 
ATOM     39  C   UNL A   1      43.491  24.979  26.848  1.00  0.00     0.029 A 
ATOM     40  N   UNL A   1      43.546  27.016  27.771  1.00  0.00    -0.354 N 
ATOM     41  C   UNL A   1      39.985  28.686  29.630  1.00  0.00     0.074 A 
ATOM     42  C   UNL A   1      38.917  27.708  29.646  1.00  0.00     0.031 C 
ATOM     43  C   UNL A   1      44.727  25.471  26.665  1.00  0.00     0.029 A 
ATOM     44  C   UNL A   1      44.777  26.834  27.183  1.00  0.00     0.049 A 
ATOM     45  H   UNL A   1      43.308  27.816  28.293  1.00  0.00     0.167 HD
ATOM     46  C   UNL A   1      39.906  29.928  30.169  1.00  0.00     0.034 A 
ATOM     47  C   UNL A   1      45.806  27.689  27.029  1.00  0.00     0.034 A 
ATOM     48  C   UNL A   1      40.994  30.879  30.141  1.00  0.00     0.049 A 
ATOM     49  C   UNL A   1      45.677  29.084  27.582  1.00  0.00     0.074 A 
ATOM     50  C   UNL A   1      41.041  32.154  30.678  1.00  0.00     0.029 A 
ATOM     51  N   UNL A   1      42.226  30.661  29.533  1.00  0.00    -0.354 N 
ATOM     52  N   UNL A   1      44.656  29.638  28.196  1.00  0.00    -0.248 NA
ATOM     53  C   UNL A   1      46.837  29.968  27.423  1.00  0.00     0.031 C 
ATOM     54  C   UNL A   1      42.271  32.729  30.337  1.00  0.00     0.029 A 
ATOM     55  C   UNL A   1      43.025  31.789  29.655  1.00  0.00     0.049 A 
ATOM     56  H   UNL A   1      42.492  29.827  29.082  1.00  0.00     0.167 HD
ATOM     57  C   UNL A   1      45.063  30.929  28.518  1.00  0.00     0.074 A 
ATOM     58  C   UNL A   1      46.424  31.066  28.039  1.00  0.00     0.031 C 
ATOM     59  C   UNL A   1      44.376  31.910  29.159  1.00  0.00     0.034 A 
BRANCH  46  60
ATOM     60  C   UNL A   1      38.583  30.345  30.766  1.00  0.00     0.023 A 
ATOM     61  C   UNL A   1      37.578  30.960  30.000  1.00  0.00     0.031 A 
ATOM     62  C   UNL A   1      38.340  30.156  32.139  1.00  0.00     0.131 A 
ATOM     63  C   UNL A   1      36.412  31.431  30.624  1.00  0.00     0.055 A 
ATOM     64  C   UNL A   1      37.144  30.556  32.738  1.00  0.00     0.041 A 
ATOM     65  F   UNL A   1      39.270  29.596  32.928  1.00  0.00    -0.206 F 
ATOM     66  C   UNL A   1      36.177  31.212  31.983  1.00  0.00     0.022 A 
BRANCH  63  67
ATOM     67  S   UNL A   1      35.272  32.468  29.664  1.00  0.00     0.124 S 
ATOM     68  O   UNL A   1      36.175  33.482  29.127  1.00  0.00    -0.237 OA
ATOM     69  O   UNL A   1      34.724  31.523  28.698  1.00  0.00    -0.237 OA
ATOM     70  O   UNL A   1      34.326  32.956  30.666  1.00  0.00    -0.744 OA
ENDBRANCH  63  67
ENDBRANCH  46  60
BRANCH  47  71
ATOM     71  C   UNL A   1      47.015  27.270  26.267  1.00  0.00     0.023 A 
ATOM     72  C   UNL A   1      48.065  26.579  26.889  1.00  0.00     0.031 A 
ATOM     73  C   UNL A   1      47.143  27.574  24.898  1.00  0.00     0.131 A 
ATOM     74  C   UNL A   1      49.211  26.241  26.153  1.00  0.00     0.055 A 
ATOM     75  C   UNL A   1      48.263  27.191  24.159  1.00  0.00     0.041 A 
ATOM     76  F   UNL A   1      46.166  28.233  24.255  1.00  0.00    -0.206 F 
ATOM     77  C   UNL A   1      49.310  26.529  24.790  1.00  0.00     0.022 A 
BRANCH  74  78
ATOM     78  S   UNL A   1      50.606  25.476  27.023  1.00  0.00     0.124 S 
ATOM     79  O   UNL A   1      51.526  25.200  25.925  1.00  0.00    -0.237 OA
ATOM     80  O   UNL A   1      51.006  26.533  27.947  1.00  0.00    -0.237 OA
ATOM     81  O   UNL A   1      50.011  24.296  27.649  1.00  0.00    -0.744 OA
ENDBRANCH  74  78
ENDBRANCH  47  71
BRANCH  59  82
ATOM     82  C   UNL A   1      45.116  33.199  29.421  1.00  0.00     0.023 A 
ATOM     83  C   UNL A   1      45.016  34.302  28.554  1.00  0.00     0.031 A 
ATOM     84  C   UNL A   1      45.938  33.318  30.555  1.00  0.00     0.131 A 
ATOM     85  C   UNL A   1      45.767  35.459  28.811  1.00  0.00     0.055 A 
ATOM     86  C   UNL A   1      46.639  34.492  30.834  1.00  0.00     0.041 A 
ATOM     87  F   UNL A   1      46.070  32.294  31.414  1.00  0.00    -0.206 F 
ATOM     88  C   UNL A   1      46.564  35.567  29.953  1.00  0.00     0.022 A 
BRANCH  85  89
ATOM     89  S   UNL A   1      45.751  36.799  27.588  1.00  0.00     0.124 S 
ATOM     90  O   UNL A   1      46.968  36.531  26.828  1.00  0.00    -0.237 OA
ATOM     91  O   UNL A   1      44.495  36.564  26.882  1.00  0.00    -0.237 OA
ATOM     92  O   UNL A   1      45.784  38.010  28.405  1.00  0.00    -0.744 OA
ENDBRANCH  85  89
ENDBRANCH  59  82
ENDBRANCH  33  34
ENDBRANCH  26  28
ENDBRANCH  25  26
ENDBRANCH  24  25
ENDBRANCH   1  24
TORSDOF 20
ENDMDL
MODEL 3
REMARK VINA RESULT:     -10.4      1.537      2.009
REMARK SMILES CCC(CC)(CC)NC(=O)NC[C@@H]1CC[C@H](C(=O)OCCOC(=O)c2ccc(-c3c4nc(c(-c5cc(S(=O)(=O)[O-])ccc5F)c5ccc([nH]5)c(-c5cc(S(=O)(=O)[O-])ccc5F)c5nc(c(-c6cc(S(=O)(=O)[O-])ccc6F)c6ccc3[nH]6)C=C5)C=C4)cc2)O1
REMARK SMILES IDX 20 1 19 2 17 3 18 4 16 5 13 6 14 7 88 8 15 9 12 10 11 11
REMARK SMILES IDX 8 12 9 13 10 15 3 17 2 18 1 19 4 20 5 21 6 22 7 23 21 24
REMARK SMILES IDX 22 25 23 26 24 27 25 28 26 29 87 30 27 31 86 32 28 33 29 34
REMARK SMILES IDX 30 35 80 36 31 37 85 38 79 39 81 40 32 41 84 42 78 43 77 44
REMARK SMILES IDX 33 46 65 47 45 48 64 49 46 50 49 51 63 52 82 53 47 54 48 55
REMARK SMILES IDX 62 57 83 58 50 59 34 60 35 61 43 62 36 63 42 64 44 65 41 66
REMARK SMILES IDX 37 67 38 68 39 69 40 70 66 71 67 72 75 73 68 74 74 75 76 76
REMARK SMILES IDX 73 77 69 78 70 79 71 80 72 81 51 82 52 83 60 84 53 85 59 86
REMARK SMILES IDX 61 87 58 88 54 89 55 90 56 91 57 92
REMARK H PARENT 8 14 11 16 81 45 49 56
REMARK Flexibility Score: inf
ROOT
ATOM      1  C   UNL A   1      36.607  22.610  24.156  1.00  0.00     0.274 C 
ENDROOT
BRANCH   1   2
ATOM      2  O   UNL A   1      35.209  22.459  24.457  1.00  0.00    -0.460 OA
BRANCH   2   3
ATOM      3  C   UNL A   1      34.344  22.951  23.527  1.00  0.00     0.335 C 
ATOM      4  O   UNL A   1      34.679  23.335  22.412  1.00  0.00    -0.249 OA
BRANCH   3   5
ATOM      5  C   UNL A   1      32.899  23.010  24.041  1.00  0.00     0.228 C 
ATOM      6  C   UNL A   1      32.498  25.090  25.001  1.00  0.00     0.138 C 
ATOM      7  C   UNL A   1      32.911  24.138  26.118  1.00  0.00     0.037 C 
ATOM      8  O   UNL A   1      32.349  24.305  23.815  1.00  0.00    -0.361 OA
ATOM      9  C   UNL A   1      32.690  22.767  25.519  1.00  0.00     0.047 C 
BRANCH   6  10
ATOM     10  C   UNL A   1      33.442  26.294  24.772  1.00  0.00     0.149 C 
BRANCH  10  11
ATOM     11  N   UNL A   1      33.698  26.665  23.389  1.00  0.00    -0.336 N 
ATOM     12  N   UNL A   1      32.124  28.282  22.580  1.00  0.00    -0.333 N 
ATOM     13  C   UNL A   1      33.263  27.594  22.541  1.00  0.00     0.315 C 
ATOM     14  H   UNL A   1      32.152  28.979  21.886  1.00  0.00     0.165 HD
ATOM     15  O   UNL A   1      34.016  27.854  21.593  1.00  0.00    -0.249 OA
ATOM     16  H   UNL A   1      34.367  26.076  22.972  1.00  0.00     0.165 HD
BRANCH  12  17
ATOM     17  C   UNL A   1      30.822  28.374  23.297  1.00  0.00     0.041 C 
BRANCH  17  18
ATOM     18  C   UNL A   1      29.892  27.163  23.068  1.00  0.00     0.025 C 
ATOM     19  C   UNL A   1      29.503  26.413  24.344  1.00  0.00     0.006 C 
ENDBRANCH  17  18
BRANCH  17  20
ATOM     20  C   UNL A   1      30.090  29.649  22.707  1.00  0.00     0.025 C 
ATOM     21  C   UNL A   1      28.629  29.451  22.295  1.00  0.00     0.006 C 
ENDBRANCH  17  20
BRANCH  17  22
ATOM     22  C   UNL A   1      31.045  28.680  24.816  1.00  0.00     0.025 C 
ATOM     23  C   UNL A   1      31.520  30.067  25.222  1.00  0.00     0.006 C 
ENDBRANCH  17  22
ENDBRANCH  12  17
ENDBRANCH  10  11
ENDBRANCH   6  10
ENDBRANCH   3   5
ENDBRANCH   2   3
ENDBRANCH   1   2
BRANCH   1  24
ATOM     24  C   UNL A   1      37.403  21.399  24.646  1.00  0.00     0.275 C 
BRANCH  24  25
ATOM     25  O   UNL A   1      37.849  21.564  26.004  1.00  0.00    -0.458 OA
BRANCH  25  26
ATOM     26  C   UNL A   1      39.181  21.422  26.200  1.00  0.00     0.338 C 
ATOM     27  O   UNL A   1      39.871  20.459  25.916  1.00  0.00    -0.246 OA
BRANCH  26  28
ATOM     28  C   UNL A   1      39.731  22.661  26.761  1.00  0.00     0.060 A 
ATOM     29  C   UNL A   1      39.287  23.893  26.275  1.00  0.00     0.016 A 
ATOM     30  C   UNL A   1      40.758  22.593  27.701  1.00  0.00     0.016 A 
ATOM     31  C   UNL A   1      39.880  25.072  26.718  1.00  0.00     0.010 A 
ATOM     32  C   UNL A   1      41.331  23.777  28.167  1.00  0.00     0.010 A 
ATOM     33  C   UNL A   1      40.903  25.022  27.672  1.00  0.00    -0.014 A 
BRANCH  33  34
ATOM     34  C   UNL A   1      41.549  26.265  28.153  1.00  0.00     0.031 A 
ATOM     35  C   UNL A   1      40.729  27.299  28.868  1.00  0.00     0.074 A 
ATOM     36  C   UNL A   1      42.853  26.481  27.896  1.00  0.00     0.049 A 
ATOM     37  N   UNL A   1      41.035  28.530  29.181  1.00  0.00    -0.248 NA
ATOM     38  C   UNL A   1      39.375  26.891  29.268  1.00  0.00     0.031 C 
ATOM     39  C   UNL A   1      43.752  25.526  27.246  1.00  0.00     0.029 A 
ATOM     40  N   UNL A   1      43.639  27.582  28.121  1.00  0.00    -0.354 N 
ATOM     41  C   UNL A   1      39.900  29.062  29.782  1.00  0.00     0.074 A 
ATOM     42  C   UNL A   1      38.895  28.018  29.774  1.00  0.00     0.031 C 
ATOM     43  C   UNL A   1      44.962  26.092  27.105  1.00  0.00     0.029 A 
ATOM     44  C   UNL A   1      44.904  27.466  27.593  1.00  0.00     0.049 A 
ATOM     45  H   UNL A   1      43.328  28.376  28.613  1.00  0.00     0.167 HD
ATOM     46  C   UNL A   1      39.720  30.307  30.287  1.00  0.00     0.034 A 
ATOM     47  C   UNL A   1      45.883  28.381  27.463  1.00  0.00     0.034 A 
ATOM     48  C   UNL A   1      40.746  31.325  30.285  1.00  0.00     0.049 A 
ATOM     49  C   UNL A   1      45.643  29.776  27.976  1.00  0.00     0.074 A 
ATOM     50  C   UNL A   1      40.689  32.611  30.793  1.00  0.00     0.029 A 
ATOM     51  N   UNL A   1      42.015  31.172  29.736  1.00  0.00    -0.354 N 
ATOM     52  N   UNL A   1      44.563  30.277  28.532  1.00  0.00    -0.248 NA
ATOM     53  C   UNL A   1      46.752  30.729  27.847  1.00  0.00     0.031 C 
ATOM     54  C   UNL A   1      41.895  33.256  30.492  1.00  0.00     0.029 A 
ATOM     55  C   UNL A   1      42.736  32.350  29.867  1.00  0.00     0.049 A 
ATOM     56  H   UNL A   1      42.353  30.348  29.318  1.00  0.00     0.167 HD
ATOM     57  C   UNL A   1      44.874  31.598  28.841  1.00  0.00     0.074 A 
ATOM     58  C   UNL A   1      46.243  31.811  28.419  1.00  0.00     0.031 C 
ATOM     59  C   UNL A   1      44.099  32.546  29.427  1.00  0.00     0.034 A 
BRANCH  46  60
ATOM     60  C   UNL A   1      38.348  30.652  30.816  1.00  0.00     0.023 A 
ATOM     61  C   UNL A   1      37.370  31.266  30.014  1.00  0.00     0.031 A 
ATOM     62  C   UNL A   1      38.027  30.395  32.161  1.00  0.00     0.131 A 
ATOM     63  C   UNL A   1      36.151  31.669  30.581  1.00  0.00     0.055 A 
ATOM     64  C   UNL A   1      36.782  30.726  32.699  1.00  0.00     0.041 A 
ATOM     65  F   UNL A   1      38.926  29.832  32.984  1.00  0.00    -0.206 F 
ATOM     66  C   UNL A   1      35.840  31.381  31.912  1.00  0.00     0.022 A 
BRANCH  63  67
ATOM     67  S   UNL A   1      35.035  32.707  29.595  1.00  0.00     0.124 S 
ATOM     68  O   UNL A   1      35.968  33.657  28.995  1.00  0.00    -0.237 OA
ATOM     69  O   UNL A   1      34.430  31.743  28.685  1.00  0.00    -0.237 OA
ATOM     70  O   UNL A   1      34.130  33.280  30.591  1.00  0.00    -0.744 OA
ENDBRANCH  63  67
ENDBRANCH  46  60
BRANCH  47  71
ATOM     71  C   UNL A   1      47.149  28.023  26.765  1.00  0.00     0.023 A 
ATOM     72  C   UNL A   1      47.227  28.001  25.364  1.00  0.00     0.031 A 
ATOM     73  C   UNL A   1      48.302  27.681  27.496  1.00  0.00     0.131 A 
ATOM     74  C   UNL A   1      48.421  27.613  24.737  1.00  0.00     0.055 A 
ATOM     75  C   UNL A   1      49.502  27.345  26.867  1.00  0.00     0.041 A 
ATOM     76  F   UNL A   1      48.281  27.688  28.838  1.00  0.00    -0.206 F 
ATOM     77  C   UNL A   1      49.562  27.300  25.479  1.00  0.00     0.022 A 
BRANCH  74  78
ATOM     78  S   UNL A   1      48.441  27.458  22.931  1.00  0.00     0.124 S 
ATOM     79  O   UNL A   1      48.357  26.012  22.755  1.00  0.00    -0.237 OA
ATOM     80  O   UNL A   1      47.259  28.222  22.546  1.00  0.00    -0.237 OA
ATOM     81  O   UNL A   1      49.719  28.059  22.552  1.00  0.00    -0.744 OA
ENDBRANCH  74  78
ENDBRANCH  47  71
BRANCH  59  82
ATOM     82  C   UNL A   1      44.744  33.885  29.690  1.00  0.00     0.023 A 
ATOM     83  C   UNL A   1      45.424  34.160  30.889  1.00  0.00     0.031 A 
ATOM     84  C   UNL A   1      44.666  34.903  28.723  1.00  0.00     0.131 A 
ATOM     85  C   UNL A   1      45.959  35.438  31.110  1.00  0.00     0.055 A 
ATOM     86  C   UNL A   1      45.249  36.155  28.926  1.00  0.00     0.041 A 
ATOM     87  F   UNL A   1      44.026  34.694  27.561  1.00  0.00    -0.206 F 
ATOM     88  C   UNL A   1      45.890  36.431  30.130  1.00  0.00     0.022 A 
BRANCH  85  89
ATOM     89  S   UNL A   1      46.680  35.814  32.731  1.00  0.00     0.124 S 
ATOM     90  O   UNL A   1      47.941  36.450  32.363  1.00  0.00    -0.237 OA
ATOM     91  O   UNL A   1      45.676  36.690  33.325  1.00  0.00    -0.237 OA
ATOM     92  O   UNL A   1      46.809  34.502  33.363  1.00  0.00    -0.744 OA
ENDBRANCH  85  89
ENDBRANCH  59  82
ENDBRANCH  33  34
ENDBRANCH  26  28
ENDBRANCH  25  26
ENDBRANCH  24  25
ENDBRANCH   1  24
TORSDOF 20
ENDMDL
