MODEL 1
REMARK VINA RESULT:     -11.0      0.000      0.000
REMARK SMILES C[C@@H](NC(=O)CCCN1C(=O)/C(=C/c2c3ccccc3cc3ccccc23)SC1=S)C(=O)OCCOC(=O)c1ccc(-c2c3nc(c(-c4cc(S(=O)(=O)[O-])ccc4F)c4ccc([nH]4)c(-c4cc(S(=O)(=O)[O-])ccc4F)c4nc(c(-c5cc(S(=O)(=O)[O-])ccc5F)c5ccc2[nH]5)C=C4)C=C3)cc1
REMARK SMILES IDX 33 1 31 2 32 3 2 4 1 5 3 6 4 7 5 9 6 10 7 11 8 12 9 13 10 14
REMARK SMILES IDX 29 15 11 16 12 17 28 18 30 19 13 20 14 21 15 22 27 23 16 24
REMARK SMILES IDX 20 25 22 26 26 27 17 28 19 29 21 30 23 31 25 32 18 33 24 34
REMARK SMILES IDX 34 35 35 36 36 37 37 38 38 39 39 40 40 41 101 42 41 43
REMARK SMILES IDX 100 44 42 45 43 46 44 47 94 48 45 49 99 50 93 51 95 52 46 53
REMARK SMILES IDX 98 54 92 55 91 56 47 58 79 59 59 60 78 61 60 62 63 63 77 64
REMARK SMILES IDX 96 65 61 66 62 67 76 69 97 70 64 71 48 72 49 73 57 74 50 75
REMARK SMILES IDX 56 76 58 77 55 78 51 79 52 80 53 81 54 82 80 83 81 84 89 85
REMARK SMILES IDX 82 86 88 87 90 88 87 89 83 90 84 91 85 92 86 93 65 94 66 95
REMARK SMILES IDX 74 96 67 97 73 98 75 99 72 100 68 101 69 102 70 103 71 104
REMARK H PARENT 3 8 95 57 63 68
REMARK Flexibility Score: inf
ROOT
ATOM      1  O   UNL A   1      33.304  34.422  29.907  1.00  0.00    -0.461 OA
ENDROOT
BRANCH   1   2
ATOM      2  C   UNL A   1      33.038  35.635  30.464  1.00  0.00     0.328 C 
ATOM      3  O   UNL A   1      32.283  36.442  29.935  1.00  0.00    -0.250 OA
BRANCH   2   4
ATOM      4  C   UNL A   1      33.872  35.937  31.823  1.00  0.00     0.189 C 
ATOM      5  C   UNL A   1      34.054  37.277  32.577  1.00  0.00     0.043 C 
BRANCH   4   6
ATOM      6  N   UNL A   1      33.478  35.007  32.834  1.00  0.00    -0.343 N 
ATOM      7  C   UNL A   1      34.053  33.777  32.916  1.00  0.00     0.220 C 
ATOM      8  H   UNL A   1      32.780  35.259  33.480  1.00  0.00     0.164 HD
ATOM      9  O   UNL A   1      33.476  32.902  33.558  1.00  0.00    -0.275 OA
BRANCH   7  10
ATOM     10  C   UNL A   1      35.474  33.598  32.348  1.00  0.00     0.102 C 
BRANCH  10  11
ATOM     11  C   UNL A   1      36.767  34.462  32.602  1.00  0.00     0.032 C 
BRANCH  11  12
ATOM     12  C   UNL A   1      38.053  34.485  33.597  1.00  0.00     0.128 C 
BRANCH  12  13
ATOM     13  N   UNL A   1      38.932  33.377  34.212  1.00  0.00    -0.293 N 
ATOM     14  C   UNL A   1      39.277  32.035  32.960  1.00  0.00     0.266 C 
ATOM     15  C   UNL A   1      39.784  33.183  35.845  1.00  0.00     0.148 C 
ATOM     16  O   UNL A   1      38.744  31.920  31.860  1.00  0.00    -0.268 OA
ATOM     17  C   UNL A   1      40.610  30.742  33.707  1.00  0.00     0.081 C 
ATOM     18  S   UNL A   1      40.978  31.182  35.904  1.00  0.00    -0.054 SA
ATOM     19  S   UNL A   1      40.139  33.910  37.339  1.00  0.00    -0.052 S 
ATOM     20  C   UNL A   1      41.492  29.855  33.146  1.00  0.00     0.030 C 
BRANCH  20  21
ATOM     21  C   UNL A   1      42.686  29.177  33.858  1.00  0.00    -0.009 A 
ATOM     22  C   UNL A   1      44.008  29.697  33.668  1.00  0.00    -0.010 A 
ATOM     23  C   UNL A   1      42.532  27.852  34.457  1.00  0.00    -0.010 A 
ATOM     24  C   UNL A   1      44.293  31.023  33.263  1.00  0.00     0.009 A 
ATOM     25  C   UNL A   1      45.116  28.820  33.792  1.00  0.00    -0.017 A 
ATOM     26  C   UNL A   1      43.698  27.050  34.651  1.00  0.00    -0.017 A 
ATOM     27  C   UNL A   1      41.304  27.197  34.753  1.00  0.00     0.009 A 
ATOM     28  C   UNL A   1      45.578  31.413  32.872  1.00  0.00     0.001 A 
ATOM     29  C   UNL A   1      46.396  29.214  33.373  1.00  0.00     0.009 A 
ATOM     30  C   UNL A   1      44.948  27.526  34.278  1.00  0.00     0.017 A 
ATOM     31  C   UNL A   1      43.626  25.720  35.109  1.00  0.00     0.009 A 
ATOM     32  C   UNL A   1      41.242  25.862  35.199  1.00  0.00     0.001 A 
ATOM     33  C   UNL A   1      46.621  30.497  32.892  1.00  0.00     0.001 A 
ATOM     34  C   UNL A   1      42.403  25.126  35.380  1.00  0.00     0.001 A 
ENDBRANCH  20  21
ENDBRANCH  12  13
ENDBRANCH  11  12
ENDBRANCH  10  11
ENDBRANCH   7  10
ENDBRANCH   4   6
ENDBRANCH   2   4
ENDBRANCH   1   2
BRANCH   1  35
ATOM     35  C   UNL A   1      33.679  34.233  28.504  1.00  0.00     0.274 C 
BRANCH  35  36
ATOM     36  C   UNL A   1      35.152  33.689  28.366  1.00  0.00     0.275 C 
BRANCH  36  37
ATOM     37  O   UNL A   1      35.219  32.085  27.732  1.00  0.00    -0.458 OA
BRANCH  37  38
ATOM     38  C   UNL A   1      35.806  30.273  27.821  1.00  0.00     0.338 C 
ATOM     39  O   UNL A   1      35.211  29.299  27.294  1.00  0.00    -0.246 OA
BRANCH  38  40
ATOM     40  C   UNL A   1      37.126  29.682  28.326  1.00  0.00     0.060 A 
ATOM     41  C   UNL A   1      37.342  29.276  29.656  1.00  0.00     0.016 A 
ATOM     42  C   UNL A   1      38.211  29.763  27.488  1.00  0.00     0.016 A 
ATOM     43  C   UNL A   1      38.599  28.807  30.056  1.00  0.00     0.010 A 
ATOM     44  C   UNL A   1      39.424  29.257  27.829  1.00  0.00     0.010 A 
ATOM     45  C   UNL A   1      39.631  28.804  29.123  1.00  0.00    -0.014 A 
BRANCH  45  46
ATOM     46  C   UNL A   1      41.030  28.442  29.340  1.00  0.00     0.031 A 
ATOM     47  C   UNL A   1      41.974  29.583  29.603  1.00  0.00     0.074 A 
ATOM     48  C   UNL A   1      41.394  27.277  28.778  1.00  0.00     0.049 A 
ATOM     49  N   UNL A   1      43.261  29.661  29.422  1.00  0.00    -0.248 NA
ATOM     50  C   UNL A   1      41.339  30.863  29.973  1.00  0.00     0.031 C 
ATOM     51  C   UNL A   1      40.463  26.266  28.256  1.00  0.00     0.029 A 
ATOM     52  N   UNL A   1      42.624  26.792  28.460  1.00  0.00    -0.354 N 
ATOM     53  C   UNL A   1      43.576  31.015  29.549  1.00  0.00     0.074 A 
ATOM     54  C   UNL A   1      42.337  31.714  29.802  1.00  0.00     0.031 C 
ATOM     55  C   UNL A   1      41.165  25.259  27.716  1.00  0.00     0.029 A 
ATOM     56  C   UNL A   1      42.580  25.557  27.861  1.00  0.00     0.049 A 
ATOM     57  H   UNL A   1      43.461  27.277  28.640  1.00  0.00     0.167 HD
ATOM     58  C   UNL A   1      44.801  31.589  29.420  1.00  0.00     0.034 A 
ATOM     59  C   UNL A   1      43.603  24.751  27.538  1.00  0.00     0.034 A 
ATOM     60  C   UNL A   1      45.975  30.770  29.207  1.00  0.00     0.049 A 
ATOM     61  C   UNL A   1      44.976  25.285  27.829  1.00  0.00     0.074 A 
ATOM     62  C   UNL A   1      47.312  31.118  29.245  1.00  0.00     0.029 A 
ATOM     63  N   UNL A   1      45.930  29.405  28.927  1.00  0.00    -0.354 N 
ATOM     64  N   UNL A   1      45.328  26.524  28.103  1.00  0.00    -0.248 NA
ATOM     65  C   UNL A   1      46.074  24.321  27.845  1.00  0.00     0.031 C 
ATOM     66  C   UNL A   1      48.068  29.972  28.958  1.00  0.00     0.029 A 
ATOM     67  C   UNL A   1      47.207  28.892  28.818  1.00  0.00     0.049 A 
ATOM     68  H   UNL A   1      45.103  28.880  28.823  1.00  0.00     0.167 HD
ATOM     69  C   UNL A   1      46.688  26.484  28.364  1.00  0.00     0.074 A 
ATOM     70  C   UNL A   1      47.080  25.088  28.240  1.00  0.00     0.031 C 
ATOM     71  C   UNL A   1      47.542  27.494  28.672  1.00  0.00     0.034 A 
BRANCH  58  72
ATOM     72  C   UNL A   1      44.916  33.105  29.470  1.00  0.00     0.023 A 
ATOM     73  C   UNL A   1      45.374  33.795  30.608  1.00  0.00     0.031 A 
ATOM     74  C   UNL A   1      44.510  33.892  28.375  1.00  0.00     0.131 A 
ATOM     75  C   UNL A   1      45.288  35.197  30.676  1.00  0.00     0.055 A 
ATOM     76  C   UNL A   1      44.549  35.292  28.402  1.00  0.00     0.041 A 
ATOM     77  F   UNL A   1      44.031  33.321  27.259  1.00  0.00    -0.206 F 
ATOM     78  C   UNL A   1      44.915  35.954  29.567  1.00  0.00     0.022 A 
BRANCH  75  79
ATOM     79  S   UNL A   1      45.484  35.998  32.294  1.00  0.00     0.124 S 
ATOM     80  O   UNL A   1      44.523  37.094  32.189  1.00  0.00    -0.237 OA
ATOM     81  O   UNL A   1      45.133  34.932  33.224  1.00  0.00    -0.237 OA
ATOM     82  O   UNL A   1      46.887  36.404  32.309  1.00  0.00    -0.744 OA
ENDBRANCH  75  79
ENDBRANCH  58  72
BRANCH  59  83
ATOM     83  C   UNL A   1      43.340  23.332  27.192  1.00  0.00     0.023 A 
ATOM     84  C   UNL A   1      44.039  22.758  26.119  1.00  0.00     0.031 A 
ATOM     85  C   UNL A   1      42.481  22.508  27.934  1.00  0.00     0.131 A 
ATOM     86  C   UNL A   1      43.826  21.419  25.772  1.00  0.00     0.055 A 
ATOM     87  C   UNL A   1      42.305  21.157  27.614  1.00  0.00     0.041 A 
ATOM     88  F   UNL A   1      41.829  22.992  29.004  1.00  0.00    -0.206 F 
ATOM     89  C   UNL A   1      42.969  20.610  26.517  1.00  0.00     0.022 A 
BRANCH  86  90
ATOM     90  S   UNL A   1      44.638  20.783  24.282  1.00  0.00     0.124 S 
ATOM     91  O   UNL A   1      43.909  19.542  24.051  1.00  0.00    -0.237 OA
ATOM     92  O   UNL A   1      44.395  21.857  23.324  1.00  0.00    -0.237 OA
ATOM     93  O   UNL A   1      46.030  20.621  24.698  1.00  0.00    -0.744 OA
ENDBRANCH  86  90
ENDBRANCH  59  83
BRANCH  71  94
ATOM     94  C   UNL A   1      48.969  27.098  28.913  1.00  0.00     0.023 A 
ATOM     95  C   UNL A   1      49.884  27.005  27.853  1.00  0.00     0.031 A 
ATOM     96  C   UNL A   1      49.404  26.776  30.208  1.00  0.00     0.131 A 
ATOM     97  C   UNL A   1      51.170  26.511  28.092  1.00  0.00     0.055 A 
ATOM     98  C   UNL A   1      50.710  26.357  30.452  1.00  0.00     0.041 A 
ATOM     99  F   UNL A   1      48.562  26.852  31.251  1.00  0.00    -0.206 F 
ATOM    100  C   UNL A   1      51.595  26.204  29.388  1.00  0.00     0.022 A 
BRANCH  97 101
ATOM    101  S   UNL A   1      52.228  26.154  26.667  1.00  0.00     0.124 S 
ATOM    102  O   UNL A   1      51.790  24.812  26.296  1.00  0.00    -0.237 OA
ATOM    103  O   UNL A   1      51.868  27.220  25.738  1.00  0.00    -0.237 OA
ATOM    104  O   UNL A   1      53.579  26.237  27.217  1.00  0.00    -0.744 OA
ENDBRANCH  97 101
ENDBRANCH  71  94
ENDBRANCH  45  46
ENDBRANCH  38  40
ENDBRANCH  37  38
ENDBRANCH  36  37
ENDBRANCH  35  36
ENDBRANCH   1  35
TORSDOF 20
ENDMDL
MODEL 2
REMARK VINA RESULT:     -10.6      2.052      2.469
REMARK SMILES C[C@@H](NC(=O)CCCN1C(=O)/C(=C/c2c3ccccc3cc3ccccc23)SC1=S)C(=O)OCCOC(=O)c1ccc(-c2c3nc(c(-c4cc(S(=O)(=O)[O-])ccc4F)c4ccc([nH]4)c(-c4cc(S(=O)(=O)[O-])ccc4F)c4nc(c(-c5cc(S(=O)(=O)[O-])ccc5F)c5ccc2[nH]5)C=C4)C=C3)cc1
REMARK SMILES IDX 33 1 31 2 32 3 2 4 1 5 3 6 4 7 5 9 6 10 7 11 8 12 9 13 10 14
REMARK SMILES IDX 29 15 11 16 12 17 28 18 30 19 13 20 14 21 15 22 27 23 16 24
REMARK SMILES IDX 20 25 22 26 26 27 17 28 19 29 21 30 23 31 25 32 18 33 24 34
REMARK SMILES IDX 34 35 35 36 36 37 37 38 38 39 39 40 40 41 101 42 41 43
REMARK SMILES IDX 100 44 42 45 43 46 44 47 94 48 45 49 99 50 93 51 95 52 46 53
REMARK SMILES IDX 98 54 92 55 91 56 47 58 79 59 59 60 78 61 60 62 63 63 77 64
REMARK SMILES IDX 96 65 61 66 62 67 76 69 97 70 64 71 48 72 49 73 57 74 50 75
REMARK SMILES IDX 56 76 58 77 55 78 51 79 52 80 53 81 54 82 80 83 81 84 89 85
REMARK SMILES IDX 82 86 88 87 90 88 87 89 83 90 84 91 85 92 86 93 65 94 66 95
REMARK SMILES IDX 74 96 67 97 73 98 75 99 72 100 68 101 69 102 70 103 71 104
REMARK H PARENT 3 8 95 57 63 68
REMARK Flexibility Score: inf
ROOT
ATOM      1  O   UNL A   1      33.696  34.144  29.899  1.00  0.00    -0.461 OA
ENDROOT
BRANCH   1   2
ATOM      2  C   UNL A   1      33.283  35.350  30.377  1.00  0.00     0.328 C 
ATOM      3  O   UNL A   1      32.536  36.081  29.739  1.00  0.00    -0.250 OA
BRANCH   2   4
ATOM      4  C   UNL A   1      33.936  35.754  31.807  1.00  0.00     0.189 C 
ATOM      5  C   UNL A   1      33.895  37.113  32.547  1.00  0.00     0.043 C 
BRANCH   4   6
ATOM      6  N   UNL A   1      33.543  34.796  32.792  1.00  0.00    -0.343 N 
ATOM      7  C   UNL A   1      34.338  33.735  33.094  1.00  0.00     0.220 C 
ATOM      8  H   UNL A   1      32.683  34.905  33.259  1.00  0.00     0.164 HD
ATOM      9  O   UNL A   1      33.838  32.775  33.676  1.00  0.00    -0.275 OA
BRANCH   7  10
ATOM     10  C   UNL A   1      35.853  33.866  32.843  1.00  0.00     0.102 C 
BRANCH  10  11
ATOM     11  C   UNL A   1      37.030  33.990  33.884  1.00  0.00     0.032 C 
BRANCH  11  12
ATOM     12  C   UNL A   1      38.091  33.032  34.658  1.00  0.00     0.128 C 
BRANCH  12  13
ATOM     13  N   UNL A   1      38.963  31.842  34.207  1.00  0.00    -0.293 N 
ATOM     14  C   UNL A   1      40.723  32.048  34.796  1.00  0.00     0.266 C 
ATOM     15  C   UNL A   1      38.595  30.249  33.337  1.00  0.00     0.148 C 
ATOM     16  O   UNL A   1      41.199  33.059  35.305  1.00  0.00    -0.268 OA
ATOM     17  C   UNL A   1      41.765  30.384  34.406  1.00  0.00     0.081 C 
ATOM     18  S   UNL A   1      40.537  28.980  33.112  1.00  0.00    -0.054 SA
ATOM     19  S   UNL A   1      37.383  29.253  32.682  1.00  0.00    -0.052 S 
ATOM     20  C   UNL A   1      42.902  29.829  34.934  1.00  0.00     0.030 C 
BRANCH  20  21
ATOM     21  C   UNL A   1      43.381  28.370  34.744  1.00  0.00    -0.009 A 
ATOM     22  C   UNL A   1      44.249  28.049  33.651  1.00  0.00    -0.010 A 
ATOM     23  C   UNL A   1      42.722  27.279  35.462  1.00  0.00    -0.010 A 
ATOM     24  C   UNL A   1      45.077  28.986  32.988  1.00  0.00     0.009 A 
ATOM     25  C   UNL A   1      44.226  26.735  33.117  1.00  0.00    -0.017 A 
ATOM     26  C   UNL A   1      42.815  25.957  34.930  1.00  0.00    -0.017 A 
ATOM     27  C   UNL A   1      41.861  27.408  36.588  1.00  0.00     0.009 A 
ATOM     28  C   UNL A   1      45.728  28.676  31.790  1.00  0.00     0.001 A 
ATOM     29  C   UNL A   1      44.861  26.441  31.901  1.00  0.00     0.009 A 
ATOM     30  C   UNL A   1      43.520  25.720  33.757  1.00  0.00     0.017 A 
ATOM     31  C   UNL A   1      42.113  24.872  35.490  1.00  0.00     0.009 A 
ATOM     32  C   UNL A   1      41.154  26.318  37.133  1.00  0.00     0.001 A 
ATOM     33  C   UNL A   1      45.590  27.413  31.228  1.00  0.00     0.001 A 
ATOM     34  C   UNL A   1      41.283  25.051  36.586  1.00  0.00     0.001 A 
ENDBRANCH  20  21
ENDBRANCH  12  13
ENDBRANCH  11  12
ENDBRANCH  10  11
ENDBRANCH   7  10
ENDBRANCH   4   6
ENDBRANCH   2   4
ENDBRANCH   1   2
BRANCH   1  35
ATOM     35  C   UNL A   1      34.013  33.890  28.492  1.00  0.00     0.274 C 
BRANCH  35  36
ATOM     36  C   UNL A   1      35.483  33.350  28.317  1.00  0.00     0.275 C 
BRANCH  36  37
ATOM     37  O   UNL A   1      35.542  31.768  27.630  1.00  0.00    -0.458 OA
BRANCH  37  38
ATOM     38  C   UNL A   1      36.068  29.937  27.687  1.00  0.00     0.338 C 
ATOM     39  O   UNL A   1      35.381  28.979  27.249  1.00  0.00    -0.246 OA
BRANCH  38  40
ATOM     40  C   UNL A   1      37.413  29.302  28.053  1.00  0.00     0.060 A 
ATOM     41  C   UNL A   1      37.637  28.572  29.236  1.00  0.00     0.016 A 
ATOM     42  C   UNL A   1      38.501  29.656  27.293  1.00  0.00     0.016 A 
ATOM     43  C   UNL A   1      38.913  28.079  29.530  1.00  0.00     0.010 A 
ATOM     44  C   UNL A   1      39.736  29.141  27.520  1.00  0.00     0.010 A 
ATOM     45  C   UNL A   1      39.955  28.375  28.655  1.00  0.00    -0.014 A 
BRANCH  45  46
ATOM     46  C   UNL A   1      41.369  28.041  28.805  1.00  0.00     0.031 A 
ATOM     47  C   UNL A   1      42.286  29.185  29.140  1.00  0.00     0.074 A 
ATOM     48  C   UNL A   1      41.752  26.940  28.137  1.00  0.00     0.049 A 
ATOM     49  N   UNL A   1      43.564  29.319  28.933  1.00  0.00    -0.248 NA
ATOM     50  C   UNL A   1      41.624  30.409  29.633  1.00  0.00     0.031 C 
ATOM     51  C   UNL A   1      40.836  25.946  27.555  1.00  0.00     0.029 A 
ATOM     52  N   UNL A   1      42.985  26.522  27.747  1.00  0.00    -0.354 N 
ATOM     53  C   UNL A   1      43.843  30.667  29.166  1.00  0.00     0.074 A 
ATOM     54  C   UNL A   1      42.591  31.302  29.509  1.00  0.00     0.031 C 
ATOM     55  C   UNL A   1      41.553  25.011  26.914  1.00  0.00     0.029 A 
ATOM     56  C   UNL A   1      42.962  25.341  27.047  1.00  0.00     0.049 A 
ATOM     57  H   UNL A   1      43.813  27.017  27.947  1.00  0.00     0.167 HD
ATOM     58  C   UNL A   1      45.046  31.289  29.055  1.00  0.00     0.034 A 
ATOM     59  C   UNL A   1      43.999  24.597  26.631  1.00  0.00     0.034 A 
ATOM     60  C   UNL A   1      46.238  30.528  28.743  1.00  0.00     0.049 A 
ATOM     61  C   UNL A   1      45.363  25.149  26.932  1.00  0.00     0.074 A 
ATOM     62  C   UNL A   1      47.564  30.915  28.776  1.00  0.00     0.029 A 
ATOM     63  N   UNL A   1      46.225  29.191  28.350  1.00  0.00    -0.354 N 
ATOM     64  N   UNL A   1      45.686  26.371  27.300  1.00  0.00    -0.248 NA
ATOM     65  C   UNL A   1      46.489  24.223  26.837  1.00  0.00     0.031 C 
ATOM     66  C   UNL A   1      48.345  29.821  28.374  1.00  0.00     0.029 A 
ATOM     67  C   UNL A   1      47.513  28.730  28.165  1.00  0.00     0.049 A 
ATOM     68  H   UNL A   1      45.411  28.650  28.223  1.00  0.00     0.167 HD
ATOM     69  C   UNL A   1      47.053  26.353  27.522  1.00  0.00     0.074 A 
ATOM     70  C   UNL A   1      47.482  24.986  27.270  1.00  0.00     0.031 C 
ATOM     71  C   UNL A   1      47.885  27.361  27.893  1.00  0.00     0.034 A 
BRANCH  58  72
ATOM     72  C   UNL A   1      45.117  32.798  29.230  1.00  0.00     0.023 A 
ATOM     73  C   UNL A   1      45.069  33.692  28.145  1.00  0.00     0.031 A 
ATOM     74  C   UNL A   1      45.291  33.364  30.509  1.00  0.00     0.131 A 
ATOM     75  C   UNL A   1      45.325  35.061  28.336  1.00  0.00     0.055 A 
ATOM     76  C   UNL A   1      45.415  34.745  30.707  1.00  0.00     0.041 A 
ATOM     77  F   UNL A   1      45.378  32.586  31.599  1.00  0.00    -0.206 F 
ATOM     78  C   UNL A   1      45.459  35.602  29.614  1.00  0.00     0.022 A 
BRANCH  75  79
ATOM     79  S   UNL A   1      45.672  36.088  26.879  1.00  0.00     0.124 S 
ATOM     80  O   UNL A   1      46.994  36.617  27.209  1.00  0.00    -0.237 OA
ATOM     81  O   UNL A   1      45.628  35.121  25.789  1.00  0.00    -0.237 OA
ATOM     82  O   UNL A   1      44.591  37.071  26.886  1.00  0.00    -0.744 OA
ENDBRANCH  75  79
ENDBRANCH  58  72
BRANCH  59  83
ATOM     83  C   UNL A   1      43.768  23.205  26.174  1.00  0.00     0.023 A 
ATOM     84  C   UNL A   1      42.776  22.442  26.810  1.00  0.00     0.031 A 
ATOM     85  C   UNL A   1      44.438  22.634  25.082  1.00  0.00     0.131 A 
ATOM     86  C   UNL A   1      42.521  21.129  26.398  1.00  0.00     0.055 A 
ATOM     87  C   UNL A   1      44.149  21.338  24.642  1.00  0.00     0.041 A 
ATOM     88  F   UNL A   1      45.358  23.339  24.404  1.00  0.00    -0.206 F 
ATOM     89  C   UNL A   1      43.195  20.572  25.311  1.00  0.00     0.022 A 
BRANCH  86  90
ATOM     90  S   UNL A   1      41.342  20.145  27.360  1.00  0.00     0.124 S 
ATOM     91  O   UNL A   1      40.778  21.147  28.257  1.00  0.00    -0.237 OA
ATOM     92  O   UNL A   1      40.451  19.640  26.321  1.00  0.00    -0.237 OA
ATOM     93  O   UNL A   1      42.186  19.139  28.001  1.00  0.00    -0.744 OA
ENDBRANCH  86  90
ENDBRANCH  59  83
BRANCH  71  94
ATOM     94  C   UNL A   1      49.329  26.991  28.062  1.00  0.00     0.023 A 
ATOM     95  C   UNL A   1      50.206  26.968  26.966  1.00  0.00     0.031 A 
ATOM     96  C   UNL A   1      49.821  26.624  29.325  1.00  0.00     0.131 A 
ATOM     97  C   UNL A   1      51.511  26.498  27.136  1.00  0.00     0.055 A 
ATOM     98  C   UNL A   1      51.145  26.229  29.501  1.00  0.00     0.041 A 
ATOM     99  F   UNL A   1      49.018  26.632  30.401  1.00  0.00    -0.206 F 
ATOM    100  C   UNL A   1      51.993  26.145  28.400  1.00  0.00     0.022 A 
BRANCH  97 101
ATOM    101  S   UNL A   1      52.522  26.231  25.657  1.00  0.00     0.124 S 
ATOM    102  O   UNL A   1      53.763  26.912  26.015  1.00  0.00    -0.237 OA
ATOM    103  O   UNL A   1      52.592  24.776  25.586  1.00  0.00    -0.237 OA
ATOM    104  O   UNL A   1      51.747  26.870  24.595  1.00  0.00    -0.744 OA
ENDBRANCH  97 101
ENDBRANCH  71  94
ENDBRANCH  45  46
ENDBRANCH  38  40
ENDBRANCH  37  38
ENDBRANCH  36  37
ENDBRANCH  35  36
ENDBRANCH   1  35
TORSDOF 20
ENDMDL
MODEL 3
REMARK VINA RESULT:     -10.5      2.416      3.079
REMARK SMILES C[C@@H](NC(=O)CCCN1C(=O)/C(=C/c2c3ccccc3cc3ccccc23)SC1=S)C(=O)OCCOC(=O)c1ccc(-c2c3nc(c(-c4cc(S(=O)(=O)[O-])ccc4F)c4ccc([nH]4)c(-c4cc(S(=O)(=O)[O-])ccc4F)c4nc(c(-c5cc(S(=O)(=O)[O-])ccc5F)c5ccc2[nH]5)C=C4)C=C3)cc1
REMARK SMILES IDX 33 1 31 2 32 3 2 4 1 5 3 6 4 7 5 9 6 10 7 11 8 12 9 13 10 14
REMARK SMILES IDX 29 15 11 16 12 17 28 18 30 19 13 20 14 21 15 22 27 23 16 24
REMARK SMILES IDX 20 25 22 26 26 27 17 28 19 29 21 30 23 31 25 32 18 33 24 34
REMARK SMILES IDX 34 35 35 36 36 37 37 38 38 39 39 40 40 41 101 42 41 43
REMARK SMILES IDX 100 44 42 45 43 46 44 47 94 48 45 49 99 50 93 51 95 52 46 53
REMARK SMILES IDX 98 54 92 55 91 56 47 58 79 59 59 60 78 61 60 62 63 63 77 64
REMARK SMILES IDX 96 65 61 66 62 67 76 69 97 70 64 71 48 72 49 73 57 74 50 75
REMARK SMILES IDX 56 76 58 77 55 78 51 79 52 80 53 81 54 82 80 83 81 84 89 85
REMARK SMILES IDX 82 86 88 87 90 88 87 89 83 90 84 91 85 92 86 93 65 94 66 95
REMARK SMILES IDX 74 96 67 97 73 98 75 99 72 100 68 101 69 102 70 103 71 104
REMARK H PARENT 3 8 95 57 63 68
REMARK Flexibility Score: inf
ROOT
ATOM      1  O   UNL A   1      35.132  34.474  29.675  1.00  0.00    -0.461 OA
ENDROOT
BRANCH   1   2
ATOM      2  C   UNL A   1      34.291  34.549  30.743  1.00  0.00     0.328 C 
ATOM      3  O   UNL A   1      33.205  35.111  30.676  1.00  0.00    -0.250 OA
BRANCH   2   4
ATOM      4  C   UNL A   1      34.896  33.912  32.108  1.00  0.00     0.189 C 
ATOM      5  C   UNL A   1      34.158  33.156  33.239  1.00  0.00     0.043 C 
BRANCH   4   6
ATOM      6  N   UNL A   1      36.012  33.080  31.786  1.00  0.00    -0.343 N 
ATOM      7  C   UNL A   1      37.278  33.449  32.116  1.00  0.00     0.220 C 
ATOM      8  H   UNL A   1      35.862  32.227  31.318  1.00  0.00     0.164 HD
ATOM      9  O   UNL A   1      38.216  32.898  31.544  1.00  0.00    -0.275 OA
BRANCH   7  10
ATOM     10  C   UNL A   1      37.471  34.410  33.305  1.00  0.00     0.102 C 
BRANCH  10  11
ATOM     11  C   UNL A   1      38.463  34.302  34.525  1.00  0.00     0.032 C 
BRANCH  11  12
ATOM     12  C   UNL A   1      39.615  33.302  35.086  1.00  0.00     0.128 C 
BRANCH  12  13
ATOM     13  N   UNL A   1      40.171  31.950  34.593  1.00  0.00    -0.293 N 
ATOM     14  C   UNL A   1      41.975  31.773  35.042  1.00  0.00     0.266 C 
ATOM     15  C   UNL A   1      39.401  30.472  33.786  1.00  0.00     0.148 C 
ATOM     16  O   UNL A   1      42.697  32.658  35.492  1.00  0.00    -0.268 OA
ATOM     17  C   UNL A   1      42.600  29.921  34.607  1.00  0.00     0.081 C 
ATOM     18  S   UNL A   1      41.000  28.812  33.439  1.00  0.00    -0.054 SA
ATOM     19  S   UNL A   1      37.955  29.760  33.246  1.00  0.00    -0.052 S 
ATOM     20  C   UNL A   1      43.629  29.135  35.056  1.00  0.00     0.030 C 
BRANCH  20  21
ATOM     21  C   UNL A   1      43.765  27.606  34.860  1.00  0.00    -0.009 A 
ATOM     22  C   UNL A   1      44.487  27.102  33.730  1.00  0.00    -0.010 A 
ATOM     23  C   UNL A   1      42.919  26.687  35.620  1.00  0.00    -0.010 A 
ATOM     24  C   UNL A   1      45.466  27.834  33.018  1.00  0.00     0.009 A 
ATOM     25  C   UNL A   1      44.149  25.825  33.212  1.00  0.00    -0.017 A 
ATOM     26  C   UNL A   1      42.693  25.377  35.100  1.00  0.00    -0.017 A 
ATOM     27  C   UNL A   1      42.165  27.002  36.785  1.00  0.00     0.009 A 
ATOM     28  C   UNL A   1      45.974  27.388  31.793  1.00  0.00     0.001 A 
ATOM     29  C   UNL A   1      44.644  25.399  31.970  1.00  0.00     0.009 A 
ATOM     30  C   UNL A   1      43.270  24.990  33.896  1.00  0.00     0.017 A 
ATOM     31  C   UNL A   1      41.799  24.473  35.704  1.00  0.00     0.009 A 
ATOM     32  C   UNL A   1      41.263  26.095  37.376  1.00  0.00     0.001 A 
ATOM     33  C   UNL A   1      45.534  26.187  31.252  1.00  0.00     0.001 A 
ATOM     34  C   UNL A   1      41.083  24.830  36.837  1.00  0.00     0.001 A 
ENDBRANCH  20  21
ENDBRANCH  12  13
ENDBRANCH  11  12
ENDBRANCH  10  11
ENDBRANCH   7  10
ENDBRANCH   4   6
ENDBRANCH   2   4
ENDBRANCH   1   2
BRANCH   1  35
ATOM     35  C   UNL A   1      34.682  34.466  28.281  1.00  0.00     0.274 C 
BRANCH  35  36
ATOM     36  C   UNL A   1      33.564  33.382  28.039  1.00  0.00     0.275 C 
BRANCH  36  37
ATOM     37  O   UNL A   1      34.107  31.774  28.350  1.00  0.00    -0.458 OA
BRANCH  37  38
ATOM     38  C   UNL A   1      35.054  30.199  27.842  1.00  0.00     0.338 C 
ATOM     39  O   UNL A   1      34.720  29.432  26.905  1.00  0.00    -0.246 OA
BRANCH  38  40
ATOM     40  C   UNL A   1      36.425  29.682  28.285  1.00  0.00     0.060 A 
ATOM     41  C   UNL A   1      36.682  29.134  29.557  1.00  0.00     0.016 A 
ATOM     42  C   UNL A   1      37.497  29.973  27.477  1.00  0.00     0.016 A 
ATOM     43  C   UNL A   1      37.978  28.744  29.909  1.00  0.00     0.010 A 
ATOM     44  C   UNL A   1      38.754  29.550  27.767  1.00  0.00     0.010 A 
ATOM     45  C   UNL A   1      39.006  28.960  28.996  1.00  0.00    -0.014 A 
BRANCH  45  46
ATOM     46  C   UNL A   1      40.433  28.713  29.182  1.00  0.00     0.031 A 
ATOM     47  C   UNL A   1      41.251  29.885  29.652  1.00  0.00     0.074 A 
ATOM     48  C   UNL A   1      40.921  27.701  28.444  1.00  0.00     0.049 A 
ATOM     49  N   UNL A   1      42.523  30.123  29.516  1.00  0.00    -0.248 NA
ATOM     50  C   UNL A   1      40.483  31.013  30.213  1.00  0.00     0.031 C 
ATOM     51  C   UNL A   1      40.104  26.700  27.741  1.00  0.00     0.029 A 
ATOM     52  N   UNL A   1      42.197  27.404  28.078  1.00  0.00    -0.354 N 
ATOM     53  C   UNL A   1      42.694  31.462  29.872  1.00  0.00     0.074 A 
ATOM     54  C   UNL A   1      41.387  31.978  30.208  1.00  0.00     0.031 C 
ATOM     55  C   UNL A   1      40.912  25.875  27.059  1.00  0.00     0.029 A 
ATOM     56  C   UNL A   1      42.286  26.289  27.284  1.00  0.00     0.049 A 
ATOM     57  H   UNL A   1      42.977  27.936  28.356  1.00  0.00     0.167 HD
ATOM     58  C   UNL A   1      43.853  32.172  29.868  1.00  0.00     0.034 A 
ATOM     59  C   UNL A   1      43.391  25.656  26.856  1.00  0.00     0.034 A 
ATOM     60  C   UNL A   1      45.108  31.525  29.550  1.00  0.00     0.049 A 
ATOM     61  C   UNL A   1      44.698  26.273  27.263  1.00  0.00     0.074 A 
ATOM     62  C   UNL A   1      46.401  31.997  29.675  1.00  0.00     0.029 A 
ATOM     63  N   UNL A   1      45.207  30.228  29.047  1.00  0.00    -0.354 N 
ATOM     64  N   UNL A   1      44.916  27.479  27.745  1.00  0.00    -0.248 NA
ATOM     65  C   UNL A   1      45.891  25.438  27.144  1.00  0.00     0.031 C 
ATOM     66  C   UNL A   1      47.274  30.999  29.221  1.00  0.00     0.029 A 
ATOM     67  C   UNL A   1      46.532  29.874  28.885  1.00  0.00     0.049 A 
ATOM     68  H   UNL A   1      44.441  29.646  28.839  1.00  0.00     0.167 HD
ATOM     69  C   UNL A   1      46.271  27.535  28.027  1.00  0.00     0.074 A 
ATOM     70  C   UNL A   1      46.809  26.227  27.684  1.00  0.00     0.031 C 
ATOM     71  C   UNL A   1      47.013  28.562  28.518  1.00  0.00     0.034 A 
BRANCH  58  72
ATOM     72  C   UNL A   1      43.808  33.662  30.170  1.00  0.00     0.023 A 
ATOM     73  C   UNL A   1      43.684  34.639  29.163  1.00  0.00     0.031 A 
ATOM     74  C   UNL A   1      43.943  34.131  31.491  1.00  0.00     0.131 A 
ATOM     75  C   UNL A   1      43.834  36.002  29.470  1.00  0.00     0.055 A 
ATOM     76  C   UNL A   1      43.961  35.496  31.805  1.00  0.00     0.041 A 
ATOM     77  F   UNL A   1      44.096  33.273  32.512  1.00  0.00    -0.206 F 
ATOM     78  C   UNL A   1      43.933  36.442  30.789  1.00  0.00     0.022 A 
BRANCH  75  79
ATOM     79  S   UNL A   1      44.091  37.172  28.104  1.00  0.00     0.124 S 
ATOM     80  O   UNL A   1      43.977  38.453  28.800  1.00  0.00    -0.237 OA
ATOM     81  O   UNL A   1      45.425  36.823  27.632  1.00  0.00    -0.237 OA
ATOM     82  O   UNL A   1      43.001  36.868  27.181  1.00  0.00    -0.744 OA
ENDBRANCH  75  79
ENDBRANCH  58  72
BRANCH  59  83
ATOM     83  C   UNL A   1      43.279  24.295  26.275  1.00  0.00     0.023 A 
ATOM     84  C   UNL A   1      42.397  23.379  26.869  1.00  0.00     0.031 A 
ATOM     85  C   UNL A   1      43.955  23.900  25.112  1.00  0.00     0.131 A 
ATOM     86  C   UNL A   1      42.256  22.090  26.341  1.00  0.00     0.055 A 
ATOM     87  C   UNL A   1      43.777  22.626  24.559  1.00  0.00     0.041 A 
ATOM     88  F   UNL A   1      44.770  24.755  24.473  1.00  0.00    -0.206 F 
ATOM     89  C   UNL A   1      42.934  21.708  25.184  1.00  0.00     0.022 A 
BRANCH  86  90
ATOM     90  S   UNL A   1      41.224  20.906  27.245  1.00  0.00     0.124 S 
ATOM     91  O   UNL A   1      42.183  19.852  27.557  1.00  0.00    -0.237 OA
ATOM     92  O   UNL A   1      40.762  21.707  28.373  1.00  0.00    -0.237 OA
ATOM     93  O   UNL A   1      40.194  20.545  26.273  1.00  0.00    -0.744 OA
ENDBRANCH  86  90
ENDBRANCH  59  83
BRANCH  71  94
ATOM     94  C   UNL A   1      48.472  28.280  28.723  1.00  0.00     0.023 A 
ATOM     95  C   UNL A   1      48.950  27.784  29.946  1.00  0.00     0.031 A 
ATOM     96  C   UNL A   1      49.393  28.545  27.697  1.00  0.00     0.131 A 
ATOM     97  C   UNL A   1      50.327  27.652  30.146  1.00  0.00     0.055 A 
ATOM     98  C   UNL A   1      50.760  28.338  27.878  1.00  0.00     0.041 A 
ATOM     99  F   UNL A   1      48.980  29.020  26.511  1.00  0.00    -0.206 F 
ATOM    100  C   UNL A   1      51.235  27.909  29.114  1.00  0.00     0.022 A 
BRANCH  97 101
ATOM    101  S   UNL A   1      50.914  27.268  31.815  1.00  0.00     0.124 S 
ATOM    102  O   UNL A   1      51.657  28.477  32.159  1.00  0.00    -0.237 OA
ATOM    103  O   UNL A   1      49.667  27.059  32.544  1.00  0.00    -0.237 OA
ATOM    104  O   UNL A   1      51.730  26.071  31.622  1.00  0.00    -0.744 OA
ENDBRANCH  97 101
ENDBRANCH  71  94
ENDBRANCH  45  46
ENDBRANCH  38  40
ENDBRANCH  37  38
ENDBRANCH  36  37
ENDBRANCH  35  36
ENDBRANCH   1  35
TORSDOF 20
ENDMDL
