MODEL 1
REMARK VINA RESULT:     -12.6      0.000      0.000
REMARK SMILES Cc1cc2c(c(C)c1Cl)C=C(C(=O)OCCOC(=O)c1ccc(-c3c4nc(c(-c5cc(S(=O)(=O)[O-])ccc5F)c5ccc([nH]5)c(-c5cc(S(=O)(=O)[O-])ccc5F)c5nc(c(-c6cc(S(=O)(=O)[O-])ccc6F)c6ccc3[nH]6)C=C5)C=C4)cc1)[C@@H](C(F)(F)F)O2
REMARK SMILES IDX 16 1 15 2 14 3 12 4 13 5 11 6 1 7 2 8 3 9 8 10 4 11 6 12
REMARK SMILES IDX 9 13 5 14 88 15 7 16 10 17 83 18 84 19 85 20 86 21 87 22
REMARK SMILES IDX 17 23 18 24 19 25 20 26 21 27 82 28 22 29 81 30 23 31 24 32
REMARK SMILES IDX 25 33 75 34 26 35 80 36 74 37 76 38 27 39 79 40 73 41 72 42
REMARK SMILES IDX 28 44 60 45 40 46 59 47 41 48 44 49 58 50 77 51 42 52 43 53
REMARK SMILES IDX 57 55 78 56 45 57 29 58 30 59 38 60 31 61 37 62 39 63 36 64
REMARK SMILES IDX 32 65 33 66 34 67 35 68 61 69 62 70 70 71 63 72 69 73 71 74
REMARK SMILES IDX 68 75 64 76 65 77 66 78 67 79 46 80 47 81 55 82 48 83 54 84
REMARK SMILES IDX 56 85 53 86 49 87 50 88 51 89 52 90
REMARK H PARENT 76 43 44 54
REMARK Flexibility Score: inf
ROOT
ATOM      1  C   UNL A   1      31.768  30.260  25.931  1.00  0.00     0.275 C 
ENDROOT
BRANCH   1   2
ATOM      2  C   UNL A   1      31.773  29.106  24.930  1.00  0.00     0.275 C 
BRANCH   2   3
ATOM      3  O   UNL A   1      32.491  27.963  25.444  1.00  0.00    -0.459 OA
BRANCH   3   4
ATOM      4  C   UNL A   1      33.310  27.346  24.560  1.00  0.00     0.338 C 
ATOM      5  O   UNL A   1      33.992  27.886  23.702  1.00  0.00    -0.246 OA
BRANCH   4   6
ATOM      6  C   UNL A   1      33.272  25.883  24.747  1.00  0.00     0.087 C 
ATOM      7  C   UNL A   1      34.197  19.458  24.725  1.00  0.00     0.046 C 
ATOM      8  C   UNL A   1      34.317  20.957  24.789  1.00  0.00    -0.028 A 
ATOM      9  C   UNL A   1      33.146  21.727  24.787  1.00  0.00     0.052 A 
ATOM     10  C   UNL A   1      35.563  21.605  24.891  1.00  0.00     0.047 A 
ATOM     11  C   UNL A   1      33.205  23.118  24.830  1.00  0.00     0.128 A 
ATOM     12  C   UNL A   1      35.644  23.016  24.934  1.00  0.00    -0.021 A 
ATOM     13  Cl  UNL A   1      36.999  20.629  24.960  1.00  0.00    -0.084 Cl
ATOM     14  C   UNL A   1      34.441  23.770  24.889  1.00  0.00     0.022 A 
ATOM     15  O   UNL A   1      31.993  23.752  24.827  1.00  0.00    -0.475 OA
ATOM     16  C   UNL A   1      36.977  23.721  25.034  1.00  0.00     0.047 C 
ATOM     17  C   UNL A   1      34.434  25.231  24.869  1.00  0.00     0.027 C 
ATOM     18  C   UNL A   1      31.949  25.190  24.643  1.00  0.00     0.316 C 
BRANCH  18  19
ATOM     19  C   UNL A   1      31.255  25.498  23.306  1.00  0.00     0.430 C 
ATOM     20  F   UNL A   1      30.513  26.630  23.385  1.00  0.00    -0.167 F 
ATOM     21  F   UNL A   1      32.153  25.703  22.311  1.00  0.00    -0.167 F 
ATOM     22  F   UNL A   1      30.432  24.503  22.908  1.00  0.00    -0.167 F 
ENDBRANCH  18  19
ENDBRANCH   4   6
ENDBRANCH   3   4
ENDBRANCH   2   3
ENDBRANCH   1   2
BRANCH   1  23
ATOM     23  O   UNL A   1      32.790  30.062  26.925  1.00  0.00    -0.458 OA
BRANCH  23  24
ATOM     24  C   UNL A   1      33.419  31.190  27.328  1.00  0.00     0.338 C 
ATOM     25  O   UNL A   1      32.914  32.283  27.523  1.00  0.00    -0.246 OA
BRANCH  24  26
ATOM     26  C   UNL A   1      34.842  30.922  27.591  1.00  0.00     0.060 A 
ATOM     27  C   UNL A   1      35.257  29.607  27.755  1.00  0.00     0.016 A 
ATOM     28  C   UNL A   1      35.707  31.968  27.902  1.00  0.00     0.016 A 
ATOM     29  C   UNL A   1      36.459  29.339  28.405  1.00  0.00     0.010 A 
ATOM     30  C   UNL A   1      36.977  31.684  28.421  1.00  0.00     0.010 A 
ATOM     31  C   UNL A   1      37.345  30.367  28.754  1.00  0.00    -0.014 A 
BRANCH  31  32
ATOM     32  C   UNL A   1      38.597  30.087  29.529  1.00  0.00     0.031 A 
ATOM     33  C   UNL A   1      39.665  29.186  28.941  1.00  0.00     0.074 A 
ATOM     34  C   UNL A   1      38.830  30.654  30.732  1.00  0.00     0.049 A 
ATOM     35  N   UNL A   1      40.660  28.579  29.538  1.00  0.00    -0.248 NA
ATOM     36  C   UNL A   1      39.588  28.918  27.496  1.00  0.00     0.031 C 
ATOM     37  C   UNL A   1      37.968  31.630  31.402  1.00  0.00     0.029 A 
ATOM     38  N   UNL A   1      39.881  30.503  31.607  1.00  0.00    -0.354 N 
ATOM     39  C   UNL A   1      41.281  27.805  28.560  1.00  0.00     0.074 A 
ATOM     40  C   UNL A   1      40.548  28.017  27.331  1.00  0.00     0.031 C 
ATOM     41  C   UNL A   1      38.555  32.041  32.534  1.00  0.00     0.029 A 
ATOM     42  C   UNL A   1      39.755  31.247  32.757  1.00  0.00     0.049 A 
ATOM     43  H   UNL A   1      40.653  29.916  31.427  1.00  0.00     0.167 HD
ATOM     44  C   UNL A   1      42.359  26.991  28.682  1.00  0.00     0.034 A 
ATOM     45  C   UNL A   1      40.466  31.246  33.903  1.00  0.00     0.034 A 
ATOM     46  C   UNL A   1      43.125  26.848  29.897  1.00  0.00     0.049 A 
ATOM     47  C   UNL A   1      41.595  30.266  34.055  1.00  0.00     0.074 A 
ATOM     48  C   UNL A   1      44.225  26.040  30.132  1.00  0.00     0.029 A 
ATOM     49  N   UNL A   1      42.893  27.551  31.070  1.00  0.00    -0.354 N 
ATOM     50  N   UNL A   1      42.069  29.413  33.179  1.00  0.00    -0.248 NA
ATOM     51  C   UNL A   1      42.258  30.224  35.364  1.00  0.00     0.031 C 
ATOM     52  C   UNL A   1      44.621  26.212  31.464  1.00  0.00     0.029 A 
ATOM     53  C   UNL A   1      43.812  27.178  32.039  1.00  0.00     0.049 A 
ATOM     54  H   UNL A   1      42.180  28.218  31.197  1.00  0.00     0.167 HD
ATOM     55  C   UNL A   1      43.089  28.730  33.833  1.00  0.00     0.074 A 
ATOM     56  C   UNL A   1      43.177  29.290  35.166  1.00  0.00     0.031 C 
ATOM     57  C   UNL A   1      43.876  27.725  33.373  1.00  0.00     0.034 A 
BRANCH  44  58
ATOM     58  C   UNL A   1      42.745  26.140  27.495  1.00  0.00     0.023 A 
ATOM     59  C   UNL A   1      42.287  24.823  27.333  1.00  0.00     0.031 A 
ATOM     60  C   UNL A   1      43.569  26.682  26.490  1.00  0.00     0.131 A 
ATOM     61  C   UNL A   1      42.686  24.079  26.209  1.00  0.00     0.055 A 
ATOM     62  C   UNL A   1      43.908  25.960  25.344  1.00  0.00     0.041 A 
ATOM     63  F   UNL A   1      44.050  27.930  26.601  1.00  0.00    -0.206 F 
ATOM     64  C   UNL A   1      43.471  24.648  25.202  1.00  0.00     0.022 A 
BRANCH  61  65
ATOM     65  S   UNL A   1      42.230  22.326  26.113  1.00  0.00     0.124 S 
ATOM     66  O   UNL A   1      42.917  21.910  24.893  1.00  0.00    -0.237 OA
ATOM     67  O   UNL A   1      42.764  21.791  27.361  1.00  0.00    -0.237 OA
ATOM     68  O   UNL A   1      40.772  22.354  26.022  1.00  0.00    -0.744 OA
ENDBRANCH  61  65
ENDBRANCH  44  58
BRANCH  45  69
ATOM     69  C   UNL A   1      40.062  32.131  35.033  1.00  0.00     0.023 A 
ATOM     70  C   UNL A   1      39.155  31.689  36.008  1.00  0.00     0.031 A 
ATOM     71  C   UNL A   1      40.584  33.432  35.158  1.00  0.00     0.131 A 
ATOM     72  C   UNL A   1      38.791  32.543  37.060  1.00  0.00     0.055 A 
ATOM     73  C   UNL A   1      40.260  34.258  36.234  1.00  0.00     0.041 A 
ATOM     74  F   UNL A   1      41.452  33.907  34.250  1.00  0.00    -0.206 F 
ATOM     75  C   UNL A   1      39.352  33.816  37.191  1.00  0.00     0.022 A 
BRANCH  72  76
ATOM     76  S   UNL A   1      37.540  31.980  38.246  1.00  0.00     0.124 S 
ATOM     77  O   UNL A   1      36.443  32.903  37.979  1.00  0.00    -0.237 OA
ATOM     78  O   UNL A   1      37.331  30.596  37.836  1.00  0.00    -0.237 OA
ATOM     79  O   UNL A   1      38.199  32.151  39.540  1.00  0.00    -0.744 OA
ENDBRANCH  72  76
ENDBRANCH  45  69
BRANCH  57  80
ATOM     80  C   UNL A   1      44.912  27.181  34.320  1.00  0.00     0.023 A 
ATOM     81  C   UNL A   1      44.665  26.032  35.090  1.00  0.00     0.031 A 
ATOM     82  C   UNL A   1      46.155  27.822  34.461  1.00  0.00     0.131 A 
ATOM     83  C   UNL A   1      45.629  25.585  36.005  1.00  0.00     0.055 A 
ATOM     84  C   UNL A   1      47.133  27.340  35.332  1.00  0.00     0.041 A 
ATOM     85  F   UNL A   1      46.441  28.925  33.750  1.00  0.00    -0.206 F 
ATOM     86  C   UNL A   1      46.868  26.222  36.119  1.00  0.00     0.022 A 
BRANCH  83  87
ATOM     87  S   UNL A   1      45.211  24.204  37.102  1.00  0.00     0.124 S 
ATOM     88  O   UNL A   1      44.130  24.772  37.903  1.00  0.00    -0.237 OA
ATOM     89  O   UNL A   1      44.823  23.159  36.159  1.00  0.00    -0.237 OA
ATOM     90  O   UNL A   1      46.455  23.953  37.828  1.00  0.00    -0.744 OA
ENDBRANCH  83  87
ENDBRANCH  57  80
ENDBRANCH  31  32
ENDBRANCH  24  26
ENDBRANCH  23  24
ENDBRANCH   1  23
TORSDOF 15
ENDMDL
MODEL 2
REMARK VINA RESULT:     -12.5      5.053     10.030
REMARK SMILES Cc1cc2c(c(C)c1Cl)C=C(C(=O)OCCOC(=O)c1ccc(-c3c4nc(c(-c5cc(S(=O)(=O)[O-])ccc5F)c5ccc([nH]5)c(-c5cc(S(=O)(=O)[O-])ccc5F)c5nc(c(-c6cc(S(=O)(=O)[O-])ccc6F)c6ccc3[nH]6)C=C5)C=C4)cc1)[C@@H](C(F)(F)F)O2
REMARK SMILES IDX 16 1 15 2 14 3 12 4 13 5 11 6 1 7 2 8 3 9 8 10 4 11 6 12
REMARK SMILES IDX 9 13 5 14 88 15 7 16 10 17 83 18 84 19 85 20 86 21 87 22
REMARK SMILES IDX 17 23 18 24 19 25 20 26 21 27 82 28 22 29 81 30 23 31 24 32
REMARK SMILES IDX 25 33 75 34 26 35 80 36 74 37 76 38 27 39 79 40 73 41 72 42
REMARK SMILES IDX 28 44 60 45 40 46 59 47 41 48 44 49 58 50 77 51 42 52 43 53
REMARK SMILES IDX 57 55 78 56 45 57 29 58 30 59 38 60 31 61 37 62 39 63 36 64
REMARK SMILES IDX 32 65 33 66 34 67 35 68 61 69 62 70 70 71 63 72 69 73 71 74
REMARK SMILES IDX 68 75 64 76 65 77 66 78 67 79 46 80 47 81 55 82 48 83 54 84
REMARK SMILES IDX 56 85 53 86 49 87 50 88 51 89 52 90
REMARK H PARENT 76 43 44 54
REMARK Flexibility Score: inf
ROOT
ATOM      1  C   UNL A   1      36.243  20.872  25.015  1.00  0.00     0.275 C 
ENDROOT
BRANCH   1   2
ATOM      2  C   UNL A   1      34.916  21.558  24.694  1.00  0.00     0.275 C 
BRANCH   2   3
ATOM      3  O   UNL A   1      34.991  22.984  24.910  1.00  0.00    -0.459 OA
BRANCH   3   4
ATOM      4  C   UNL A   1      34.071  23.491  25.763  1.00  0.00     0.338 C 
ATOM      5  O   UNL A   1      33.807  23.074  26.881  1.00  0.00    -0.246 OA
BRANCH   4   6
ATOM      6  C   UNL A   1      33.379  24.646  25.158  1.00  0.00     0.087 C 
ATOM      7  C   UNL A   1      30.027  30.038  23.806  1.00  0.00     0.046 C 
ATOM      8  C   UNL A   1      30.957  28.986  24.349  1.00  0.00    -0.028 A 
ATOM      9  C   UNL A   1      31.032  27.750  23.693  1.00  0.00     0.052 A 
ATOM     10  C   UNL A   1      31.780  29.219  25.468  1.00  0.00     0.047 A 
ATOM     11  C   UNL A   1      31.866  26.739  24.166  1.00  0.00     0.128 A 
ATOM     12  C   UNL A   1      32.632  28.206  25.963  1.00  0.00    -0.021 A 
ATOM     13  Cl  UNL A   1      31.721  30.781  26.226  1.00  0.00    -0.084 Cl
ATOM     14  C   UNL A   1      32.655  26.949  25.302  1.00  0.00     0.022 A 
ATOM     15  O   UNL A   1      31.852  25.583  23.435  1.00  0.00    -0.475 OA
ATOM     16  C   UNL A   1      33.512  28.443  27.169  1.00  0.00     0.047 C 
ATOM     17  C   UNL A   1      33.460  25.827  25.780  1.00  0.00     0.027 C 
ATOM     18  C   UNL A   1      32.506  24.403  23.967  1.00  0.00     0.316 C 
BRANCH  18  19
ATOM     19  C   UNL A   1      31.441  23.333  24.256  1.00  0.00     0.430 C 
ATOM     20  F   UNL A   1      30.389  23.441  23.408  1.00  0.00    -0.167 F 
ATOM     21  F   UNL A   1      31.933  22.079  24.091  1.00  0.00    -0.167 F 
ATOM     22  F   UNL A   1      30.955  23.413  25.515  1.00  0.00    -0.167 F 
ENDBRANCH  18  19
ENDBRANCH   4   6
ENDBRANCH   3   4
ENDBRANCH   2   3
ENDBRANCH   1   2
BRANCH   1  23
ATOM     23  O   UNL A   1      37.329  21.809  24.899  1.00  0.00    -0.458 OA
BRANCH  23  24
ATOM     24  C   UNL A   1      38.465  21.447  25.537  1.00  0.00     0.338 C 
ATOM     25  O   UNL A   1      39.075  20.397  25.415  1.00  0.00    -0.246 OA
BRANCH  24  26
ATOM     26  C   UNL A   1      38.954  22.545  26.386  1.00  0.00     0.060 A 
ATOM     27  C   UNL A   1      38.480  23.830  26.157  1.00  0.00     0.016 A 
ATOM     28  C   UNL A   1      40.035  22.345  27.240  1.00  0.00     0.016 A 
ATOM     29  C   UNL A   1      39.202  24.925  26.627  1.00  0.00     0.010 A 
ATOM     30  C   UNL A   1      40.667  23.449  27.827  1.00  0.00     0.010 A 
ATOM     31  C   UNL A   1      40.310  24.762  27.470  1.00  0.00    -0.014 A 
BRANCH  31  32
ATOM     32  C   UNL A   1      41.136  25.934  27.904  1.00  0.00     0.031 A 
ATOM     33  C   UNL A   1      40.530  26.998  28.797  1.00  0.00     0.074 A 
ATOM     34  C   UNL A   1      42.437  26.054  27.560  1.00  0.00     0.049 A 
ATOM     35  N   UNL A   1      40.949  28.214  29.043  1.00  0.00    -0.248 NA
ATOM     36  C   UNL A   1      39.276  26.652  29.488  1.00  0.00     0.031 C 
ATOM     37  C   UNL A   1      43.216  25.075  26.799  1.00  0.00     0.029 A 
ATOM     38  N   UNL A   1      43.346  27.053  27.821  1.00  0.00    -0.354 N 
ATOM     39  C   UNL A   1      39.978  28.800  29.854  1.00  0.00     0.074 A 
ATOM     40  C   UNL A   1      38.948  27.805  30.056  1.00  0.00     0.031 C 
ATOM     41  C   UNL A   1      44.490  25.482  26.721  1.00  0.00     0.029 A 
ATOM     42  C   UNL A   1      44.591  26.822  27.282  1.00  0.00     0.049 A 
ATOM     43  H   UNL A   1      43.126  27.858  28.345  1.00  0.00     0.167 HD
ATOM     44  C   UNL A   1      39.952  30.052  30.374  1.00  0.00     0.034 A 
ATOM     45  C   UNL A   1      45.676  27.615  27.172  1.00  0.00     0.034 A 
ATOM     46  C   UNL A   1      41.024  31.007  30.225  1.00  0.00     0.049 A 
ATOM     47  C   UNL A   1      45.592  29.032  27.666  1.00  0.00     0.074 A 
ATOM     48  C   UNL A   1      41.092  32.306  30.698  1.00  0.00     0.029 A 
ATOM     49  N   UNL A   1      42.226  30.758  29.579  1.00  0.00    -0.354 N 
ATOM     50  N   UNL A   1      44.602  29.632  28.282  1.00  0.00    -0.248 NA
ATOM     51  C   UNL A   1      46.758  29.887  27.413  1.00  0.00     0.031 C 
ATOM     52  C   UNL A   1      42.311  32.860  30.290  1.00  0.00     0.029 A 
ATOM     53  C   UNL A   1      43.032  31.885  29.621  1.00  0.00     0.049 A 
ATOM     54  H   UNL A   1      42.472  29.905  29.154  1.00  0.00     0.167 HD
ATOM     55  C   UNL A   1      45.028  30.940  28.492  1.00  0.00     0.074 A 
ATOM     56  C   UNL A   1      46.371  31.031  27.960  1.00  0.00     0.031 C 
ATOM     57  C   UNL A   1      44.361  31.973  29.066  1.00  0.00     0.034 A 
BRANCH  44  58
ATOM     58  C   UNL A   1      38.704  30.493  31.102  1.00  0.00     0.023 A 
ATOM     59  C   UNL A   1      37.645  31.145  30.451  1.00  0.00     0.031 A 
ATOM     60  C   UNL A   1      38.568  30.221  32.476  1.00  0.00     0.131 A 
ATOM     61  C   UNL A   1      36.511  31.537  31.184  1.00  0.00     0.055 A 
ATOM     62  C   UNL A   1      37.412  30.553  33.184  1.00  0.00     0.041 A 
ATOM     63  F   UNL A   1      39.557  29.615  33.153  1.00  0.00    -0.206 F 
ATOM     64  C   UNL A   1      36.377  31.222  32.539  1.00  0.00     0.022 A 
BRANCH  61  65
ATOM     65  S   UNL A   1      35.240  32.536  30.362  1.00  0.00     0.124 S 
ATOM     66  O   UNL A   1      34.273  32.725  31.440  1.00  0.00    -0.237 OA
ATOM     67  O   UNL A   1      35.984  33.723  29.955  1.00  0.00    -0.237 OA
ATOM     68  O   UNL A   1      34.785  31.681  29.267  1.00  0.00    -0.744 OA
ENDBRANCH  61  65
ENDBRANCH  44  58
BRANCH  45  69
ATOM     69  C   UNL A   1      46.896  27.119  26.473  1.00  0.00     0.023 A 
ATOM     70  C   UNL A   1      47.162  27.478  25.143  1.00  0.00     0.031 A 
ATOM     71  C   UNL A   1      47.817  26.281  27.129  1.00  0.00     0.131 A 
ATOM     72  C   UNL A   1      48.316  26.994  24.508  1.00  0.00     0.055 A 
ATOM     73  C   UNL A   1      48.990  25.846  26.511  1.00  0.00     0.041 A 
ATOM     74  F   UNL A   1      47.608  25.903  28.400  1.00  0.00    -0.206 F 
ATOM     75  C   UNL A   1      49.242  26.198  25.189  1.00  0.00     0.022 A 
BRANCH  72  76
ATOM     76  S   UNL A   1      48.581  27.393  22.759  1.00  0.00     0.124 S 
ATOM     77  O   UNL A   1      47.380  28.158  22.445  1.00  0.00    -0.237 OA
ATOM     78  O   UNL A   1      49.830  28.147  22.804  1.00  0.00    -0.237 OA
ATOM     79  O   UNL A   1      48.671  26.081  22.122  1.00  0.00    -0.744 OA
ENDBRANCH  72  76
ENDBRANCH  45  69
BRANCH  57  80
ATOM     80  C   UNL A   1      45.091  33.287  29.160  1.00  0.00     0.023 A 
ATOM     81  C   UNL A   1      45.018  34.238  28.128  1.00  0.00     0.031 A 
ATOM     82  C   UNL A   1      45.873  33.589  30.289  1.00  0.00     0.131 A 
ATOM     83  C   UNL A   1      45.755  35.426  28.222  1.00  0.00     0.055 A 
ATOM     84  C   UNL A   1      46.559  34.798  30.402  1.00  0.00     0.041 A 
ATOM     85  F   UNL A   1      45.978  32.714  31.302  1.00  0.00    -0.206 F 
ATOM     86  C   UNL A   1      46.512  35.720  29.359  1.00  0.00     0.022 A 
BRANCH  83  87
ATOM     87  S   UNL A   1      45.773  36.551  26.801  1.00  0.00     0.124 S 
ATOM     88  O   UNL A   1      45.931  35.624  25.684  1.00  0.00    -0.237 OA
ATOM     89  O   UNL A   1      44.474  37.209  26.903  1.00  0.00    -0.237 OA
ATOM     90  O   UNL A   1      46.925  37.413  27.059  1.00  0.00    -0.744 OA
ENDBRANCH  83  87
ENDBRANCH  57  80
ENDBRANCH  31  32
ENDBRANCH  24  26
ENDBRANCH  23  24
ENDBRANCH   1  23
TORSDOF 15
ENDMDL
MODEL 3
REMARK VINA RESULT:     -12.5      5.018      9.923
REMARK SMILES Cc1cc2c(c(C)c1Cl)C=C(C(=O)OCCOC(=O)c1ccc(-c3c4nc(c(-c5cc(S(=O)(=O)[O-])ccc5F)c5ccc([nH]5)c(-c5cc(S(=O)(=O)[O-])ccc5F)c5nc(c(-c6cc(S(=O)(=O)[O-])ccc6F)c6ccc3[nH]6)C=C5)C=C4)cc1)[C@@H](C(F)(F)F)O2
REMARK SMILES IDX 16 1 15 2 14 3 12 4 13 5 11 6 1 7 2 8 3 9 8 10 4 11 6 12
REMARK SMILES IDX 9 13 5 14 88 15 7 16 10 17 83 18 84 19 85 20 86 21 87 22
REMARK SMILES IDX 17 23 18 24 19 25 20 26 21 27 82 28 22 29 81 30 23 31 24 32
REMARK SMILES IDX 25 33 75 34 26 35 80 36 74 37 76 38 27 39 79 40 73 41 72 42
REMARK SMILES IDX 28 44 60 45 40 46 59 47 41 48 44 49 58 50 77 51 42 52 43 53
REMARK SMILES IDX 57 55 78 56 45 57 29 58 30 59 38 60 31 61 37 62 39 63 36 64
REMARK SMILES IDX 32 65 33 66 34 67 35 68 61 69 62 70 70 71 63 72 69 73 71 74
REMARK SMILES IDX 68 75 64 76 65 77 66 78 67 79 46 80 47 81 55 82 48 83 54 84
REMARK SMILES IDX 56 85 53 86 49 87 50 88 51 89 52 90
REMARK H PARENT 76 43 44 54
REMARK Flexibility Score: inf
ROOT
ATOM      1  C   UNL A   1      36.097  20.871  25.088  1.00  0.00     0.275 C 
ENDROOT
BRANCH   1   2
ATOM      2  C   UNL A   1      34.792  21.495  24.595  1.00  0.00     0.275 C 
BRANCH   2   3
ATOM      3  O   UNL A   1      34.866  22.937  24.587  1.00  0.00    -0.459 OA
BRANCH   3   4
ATOM      4  C   UNL A   1      34.125  23.562  25.532  1.00  0.00     0.338 C 
ATOM      5  O   UNL A   1      34.011  23.230  26.703  1.00  0.00    -0.246 OA
BRANCH   4   6
ATOM      6  C   UNL A   1      33.429  24.730  24.962  1.00  0.00     0.087 C 
ATOM      7  C   UNL A   1      30.013  30.119  23.765  1.00  0.00     0.046 C 
ATOM      8  C   UNL A   1      30.947  29.060  24.285  1.00  0.00    -0.028 A 
ATOM      9  C   UNL A   1      31.063  27.856  23.576  1.00  0.00     0.052 A 
ATOM     10  C   UNL A   1      31.736  29.256  25.435  1.00  0.00     0.047 A 
ATOM     11  C   UNL A   1      31.903  26.840  24.025  1.00  0.00     0.128 A 
ATOM     12  C   UNL A   1      32.593  28.236  25.907  1.00  0.00    -0.021 A 
ATOM     13  Cl  UNL A   1      31.628  30.781  26.261  1.00  0.00    -0.084 Cl
ATOM     14  C   UNL A   1      32.658  27.012  25.190  1.00  0.00     0.022 A 
ATOM     15  O   UNL A   1      31.930  25.718  23.243  1.00  0.00    -0.475 OA
ATOM     16  C   UNL A   1      33.436  28.433  27.146  1.00  0.00     0.047 C 
ATOM     17  C   UNL A   1      33.471  25.883  25.639  1.00  0.00     0.027 C 
ATOM     18  C   UNL A   1      32.592  24.527  23.737  1.00  0.00     0.316 C 
BRANCH  18  19
ATOM     19  C   UNL A   1      31.540  23.426  23.949  1.00  0.00     0.430 C 
ATOM     20  F   UNL A   1      31.983  22.227  23.497  1.00  0.00    -0.167 F 
ATOM     21  F   UNL A   1      31.254  23.253  25.264  1.00  0.00    -0.167 F 
ATOM     22  F   UNL A   1      30.377  23.692  23.315  1.00  0.00    -0.167 F 
ENDBRANCH  18  19
ENDBRANCH   4   6
ENDBRANCH   3   4
ENDBRANCH   2   3
ENDBRANCH   1   2
BRANCH   1  23
ATOM     23  O   UNL A   1      37.187  21.795  24.918  1.00  0.00    -0.458 OA
BRANCH  23  24
ATOM     24  C   UNL A   1      38.349  21.419  25.500  1.00  0.00     0.338 C 
ATOM     25  O   UNL A   1      38.951  20.372  25.330  1.00  0.00    -0.246 OA
BRANCH  24  26
ATOM     26  C   UNL A   1      38.874  22.499  26.350  1.00  0.00     0.060 A 
ATOM     27  C   UNL A   1      38.395  23.790  26.166  1.00  0.00     0.016 A 
ATOM     28  C   UNL A   1      39.988  22.280  27.156  1.00  0.00     0.016 A 
ATOM     29  C   UNL A   1      39.137  24.873  26.628  1.00  0.00     0.010 A 
ATOM     30  C   UNL A   1      40.646  23.371  27.739  1.00  0.00     0.010 A 
ATOM     31  C   UNL A   1      40.278  24.692  27.422  1.00  0.00    -0.014 A 
BRANCH  31  32
ATOM     32  C   UNL A   1      41.124  25.854  27.846  1.00  0.00     0.031 A 
ATOM     33  C   UNL A   1      40.542  26.925  28.747  1.00  0.00     0.074 A 
ATOM     34  C   UNL A   1      42.421  25.958  27.485  1.00  0.00     0.049 A 
ATOM     35  N   UNL A   1      40.979  28.136  28.988  1.00  0.00    -0.248 NA
ATOM     36  C   UNL A   1      39.293  26.594  29.454  1.00  0.00     0.031 C 
ATOM     37  C   UNL A   1      43.178  24.970  26.714  1.00  0.00     0.029 A 
ATOM     38  N   UNL A   1      43.346  26.946  27.735  1.00  0.00    -0.354 N 
ATOM     39  C   UNL A   1      40.026  28.733  29.810  1.00  0.00     0.074 A 
ATOM     40  C   UNL A   1      38.986  27.751  30.026  1.00  0.00     0.031 C 
ATOM     41  C   UNL A   1      44.456  25.362  26.620  1.00  0.00     0.029 A 
ATOM     42  C   UNL A   1      44.581  26.700  27.180  1.00  0.00     0.049 A 
ATOM     43  H   UNL A   1      43.143  27.754  28.261  1.00  0.00     0.167 HD
ATOM     44  C   UNL A   1      40.022  29.985  30.331  1.00  0.00     0.034 A 
ATOM     45  C   UNL A   1      45.674  27.480  27.055  1.00  0.00     0.034 A 
ATOM     46  C   UNL A   1      41.103  30.927  30.168  1.00  0.00     0.049 A 
ATOM     47  C   UNL A   1      45.613  28.898  27.551  1.00  0.00     0.074 A 
ATOM     48  C   UNL A   1      41.193  32.226  30.641  1.00  0.00     0.029 A 
ATOM     49  N   UNL A   1      42.294  30.664  29.507  1.00  0.00    -0.354 N 
ATOM     50  N   UNL A   1      44.639  29.510  28.180  1.00  0.00    -0.248 NA
ATOM     51  C   UNL A   1      46.786  29.738  27.283  1.00  0.00     0.031 C 
ATOM     52  C   UNL A   1      42.413  32.765  30.217  1.00  0.00     0.029 A 
ATOM     53  C   UNL A   1      43.114  31.781  29.539  1.00  0.00     0.049 A 
ATOM     54  H   UNL A   1      42.524  29.808  29.079  1.00  0.00     0.167 HD
ATOM     55  C   UNL A   1      45.083  30.812  28.384  1.00  0.00     0.074 A 
ATOM     56  C   UNL A   1      46.421  30.887  27.835  1.00  0.00     0.031 C 
ATOM     57  C   UNL A   1      44.437  31.853  28.967  1.00  0.00     0.034 A 
BRANCH  44  58
ATOM     58  C   UNL A   1      38.789  30.441  31.075  1.00  0.00     0.023 A 
ATOM     59  C   UNL A   1      37.724  31.097  30.436  1.00  0.00     0.031 A 
ATOM     60  C   UNL A   1      38.672  30.181  32.453  1.00  0.00     0.131 A 
ATOM     61  C   UNL A   1      36.605  31.502  31.183  1.00  0.00     0.055 A 
ATOM     62  C   UNL A   1      37.530  30.527  33.177  1.00  0.00     0.041 A 
ATOM     63  F   UNL A   1      39.667  29.573  33.120  1.00  0.00    -0.206 F 
ATOM     64  C   UNL A   1      36.490  31.199  32.543  1.00  0.00     0.022 A 
BRANCH  61  65
ATOM     65  S   UNL A   1      35.328  32.504  30.374  1.00  0.00     0.124 S 
ATOM     66  O   UNL A   1      34.969  31.660  29.237  1.00  0.00    -0.237 OA
ATOM     67  O   UNL A   1      34.318  32.634  31.418  1.00  0.00    -0.237 OA
ATOM     68  O   UNL A   1      36.029  33.740  30.028  1.00  0.00    -0.744 OA
ENDBRANCH  61  65
ENDBRANCH  44  58
BRANCH  45  69
ATOM     69  C   UNL A   1      46.878  26.969  26.341  1.00  0.00     0.023 A 
ATOM     70  C   UNL A   1      47.948  26.399  27.046  1.00  0.00     0.031 A 
ATOM     71  C   UNL A   1      46.974  27.040  24.938  1.00  0.00     0.131 A 
ATOM     72  C   UNL A   1      49.072  25.929  26.348  1.00  0.00     0.055 A 
ATOM     73  C   UNL A   1      48.069  26.523  24.246  1.00  0.00     0.041 A 
ATOM     74  F   UNL A   1      45.980  27.580  24.215  1.00  0.00    -0.206 F 
ATOM     75  C   UNL A   1      49.130  25.969  24.953  1.00  0.00     0.022 A 
BRANCH  72  76
ATOM     76  S   UNL A   1      50.481  25.290  27.294  1.00  0.00     0.124 S 
ATOM     77  O   UNL A   1      50.862  26.458  28.081  1.00  0.00    -0.237 OA
ATOM     78  O   UNL A   1      49.878  24.186  28.033  1.00  0.00    -0.237 OA
ATOM     79  O   UNL A   1      51.434  24.897  26.259  1.00  0.00    -0.744 OA
ENDBRANCH  72  76
ENDBRANCH  45  69
BRANCH  57  80
ATOM     80  C   UNL A   1      45.183  33.158  29.052  1.00  0.00     0.023 A 
ATOM     81  C   UNL A   1      45.065  34.133  28.047  1.00  0.00     0.031 A 
ATOM     82  C   UNL A   1      46.027  33.427  30.144  1.00  0.00     0.131 A 
ATOM     83  C   UNL A   1      45.818  35.312  28.128  1.00  0.00     0.055 A 
ATOM     84  C   UNL A   1      46.730  34.628  30.248  1.00  0.00     0.041 A 
ATOM     85  F   UNL A   1      46.176  32.528  31.130  1.00  0.00    -0.206 F 
ATOM     86  C   UNL A   1      46.637  35.573  29.230  1.00  0.00     0.022 A 
BRANCH  83  87
ATOM     87  S   UNL A   1      45.773  36.470  26.733  1.00  0.00     0.124 S 
ATOM     88  O   UNL A   1      45.976  35.578  25.596  1.00  0.00    -0.237 OA
ATOM     89  O   UNL A   1      44.441  37.055  26.854  1.00  0.00    -0.237 OA
ATOM     90  O   UNL A   1      46.879  37.385  27.010  1.00  0.00    -0.744 OA
ENDBRANCH  83  87
ENDBRANCH  57  80
ENDBRANCH  31  32
ENDBRANCH  24  26
ENDBRANCH  23  24
ENDBRANCH   1  23
TORSDOF 15
ENDMDL
