MODEL 1
REMARK VINA RESULT:     -12.7      0.000      0.000
REMARK SMILES Cc1nc(-c2cccc(N3C[C@H](C(=O)OCCOC(=O)c4ccc(-c5c6nc(c(-c7cc(S(=O)(=O)[O-])ccc7F)c7ccc([nH]7)c(-c7cc(S(=O)(=O)[O-])ccc7F)c7nc(c(-c8cc(S(=O)(=O)[O-])ccc8F)c8ccc5[nH]8)C=C7)C=C6)cc4)CC3=O)c2)no1
REMARK SMILES IDX 17 1 16 2 15 3 13 4 14 5 12 6 10 7 11 8 85 9 84 10 86 11
REMARK SMILES IDX 9 12 5 13 6 14 87 15 7 16 8 17 4 18 1 19 2 20 3 21 89 22
REMARK SMILES IDX 88 23 18 24 19 25 20 26 21 27 22 28 83 29 23 30 82 31 24 32
REMARK SMILES IDX 25 33 26 34 76 35 27 36 81 37 75 38 77 39 28 40 80 41 74 42
REMARK SMILES IDX 73 43 29 45 61 46 41 47 60 48 42 49 45 50 59 51 78 52 43 53
REMARK SMILES IDX 44 54 58 56 79 57 46 58 30 59 31 60 39 61 32 62 38 63 40 64
REMARK SMILES IDX 37 65 33 66 34 67 35 68 36 69 62 70 63 71 71 72 64 73 70 74
REMARK SMILES IDX 72 75 69 76 65 77 66 78 67 79 68 80 47 81 48 82 56 83 49 84
REMARK SMILES IDX 55 85 57 86 54 87 50 88 51 89 52 90 53 91
REMARK H PARENT 77 44 45 55
REMARK Flexibility Score: inf
ROOT
ATOM      1  C   UNL A   1      36.758  20.667  25.056  1.00  0.00     0.275 C 
ENDROOT
BRANCH   1   2
ATOM      2  C   UNL A   1      35.294  21.020  25.316  1.00  0.00     0.274 C 
BRANCH   2   3
ATOM      3  O   UNL A   1      34.710  21.806  24.257  1.00  0.00    -0.462 OA
BRANCH   3   4
ATOM      4  C   UNL A   1      33.630  22.554  24.615  1.00  0.00     0.311 C 
ATOM      5  O   UNL A   1      33.407  22.945  25.754  1.00  0.00    -0.252 OA
BRANCH   4   6
ATOM      6  C   UNL A   1      32.683  22.753  23.447  1.00  0.00     0.128 C 
ATOM      7  N   UNL A   1      32.203  25.039  23.333  1.00  0.00    -0.312 N 
ATOM      8  C   UNL A   1      31.653  23.800  23.823  1.00  0.00     0.141 C 
ATOM      9  C   UNL A   1      33.092  24.813  22.281  1.00  0.00     0.227 C 
ATOM     10  C   UNL A   1      33.341  23.318  22.196  1.00  0.00     0.117 C 
ATOM     11  O   UNL A   1      33.646  25.628  21.563  1.00  0.00    -0.274 OA
BRANCH   7  12
ATOM     12  C   UNL A   1      31.857  26.303  23.862  1.00  0.00     0.044 A 
ATOM     13  C   UNL A   1      30.818  28.500  23.645  1.00  0.00     0.025 A 
ATOM     14  C   UNL A   1      31.227  28.819  24.947  1.00  0.00     0.012 A 
ATOM     15  C   UNL A   1      31.168  27.253  23.098  1.00  0.00     0.038 A 
ATOM     16  C   UNL A   1      31.931  27.892  25.707  1.00  0.00     0.003 A 
ATOM     17  C   UNL A   1      32.226  26.637  25.174  1.00  0.00     0.026 A 
BRANCH  13  18
ATOM     18  C   UNL A   1      29.985  29.430  22.897  1.00  0.00     0.202 A 
ATOM     19  C   UNL A   1      28.202  32.457  22.357  1.00  0.00     0.114 C 
ATOM     20  C   UNL A   1      28.896  31.162  22.437  1.00  0.00     0.223 A 
ATOM     21  N   UNL A   1      29.479  30.583  23.462  1.00  0.00    -0.191 NA
ATOM     22  O   UNL A   1      29.004  30.456  21.280  1.00  0.00    -0.339 OA
ATOM     23  N   UNL A   1      29.745  29.319  21.581  1.00  0.00    -0.057 NA
ENDBRANCH  13  18
ENDBRANCH   7  12
ENDBRANCH   4   6
ENDBRANCH   3   4
ENDBRANCH   2   3
ENDBRANCH   1   2
BRANCH   1  24
ATOM     24  O   UNL A   1      37.625  21.783  25.317  1.00  0.00    -0.458 OA
BRANCH  24  25
ATOM     25  C   UNL A   1      38.789  21.461  25.926  1.00  0.00     0.338 C 
ATOM     26  O   UNL A   1      39.369  20.389  25.881  1.00  0.00    -0.246 OA
BRANCH  25  27
ATOM     27  C   UNL A   1      39.349  22.644  26.590  1.00  0.00     0.060 A 
ATOM     28  C   UNL A   1      38.857  23.890  26.214  1.00  0.00     0.016 A 
ATOM     29  C   UNL A   1      40.443  22.548  27.448  1.00  0.00     0.016 A 
ATOM     30  C   UNL A   1      39.499  25.053  26.621  1.00  0.00     0.010 A 
ATOM     31  C   UNL A   1      41.048  23.722  27.916  1.00  0.00     0.010 A 
ATOM     32  C   UNL A   1      40.601  24.986  27.480  1.00  0.00    -0.014 A 
BRANCH  32  33
ATOM     33  C   UNL A   1      41.314  26.234  27.861  1.00  0.00     0.031 A 
ATOM     34  C   UNL A   1      40.603  27.288  28.665  1.00  0.00     0.074 A 
ATOM     35  C   UNL A   1      42.609  26.403  27.529  1.00  0.00     0.049 A 
ATOM     36  N   UNL A   1      40.984  28.502  28.968  1.00  0.00    -0.248 NA
ATOM     37  C   UNL A   1      39.277  26.926  29.189  1.00  0.00     0.031 C 
ATOM     38  C   UNL A   1      43.434  25.423  26.819  1.00  0.00     0.029 A 
ATOM     39  N   UNL A   1      43.464  27.453  27.754  1.00  0.00    -0.354 N 
ATOM     40  C   UNL A   1      39.932  29.065  29.685  1.00  0.00     0.074 A 
ATOM     41  C   UNL A   1      38.889  28.062  29.751  1.00  0.00     0.031 C 
ATOM     42  C   UNL A   1      44.679  25.907  26.690  1.00  0.00     0.029 A 
ATOM     43  C   UNL A   1      44.722  27.262  27.230  1.00  0.00     0.049 A 
ATOM     44  H   UNL A   1      43.202  28.267  28.243  1.00  0.00     0.167 HD
ATOM     45  C   UNL A   1      39.849  30.303  30.234  1.00  0.00     0.034 A 
ATOM     46  C   UNL A   1      45.777  28.097  27.151  1.00  0.00     0.034 A 
ATOM     47  C   UNL A   1      40.915  31.276  30.181  1.00  0.00     0.049 A 
ATOM     48  C   UNL A   1      45.641  29.489  27.710  1.00  0.00     0.074 A 
ATOM     49  C   UNL A   1      40.937  32.565  30.686  1.00  0.00     0.029 A 
ATOM     50  N   UNL A   1      42.157  31.064  29.593  1.00  0.00    -0.354 N 
ATOM     51  N   UNL A   1      44.608  30.044  28.304  1.00  0.00    -0.248 NA
ATOM     52  C   UNL A   1      46.805  30.373  27.576  1.00  0.00     0.031 C 
ATOM     53  C   UNL A   1      42.167  33.147  30.358  1.00  0.00     0.029 A 
ATOM     54  C   UNL A   1      42.942  32.202  29.705  1.00  0.00     0.049 A 
ATOM     55  H   UNL A   1      42.439  30.226  29.160  1.00  0.00     0.167 HD
ATOM     56  C   UNL A   1      45.004  31.338  28.623  1.00  0.00     0.074 A 
ATOM     57  C   UNL A   1      46.376  31.474  28.175  1.00  0.00     0.031 C 
ATOM     58  C   UNL A   1      44.300  32.327  29.230  1.00  0.00     0.034 A 
BRANCH  45  59
ATOM     59  C   UNL A   1      38.535  30.690  30.874  1.00  0.00     0.023 A 
ATOM     60  C   UNL A   1      37.499  31.303  30.148  1.00  0.00     0.031 A 
ATOM     61  C   UNL A   1      38.338  30.480  32.251  1.00  0.00     0.131 A 
ATOM     62  C   UNL A   1      36.345  31.744  30.813  1.00  0.00     0.055 A 
ATOM     63  C   UNL A   1      37.156  30.853  32.893  1.00  0.00     0.041 A 
ATOM     64  F   UNL A   1      39.300  29.920  33.001  1.00  0.00    -0.206 F 
ATOM     65  C   UNL A   1      36.156  31.503  32.176  1.00  0.00     0.022 A 
BRANCH  62  66
ATOM     66  S   UNL A   1      35.149  32.763  29.904  1.00  0.00     0.124 S 
ATOM     67  O   UNL A   1      36.012  33.790  29.328  1.00  0.00    -0.237 OA
ATOM     68  O   UNL A   1      34.570  31.810  28.965  1.00  0.00    -0.237 OA
ATOM     69  O   UNL A   1      34.240  33.238  30.947  1.00  0.00    -0.744 OA
ENDBRANCH  62  66
ENDBRANCH  45  59
BRANCH  46  70
ATOM     70  C   UNL A   1      47.018  27.673  26.439  1.00  0.00     0.023 A 
ATOM     71  C   UNL A   1      47.194  27.908  25.066  1.00  0.00     0.031 A 
ATOM     72  C   UNL A   1      48.036  26.988  27.128  1.00  0.00     0.131 A 
ATOM     73  C   UNL A   1      48.348  27.432  24.420  1.00  0.00     0.055 A 
ATOM     74  C   UNL A   1      49.205  26.567  26.493  1.00  0.00     0.041 A 
ATOM     75  F   UNL A   1      47.914  26.729  28.439  1.00  0.00    -0.206 F 
ATOM     76  C   UNL A   1      49.360  26.780  25.129  1.00  0.00     0.022 A 
BRANCH  73  77
ATOM     77  S   UNL A   1      48.473  27.593  22.616  1.00  0.00     0.124 S 
ATOM     78  O   UNL A   1      48.556  26.198  22.197  1.00  0.00    -0.237 OA
ATOM     79  O   UNL A   1      47.238  28.292  22.281  1.00  0.00    -0.237 OA
ATOM     80  O   UNL A   1      49.696  28.372  22.428  1.00  0.00    -0.744 OA
ENDBRANCH  73  77
ENDBRANCH  46  70
BRANCH  58  81
ATOM     81  C   UNL A   1      45.024  33.627  29.465  1.00  0.00     0.023 A 
ATOM     82  C   UNL A   1      44.931  34.698  28.557  1.00  0.00     0.031 A 
ATOM     83  C   UNL A   1      45.838  33.787  30.599  1.00  0.00     0.131 A 
ATOM     84  C   UNL A   1      45.681  35.863  28.775  1.00  0.00     0.055 A 
ATOM     85  C   UNL A   1      46.543  34.968  30.836  1.00  0.00     0.041 A 
ATOM     86  F   UNL A   1      45.964  32.796  31.496  1.00  0.00    -0.206 F 
ATOM     87  C   UNL A   1      46.476  36.010  29.915  1.00  0.00     0.022 A 
BRANCH  84  88
ATOM     88  S   UNL A   1      45.668  37.160  27.505  1.00  0.00     0.124 S 
ATOM     89  O   UNL A   1      46.679  36.680  26.569  1.00  0.00    -0.237 OA
ATOM     90  O   UNL A   1      44.289  37.119  27.031  1.00  0.00    -0.237 OA
ATOM     91  O   UNL A   1      46.031  38.367  28.244  1.00  0.00    -0.744 OA
ENDBRANCH  84  88
ENDBRANCH  58  81
ENDBRANCH  32  33
ENDBRANCH  25  27
ENDBRANCH  24  25
ENDBRANCH   1  24
TORSDOF 16
ENDMDL
MODEL 2
REMARK VINA RESULT:     -12.7      5.112     10.335
REMARK SMILES Cc1nc(-c2cccc(N3C[C@H](C(=O)OCCOC(=O)c4ccc(-c5c6nc(c(-c7cc(S(=O)(=O)[O-])ccc7F)c7ccc([nH]7)c(-c7cc(S(=O)(=O)[O-])ccc7F)c7nc(c(-c8cc(S(=O)(=O)[O-])ccc8F)c8ccc5[nH]8)C=C7)C=C6)cc4)CC3=O)c2)no1
REMARK SMILES IDX 17 1 16 2 15 3 13 4 14 5 12 6 10 7 11 8 85 9 84 10 86 11
REMARK SMILES IDX 9 12 5 13 6 14 87 15 7 16 8 17 4 18 1 19 2 20 3 21 89 22
REMARK SMILES IDX 88 23 18 24 19 25 20 26 21 27 22 28 83 29 23 30 82 31 24 32
REMARK SMILES IDX 25 33 26 34 76 35 27 36 81 37 75 38 77 39 28 40 80 41 74 42
REMARK SMILES IDX 73 43 29 45 61 46 41 47 60 48 42 49 45 50 59 51 78 52 43 53
REMARK SMILES IDX 44 54 58 56 79 57 46 58 30 59 31 60 39 61 32 62 38 63 40 64
REMARK SMILES IDX 37 65 33 66 34 67 35 68 36 69 62 70 63 71 71 72 64 73 70 74
REMARK SMILES IDX 72 75 69 76 65 77 66 78 67 79 68 80 47 81 48 82 56 83 49 84
REMARK SMILES IDX 55 85 57 86 54 87 50 88 51 89 52 90 53 91
REMARK H PARENT 77 44 45 55
REMARK Flexibility Score: inf
ROOT
ATOM      1  C   UNL A   1      31.537  30.431  25.774  1.00  0.00     0.275 C 
ENDROOT
BRANCH   1   2
ATOM      2  C   UNL A   1      31.902  29.387  24.720  1.00  0.00     0.274 C 
BRANCH   2   3
ATOM      3  O   UNL A   1      30.880  28.386  24.542  1.00  0.00    -0.462 OA
BRANCH   3   4
ATOM      4  C   UNL A   1      31.304  27.209  24.004  1.00  0.00     0.311 C 
ATOM      5  O   UNL A   1      32.313  27.085  23.322  1.00  0.00    -0.252 OA
BRANCH   4   6
ATOM      6  C   UNL A   1      30.313  26.091  24.268  1.00  0.00     0.128 C 
ATOM      7  N   UNL A   1      31.552  24.207  24.887  1.00  0.00    -0.312 N 
ATOM      8  C   UNL A   1      30.891  24.790  23.747  1.00  0.00     0.141 C 
ATOM      9  C   UNL A   1      30.999  24.673  26.081  1.00  0.00     0.227 C 
ATOM     10  C   UNL A   1      30.058  25.815  25.744  1.00  0.00     0.117 C 
ATOM     11  O   UNL A   1      31.232  24.309  27.222  1.00  0.00    -0.274 OA
BRANCH   7  12
ATOM     12  C   UNL A   1      32.612  23.278  24.777  1.00  0.00     0.044 A 
ATOM     13  C   UNL A   1      33.456  20.989  24.786  1.00  0.00     0.025 A 
ATOM     14  C   UNL A   1      34.757  21.471  24.589  1.00  0.00     0.012 A 
ATOM     15  C   UNL A   1      32.394  21.901  24.914  1.00  0.00     0.038 A 
ATOM     16  C   UNL A   1      34.988  22.838  24.474  1.00  0.00     0.003 A 
ATOM     17  C   UNL A   1      33.919  23.731  24.548  1.00  0.00     0.026 A 
BRANCH  13  18
ATOM     18  C   UNL A   1      33.207  19.554  24.792  1.00  0.00     0.202 A 
ATOM     19  C   UNL A   1      34.080  16.121  24.509  1.00  0.00     0.114 C 
ATOM     20  C   UNL A   1      33.574  17.494  24.658  1.00  0.00     0.223 A 
ATOM     21  N   UNL A   1      34.163  18.640  24.399  1.00  0.00    -0.191 NA
ATOM     22  O   UNL A   1      32.327  17.631  25.184  1.00  0.00    -0.339 OA
ATOM     23  N   UNL A   1      32.094  18.997  25.293  1.00  0.00    -0.057 NA
ENDBRANCH  13  18
ENDBRANCH   7  12
ENDBRANCH   4   6
ENDBRANCH   3   4
ENDBRANCH   2   3
ENDBRANCH   1   2
BRANCH   1  24
ATOM     24  O   UNL A   1      32.415  30.364  26.910  1.00  0.00    -0.458 OA
BRANCH  24  25
ATOM     25  C   UNL A   1      33.035  31.528  27.211  1.00  0.00     0.338 C 
ATOM     26  O   UNL A   1      32.543  32.644  27.203  1.00  0.00    -0.246 OA
BRANCH  25  27
ATOM     27  C   UNL A   1      34.402  31.261  27.673  1.00  0.00     0.060 A 
ATOM     28  C   UNL A   1      34.722  29.953  28.022  1.00  0.00     0.016 A 
ATOM     29  C   UNL A   1      35.306  32.296  27.910  1.00  0.00     0.016 A 
ATOM     30  C   UNL A   1      35.910  29.673  28.687  1.00  0.00     0.010 A 
ATOM     31  C   UNL A   1      36.535  32.002  28.515  1.00  0.00     0.010 A 
ATOM     32  C   UNL A   1      36.834  30.692  28.939  1.00  0.00    -0.014 A 
BRANCH  32  33
ATOM     33  C   UNL A   1      38.075  30.388  29.702  1.00  0.00     0.031 A 
ATOM     34  C   UNL A   1      39.133  29.509  29.092  1.00  0.00     0.074 A 
ATOM     35  C   UNL A   1      38.276  30.937  30.916  1.00  0.00     0.049 A 
ATOM     36  N   UNL A   1      40.206  28.998  29.639  1.00  0.00    -0.248 NA
ATOM     37  C   UNL A   1      38.948  29.147  27.679  1.00  0.00     0.031 C 
ATOM     38  C   UNL A   1      37.363  31.869  31.583  1.00  0.00     0.029 A 
ATOM     39  N   UNL A   1      39.316  30.802  31.801  1.00  0.00    -0.354 N 
ATOM     40  C   UNL A   1      40.806  28.224  28.650  1.00  0.00     0.074 A 
ATOM     41  C   UNL A   1      39.961  28.318  27.477  1.00  0.00     0.031 C 
ATOM     42  C   UNL A   1      37.896  32.240  32.758  1.00  0.00     0.029 A 
ATOM     43  C   UNL A   1      39.142  31.512  32.967  1.00  0.00     0.049 A 
ATOM     44  H   UNL A   1      40.110  30.250  31.619  1.00  0.00     0.167 HD
ATOM     45  C   UNL A   1      41.954  27.504  28.718  1.00  0.00     0.034 A 
ATOM     46  C   UNL A   1      39.877  31.538  34.097  1.00  0.00     0.034 A 
ATOM     47  C   UNL A   1      42.797  27.450  29.891  1.00  0.00     0.049 A 
ATOM     48  C   UNL A   1      41.114  30.681  34.175  1.00  0.00     0.074 A 
ATOM     49  C   UNL A   1      43.971  26.742  30.081  1.00  0.00     0.029 A 
ATOM     50  N   UNL A   1      42.558  28.141  31.074  1.00  0.00    -0.354 N 
ATOM     51  N   UNL A   1      41.622  29.880  33.267  1.00  0.00    -0.248 NA
ATOM     52  C   UNL A   1      41.867  30.721  35.435  1.00  0.00     0.031 C 
ATOM     53  C   UNL A   1      44.412  26.962  31.392  1.00  0.00     0.029 A 
ATOM     54  C   UNL A   1      43.550  27.859  32.002  1.00  0.00     0.049 A 
ATOM     55  H   UNL A   1      41.796  28.743  31.230  1.00  0.00     0.167 HD
ATOM     56  C   UNL A   1      42.761  29.328  33.844  1.00  0.00     0.074 A 
ATOM     57  C   UNL A   1      42.875  29.904  35.169  1.00  0.00     0.031 C 
ATOM     58  C   UNL A   1      43.635  28.426  33.327  1.00  0.00     0.034 A 
BRANCH  45  59
ATOM     59  C   UNL A   1      42.319  26.665  27.515  1.00  0.00     0.023 A 
ATOM     60  C   UNL A   1      41.940  25.317  27.397  1.00  0.00     0.031 A 
ATOM     61  C   UNL A   1      43.103  27.220  26.487  1.00  0.00     0.131 A 
ATOM     62  C   UNL A   1      42.400  24.553  26.314  1.00  0.00     0.055 A 
ATOM     63  C   UNL A   1      43.495  26.475  25.373  1.00  0.00     0.041 A 
ATOM     64  F   UNL A   1      43.515  28.496  26.555  1.00  0.00    -0.206 F 
ATOM     65  C   UNL A   1      43.156  25.128  25.289  1.00  0.00     0.022 A 
BRANCH  62  66
ATOM     66  S   UNL A   1      42.117  22.760  26.327  1.00  0.00     0.124 S 
ATOM     67  O   UNL A   1      42.671  22.363  25.035  1.00  0.00    -0.237 OA
ATOM     68  O   UNL A   1      42.862  22.331  27.504  1.00  0.00    -0.237 OA
ATOM     69  O   UNL A   1      40.664  22.642  26.434  1.00  0.00    -0.744 OA
ENDBRANCH  62  66
ENDBRANCH  45  59
BRANCH  46  70
ATOM     70  C   UNL A   1      39.416  32.332  35.274  1.00  0.00     0.023 A 
ATOM     71  C   UNL A   1      39.822  33.662  35.467  1.00  0.00     0.031 A 
ATOM     72  C   UNL A   1      38.585  31.746  36.247  1.00  0.00     0.131 A 
ATOM     73  C   UNL A   1      39.420  34.352  36.624  1.00  0.00     0.055 A 
ATOM     74  C   UNL A   1      38.144  32.454  37.365  1.00  0.00     0.041 A 
ATOM     75  F   UNL A   1      38.176  30.474  36.116  1.00  0.00    -0.206 F 
ATOM     76  C   UNL A   1      38.570  33.761  37.564  1.00  0.00     0.022 A 
BRANCH  73  77
ATOM     77  S   UNL A   1      40.097  36.006  36.939  1.00  0.00     0.124 S 
ATOM     78  O   UNL A   1      39.330  36.426  38.107  1.00  0.00    -0.237 OA
ATOM     79  O   UNL A   1      41.510  35.725  37.165  1.00  0.00    -0.237 OA
ATOM     80  O   UNL A   1      39.801  36.735  35.707  1.00  0.00    -0.744 OA
ENDBRANCH  73  77
ENDBRANCH  46  70
BRANCH  58  81
ATOM     81  C   UNL A   1      44.802  28.039  34.199  1.00  0.00     0.023 A 
ATOM     82  C   UNL A   1      44.717  26.975  35.115  1.00  0.00     0.031 A 
ATOM     83  C   UNL A   1      46.005  28.761  34.129  1.00  0.00     0.131 A 
ATOM     84  C   UNL A   1      45.801  26.696  35.961  1.00  0.00     0.055 A 
ATOM     85  C   UNL A   1      47.097  28.447  34.938  1.00  0.00     0.041 A 
ATOM     86  F   UNL A   1      46.138  29.787  33.273  1.00  0.00    -0.206 F 
ATOM     87  C   UNL A   1      46.995  27.417  35.869  1.00  0.00     0.022 A 
BRANCH  84  88
ATOM     88  S   UNL A   1      45.604  25.427  37.243  1.00  0.00     0.124 S 
ATOM     89  O   UNL A   1      45.220  24.258  36.458  1.00  0.00    -0.237 OA
ATOM     90  O   UNL A   1      46.933  25.381  37.844  1.00  0.00    -0.237 OA
ATOM     91  O   UNL A   1      44.554  25.967  38.103  1.00  0.00    -0.744 OA
ENDBRANCH  84  88
ENDBRANCH  58  81
ENDBRANCH  32  33
ENDBRANCH  25  27
ENDBRANCH  24  25
ENDBRANCH   1  24
TORSDOF 16
ENDMDL
MODEL 3
REMARK VINA RESULT:     -12.6      5.243     10.510
REMARK SMILES Cc1nc(-c2cccc(N3C[C@H](C(=O)OCCOC(=O)c4ccc(-c5c6nc(c(-c7cc(S(=O)(=O)[O-])ccc7F)c7ccc([nH]7)c(-c7cc(S(=O)(=O)[O-])ccc7F)c7nc(c(-c8cc(S(=O)(=O)[O-])ccc8F)c8ccc5[nH]8)C=C7)C=C6)cc4)CC3=O)c2)no1
REMARK SMILES IDX 17 1 16 2 15 3 13 4 14 5 12 6 10 7 11 8 85 9 84 10 86 11
REMARK SMILES IDX 9 12 5 13 6 14 87 15 7 16 8 17 4 18 1 19 2 20 3 21 89 22
REMARK SMILES IDX 88 23 18 24 19 25 20 26 21 27 22 28 83 29 23 30 82 31 24 32
REMARK SMILES IDX 25 33 26 34 76 35 27 36 81 37 75 38 77 39 28 40 80 41 74 42
REMARK SMILES IDX 73 43 29 45 61 46 41 47 60 48 42 49 45 50 59 51 78 52 43 53
REMARK SMILES IDX 44 54 58 56 79 57 46 58 30 59 31 60 39 61 32 62 38 63 40 64
REMARK SMILES IDX 37 65 33 66 34 67 35 68 36 69 62 70 63 71 71 72 64 73 70 74
REMARK SMILES IDX 72 75 69 76 65 77 66 78 67 79 68 80 47 81 48 82 56 83 49 84
REMARK SMILES IDX 55 85 57 86 54 87 50 88 51 89 52 90 53 91
REMARK H PARENT 77 44 45 55
REMARK Flexibility Score: inf
ROOT
ATOM      1  C   UNL A   1      31.585  30.212  25.677  1.00  0.00     0.275 C 
ENDROOT
BRANCH   1   2
ATOM      2  C   UNL A   1      31.737  29.140  24.598  1.00  0.00     0.274 C 
BRANCH   2   3
ATOM      3  O   UNL A   1      30.982  27.945  24.884  1.00  0.00    -0.462 OA
BRANCH   3   4
ATOM      4  C   UNL A   1      31.096  26.950  23.962  1.00  0.00     0.311 C 
ATOM      5  O   UNL A   1      31.802  27.010  22.964  1.00  0.00    -0.252 OA
BRANCH   4   6
ATOM      6  C   UNL A   1      30.156  25.800  24.270  1.00  0.00     0.128 C 
ATOM      7  N   UNL A   1      31.482  23.983  24.912  1.00  0.00    -0.312 N 
ATOM      8  C   UNL A   1      30.778  24.510  23.770  1.00  0.00     0.141 C 
ATOM      9  C   UNL A   1      30.932  24.455  26.104  1.00  0.00     0.227 C 
ATOM     10  C   UNL A   1      29.939  25.550  25.757  1.00  0.00     0.117 C 
ATOM     11  O   UNL A   1      31.199  24.130  27.249  1.00  0.00    -0.274 OA
BRANCH   7  12
ATOM     12  C   UNL A   1      32.577  23.095  24.804  1.00  0.00     0.044 A 
ATOM     13  C   UNL A   1      33.509  20.840  24.815  1.00  0.00     0.025 A 
ATOM     14  C   UNL A   1      34.791  21.372  24.621  1.00  0.00     0.012 A 
ATOM     15  C   UNL A   1      32.412  21.711  24.940  1.00  0.00     0.038 A 
ATOM     16  C   UNL A   1      34.969  22.747  24.507  1.00  0.00     0.003 A 
ATOM     17  C   UNL A   1      33.867  23.598  24.579  1.00  0.00     0.026 A 
BRANCH  13  18
ATOM     18  C   UNL A   1      33.314  19.397  24.820  1.00  0.00     0.202 A 
ATOM     19  C   UNL A   1      34.347  15.997  24.794  1.00  0.00     0.114 C 
ATOM     20  C   UNL A   1      33.774  17.351  24.813  1.00  0.00     0.223 A 
ATOM     21  N   UNL A   1      34.357  18.514  24.626  1.00  0.00    -0.191 NA
ATOM     22  O   UNL A   1      32.450  17.448  25.110  1.00  0.00    -0.339 OA
ATOM     23  N   UNL A   1      32.152  18.806  25.136  1.00  0.00    -0.057 NA
ENDBRANCH  13  18
ENDBRANCH   7  12
ENDBRANCH   4   6
ENDBRANCH   3   4
ENDBRANCH   2   3
ENDBRANCH   1   2
BRANCH   1  24
ATOM     24  O   UNL A   1      32.562  30.054  26.719  1.00  0.00    -0.458 OA
BRANCH  24  25
ATOM     25  C   UNL A   1      33.103  31.211  27.163  1.00  0.00     0.338 C 
ATOM     26  O   UNL A   1      32.550  32.295  27.247  1.00  0.00    -0.246 OA
BRANCH  25  27
ATOM     27  C   UNL A   1      34.465  30.970  27.655  1.00  0.00     0.060 A 
ATOM     28  C   UNL A   1      34.830  29.654  27.925  1.00  0.00     0.016 A 
ATOM     29  C   UNL A   1      35.314  32.022  27.995  1.00  0.00     0.016 A 
ATOM     30  C   UNL A   1      36.006  29.377  28.611  1.00  0.00     0.010 A 
ATOM     31  C   UNL A   1      36.534  31.737  28.623  1.00  0.00     0.010 A 
ATOM     32  C   UNL A   1      36.876  30.413  28.966  1.00  0.00    -0.014 A 
BRANCH  32  33
ATOM     33  C   UNL A   1      38.103  30.108  29.751  1.00  0.00     0.031 A 
ATOM     34  C   UNL A   1      39.144  29.182  29.183  1.00  0.00     0.074 A 
ATOM     35  C   UNL A   1      38.307  30.696  30.946  1.00  0.00     0.049 A 
ATOM     36  N   UNL A   1      40.200  28.666  29.758  1.00  0.00    -0.248 NA
ATOM     37  C   UNL A   1      38.962  28.774  27.782  1.00  0.00     0.031 C 
ATOM     38  C   UNL A   1      37.411  31.673  31.571  1.00  0.00     0.029 A 
ATOM     39  N   UNL A   1      39.336  30.569  31.845  1.00  0.00    -0.354 N 
ATOM     40  C   UNL A   1      40.789  27.843  28.803  1.00  0.00     0.074 A 
ATOM     41  C   UNL A   1      39.957  27.914  27.619  1.00  0.00     0.031 C 
ATOM     42  C   UNL A   1      37.943  32.074  32.736  1.00  0.00     0.029 A 
ATOM     43  C   UNL A   1      39.169  31.324  32.983  1.00  0.00     0.049 A 
ATOM     44  H   UNL A   1      40.117  29.991  31.691  1.00  0.00     0.167 HD
ATOM     45  C   UNL A   1      41.919  27.099  28.908  1.00  0.00     0.034 A 
ATOM     46  C   UNL A   1      39.895  31.375  34.118  1.00  0.00     0.034 A 
ATOM     47  C   UNL A   1      42.750  27.068  30.089  1.00  0.00     0.049 A 
ATOM     48  C   UNL A   1      41.111  30.492  34.238  1.00  0.00     0.074 A 
ATOM     49  C   UNL A   1      43.906  26.339  30.316  1.00  0.00     0.029 A 
ATOM     50  N   UNL A   1      42.519  27.806  31.244  1.00  0.00    -0.354 N 
ATOM     51  N   UNL A   1      41.607  29.646  33.365  1.00  0.00    -0.248 NA
ATOM     52  C   UNL A   1      41.854  30.559  35.502  1.00  0.00     0.031 C 
ATOM     53  C   UNL A   1      44.341  26.597  31.622  1.00  0.00     0.029 A 
ATOM     54  C   UNL A   1      43.496  27.536  32.191  1.00  0.00     0.049 A 
ATOM     55  H   UNL A   1      41.770  28.432  31.371  1.00  0.00     0.167 HD
ATOM     56  C   UNL A   1      42.727  29.089  33.972  1.00  0.00     0.074 A 
ATOM     57  C   UNL A   1      42.845  29.710  35.276  1.00  0.00     0.031 C 
ATOM     58  C   UNL A   1      43.583  28.148  33.496  1.00  0.00     0.034 A 
BRANCH  45  59
ATOM     59  C   UNL A   1      42.274  26.209  27.740  1.00  0.00     0.023 A 
ATOM     60  C   UNL A   1      41.806  24.887  27.634  1.00  0.00     0.031 A 
ATOM     61  C   UNL A   1      43.137  26.684  26.735  1.00  0.00     0.131 A 
ATOM     62  C   UNL A   1      42.256  24.068  26.587  1.00  0.00     0.055 A 
ATOM     63  C   UNL A   1      43.521  25.887  25.654  1.00  0.00     0.041 A 
ATOM     64  F   UNL A   1      43.634  27.929  26.793  1.00  0.00    -0.206 F 
ATOM     65  C   UNL A   1      43.092  24.565  25.584  1.00  0.00     0.022 A 
BRANCH  62  66
ATOM     66  S   UNL A   1      41.848  22.300  26.625  1.00  0.00     0.124 S 
ATOM     67  O   UNL A   1      42.378  21.845  25.342  1.00  0.00    -0.237 OA
ATOM     68  O   UNL A   1      42.557  21.837  27.812  1.00  0.00    -0.237 OA
ATOM     69  O   UNL A   1      40.389  22.286  26.727  1.00  0.00    -0.744 OA
ENDBRANCH  62  66
ENDBRANCH  45  59
BRANCH  46  70
ATOM     70  C   UNL A   1      39.444  32.221  35.261  1.00  0.00     0.023 A 
ATOM     71  C   UNL A   1      38.746  31.674  36.350  1.00  0.00     0.031 A 
ATOM     72  C   UNL A   1      39.679  33.609  35.256  1.00  0.00     0.131 A 
ATOM     73  C   UNL A   1      38.280  32.517  37.373  1.00  0.00     0.055 A 
ATOM     74  C   UNL A   1      39.262  34.433  36.302  1.00  0.00     0.041 A 
ATOM     75  F   UNL A   1      40.333  34.184  34.235  1.00  0.00    -0.206 F 
ATOM     76  C   UNL A   1      38.549  33.889  37.363  1.00  0.00     0.022 A 
BRANCH  73  77
ATOM     77  S   UNL A   1      37.232  31.816  38.678  1.00  0.00     0.124 S 
ATOM     78  O   UNL A   1      36.068  32.695  38.632  1.00  0.00    -0.237 OA
ATOM     79  O   UNL A   1      37.025  30.451  38.209  1.00  0.00    -0.237 OA
ATOM     80  O   UNL A   1      38.056  31.939  39.879  1.00  0.00    -0.744 OA
ENDBRANCH  73  77
ENDBRANCH  46  70
BRANCH  58  81
ATOM     81  C   UNL A   1      44.733  27.765  34.391  1.00  0.00     0.023 A 
ATOM     82  C   UNL A   1      44.629  26.711  35.317  1.00  0.00     0.031 A 
ATOM     83  C   UNL A   1      45.941  28.482  34.335  1.00  0.00     0.131 A 
ATOM     84  C   UNL A   1      45.697  26.436  36.184  1.00  0.00     0.055 A 
ATOM     85  C   UNL A   1      47.018  28.171  35.166  1.00  0.00     0.041 A 
ATOM     86  F   UNL A   1      46.093  29.498  33.471  1.00  0.00    -0.206 F 
ATOM     87  C   UNL A   1      46.895  27.152  36.105  1.00  0.00     0.022 A 
BRANCH  84  88
ATOM     88  S   UNL A   1      45.473  25.181  37.475  1.00  0.00     0.124 S 
ATOM     89  O   UNL A   1      44.675  24.173  36.785  1.00  0.00    -0.237 OA
ATOM     90  O   UNL A   1      46.847  24.803  37.786  1.00  0.00    -0.237 OA
ATOM     91  O   UNL A   1      44.775  25.902  38.538  1.00  0.00    -0.744 OA
ENDBRANCH  84  88
ENDBRANCH  58  81
ENDBRANCH  32  33
ENDBRANCH  25  27
ENDBRANCH  24  25
ENDBRANCH   1  24
TORSDOF 16
ENDMDL
