MODEL 1
REMARK VINA RESULT:     -13.7      0.000      0.000
REMARK SMILES O=C(NC1(C(=O)OCCOC(=O)c2ccc(-c3c4nc(c(-c5cc(S(=O)(=O)[O-])ccc5F)c5ccc([nH]5)c(-c5cc(S(=O)(=O)[O-])ccc5F)c5nc(c(-c6cc(S(=O)(=O)[O-])ccc6F)c6ccc3[nH]6)C=C5)C=C4)cc2)Cc2ccccc2C1)OCC1c2ccccc2-c2ccccc21
REMARK SMILES IDX 8 1 7 2 5 3 6 4 4 5 76 6 83 7 77 8 82 9 78 10 81 11 79 12
REMARK SMILES IDX 80 13 3 14 1 15 2 16 84 18 85 19 86 20 87 21 98 22 88 23
REMARK SMILES IDX 92 24 93 25 97 26 89 27 91 28 94 29 96 30 90 31 95 32 9 33
REMARK SMILES IDX 10 34 11 35 12 36 13 37 14 38 75 39 15 40 74 41 16 42 17 43
REMARK SMILES IDX 18 44 68 45 19 46 73 47 67 48 69 49 20 50 72 51 66 52 65 53
REMARK SMILES IDX 21 55 53 56 33 57 52 58 34 59 37 60 51 61 70 62 35 63 36 64
REMARK SMILES IDX 50 66 71 67 38 68 22 69 23 70 31 71 24 72 30 73 32 74 29 75
REMARK SMILES IDX 25 76 26 77 27 78 28 79 54 80 55 81 63 82 56 83 62 84 64 85
REMARK SMILES IDX 61 86 57 87 58 88 59 89 60 90 39 91 40 92 48 93 41 94 47 95
REMARK SMILES IDX 49 96 46 97 42 98 43 99 44 100 45 101
REMARK H PARENT 3 17 69 54 37 65
REMARK Flexibility Score: inf
ROOT
ATOM      1  C   UNL A   1      32.004  28.370  27.129  1.00  0.00     0.274 C 
ENDROOT
BRANCH   1   2
ATOM      2  O   UNL A   1      32.408  27.833  25.851  1.00  0.00    -0.460 OA
BRANCH   2   3
ATOM      3  C   UNL A   1      31.404  27.407  25.035  1.00  0.00     0.332 C 
ATOM      4  O   UNL A   1      30.567  26.582  25.392  1.00  0.00    -0.249 OA
BRANCH   3   5
ATOM      5  C   UNL A   1      31.450  28.003  23.589  1.00  0.00     0.149 C 
ATOM      6  C   UNL A   1      31.366  29.544  23.659  1.00  0.00     0.076 C 
ATOM      7  C   UNL A   1      30.197  27.574  22.763  1.00  0.00     0.076 C 
ATOM      8  C   UNL A   1      29.914  29.826  23.490  1.00  0.00    -0.042 A 
ATOM      9  C   UNL A   1      29.247  28.719  22.976  1.00  0.00    -0.042 A 
ATOM     10  C   UNL A   1      29.261  31.006  23.805  1.00  0.00     0.004 A 
ATOM     11  C   UNL A   1      27.886  28.781  22.738  1.00  0.00     0.004 A 
ATOM     12  C   UNL A   1      27.890  31.070  23.588  1.00  0.00     0.000 A 
ATOM     13  C   UNL A   1      27.208  29.966  23.052  1.00  0.00     0.000 A 
BRANCH   5  14
ATOM     14  N   UNL A   1      32.699  27.483  22.947  1.00  0.00    -0.305 N 
ATOM     15  O   UNL A   1      33.604  26.262  21.265  1.00  0.00    -0.225 OA
ATOM     16  C   UNL A   1      32.837  26.324  22.222  1.00  0.00     0.408 C 
ATOM     17  H   UNL A   1      33.510  28.030  23.057  1.00  0.00     0.168 HD
BRANCH  16  18
ATOM     18  O   UNL A   1      32.064  25.301  22.642  1.00  0.00    -0.449 OA
BRANCH  18  19
ATOM     19  C   UNL A   1      32.562  23.938  22.429  1.00  0.00     0.248 C 
BRANCH  19  20
ATOM     20  C   UNL A   1      33.182  23.580  23.775  1.00  0.00     0.088 C 
ATOM     21  C   UNL A   1      34.594  23.021  23.881  1.00  0.00    -0.029 A 
ATOM     22  C   UNL A   1      32.510  23.060  25.022  1.00  0.00    -0.029 A 
ATOM     23  C   UNL A   1      35.617  23.014  22.947  1.00  0.00     0.005 A 
ATOM     24  C   UNL A   1      34.816  22.683  25.239  1.00  0.00    -0.014 A 
ATOM     25  C   UNL A   1      33.542  22.738  25.948  1.00  0.00    -0.014 A 
ATOM     26  C   UNL A   1      31.189  23.181  25.407  1.00  0.00     0.005 A 
ATOM     27  C   UNL A   1      36.903  22.706  23.394  1.00  0.00     0.000 A 
ATOM     28  C   UNL A   1      36.098  22.413  25.683  1.00  0.00     0.009 A 
ATOM     29  C   UNL A   1      33.252  22.633  27.295  1.00  0.00     0.009 A 
ATOM     30  C   UNL A   1      30.900  23.039  26.764  1.00  0.00     0.000 A 
ATOM     31  C   UNL A   1      37.145  22.431  24.752  1.00  0.00     0.001 A 
ATOM     32  C   UNL A   1      31.923  22.799  27.701  1.00  0.00     0.001 A 
ENDBRANCH  19  20
ENDBRANCH  18  19
ENDBRANCH  16  18
ENDBRANCH   5  14
ENDBRANCH   3   5
ENDBRANCH   2   3
ENDBRANCH   1   2
BRANCH   1  33
ATOM     33  C   UNL A   1      31.942  29.899  27.133  1.00  0.00     0.275 C 
BRANCH  33  34
ATOM     34  O   UNL A   1      33.152  30.474  26.611  1.00  0.00    -0.458 OA
BRANCH  34  35
ATOM     35  C   UNL A   1      33.689  31.451  27.377  1.00  0.00     0.338 C 
ATOM     36  O   UNL A   1      33.130  32.446  27.805  1.00  0.00    -0.246 OA
BRANCH  35  37
ATOM     37  C   UNL A   1      35.066  31.098  27.743  1.00  0.00     0.060 A 
ATOM     38  C   UNL A   1      35.340  29.764  28.037  1.00  0.00     0.016 A 
ATOM     39  C   UNL A   1      36.025  32.083  27.965  1.00  0.00     0.016 A 
ATOM     40  C   UNL A   1      36.542  29.406  28.629  1.00  0.00     0.010 A 
ATOM     41  C   UNL A   1      37.260  31.716  28.510  1.00  0.00     0.010 A 
ATOM     42  C   UNL A   1      37.510  30.381  28.884  1.00  0.00    -0.014 A 
BRANCH  42  43
ATOM     43  C   UNL A   1      38.734  30.019  29.640  1.00  0.00     0.031 A 
ATOM     44  C   UNL A   1      39.709  29.048  29.031  1.00  0.00     0.074 A 
ATOM     45  C   UNL A   1      38.994  30.587  30.831  1.00  0.00     0.049 A 
ATOM     46  N   UNL A   1      40.737  28.451  29.572  1.00  0.00    -0.248 NA
ATOM     47  C   UNL A   1      39.482  28.695  27.620  1.00  0.00     0.031 C 
ATOM     48  C   UNL A   1      38.174  31.615  31.475  1.00  0.00     0.029 A 
ATOM     49  N   UNL A   1      40.024  30.384  31.714  1.00  0.00    -0.354 N 
ATOM     50  C   UNL A   1      41.252  27.615  28.586  1.00  0.00     0.074 A 
ATOM     51  C   UNL A   1      40.414  27.777  27.418  1.00  0.00     0.031 C 
ATOM     52  C   UNL A   1      38.738  31.961  32.642  1.00  0.00     0.029 A 
ATOM     53  C   UNL A   1      39.910  31.123  32.869  1.00  0.00     0.049 A 
ATOM     54  H   UNL A   1      40.772  29.768  31.538  1.00  0.00     0.167 HD
ATOM     55  C   UNL A   1      42.322  26.785  28.662  1.00  0.00     0.034 A 
ATOM     56  C   UNL A   1      40.640  31.089  34.000  1.00  0.00     0.034 A 
ATOM     57  C   UNL A   1      43.156  26.668  29.835  1.00  0.00     0.049 A 
ATOM     58  C   UNL A   1      41.783  30.111  34.087  1.00  0.00     0.074 A 
ATOM     59  C   UNL A   1      44.256  25.855  30.039  1.00  0.00     0.029 A 
ATOM     60  N   UNL A   1      42.981  27.399  31.005  1.00  0.00    -0.354 N 
ATOM     61  N   UNL A   1      42.211  29.257  33.185  1.00  0.00    -0.248 NA
ATOM     62  C   UNL A   1      42.531  30.081  35.349  1.00  0.00     0.031 C 
ATOM     63  C   UNL A   1      44.712  26.053  31.348  1.00  0.00     0.029 A 
ATOM     64  C   UNL A   1      43.938  27.039  31.941  1.00  0.00     0.049 A 
ATOM     65  H   UNL A   1      42.280  28.074  31.149  1.00  0.00     0.167 HD
ATOM     66  C   UNL A   1      43.289  28.599  33.766  1.00  0.00     0.074 A 
ATOM     67  C   UNL A   1      43.457  29.169  35.089  1.00  0.00     0.031 C 
ATOM     68  C   UNL A   1      44.071  27.613  33.259  1.00  0.00     0.034 A 
BRANCH  55  69
ATOM     69  C   UNL A   1      42.589  25.890  27.475  1.00  0.00     0.023 A 
ATOM     70  C   UNL A   1      42.063  24.590  27.381  1.00  0.00     0.031 A 
ATOM     71  C   UNL A   1      43.430  26.334  26.440  1.00  0.00     0.131 A 
ATOM     72  C   UNL A   1      42.442  23.756  26.316  1.00  0.00     0.055 A 
ATOM     73  C   UNL A   1      43.743  25.528  25.343  1.00  0.00     0.041 A 
ATOM     74  F   UNL A   1      43.984  27.557  26.485  1.00  0.00    -0.206 F 
ATOM     75  C   UNL A   1      43.259  24.225  25.284  1.00  0.00     0.022 A 
BRANCH  72  76
ATOM     76  S   UNL A   1      41.970  22.004  26.369  1.00  0.00     0.124 S 
ATOM     77  O   UNL A   1      40.534  22.078  26.109  1.00  0.00    -0.237 OA
ATOM     78  O   UNL A   1      42.784  21.426  25.307  1.00  0.00    -0.237 OA
ATOM     79  O   UNL A   1      42.329  21.592  27.725  1.00  0.00    -0.744 OA
ENDBRANCH  72  76
ENDBRANCH  55  69
BRANCH  56  80
ATOM     80  C   UNL A   1      40.266  31.943  35.165  1.00  0.00     0.023 A 
ATOM     81  C   UNL A   1      39.298  31.528  36.092  1.00  0.00     0.031 A 
ATOM     82  C   UNL A   1      40.853  33.210  35.345  1.00  0.00     0.131 A 
ATOM     83  C   UNL A   1      38.922  32.385  37.140  1.00  0.00     0.055 A 
ATOM     84  C   UNL A   1      40.514  34.035  36.418  1.00  0.00     0.041 A 
ATOM     85  F   UNL A   1      41.780  33.659  34.484  1.00  0.00    -0.206 F 
ATOM     86  C   UNL A   1      39.534  33.628  37.317  1.00  0.00     0.022 A 
BRANCH  83  87
ATOM     87  S   UNL A   1      37.559  31.885  38.228  1.00  0.00     0.124 S 
ATOM     88  O   UNL A   1      37.290  30.529  37.763  1.00  0.00    -0.237 OA
ATOM     89  O   UNL A   1      38.166  32.002  39.549  1.00  0.00    -0.237 OA
ATOM     90  O   UNL A   1      36.514  32.863  37.935  1.00  0.00    -0.744 OA
ENDBRANCH  83  87
ENDBRANCH  56  80
BRANCH  68  91
ATOM     91  C   UNL A   1      45.198  27.128  34.135  1.00  0.00     0.023 A 
ATOM     92  C   UNL A   1      45.033  26.041  35.010  1.00  0.00     0.031 A 
ATOM     93  C   UNL A   1      46.443  27.779  34.108  1.00  0.00     0.131 A 
ATOM     94  C   UNL A   1      46.082  25.670  35.865  1.00  0.00     0.055 A 
ATOM     95  C   UNL A   1      47.499  27.372  34.923  1.00  0.00     0.041 A 
ATOM     96  F   UNL A   1      46.649  28.823  33.291  1.00  0.00    -0.206 F 
ATOM     97  C   UNL A   1      47.318  26.320  35.817  1.00  0.00     0.022 A 
BRANCH  94  98
ATOM     98  S   UNL A   1      45.781  24.380  37.103  1.00  0.00     0.124 S 
ATOM     99  O   UNL A   1      44.726  24.977  37.916  1.00  0.00    -0.237 OA
ATOM    100  O   UNL A   1      45.384  23.242  36.280  1.00  0.00    -0.237 OA
ATOM    101  O   UNL A   1      47.074  24.238  37.772  1.00  0.00    -0.744 OA
ENDBRANCH  94  98
ENDBRANCH  68  91
ENDBRANCH  42  43
ENDBRANCH  35  37
ENDBRANCH  34  35
ENDBRANCH  33  34
ENDBRANCH   1  33
TORSDOF 18
ENDMDL
MODEL 2
REMARK VINA RESULT:     -13.6      1.936      3.389
REMARK SMILES O=C(NC1(C(=O)OCCOC(=O)c2ccc(-c3c4nc(c(-c5cc(S(=O)(=O)[O-])ccc5F)c5ccc([nH]5)c(-c5cc(S(=O)(=O)[O-])ccc5F)c5nc(c(-c6cc(S(=O)(=O)[O-])ccc6F)c6ccc3[nH]6)C=C5)C=C4)cc2)Cc2ccccc2C1)OCC1c2ccccc2-c2ccccc21
REMARK SMILES IDX 8 1 7 2 5 3 6 4 4 5 76 6 83 7 77 8 82 9 78 10 81 11 79 12
REMARK SMILES IDX 80 13 3 14 1 15 2 16 84 18 85 19 86 20 87 21 98 22 88 23
REMARK SMILES IDX 92 24 93 25 97 26 89 27 91 28 94 29 96 30 90 31 95 32 9 33
REMARK SMILES IDX 10 34 11 35 12 36 13 37 14 38 75 39 15 40 74 41 16 42 17 43
REMARK SMILES IDX 18 44 68 45 19 46 73 47 67 48 69 49 20 50 72 51 66 52 65 53
REMARK SMILES IDX 21 55 53 56 33 57 52 58 34 59 37 60 51 61 70 62 35 63 36 64
REMARK SMILES IDX 50 66 71 67 38 68 22 69 23 70 31 71 24 72 30 73 32 74 29 75
REMARK SMILES IDX 25 76 26 77 27 78 28 79 54 80 55 81 63 82 56 83 62 84 64 85
REMARK SMILES IDX 61 86 57 87 58 88 59 89 60 90 39 91 40 92 48 93 41 94 47 95
REMARK SMILES IDX 49 96 46 97 42 98 43 99 44 100 45 101
REMARK H PARENT 3 17 69 54 37 65
REMARK Flexibility Score: inf
ROOT
ATOM      1  C   UNL A   1      31.744  28.716  27.328  1.00  0.00     0.274 C 
ENDROOT
BRANCH   1   2
ATOM      2  O   UNL A   1      32.460  27.668  26.639  1.00  0.00    -0.460 OA
BRANCH   2   3
ATOM      3  C   UNL A   1      31.706  26.639  26.163  1.00  0.00     0.332 C 
ATOM      4  O   UNL A   1      30.547  26.448  26.520  1.00  0.00    -0.249 OA
BRANCH   3   5
ATOM      5  C   UNL A   1      32.463  25.685  25.179  1.00  0.00     0.149 C 
ATOM      6  C   UNL A   1      31.713  24.338  25.083  1.00  0.00     0.076 C 
ATOM      7  C   UNL A   1      33.876  25.315  25.730  1.00  0.00     0.076 C 
ATOM      8  C   UNL A   1      32.397  23.480  26.090  1.00  0.00    -0.042 A 
ATOM      9  C   UNL A   1      33.625  24.022  26.455  1.00  0.00    -0.042 A 
ATOM     10  C   UNL A   1      31.913  22.305  26.637  1.00  0.00     0.004 A 
ATOM     11  C   UNL A   1      34.422  23.370  27.378  1.00  0.00     0.004 A 
ATOM     12  C   UNL A   1      32.698  21.652  27.580  1.00  0.00     0.000 A 
ATOM     13  C   UNL A   1      33.948  22.179  27.943  1.00  0.00     0.000 A 
BRANCH   5  14
ATOM     14  N   UNL A   1      32.586  26.415  23.878  1.00  0.00    -0.305 N 
ATOM     15  O   UNL A   1      32.504  26.294  21.615  1.00  0.00    -0.225 OA
ATOM     16  C   UNL A   1      32.989  25.896  22.671  1.00  0.00     0.408 C 
ATOM     17  H   UNL A   1      32.355  27.372  23.888  1.00  0.00     0.168 HD
BRANCH  16  18
ATOM     18  O   UNL A   1      33.927  24.930  22.758  1.00  0.00    -0.449 OA
BRANCH  18  19
ATOM     19  C   UNL A   1      33.695  23.686  22.016  1.00  0.00     0.248 C 
BRANCH  19  20
ATOM     20  C   UNL A   1      34.314  22.623  22.917  1.00  0.00     0.088 C 
ATOM     21  C   UNL A   1      33.497  21.456  23.453  1.00  0.00    -0.029 A 
ATOM     22  C   UNL A   1      35.421  22.766  23.933  1.00  0.00    -0.029 A 
ATOM     23  C   UNL A   1      32.264  20.975  23.045  1.00  0.00     0.005 A 
ATOM     24  C   UNL A   1      34.327  20.731  24.344  1.00  0.00    -0.014 A 
ATOM     25  C   UNL A   1      35.523  21.520  24.614  1.00  0.00    -0.014 A 
ATOM     26  C   UNL A   1      36.412  23.726  24.003  1.00  0.00     0.005 A 
ATOM     27  C   UNL A   1      31.872  19.717  23.504  1.00  0.00     0.000 A 
ATOM     28  C   UNL A   1      33.949  19.469  24.769  1.00  0.00     0.009 A 
ATOM     29  C   UNL A   1      36.683  21.200  25.296  1.00  0.00     0.009 A 
ATOM     30  C   UNL A   1      37.564  23.408  24.722  1.00  0.00     0.000 A 
ATOM     31  C   UNL A   1      32.716  18.962  24.339  1.00  0.00     0.001 A 
ATOM     32  C   UNL A   1      37.711  22.149  25.335  1.00  0.00     0.001 A 
ENDBRANCH  19  20
ENDBRANCH  18  19
ENDBRANCH  16  18
ENDBRANCH   5  14
ENDBRANCH   3   5
ENDBRANCH   2   3
ENDBRANCH   1   2
BRANCH   1  33
ATOM     33  C   UNL A   1      31.725  30.030  26.544  1.00  0.00     0.275 C 
BRANCH  33  34
ATOM     34  O   UNL A   1      33.055  30.530  26.325  1.00  0.00    -0.458 OA
BRANCH  34  35
ATOM     35  C   UNL A   1      33.447  31.492  27.190  1.00  0.00     0.338 C 
ATOM     36  O   UNL A   1      32.774  32.407  27.633  1.00  0.00    -0.246 OA
BRANCH  35  37
ATOM     37  C   UNL A   1      34.818  31.229  27.642  1.00  0.00     0.060 A 
ATOM     38  C   UNL A   1      35.172  29.908  27.910  1.00  0.00     0.016 A 
ATOM     39  C   UNL A   1      35.681  32.273  27.966  1.00  0.00     0.016 A 
ATOM     40  C   UNL A   1      36.354  29.617  28.575  1.00  0.00     0.010 A 
ATOM     41  C   UNL A   1      36.899  31.978  28.586  1.00  0.00     0.010 A 
ATOM     42  C   UNL A   1      37.224  30.651  28.932  1.00  0.00    -0.014 A 
BRANCH  42  43
ATOM     43  C   UNL A   1      38.418  30.352  29.762  1.00  0.00     0.031 A 
ATOM     44  C   UNL A   1      39.484  29.447  29.209  1.00  0.00     0.074 A 
ATOM     45  C   UNL A   1      38.567  30.920  30.972  1.00  0.00     0.049 A 
ATOM     46  N   UNL A   1      40.508  28.904  29.811  1.00  0.00    -0.248 NA
ATOM     47  C   UNL A   1      39.368  29.097  27.784  1.00  0.00     0.031 C 
ATOM     48  C   UNL A   1      37.649  31.892  31.570  1.00  0.00     0.029 A 
ATOM     49  N   UNL A   1      39.549  30.767  31.917  1.00  0.00    -0.354 N 
ATOM     50  C   UNL A   1      41.134  28.110  28.853  1.00  0.00     0.074 A 
ATOM     51  C   UNL A   1      40.364  28.237  27.635  1.00  0.00     0.031 C 
ATOM     52  C   UNL A   1      38.117  32.256  32.774  1.00  0.00     0.029 A 
ATOM     53  C   UNL A   1      39.319  31.485  33.068  1.00  0.00     0.049 A 
ATOM     54  H   UNL A   1      40.342  30.198  31.785  1.00  0.00     0.167 HD
ATOM     55  C   UNL A   1      42.244  27.343  28.991  1.00  0.00     0.034 A 
ATOM     56  C   UNL A   1      39.977  31.480  34.244  1.00  0.00     0.034 A 
ATOM     57  C   UNL A   1      43.006  27.261  30.213  1.00  0.00     0.049 A 
ATOM     58  C   UNL A   1      41.167  30.569  34.396  1.00  0.00     0.074 A 
ATOM     59  C   UNL A   1      44.137  26.511  30.481  1.00  0.00     0.029 A 
ATOM     60  N   UNL A   1      42.716  27.967  31.376  1.00  0.00    -0.354 N 
ATOM     61  N   UNL A   1      41.700  29.752  33.516  1.00  0.00    -0.248 NA
ATOM     62  C   UNL A   1      41.834  30.568  35.704  1.00  0.00     0.031 C 
ATOM     63  C   UNL A   1      44.497  26.720  31.818  1.00  0.00     0.029 A 
ATOM     64  C   UNL A   1      43.630  27.652  32.368  1.00  0.00     0.049 A 
ATOM     65  H   UNL A   1      41.968  28.599  31.480  1.00  0.00     0.167 HD
ATOM     66  C   UNL A   1      42.777  29.151  34.161  1.00  0.00     0.074 A 
ATOM     67  C   UNL A   1      42.826  29.714  35.496  1.00  0.00     0.031 C 
ATOM     68  C   UNL A   1      43.646  28.218  33.697  1.00  0.00     0.034 A 
BRANCH  55  69
ATOM     69  C   UNL A   1      42.637  26.479  27.816  1.00  0.00     0.023 A 
ATOM     70  C   UNL A   1      42.126  25.182  27.633  1.00  0.00     0.031 A 
ATOM     71  C   UNL A   1      43.584  26.948  26.889  1.00  0.00     0.131 A 
ATOM     72  C   UNL A   1      42.617  24.376  26.594  1.00  0.00     0.055 A 
ATOM     73  C   UNL A   1      44.013  26.170  25.811  1.00  0.00     0.041 A 
ATOM     74  F   UNL A   1      44.128  28.168  27.025  1.00  0.00    -0.206 F 
ATOM     75  C   UNL A   1      43.540  24.870  25.667  1.00  0.00     0.022 A 
BRANCH  72  76
ATOM     76  S   UNL A   1      42.144  22.624  26.550  1.00  0.00     0.124 S 
ATOM     77  O   UNL A   1      42.431  22.276  25.161  1.00  0.00    -0.237 OA
ATOM     78  O   UNL A   1      43.024  22.035  27.552  1.00  0.00    -0.237 OA
ATOM     79  O   UNL A   1      40.725  22.643  26.900  1.00  0.00    -0.744 OA
ENDBRANCH  72  76
ENDBRANCH  55  69
BRANCH  56  80
ATOM     80  C   UNL A   1      39.481  32.298  35.389  1.00  0.00     0.023 A 
ATOM     81  C   UNL A   1      39.867  33.638  35.549  1.00  0.00     0.031 A 
ATOM     82  C   UNL A   1      38.636  31.734  36.363  1.00  0.00     0.131 A 
ATOM     83  C   UNL A   1      39.435  34.359  36.674  1.00  0.00     0.055 A 
ATOM     84  C   UNL A   1      38.166  32.472  37.450  1.00  0.00     0.041 A 
ATOM     85  F   UNL A   1      38.240  30.455  36.262  1.00  0.00    -0.206 F 
ATOM     86  C   UNL A   1      38.576  33.791  37.616  1.00  0.00     0.022 A 
BRANCH  83  87
ATOM     87  S   UNL A   1      40.077  36.037  36.932  1.00  0.00     0.124 S 
ATOM     88  O   UNL A   1      39.802  36.662  35.643  1.00  0.00    -0.237 OA
ATOM     89  O   UNL A   1      39.271  36.501  38.056  1.00  0.00    -0.237 OA
ATOM     90  O   UNL A   1      41.491  35.817  37.230  1.00  0.00    -0.744 OA
ENDBRANCH  83  87
ENDBRANCH  56  80
BRANCH  68  91
ATOM     91  C   UNL A   1      44.741  27.789  34.639  1.00  0.00     0.023 A 
ATOM     92  C   UNL A   1      44.593  26.671  35.478  1.00  0.00     0.031 A 
ATOM     93  C   UNL A   1      45.936  28.524  34.714  1.00  0.00     0.131 A 
ATOM     94  C   UNL A   1      45.605  26.351  36.396  1.00  0.00     0.055 A 
ATOM     95  C   UNL A   1      46.960  28.170  35.591  1.00  0.00     0.041 A 
ATOM     96  F   UNL A   1      46.124  29.601  33.934  1.00  0.00    -0.206 F 
ATOM     97  C   UNL A   1      46.792  27.086  36.448  1.00  0.00     0.022 A 
BRANCH  94  98
ATOM     98  S   UNL A   1      45.311  25.012  37.583  1.00  0.00     0.124 S 
ATOM     99  O   UNL A   1      45.968  25.518  38.783  1.00  0.00    -0.237 OA
ATOM    100  O   UNL A   1      43.854  24.950  37.632  1.00  0.00    -0.237 OA
ATOM    101  O   UNL A   1      45.958  23.856  36.963  1.00  0.00    -0.744 OA
ENDBRANCH  94  98
ENDBRANCH  68  91
ENDBRANCH  42  43
ENDBRANCH  35  37
ENDBRANCH  34  35
ENDBRANCH  33  34
ENDBRANCH   1  33
TORSDOF 18
ENDMDL
MODEL 3
REMARK VINA RESULT:     -13.5      1.768      2.494
REMARK SMILES O=C(NC1(C(=O)OCCOC(=O)c2ccc(-c3c4nc(c(-c5cc(S(=O)(=O)[O-])ccc5F)c5ccc([nH]5)c(-c5cc(S(=O)(=O)[O-])ccc5F)c5nc(c(-c6cc(S(=O)(=O)[O-])ccc6F)c6ccc3[nH]6)C=C5)C=C4)cc2)Cc2ccccc2C1)OCC1c2ccccc2-c2ccccc21
REMARK SMILES IDX 8 1 7 2 5 3 6 4 4 5 76 6 83 7 77 8 82 9 78 10 81 11 79 12
REMARK SMILES IDX 80 13 3 14 1 15 2 16 84 18 85 19 86 20 87 21 98 22 88 23
REMARK SMILES IDX 92 24 93 25 97 26 89 27 91 28 94 29 96 30 90 31 95 32 9 33
REMARK SMILES IDX 10 34 11 35 12 36 13 37 14 38 75 39 15 40 74 41 16 42 17 43
REMARK SMILES IDX 18 44 68 45 19 46 73 47 67 48 69 49 20 50 72 51 66 52 65 53
REMARK SMILES IDX 21 55 53 56 33 57 52 58 34 59 37 60 51 61 70 62 35 63 36 64
REMARK SMILES IDX 50 66 71 67 38 68 22 69 23 70 31 71 24 72 30 73 32 74 29 75
REMARK SMILES IDX 25 76 26 77 27 78 28 79 54 80 55 81 63 82 56 83 62 84 64 85
REMARK SMILES IDX 61 86 57 87 58 88 59 89 60 90 39 91 40 92 48 93 41 94 47 95
REMARK SMILES IDX 49 96 46 97 42 98 43 99 44 100 45 101
REMARK H PARENT 3 17 69 54 37 65
REMARK Flexibility Score: inf
ROOT
ATOM      1  C   UNL A   1      31.979  28.028  26.940  1.00  0.00     0.274 C 
ENDROOT
BRANCH   1   2
ATOM      2  O   UNL A   1      31.646  27.341  25.714  1.00  0.00    -0.460 OA
BRANCH   2   3
ATOM      3  C   UNL A   1      30.623  26.447  25.785  1.00  0.00     0.332 C 
ATOM      4  O   UNL A   1      30.210  25.998  26.851  1.00  0.00    -0.249 OA
BRANCH   3   5
ATOM      5  C   UNL A   1      30.068  25.988  24.395  1.00  0.00     0.149 C 
ATOM      6  C   UNL A   1      30.938  26.582  23.266  1.00  0.00     0.076 C 
ATOM      7  C   UNL A   1      28.639  26.564  24.142  1.00  0.00     0.076 C 
ATOM      8  C   UNL A   1      30.223  27.832  22.890  1.00  0.00    -0.042 A 
ATOM      9  C   UNL A   1      28.919  27.827  23.375  1.00  0.00    -0.042 A 
ATOM     10  C   UNL A   1      30.743  28.897  22.175  1.00  0.00     0.004 A 
ATOM     11  C   UNL A   1      28.084  28.900  23.125  1.00  0.00     0.004 A 
ATOM     12  C   UNL A   1      29.918  29.989  21.936  1.00  0.00     0.000 A 
ATOM     13  C   UNL A   1      28.593  29.987  22.403  1.00  0.00     0.000 A 
BRANCH   5  14
ATOM     14  N   UNL A   1      30.028  24.491  24.419  1.00  0.00    -0.305 N 
ATOM     15  O   UNL A   1      30.812  22.584  25.362  1.00  0.00    -0.225 OA
ATOM     16  C   UNL A   1      31.044  23.641  24.781  1.00  0.00     0.408 C 
ATOM     17  H   UNL A   1      29.182  24.070  24.145  1.00  0.00     0.168 HD
BRANCH  16  18
ATOM     18  O   UNL A   1      32.282  24.072  24.458  1.00  0.00    -0.449 OA
BRANCH  18  19
ATOM     19  C   UNL A   1      32.898  23.531  23.243  1.00  0.00     0.248 C 
BRANCH  19  20
ATOM     20  C   UNL A   1      33.891  22.507  23.781  1.00  0.00     0.088 C 
ATOM     21  C   UNL A   1      33.498  21.056  24.013  1.00  0.00    -0.029 A 
ATOM     22  C   UNL A   1      35.039  22.712  24.740  1.00  0.00    -0.029 A 
ATOM     23  C   UNL A   1      32.399  20.350  23.551  1.00  0.00     0.005 A 
ATOM     24  C   UNL A   1      34.600  20.410  24.626  1.00  0.00    -0.014 A 
ATOM     25  C   UNL A   1      35.562  21.423  25.043  1.00  0.00    -0.014 A 
ATOM     26  C   UNL A   1      35.734  23.872  25.024  1.00  0.00     0.005 A 
ATOM     27  C   UNL A   1      32.425  18.959  23.662  1.00  0.00     0.000 A 
ATOM     28  C   UNL A   1      34.636  19.029  24.703  1.00  0.00     0.009 A 
ATOM     29  C   UNL A   1      36.842  21.300  25.551  1.00  0.00     0.009 A 
ATOM     30  C   UNL A   1      37.011  23.739  25.567  1.00  0.00     0.000 A 
ATOM     31  C   UNL A   1      33.542  18.304  24.211  1.00  0.00     0.001 A 
ATOM     32  C   UNL A   1      37.571  22.469  25.799  1.00  0.00     0.001 A 
ENDBRANCH  19  20
ENDBRANCH  18  19
ENDBRANCH  16  18
ENDBRANCH   5  14
ENDBRANCH   3   5
ENDBRANCH   2   3
ENDBRANCH   1   2
BRANCH   1  33
ATOM     33  C   UNL A   1      31.748  29.538  26.851  1.00  0.00     0.275 C 
BRANCH  33  34
ATOM     34  O   UNL A   1      32.918  30.219  26.366  1.00  0.00    -0.458 OA
BRANCH  34  35
ATOM     35  C   UNL A   1      33.342  31.239  27.145  1.00  0.00     0.338 C 
ATOM     36  O   UNL A   1      32.691  32.193  27.534  1.00  0.00    -0.246 OA
BRANCH  35  37
ATOM     37  C   UNL A   1      34.722  30.993  27.582  1.00  0.00     0.060 A 
ATOM     38  C   UNL A   1      35.102  29.675  27.823  1.00  0.00     0.016 A 
ATOM     39  C   UNL A   1      35.568  32.047  27.917  1.00  0.00     0.016 A 
ATOM     40  C   UNL A   1      36.295  29.394  28.473  1.00  0.00     0.010 A 
ATOM     41  C   UNL A   1      36.797  31.763  28.522  1.00  0.00     0.010 A 
ATOM     42  C   UNL A   1      37.149  30.436  28.841  1.00  0.00    -0.014 A 
BRANCH  42  43
ATOM     43  C   UNL A   1      38.355  30.145  29.656  1.00  0.00     0.031 A 
ATOM     44  C   UNL A   1      39.418  29.244  29.091  1.00  0.00     0.074 A 
ATOM     45  C   UNL A   1      38.517  30.716  30.863  1.00  0.00     0.049 A 
ATOM     46  N   UNL A   1      40.453  28.707  29.680  1.00  0.00    -0.248 NA
ATOM     47  C   UNL A   1      39.286  28.891  27.668  1.00  0.00     0.031 C 
ATOM     48  C   UNL A   1      37.602  31.684  31.471  1.00  0.00     0.029 A 
ATOM     49  N   UNL A   1      39.512  30.569  31.796  1.00  0.00    -0.354 N 
ATOM     50  C   UNL A   1      41.070  27.915  28.716  1.00  0.00     0.074 A 
ATOM     51  C   UNL A   1      40.283  28.036  27.507  1.00  0.00     0.031 C 
ATOM     52  C   UNL A   1      38.084  32.053  32.668  1.00  0.00     0.029 A 
ATOM     53  C   UNL A   1      39.294  31.288  32.948  1.00  0.00     0.049 A 
ATOM     54  H   UNL A   1      40.306  30.004  31.654  1.00  0.00     0.167 HD
ATOM     55  C   UNL A   1      42.185  27.153  28.840  1.00  0.00     0.034 A 
ATOM     56  C   UNL A   1      39.967  31.288  34.115  1.00  0.00     0.034 A 
ATOM     57  C   UNL A   1      42.964  27.077  30.053  1.00  0.00     0.049 A 
ATOM     58  C   UNL A   1      41.163  30.383  34.254  1.00  0.00     0.074 A 
ATOM     59  C   UNL A   1      44.102  26.333  30.307  1.00  0.00     0.029 A 
ATOM     60  N   UNL A   1      42.685  27.784  31.218  1.00  0.00    -0.354 N 
ATOM     61  N   UNL A   1      41.689  29.568  33.368  1.00  0.00    -0.248 NA
ATOM     62  C   UNL A   1      41.847  30.388  35.552  1.00  0.00     0.031 C 
ATOM     63  C   UNL A   1      44.478  26.546  31.639  1.00  0.00     0.029 A 
ATOM     64  C   UNL A   1      43.614  27.475  32.198  1.00  0.00     0.049 A 
ATOM     65  H   UNL A   1      41.935  28.412  31.331  1.00  0.00     0.167 HD
ATOM     66  C   UNL A   1      42.777  28.973  33.999  1.00  0.00     0.074 A 
ATOM     67  C   UNL A   1      42.841  29.538  35.333  1.00  0.00     0.031 C 
ATOM     68  C   UNL A   1      43.644  28.043  33.526  1.00  0.00     0.034 A 
BRANCH  55  69
ATOM     69  C   UNL A   1      42.567  26.289  27.662  1.00  0.00     0.023 A 
ATOM     70  C   UNL A   1      42.111  24.967  27.521  1.00  0.00     0.031 A 
ATOM     71  C   UNL A   1      43.449  26.787  26.686  1.00  0.00     0.131 A 
ATOM     72  C   UNL A   1      42.594  24.167  26.472  1.00  0.00     0.055 A 
ATOM     73  C   UNL A   1      43.867  26.012  25.602  1.00  0.00     0.041 A 
ATOM     74  F   UNL A   1      43.940  28.033  26.780  1.00  0.00    -0.206 F 
ATOM     75  C   UNL A   1      43.451  24.688  25.499  1.00  0.00     0.022 A 
BRANCH  72  76
ATOM     76  S   UNL A   1      42.204  22.395  26.476  1.00  0.00     0.124 S 
ATOM     77  O   UNL A   1      42.695  21.987  27.789  1.00  0.00    -0.237 OA
ATOM     78  O   UNL A   1      40.755  22.390  26.305  1.00  0.00    -0.237 OA
ATOM     79  O   UNL A   1      42.967  21.873  25.343  1.00  0.00    -0.744 OA
ENDBRANCH  72  76
ENDBRANCH  55  69
BRANCH  56  80
ATOM     80  C   UNL A   1      39.482  32.106  35.265  1.00  0.00     0.023 A 
ATOM     81  C   UNL A   1      39.866  33.446  35.420  1.00  0.00     0.031 A 
ATOM     82  C   UNL A   1      38.649  31.540  36.249  1.00  0.00     0.131 A 
ATOM     83  C   UNL A   1      39.445  34.168  36.549  1.00  0.00     0.055 A 
ATOM     84  C   UNL A   1      38.190  32.278  37.341  1.00  0.00     0.041 A 
ATOM     85  F   UNL A   1      38.256  30.260  36.154  1.00  0.00    -0.206 F 
ATOM     86  C   UNL A   1      38.598  33.598  37.502  1.00  0.00     0.022 A 
BRANCH  83  87
ATOM     87  S   UNL A   1      40.086  35.847  36.799  1.00  0.00     0.124 S 
ATOM     88  O   UNL A   1      41.487  35.587  37.110  1.00  0.00    -0.237 OA
ATOM     89  O   UNL A   1      39.820  36.469  35.506  1.00  0.00    -0.237 OA
ATOM     90  O   UNL A   1      39.285  36.355  37.910  1.00  0.00    -0.744 OA
ENDBRANCH  83  87
ENDBRANCH  56  80
BRANCH  68  91
ATOM     91  C   UNL A   1      44.753  27.621  34.454  1.00  0.00     0.023 A 
ATOM     92  C   UNL A   1      44.642  26.474  35.260  1.00  0.00     0.031 A 
ATOM     93  C   UNL A   1      45.925  28.391  34.550  1.00  0.00     0.131 A 
ATOM     94  C   UNL A   1      45.664  26.160  36.168  1.00  0.00     0.055 A 
ATOM     95  C   UNL A   1      46.961  28.043  35.416  1.00  0.00     0.041 A 
ATOM     96  F   UNL A   1      46.078  29.496  33.803  1.00  0.00    -0.206 F 
ATOM     97  C   UNL A   1      46.829  26.929  36.241  1.00  0.00     0.022 A 
BRANCH  94  98
ATOM     98  S   UNL A   1      45.415  24.777  37.314  1.00  0.00     0.124 S 
ATOM     99  O   UNL A   1      46.678  24.056  37.202  1.00  0.00    -0.237 OA
ATOM    100  O   UNL A   1      45.182  25.460  38.583  1.00  0.00    -0.237 OA
ATOM    101  O   UNL A   1      44.253  24.081  36.764  1.00  0.00    -0.744 OA
ENDBRANCH  94  98
ENDBRANCH  68  91
ENDBRANCH  42  43
ENDBRANCH  35  37
ENDBRANCH  34  35
ENDBRANCH  33  34
ENDBRANCH   1  33
TORSDOF 18
ENDMDL
