MODEL 1
REMARK VINA RESULT:     -11.8      0.000      0.000
REMARK SMILES O=C(Nc1cccc(F)c1)N[C@@H]1C=C[C@@H](C(=O)OCCOC(=O)c2ccc(-c3c4nc(c(-c5cc(S(=O)(=O)[O-])ccc5F)c5ccc([nH]5)c(-c5cc(S(=O)(=O)[O-])ccc5F)c5nc(c(-c6cc(S(=O)(=O)[O-])ccc6F)c6ccc3[nH]6)C=C5)C=C4)cc2)C1
REMARK SMILES IDX 20 1 19 2 18 3 16 4 17 5 15 6 12 7 13 8 87 9 14 10 11 11
REMARK SMILES IDX 1 12 2 13 3 14 4 17 5 18 10 19 6 20 8 21 7 22 9 23 21 24
REMARK SMILES IDX 22 25 23 26 24 27 25 28 86 29 26 30 85 31 27 32 28 33 29 34
REMARK SMILES IDX 79 35 30 36 84 37 78 38 80 39 31 40 83 41 77 42 76 43 32 45
REMARK SMILES IDX 64 46 44 47 63 48 45 49 48 50 62 51 81 52 46 53 47 54 61 56
REMARK SMILES IDX 82 57 49 58 33 59 34 60 42 61 35 62 41 63 43 64 40 65 36 66
REMARK SMILES IDX 37 67 38 68 39 69 65 70 66 71 74 72 67 73 73 74 75 75 72 76
REMARK SMILES IDX 68 77 69 78 70 79 71 80 50 81 51 82 59 83 52 84 58 85 60 86
REMARK SMILES IDX 57 87 53 88 54 89 55 90 56 91
REMARK H PARENT 3 15 11 16 80 44 48 55
REMARK Flexibility Score: inf
ROOT
ATOM      1  C   UNL A   1      37.338  20.609  24.597  1.00  0.00     0.275 C 
ENDROOT
BRANCH   1   2
ATOM      2  C   UNL A   1      36.100  19.752  24.877  1.00  0.00     0.274 C 
BRANCH   2   3
ATOM      3  O   UNL A   1      35.048  20.526  25.482  1.00  0.00    -0.462 OA
BRANCH   3   4
ATOM      4  C   UNL A   1      33.868  20.568  24.804  1.00  0.00     0.312 C 
ATOM      5  O   UNL A   1      33.247  19.573  24.446  1.00  0.00    -0.252 OA
BRANCH   4   6
ATOM      6  C   UNL A   1      33.411  21.983  24.474  1.00  0.00     0.124 C 
ATOM      7  C   UNL A   1      34.076  23.919  23.137  1.00  0.00     0.107 C 
ATOM      8  C   UNL A   1      33.015  23.122  22.456  1.00  0.00    -0.006 C 
ATOM      9  C   UNL A   1      34.519  23.032  24.303  1.00  0.00     0.048 C 
ATOM     10  C   UNL A   1      32.667  22.045  23.172  1.00  0.00    -0.014 C 
BRANCH   7  11
ATOM     11  N   UNL A   1      33.612  25.234  23.524  1.00  0.00    -0.332 N 
ATOM     12  O   UNL A   1      33.727  26.328  21.517  1.00  0.00    -0.248 OA
ATOM     13  C   UNL A   1      33.491  26.327  22.721  1.00  0.00     0.319 C 
ATOM     14  N   UNL A   1      32.998  27.464  23.299  1.00  0.00    -0.308 N 
ATOM     15  H   UNL A   1      32.704  28.144  22.653  1.00  0.00     0.171 HD
ATOM     16  H   UNL A   1      33.357  25.351  24.468  1.00  0.00     0.165 HD
BRANCH  14  17
ATOM     17  C   UNL A   1      32.830  27.845  24.644  1.00  0.00     0.045 A 
ATOM     18  C   UNL A   1      31.586  27.937  25.279  1.00  0.00     0.026 A 
ATOM     19  C   UNL A   1      33.987  28.108  25.385  1.00  0.00     0.065 A 
ATOM     20  C   UNL A   1      31.489  28.366  26.606  1.00  0.00     0.005 A 
ATOM     21  C   UNL A   1      33.880  28.529  26.707  1.00  0.00     0.125 A 
ATOM     22  C   UNL A   1      32.643  28.676  27.320  1.00  0.00     0.039 A 
ATOM     23  F   UNL A   1      34.992  28.802  27.404  1.00  0.00    -0.207 F 
ENDBRANCH  14  17
ENDBRANCH   7  11
ENDBRANCH   4   6
ENDBRANCH   3   4
ENDBRANCH   2   3
ENDBRANCH   1   2
BRANCH   1  24
ATOM     24  O   UNL A   1      37.749  21.362  25.753  1.00  0.00    -0.458 OA
BRANCH  24  25
ATOM     25  C   UNL A   1      39.021  21.133  26.161  1.00  0.00     0.338 C 
ATOM     26  O   UNL A   1      39.645  20.091  26.062  1.00  0.00    -0.246 OA
BRANCH  25  27
ATOM     27  C   UNL A   1      39.623  22.381  26.657  1.00  0.00     0.060 A 
ATOM     28  C   UNL A   1      39.145  23.589  26.143  1.00  0.00     0.016 A 
ATOM     29  C   UNL A   1      40.700  22.365  27.547  1.00  0.00     0.016 A 
ATOM     30  C   UNL A   1      39.748  24.790  26.508  1.00  0.00     0.010 A 
ATOM     31  C   UNL A   1      41.305  23.573  27.912  1.00  0.00     0.010 A 
ATOM     32  C   UNL A   1      40.840  24.791  27.385  1.00  0.00    -0.014 A 
BRANCH  32  33
ATOM     33  C   UNL A   1      41.515  26.071  27.714  1.00  0.00     0.031 A 
ATOM     34  C   UNL A   1      40.788  27.118  28.509  1.00  0.00     0.074 A 
ATOM     35  C   UNL A   1      42.789  26.273  27.328  1.00  0.00     0.049 A 
ATOM     36  N   UNL A   1      41.177  28.323  28.837  1.00  0.00    -0.248 NA
ATOM     37  C   UNL A   1      39.447  26.764  29.002  1.00  0.00     0.031 C 
ATOM     38  C   UNL A   1      43.611  25.308  26.597  1.00  0.00     0.029 A 
ATOM     39  N   UNL A   1      43.616  27.355  27.496  1.00  0.00    -0.354 N 
ATOM     40  C   UNL A   1      40.128  28.877  29.562  1.00  0.00     0.074 A 
ATOM     41  C   UNL A   1      39.079  27.881  29.616  1.00  0.00     0.031 C 
ATOM     42  C   UNL A   1      44.826  25.840  26.383  1.00  0.00     0.029 A 
ATOM     43  C   UNL A   1      44.854  27.199  26.917  1.00  0.00     0.049 A 
ATOM     44  H   UNL A   1      43.350  28.167  27.986  1.00  0.00     0.167 HD
ATOM     45  C   UNL A   1      40.053  30.104  30.129  1.00  0.00     0.034 A 
ATOM     46  C   UNL A   1      45.883  28.063  26.800  1.00  0.00     0.034 A 
ATOM     47  C   UNL A   1      41.109  31.083  30.079  1.00  0.00     0.049 A 
ATOM     48  C   UNL A   1      45.748  29.444  27.387  1.00  0.00     0.074 A 
ATOM     49  C   UNL A   1      41.133  32.350  30.636  1.00  0.00     0.029 A 
ATOM     50  N   UNL A   1      42.328  30.906  29.440  1.00  0.00    -0.354 N 
ATOM     51  N   UNL A   1      44.733  29.968  28.035  1.00  0.00    -0.248 NA
ATOM     52  C   UNL A   1      46.890  30.354  27.222  1.00  0.00     0.031 C 
ATOM     53  C   UNL A   1      42.341  32.961  30.286  1.00  0.00     0.029 A 
ATOM     54  C   UNL A   1      43.098  32.051  29.565  1.00  0.00     0.049 A 
ATOM     55  H   UNL A   1      42.604  30.088  28.968  1.00  0.00     0.167 HD
ATOM     56  C   UNL A   1      45.121  31.262  28.365  1.00  0.00     0.074 A 
ATOM     57  C   UNL A   1      46.465  31.440  27.853  1.00  0.00     0.031 C 
ATOM     58  C   UNL A   1      44.429  32.216  29.036  1.00  0.00     0.034 A 
BRANCH  45  59
ATOM     59  C   UNL A   1      38.768  30.486  30.812  1.00  0.00     0.023 A 
ATOM     60  C   UNL A   1      37.740  31.160  30.134  1.00  0.00     0.031 A 
ATOM     61  C   UNL A   1      38.556  30.125  32.154  1.00  0.00     0.131 A 
ATOM     62  C   UNL A   1      36.551  31.473  30.809  1.00  0.00     0.055 A 
ATOM     63  C   UNL A   1      37.352  30.393  32.806  1.00  0.00     0.041 A 
ATOM     64  F   UNL A   1      39.516  29.494  32.850  1.00  0.00    -0.206 F 
ATOM     65  C   UNL A   1      36.341  31.074  32.132  1.00  0.00     0.022 A 
BRANCH  62  66
ATOM     66  S   UNL A   1      35.286  32.449  29.952  1.00  0.00     0.124 S 
ATOM     67  O   UNL A   1      34.310  32.666  31.016  1.00  0.00    -0.237 OA
ATOM     68  O   UNL A   1      36.029  33.627  29.517  1.00  0.00    -0.237 OA
ATOM     69  O   UNL A   1      34.841  31.564  28.876  1.00  0.00    -0.744 OA
ENDBRANCH  62  66
ENDBRANCH  45  59
BRANCH  46  70
ATOM     70  C   UNL A   1      47.104  27.671  26.045  1.00  0.00     0.023 A 
ATOM     71  C   UNL A   1      47.204  27.871  24.660  1.00  0.00     0.031 A 
ATOM     72  C   UNL A   1      48.190  27.070  26.709  1.00  0.00     0.131 A 
ATOM     73  C   UNL A   1      48.356  27.449  23.977  1.00  0.00     0.055 A 
ATOM     74  C   UNL A   1      49.349  26.691  26.032  1.00  0.00     0.041 A 
ATOM     75  F   UNL A   1      48.142  26.857  28.033  1.00  0.00    -0.206 F 
ATOM     76  C   UNL A   1      49.434  26.874  24.655  1.00  0.00     0.022 A 
BRANCH  73  77
ATOM     77  S   UNL A   1      48.412  27.621  22.172  1.00  0.00     0.124 S 
ATOM     78  O   UNL A   1      48.602  26.239  21.747  1.00  0.00    -0.237 OA
ATOM     79  O   UNL A   1      47.109  28.211  21.879  1.00  0.00    -0.237 OA
ATOM     80  O   UNL A   1      49.555  28.505  21.950  1.00  0.00    -0.744 OA
ENDBRANCH  73  77
ENDBRANCH  46  70
BRANCH  58  81
ATOM     81  C   UNL A   1      45.121  33.529  29.281  1.00  0.00     0.023 A 
ATOM     82  C   UNL A   1      45.030  34.588  28.362  1.00  0.00     0.031 A 
ATOM     83  C   UNL A   1      45.840  33.736  30.470  1.00  0.00     0.131 A 
ATOM     84  C   UNL A   1      45.673  35.805  28.639  1.00  0.00     0.055 A 
ATOM     85  C   UNL A   1      46.442  34.961  30.758  1.00  0.00     0.041 A 
ATOM     86  F   UNL A   1      45.949  32.754  31.380  1.00  0.00    -0.206 F 
ATOM     87  C   UNL A   1      46.364  36.002  29.838  1.00  0.00     0.022 A 
BRANCH  84  88
ATOM     88  S   UNL A   1      45.614  37.127  27.399  1.00  0.00     0.124 S 
ATOM     89  O   UNL A   1      46.210  36.478  26.236  1.00  0.00    -0.237 OA
ATOM     90  O   UNL A   1      44.185  37.412  27.307  1.00  0.00    -0.237 OA
ATOM     91  O   UNL A   1      46.417  38.192  27.995  1.00  0.00    -0.744 OA
ENDBRANCH  84  88
ENDBRANCH  58  81
ENDBRANCH  32  33
ENDBRANCH  25  27
ENDBRANCH  24  25
ENDBRANCH   1  24
TORSDOF 16
ENDMDL
MODEL 2
REMARK VINA RESULT:     -11.8      1.513      7.821
REMARK SMILES O=C(Nc1cccc(F)c1)N[C@@H]1C=C[C@@H](C(=O)OCCOC(=O)c2ccc(-c3c4nc(c(-c5cc(S(=O)(=O)[O-])ccc5F)c5ccc([nH]5)c(-c5cc(S(=O)(=O)[O-])ccc5F)c5nc(c(-c6cc(S(=O)(=O)[O-])ccc6F)c6ccc3[nH]6)C=C5)C=C4)cc2)C1
REMARK SMILES IDX 20 1 19 2 18 3 16 4 17 5 15 6 12 7 13 8 87 9 14 10 11 11
REMARK SMILES IDX 1 12 2 13 3 14 4 17 5 18 10 19 6 20 8 21 7 22 9 23 21 24
REMARK SMILES IDX 22 25 23 26 24 27 25 28 86 29 26 30 85 31 27 32 28 33 29 34
REMARK SMILES IDX 79 35 30 36 84 37 78 38 80 39 31 40 83 41 77 42 76 43 32 45
REMARK SMILES IDX 64 46 44 47 63 48 45 49 48 50 62 51 81 52 46 53 47 54 61 56
REMARK SMILES IDX 82 57 49 58 33 59 34 60 42 61 35 62 41 63 43 64 40 65 36 66
REMARK SMILES IDX 37 67 38 68 39 69 65 70 66 71 74 72 67 73 73 74 75 75 72 76
REMARK SMILES IDX 68 77 69 78 70 79 71 80 50 81 51 82 59 83 52 84 58 85 60 86
REMARK SMILES IDX 57 87 53 88 54 89 55 90 56 91
REMARK H PARENT 3 15 11 16 80 44 48 55
REMARK Flexibility Score: inf
ROOT
ATOM      1  C   UNL A   1      38.282  19.605  24.955  1.00  0.00     0.275 C 
ENDROOT
BRANCH   1   2
ATOM      2  C   UNL A   1      36.777  19.329  24.922  1.00  0.00     0.274 C 
BRANCH   2   3
ATOM      3  O   UNL A   1      36.015  20.548  24.999  1.00  0.00    -0.462 OA
BRANCH   3   4
ATOM      4  C   UNL A   1      34.662  20.416  24.919  1.00  0.00     0.312 C 
ATOM      5  O   UNL A   1      34.092  19.383  24.580  1.00  0.00    -0.252 OA
BRANCH   4   6
ATOM      6  C   UNL A   1      33.910  21.701  25.235  1.00  0.00     0.124 C 
ATOM      7  C   UNL A   1      32.500  22.687  26.973  1.00  0.00     0.107 C 
ATOM      8  C   UNL A   1      33.911  23.161  27.078  1.00  0.00    -0.006 C 
ATOM      9  C   UNL A   1      32.566  21.542  25.960  1.00  0.00     0.048 C 
ATOM     10  C   UNL A   1      34.693  22.604  26.144  1.00  0.00    -0.014 C 
BRANCH   7  11
ATOM     11  N   UNL A   1      31.587  23.751  26.619  1.00  0.00    -0.332 N 
ATOM     12  O   UNL A   1      29.637  22.946  27.506  1.00  0.00    -0.248 OA
ATOM     13  C   UNL A   1      30.252  23.803  26.880  1.00  0.00     0.319 C 
ATOM     14  N   UNL A   1      29.589  24.930  26.477  1.00  0.00    -0.308 N 
ATOM     15  H   UNL A   1      28.700  25.037  26.886  1.00  0.00     0.171 HD
ATOM     16  H   UNL A   1      31.972  24.521  26.138  1.00  0.00     0.165 HD
BRANCH  14  17
ATOM     17  C   UNL A   1      29.937  25.966  25.590  1.00  0.00     0.045 A 
ATOM     18  C   UNL A   1      29.384  26.117  24.313  1.00  0.00     0.026 A 
ATOM     19  C   UNL A   1      30.862  26.912  26.041  1.00  0.00     0.065 A 
ATOM     20  C   UNL A   1      29.808  27.146  23.467  1.00  0.00     0.005 A 
ATOM     21  C   UNL A   1      31.274  27.936  25.192  1.00  0.00     0.125 A 
ATOM     22  C   UNL A   1      30.769  28.052  23.904  1.00  0.00     0.039 A 
ATOM     23  F   UNL A   1      32.179  28.826  25.623  1.00  0.00    -0.207 F 
ENDBRANCH  14  17
ENDBRANCH   7  11
ENDBRANCH   4   6
ENDBRANCH   3   4
ENDBRANCH   2   3
ENDBRANCH   1   2
BRANCH   1  24
ATOM     24  O   UNL A   1      38.601  20.787  25.713  1.00  0.00    -0.458 OA
BRANCH  24  25
ATOM     25  C   UNL A   1      39.738  20.704  26.446  1.00  0.00     0.338 C 
ATOM     26  O   UNL A   1      40.383  19.698  26.686  1.00  0.00    -0.246 OA
BRANCH  25  27
ATOM     27  C   UNL A   1      40.181  22.051  26.842  1.00  0.00     0.060 A 
ATOM     28  C   UNL A   1      39.584  23.147  26.215  1.00  0.00     0.016 A 
ATOM     29  C   UNL A   1      41.227  22.235  27.750  1.00  0.00     0.016 A 
ATOM     30  C   UNL A   1      40.038  24.436  26.483  1.00  0.00     0.010 A 
ATOM     31  C   UNL A   1      41.681  23.531  28.018  1.00  0.00     0.010 A 
ATOM     32  C   UNL A   1      41.097  24.638  27.377  1.00  0.00    -0.014 A 
BRANCH  32  33
ATOM     33  C   UNL A   1      41.614  26.010  27.604  1.00  0.00     0.031 A 
ATOM     34  C   UNL A   1      42.951  26.408  27.046  1.00  0.00     0.074 A 
ATOM     35  C   UNL A   1      40.866  26.904  28.280  1.00  0.00     0.049 A 
ATOM     36  N   UNL A   1      43.606  27.530  27.194  1.00  0.00    -0.248 NA
ATOM     37  C   UNL A   1      43.644  25.414  26.211  1.00  0.00     0.031 C 
ATOM     38  C   UNL A   1      39.531  26.645  28.822  1.00  0.00     0.029 A 
ATOM     39  N   UNL A   1      41.119  28.208  28.624  1.00  0.00    -0.354 N 
ATOM     40  C   UNL A   1      44.791  27.377  26.484  1.00  0.00     0.074 A 
ATOM     41  C   UNL A   1      44.772  26.045  25.915  1.00  0.00     0.031 C 
ATOM     42  C   UNL A   1      39.082  27.757  29.428  1.00  0.00     0.029 A 
ATOM     43  C   UNL A   1      40.113  28.789  29.360  1.00  0.00     0.049 A 
ATOM     44  H   UNL A   1      41.943  28.683  28.368  1.00  0.00     0.167 HD
ATOM     45  C   UNL A   1      45.798  28.266  26.324  1.00  0.00     0.034 A 
ATOM     46  C   UNL A   1      40.043  30.003  29.942  1.00  0.00     0.034 A 
ATOM     47  C   UNL A   1      45.800  29.594  26.884  1.00  0.00     0.049 A 
ATOM     48  C   UNL A   1      41.205  30.952  29.799  1.00  0.00     0.074 A 
ATOM     49  C   UNL A   1      46.769  30.575  26.766  1.00  0.00     0.029 A 
ATOM     50  N   UNL A   1      44.785  30.129  27.666  1.00  0.00    -0.354 N 
ATOM     51  N   UNL A   1      42.337  30.775  29.158  1.00  0.00    -0.248 NA
ATOM     52  C   UNL A   1      41.087  32.257  30.464  1.00  0.00     0.031 C 
ATOM     53  C   UNL A   1      46.368  31.681  27.522  1.00  0.00     0.029 A 
ATOM     54  C   UNL A   1      45.119  31.415  28.060  1.00  0.00     0.049 A 
ATOM     55  H   UNL A   1      43.952  29.662  27.905  1.00  0.00     0.167 HD
ATOM     56  C   UNL A   1      43.058  31.952  29.331  1.00  0.00     0.074 A 
ATOM     57  C   UNL A   1      42.232  32.836  30.130  1.00  0.00     0.031 C 
ATOM     58  C   UNL A   1      44.291  32.274  28.867  1.00  0.00     0.034 A 
BRANCH  45  59
ATOM     59  C   UNL A   1      47.012  27.825  25.552  1.00  0.00     0.023 A 
ATOM     60  C   UNL A   1      47.113  28.007  24.164  1.00  0.00     0.031 A 
ATOM     61  C   UNL A   1      48.103  27.255  26.231  1.00  0.00     0.131 A 
ATOM     62  C   UNL A   1      48.276  27.600  23.493  1.00  0.00     0.055 A 
ATOM     63  C   UNL A   1      49.277  26.898  25.567  1.00  0.00     0.041 A 
ATOM     64  F   UNL A   1      48.047  27.045  27.556  1.00  0.00    -0.206 F 
ATOM     65  C   UNL A   1      49.367  27.069  24.188  1.00  0.00     0.022 A 
BRANCH  62  66
ATOM     66  S   UNL A   1      48.338  27.732  21.685  1.00  0.00     0.124 S 
ATOM     67  O   UNL A   1      48.619  26.352  21.299  1.00  0.00    -0.237 OA
ATOM     68  O   UNL A   1      47.008  28.230  21.354  1.00  0.00    -0.237 OA
ATOM     69  O   UNL A   1      49.430  28.675  21.449  1.00  0.00    -0.744 OA
ENDBRANCH  62  66
ENDBRANCH  45  59
BRANCH  46  70
ATOM     70  C   UNL A   1      38.857  30.368  30.765  1.00  0.00     0.023 A 
ATOM     71  C   UNL A   1      37.775  31.073  30.216  1.00  0.00     0.031 A 
ATOM     72  C   UNL A   1      38.803  30.025  32.128  1.00  0.00     0.131 A 
ATOM     73  C   UNL A   1      36.693  31.436  31.035  1.00  0.00     0.055 A 
ATOM     74  C   UNL A   1      37.707  30.351  32.927  1.00  0.00     0.041 A 
ATOM     75  F   UNL A   1      39.813  29.351  32.698  1.00  0.00    -0.206 F 
ATOM     76  C   UNL A   1      36.646  31.067  32.382  1.00  0.00     0.022 A 
BRANCH  73  77
ATOM     77  S   UNL A   1      35.360  32.440  30.325  1.00  0.00     0.124 S 
ATOM     78  O   UNL A   1      36.060  33.678  30.001  1.00  0.00    -0.237 OA
ATOM     79  O   UNL A   1      34.934  31.627  29.190  1.00  0.00    -0.237 OA
ATOM     80  O   UNL A   1      34.391  32.539  31.414  1.00  0.00    -0.744 OA
ENDBRANCH  73  77
ENDBRANCH  46  70
BRANCH  58  81
ATOM     81  C   UNL A   1      44.813  33.649  29.186  1.00  0.00     0.023 A 
ATOM     82  C   UNL A   1      44.517  34.753  28.368  1.00  0.00     0.031 A 
ATOM     83  C   UNL A   1      45.576  33.861  30.346  1.00  0.00     0.131 A 
ATOM     84  C   UNL A   1      45.006  36.022  28.713  1.00  0.00     0.055 A 
ATOM     85  C   UNL A   1      46.024  35.133  30.705  1.00  0.00     0.041 A 
ATOM     86  F   UNL A   1      45.879  32.837  31.160  1.00  0.00    -0.206 F 
ATOM     87  C   UNL A   1      45.742  36.222  29.884  1.00  0.00     0.022 A 
BRANCH  84  88
ATOM     88  S   UNL A   1      44.683  37.416  27.598  1.00  0.00     0.124 S 
ATOM     89  O   UNL A   1      44.381  38.491  28.536  1.00  0.00    -0.237 OA
ATOM     90  O   UNL A   1      45.944  37.539  26.871  1.00  0.00    -0.237 OA
ATOM     91  O   UNL A   1      43.552  36.957  26.795  1.00  0.00    -0.744 OA
ENDBRANCH  84  88
ENDBRANCH  58  81
ENDBRANCH  32  33
ENDBRANCH  25  27
ENDBRANCH  24  25
ENDBRANCH   1  24
TORSDOF 16
ENDMDL
MODEL 3
REMARK VINA RESULT:     -11.7      1.047      7.668
REMARK SMILES O=C(Nc1cccc(F)c1)N[C@@H]1C=C[C@@H](C(=O)OCCOC(=O)c2ccc(-c3c4nc(c(-c5cc(S(=O)(=O)[O-])ccc5F)c5ccc([nH]5)c(-c5cc(S(=O)(=O)[O-])ccc5F)c5nc(c(-c6cc(S(=O)(=O)[O-])ccc6F)c6ccc3[nH]6)C=C5)C=C4)cc2)C1
REMARK SMILES IDX 20 1 19 2 18 3 16 4 17 5 15 6 12 7 13 8 87 9 14 10 11 11
REMARK SMILES IDX 1 12 2 13 3 14 4 17 5 18 10 19 6 20 8 21 7 22 9 23 21 24
REMARK SMILES IDX 22 25 23 26 24 27 25 28 86 29 26 30 85 31 27 32 28 33 29 34
REMARK SMILES IDX 79 35 30 36 84 37 78 38 80 39 31 40 83 41 77 42 76 43 32 45
REMARK SMILES IDX 64 46 44 47 63 48 45 49 48 50 62 51 81 52 46 53 47 54 61 56
REMARK SMILES IDX 82 57 49 58 33 59 34 60 42 61 35 62 41 63 43 64 40 65 36 66
REMARK SMILES IDX 37 67 38 68 39 69 65 70 66 71 74 72 67 73 73 74 75 75 72 76
REMARK SMILES IDX 68 77 69 78 70 79 71 80 50 81 51 82 59 83 52 84 58 85 60 86
REMARK SMILES IDX 57 87 53 88 54 89 55 90 56 91
REMARK H PARENT 3 15 11 16 80 44 48 55
REMARK Flexibility Score: inf
ROOT
ATOM      1  C   UNL A   1      37.365  19.970  24.978  1.00  0.00     0.275 C 
ENDROOT
BRANCH   1   2
ATOM      2  C   UNL A   1      35.842  20.078  24.864  1.00  0.00     0.274 C 
BRANCH   2   3
ATOM      3  O   UNL A   1      35.341  21.233  25.564  1.00  0.00    -0.462 OA
BRANCH   3   4
ATOM      4  C   UNL A   1      33.990  21.302  25.715  1.00  0.00     0.312 C 
ATOM      5  O   UNL A   1      33.328  20.491  26.355  1.00  0.00    -0.252 OA
BRANCH   4   6
ATOM      6  C   UNL A   1      33.356  22.462  24.959  1.00  0.00     0.124 C 
ATOM      7  C   UNL A   1      33.295  23.452  22.724  1.00  0.00     0.107 C 
ATOM      8  C   UNL A   1      32.095  22.603  22.980  1.00  0.00    -0.006 C 
ATOM      9  C   UNL A   1      34.231  23.138  23.893  1.00  0.00     0.048 C 
ATOM     10  C   UNL A   1      32.137  22.037  24.193  1.00  0.00    -0.014 C 
BRANCH   7  11
ATOM     11  N   UNL A   1      32.958  24.852  22.584  1.00  0.00    -0.332 N 
ATOM     12  O   UNL A   1      33.146  25.105  20.316  1.00  0.00    -0.248 OA
ATOM     13  C   UNL A   1      32.926  25.573  21.429  1.00  0.00     0.319 C 
ATOM     14  N   UNL A   1      32.546  26.883  21.531  1.00  0.00    -0.308 N 
ATOM     15  H   UNL A   1      32.307  27.297  20.671  1.00  0.00     0.171 HD
ATOM     16  H   UNL A   1      32.726  25.335  23.410  1.00  0.00     0.165 HD
BRANCH  14  17
ATOM     17  C   UNL A   1      32.431  27.751  22.633  1.00  0.00     0.045 A 
ATOM     18  C   UNL A   1      33.477  28.027  23.521  1.00  0.00     0.026 A 
ATOM     19  C   UNL A   1      31.204  28.397  22.815  1.00  0.00     0.065 A 
ATOM     20  C   UNL A   1      33.280  28.867  24.621  1.00  0.00     0.005 A 
ATOM     21  C   UNL A   1      31.019  29.236  23.911  1.00  0.00     0.125 A 
ATOM     22  C   UNL A   1      32.040  29.464  24.824  1.00  0.00     0.039 A 
ATOM     23  F   UNL A   1      29.833  29.833  24.092  1.00  0.00    -0.207 F 
ENDBRANCH  14  17
ENDBRANCH   7  11
ENDBRANCH   4   6
ENDBRANCH   3   4
ENDBRANCH   2   3
ENDBRANCH   1   2
BRANCH   1  24
ATOM     24  O   UNL A   1      37.953  21.158  25.540  1.00  0.00    -0.458 OA
BRANCH  24  25
ATOM     25  C   UNL A   1      39.177  20.981  26.094  1.00  0.00     0.338 C 
ATOM     26  O   UNL A   1      39.818  19.945  26.139  1.00  0.00    -0.246 OA
BRANCH  25  27
ATOM     27  C   UNL A   1      39.712  22.273  26.557  1.00  0.00     0.060 A 
ATOM     28  C   UNL A   1      39.079  23.438  26.119  1.00  0.00     0.016 A 
ATOM     29  C   UNL A   1      40.869  22.343  27.336  1.00  0.00     0.016 A 
ATOM     30  C   UNL A   1      39.606  24.684  26.448  1.00  0.00     0.010 A 
ATOM     31  C   UNL A   1      41.397  23.596  27.666  1.00  0.00     0.010 A 
ATOM     32  C   UNL A   1      40.776  24.773  27.214  1.00  0.00    -0.014 A 
BRANCH  32  33
ATOM     33  C   UNL A   1      41.363  26.105  27.503  1.00  0.00     0.031 A 
ATOM     34  C   UNL A   1      42.723  26.455  26.967  1.00  0.00     0.074 A 
ATOM     35  C   UNL A   1      40.660  27.006  28.215  1.00  0.00     0.049 A 
ATOM     36  N   UNL A   1      43.435  27.533  27.166  1.00  0.00    -0.248 NA
ATOM     37  C   UNL A   1      43.366  25.462  26.091  1.00  0.00     0.031 C 
ATOM     38  C   UNL A   1      39.311  26.796  28.741  1.00  0.00     0.029 A 
ATOM     39  N   UNL A   1      40.981  28.279  28.617  1.00  0.00    -0.354 N 
ATOM     40  C   UNL A   1      44.615  27.348  26.454  1.00  0.00     0.074 A 
ATOM     41  C   UNL A   1      44.528  26.045  25.827  1.00  0.00     0.031 C 
ATOM     42  C   UNL A   1      38.918  27.902  29.393  1.00  0.00     0.029 A 
ATOM     43  C   UNL A   1      40.003  28.880  29.375  1.00  0.00     0.049 A 
ATOM     44  H   UNL A   1      41.830  28.720  28.385  1.00  0.00     0.167 HD
ATOM     45  C   UNL A   1      45.669  28.188  26.337  1.00  0.00     0.034 A 
ATOM     46  C   UNL A   1      39.994  30.070  30.009  1.00  0.00     0.034 A 
ATOM     47  C   UNL A   1      45.738  29.488  26.955  1.00  0.00     0.049 A 
ATOM     48  C   UNL A   1      41.206  30.960  29.912  1.00  0.00     0.074 A 
ATOM     49  C   UNL A   1      46.758  30.420  26.883  1.00  0.00     0.029 A 
ATOM     50  N   UNL A   1      44.749  30.042  27.756  1.00  0.00    -0.354 N 
ATOM     51  N   UNL A   1      42.330  30.752  29.268  1.00  0.00    -0.248 NA
ATOM     52  C   UNL A   1      41.153  32.240  30.633  1.00  0.00     0.031 C 
ATOM     53  C   UNL A   1      46.413  31.513  27.685  1.00  0.00     0.029 A 
ATOM     54  C   UNL A   1      45.148  31.290  28.207  1.00  0.00     0.049 A 
ATOM     55  H   UNL A   1      43.891  29.610  27.972  1.00  0.00     0.167 HD
ATOM     56  C   UNL A   1      43.112  31.880  29.494  1.00  0.00     0.074 A 
ATOM     57  C   UNL A   1      42.330  32.770  30.328  1.00  0.00     0.031 C 
ATOM     58  C   UNL A   1      44.362  32.156  29.049  1.00  0.00     0.034 A 
BRANCH  45  59
ATOM     59  C   UNL A   1      46.861  27.717  25.550  1.00  0.00     0.023 A 
ATOM     60  C   UNL A   1      47.004  27.997  24.182  1.00  0.00     0.031 A 
ATOM     61  C   UNL A   1      47.894  27.016  26.198  1.00  0.00     0.131 A 
ATOM     62  C   UNL A   1      48.147  27.555  23.498  1.00  0.00     0.055 A 
ATOM     63  C   UNL A   1      49.051  26.624  25.525  1.00  0.00     0.041 A 
ATOM     64  F   UNL A   1      47.796  26.710  27.502  1.00  0.00    -0.206 F 
ATOM     65  C   UNL A   1      49.180  26.892  24.165  1.00  0.00     0.022 A 
BRANCH  62  66
ATOM     66  S   UNL A   1      48.254  27.821  21.707  1.00  0.00     0.124 S 
ATOM     67  O   UNL A   1      48.581  26.480  21.230  1.00  0.00    -0.237 OA
ATOM     68  O   UNL A   1      46.921  28.310  21.374  1.00  0.00    -0.237 OA
ATOM     69  O   UNL A   1      49.328  28.804  21.571  1.00  0.00    -0.744 OA
ENDBRANCH  62  66
ENDBRANCH  45  59
BRANCH  46  70
ATOM     70  C   UNL A   1      38.824  30.461  30.843  1.00  0.00     0.023 A 
ATOM     71  C   UNL A   1      37.739  31.163  30.297  1.00  0.00     0.031 A 
ATOM     72  C   UNL A   1      38.790  30.147  32.214  1.00  0.00     0.131 A 
ATOM     73  C   UNL A   1      36.674  31.552  31.126  1.00  0.00     0.055 A 
ATOM     74  C   UNL A   1      37.710  30.498  33.024  1.00  0.00     0.041 A 
ATOM     75  F   UNL A   1      39.805  29.477  32.782  1.00  0.00    -0.206 F 
ATOM     76  C   UNL A   1      36.646  31.211  32.482  1.00  0.00     0.022 A 
BRANCH  73  77
ATOM     77  S   UNL A   1      35.337  32.551  30.417  1.00  0.00     0.124 S 
ATOM     78  O   UNL A   1      36.029  33.797  30.107  1.00  0.00    -0.237 OA
ATOM     79  O   UNL A   1      34.923  31.744  29.274  1.00  0.00    -0.237 OA
ATOM     80  O   UNL A   1      34.361  32.633  31.502  1.00  0.00    -0.744 OA
ENDBRANCH  73  77
ENDBRANCH  46  70
BRANCH  58  81
ATOM     81  C   UNL A   1      44.955  33.486  29.429  1.00  0.00     0.023 A 
ATOM     82  C   UNL A   1      44.787  34.621  28.619  1.00  0.00     0.031 A 
ATOM     83  C   UNL A   1      45.656  33.624  30.639  1.00  0.00     0.131 A 
ATOM     84  C   UNL A   1      45.338  35.848  29.021  1.00  0.00     0.055 A 
ATOM     85  C   UNL A   1      46.165  34.856  31.053  1.00  0.00     0.041 A 
ATOM     86  F   UNL A   1      45.836  32.568  31.448  1.00  0.00    -0.206 F 
ATOM     87  C   UNL A   1      46.010  35.975  30.240  1.00  0.00     0.022 A 
BRANCH  84  88
ATOM     88  S   UNL A   1      45.182  37.279  27.919  1.00  0.00     0.124 S 
ATOM     89  O   UNL A   1      46.477  37.286  27.247  1.00  0.00    -0.237 OA
ATOM     90  O   UNL A   1      44.036  36.918  27.090  1.00  0.00    -0.237 OA
ATOM     91  O   UNL A   1      44.952  38.394  28.835  1.00  0.00    -0.744 OA
ENDBRANCH  84  88
ENDBRANCH  58  81
ENDBRANCH  32  33
ENDBRANCH  25  27
ENDBRANCH  24  25
ENDBRANCH   1  24
TORSDOF 16
ENDMDL
