MODEL 1
REMARK VINA RESULT:     -13.6      0.000      0.000
REMARK SMILES O=C(OCCOC(=O)[C@@H]1CCCN1S(=O)(=O)c1ccc2[nH]c(=O)c(=O)[nH]c2c1)c1ccc(-c2c3nc(c(-c4cc(S(=O)(=O)[O-])ccc4F)c4ccc([nH]4)c(-c4cc(S(=O)(=O)[O-])ccc4F)c4nc(c(-c5cc(S(=O)(=O)[O-])ccc5F)c5ccc2[nH]5)C=C4)C=C3)cc1
REMARK SMILES IDX 4 1 3 2 2 3 1 4 29 5 30 6 91 7 31 8 90 9 32 10 33 11 34 12
REMARK SMILES IDX 84 13 35 14 89 15 83 16 85 17 36 18 88 19 82 20 81 21 37 23
REMARK SMILES IDX 69 24 49 25 68 26 50 27 53 28 67 29 86 30 51 31 52 32 66 34
REMARK SMILES IDX 87 35 54 36 38 37 39 38 47 39 40 40 46 41 48 42 45 43 41 44
REMARK SMILES IDX 42 45 43 46 44 47 70 48 71 49 79 50 72 51 78 52 80 53 77 54
REMARK SMILES IDX 73 55 74 56 75 57 76 58 55 59 56 60 64 61 57 62 63 63 65 64
REMARK SMILES IDX 62 65 58 66 59 67 60 68 61 69 5 70 6 71 7 72 8 73 9 74 10 75
REMARK SMILES IDX 13 76 11 77 12 78 14 79 15 80 16 81 17 82 18 83 28 84 19 85
REMARK SMILES IDX 27 86 20 87 26 88 21 89 24 90 22 92 25 94 23 95
REMARK H PARENT 85 22 53 33 26 91 21 93
REMARK Flexibility Score: inf
ROOT
ATOM      1  C   UNL A   1      45.573  39.868  27.604  1.00  0.00     0.275 C 
ENDROOT
BRANCH   1   2
ATOM      2  O   UNL A   1      46.266  39.018  28.554  1.00  0.00    -0.458 OA
BRANCH   2   3
ATOM      3  C   UNL A   1      46.848  37.800  28.448  1.00  0.00     0.338 C 
ATOM      4  O   UNL A   1      48.059  37.724  28.255  1.00  0.00    -0.246 OA
BRANCH   3   5
ATOM      5  C   UNL A   1      46.097  36.499  28.473  1.00  0.00     0.060 A 
ATOM      6  C   UNL A   1      44.900  35.932  27.236  1.00  0.00     0.016 A 
ATOM      7  C   UNL A   1      46.600  35.354  29.771  1.00  0.00     0.016 A 
ATOM      8  C   UNL A   1      44.296  34.230  27.248  1.00  0.00     0.010 A 
ATOM      9  C   UNL A   1      45.944  33.681  29.823  1.00  0.00     0.010 A 
ATOM     10  C   UNL A   1      44.778  33.097  28.548  1.00  0.00    -0.014 A 
BRANCH  10  11
ATOM     11  C   UNL A   1      44.219  31.685  28.485  1.00  0.00     0.031 A 
ATOM     12  C   UNL A   1      42.975  31.247  29.229  1.00  0.00     0.074 A 
ATOM     13  C   UNL A   1      44.832  30.763  27.704  1.00  0.00     0.049 A 
ATOM     14  N   UNL A   1      42.245  30.172  29.029  1.00  0.00    -0.248 NA
ATOM     15  C   UNL A   1      42.464  32.099  30.304  1.00  0.00     0.031 C 
ATOM     16  C   UNL A   1      46.050  30.990  26.936  1.00  0.00     0.029 A 
ATOM     17  N   UNL A   1      44.545  29.445  27.424  1.00  0.00    -0.354 N 
ATOM     18  C   UNL A   1      41.132  30.304  29.856  1.00  0.00     0.074 A 
ATOM     19  C   UNL A   1      41.331  31.501  30.633  1.00  0.00     0.031 C 
ATOM     20  C   UNL A   1      46.417  29.884  26.286  1.00  0.00     0.029 A 
ATOM     21  C   UNL A   1      45.465  28.836  26.594  1.00  0.00     0.049 A 
ATOM     22  H   UNL A   1      43.755  28.980  27.781  1.00  0.00     0.167 HD
ATOM     23  C   UNL A   1      40.035  29.513  29.963  1.00  0.00     0.034 A 
ATOM     24  C   UNL A   1      45.562  27.581  26.113  1.00  0.00     0.034 A 
ATOM     25  C   UNL A   1      39.929  28.210  29.358  1.00  0.00     0.049 A 
ATOM     26  C   UNL A   1      44.441  26.633  26.399  1.00  0.00     0.074 A 
ATOM     27  C   UNL A   1      38.908  27.282  29.464  1.00  0.00     0.029 A 
ATOM     28  N   UNL A   1      40.927  27.614  28.595  1.00  0.00    -0.354 N 
ATOM     29  N   UNL A   1      43.337  26.854  27.073  1.00  0.00    -0.248 NA
ATOM     30  C   UNL A   1      44.556  25.286  25.836  1.00  0.00     0.031 C 
ATOM     31  C   UNL A   1      39.331  26.094  28.852  1.00  0.00     0.029 A 
ATOM     32  C   UNL A   1      40.580  26.306  28.291  1.00  0.00     0.049 A 
ATOM     33  H   UNL A   1      41.759  28.056  28.310  1.00  0.00     0.167 HD
ATOM     34  C   UNL A   1      42.607  25.676  26.995  1.00  0.00     0.074 A 
ATOM     35  C   UNL A   1      43.395  24.757  26.193  1.00  0.00     0.031 C 
ATOM     36  C   UNL A   1      41.394  25.387  27.529  1.00  0.00     0.034 A 
BRANCH  23  37
ATOM     37  C   UNL A   1      38.917  30.029  30.842  1.00  0.00     0.023 A 
ATOM     38  C   UNL A   1      37.964  30.945  30.348  1.00  0.00     0.031 A 
ATOM     39  C   UNL A   1      38.839  29.668  32.197  1.00  0.00     0.131 A 
ATOM     40  C   UNL A   1      37.015  31.510  31.216  1.00  0.00     0.055 A 
ATOM     41  C   UNL A   1      37.856  30.190  33.043  1.00  0.00     0.041 A 
ATOM     42  F   UNL A   1      39.737  28.826  32.731  1.00  0.00    -0.206 F 
ATOM     43  C   UNL A   1      36.946  31.124  32.557  1.00  0.00     0.022 A 
BRANCH  40  44
ATOM     44  S   UNL A   1      35.939  32.840  30.604  1.00  0.00     0.124 S 
ATOM     45  O   UNL A   1      34.830  32.085  30.024  1.00  0.00    -0.237 OA
ATOM     46  O   UNL A   1      35.640  33.589  31.818  1.00  0.00    -0.237 OA
ATOM     47  O   UNL A   1      36.779  33.538  29.632  1.00  0.00    -0.744 OA
ENDBRANCH  40  44
ENDBRANCH  23  37
BRANCH  24  48
ATOM     48  C   UNL A   1      46.766  27.176  25.325  1.00  0.00     0.023 A 
ATOM     49  C   UNL A   1      46.966  27.600  24.001  1.00  0.00     0.031 A 
ATOM     50  C   UNL A   1      47.764  26.375  25.916  1.00  0.00     0.131 A 
ATOM     51  C   UNL A   1      48.129  27.213  23.311  1.00  0.00     0.055 A 
ATOM     52  C   UNL A   1      48.933  26.025  25.240  1.00  0.00     0.041 A 
ATOM     53  F   UNL A   1      47.632  25.955  27.185  1.00  0.00    -0.206 F 
ATOM     54  C   UNL A   1      49.117  26.439  23.926  1.00  0.00     0.022 A 
BRANCH  51  55
ATOM     55  S   UNL A   1      48.324  27.700  21.574  1.00  0.00     0.124 S 
ATOM     56  O   UNL A   1      47.016  28.271  21.271  1.00  0.00    -0.237 OA
ATOM     57  O   UNL A   1      49.436  28.642  21.651  1.00  0.00    -0.237 OA
ATOM     58  O   UNL A   1      48.624  26.439  20.899  1.00  0.00    -0.744 OA
ENDBRANCH  51  55
ENDBRANCH  24  48
BRANCH  36  59
ATOM     59  C   UNL A   1      40.860  24.009  27.249  1.00  0.00     0.023 A 
ATOM     60  C   UNL A   1      39.737  23.817  26.426  1.00  0.00     0.031 A 
ATOM     61  C   UNL A   1      41.442  22.884  27.855  1.00  0.00     0.131 A 
ATOM     62  C   UNL A   1      39.182  22.538  26.294  1.00  0.00     0.055 A 
ATOM     63  C   UNL A   1      40.925  21.602  27.666  1.00  0.00     0.041 A 
ATOM     64  F   UNL A   1      42.515  23.014  28.653  1.00  0.00    -0.206 F 
ATOM     65  C   UNL A   1      39.779  21.426  26.896  1.00  0.00     0.022 A 
BRANCH  62  66
ATOM     66  S   UNL A   1      37.601  22.368  25.424  1.00  0.00     0.124 S 
ATOM     67  O   UNL A   1      37.532  23.620  24.677  1.00  0.00    -0.237 OA
ATOM     68  O   UNL A   1      37.809  21.162  24.629  1.00  0.00    -0.237 OA
ATOM     69  O   UNL A   1      36.626  22.238  26.506  1.00  0.00    -0.744 OA
ENDBRANCH  62  66
ENDBRANCH  36  59
ENDBRANCH  10  11
ENDBRANCH   3   5
ENDBRANCH   2   3
ENDBRANCH   1   2
BRANCH   1  70
ATOM     70  C   UNL A   1      46.121  39.792  26.176  1.00  0.00     0.274 C 
BRANCH  70  71
ATOM     71  O   UNL A   1      45.326  40.598  25.297  1.00  0.00    -0.461 OA
BRANCH  71  72
ATOM     72  C   UNL A   1      46.064  41.395  24.493  1.00  0.00     0.324 C 
ATOM     73  O   UNL A   1      47.151  41.045  24.039  1.00  0.00    -0.250 OA
BRANCH  72  74
ATOM     74  C   UNL A   1      45.465  42.742  24.176  1.00  0.00     0.183 C 
ATOM     75  C   UNL A   1      45.354  43.456  25.518  1.00  0.00     0.034 C 
ATOM     76  N   UNL A   1      44.198  43.502  23.213  1.00  0.00    -0.184 NA
ATOM     77  C   UNL A   1      45.316  44.923  25.186  1.00  0.00     0.019 C 
ATOM     78  C   UNL A   1      44.732  45.104  23.777  1.00  0.00     0.103 C 
BRANCH  76  79
ATOM     79  S   UNL A   1      42.584  42.781  21.496  1.00  0.00     0.243 S 
ATOM     80  O   UNL A   1      42.894  41.479  20.871  1.00  0.00    -0.207 OA
ATOM     81  O   UNL A   1      41.168  42.884  21.865  1.00  0.00    -0.207 OA
BRANCH  79  82
ATOM     82  C   UNL A   1      42.445  43.725  19.768  1.00  0.00     0.084 A 
ATOM     83  C   UNL A   1      41.166  43.984  19.254  1.00  0.00     0.024 A 
ATOM     84  C   UNL A   1      43.462  44.646  19.436  1.00  0.00     0.050 A 
ATOM     85  C   UNL A   1      40.949  44.834  18.179  1.00  0.00     0.030 A 
ATOM     86  C   UNL A   1      43.180  45.679  18.520  1.00  0.00     0.066 A 
ATOM     87  C   UNL A   1      41.961  45.704  17.831  1.00  0.00     0.065 A 
ATOM     88  N   UNL A   1      44.044  46.778  18.381  1.00  0.00    -0.316 N 
ATOM     89  N   UNL A   1      41.687  46.685  16.882  1.00  0.00    -0.316 N 
ATOM     90  C   UNL A   1      43.758  47.869  17.577  1.00  0.00     0.314 A 
ATOM     91  H   UNL A   1      44.893  46.773  18.879  1.00  0.00     0.170 HD
ATOM     92  C   UNL A   1      42.512  47.759  16.663  1.00  0.00     0.314 A 
ATOM     93  H   UNL A   1      40.867  46.604  16.342  1.00  0.00     0.170 HD
ATOM     94  O   UNL A   1      44.436  48.886  17.568  1.00  0.00    -0.263 OA
ATOM     95  O   UNL A   1      42.250  48.596  15.809  1.00  0.00    -0.263 OA
ENDBRANCH  79  82
ENDBRANCH  76  79
ENDBRANCH  72  74
ENDBRANCH  71  72
ENDBRANCH  70  71
ENDBRANCH   1  70
TORSDOF 16
ENDMDL
MODEL 2
REMARK VINA RESULT:     -13.2      6.804     16.118
REMARK SMILES O=C(OCCOC(=O)[C@@H]1CCCN1S(=O)(=O)c1ccc2[nH]c(=O)c(=O)[nH]c2c1)c1ccc(-c2c3nc(c(-c4cc(S(=O)(=O)[O-])ccc4F)c4ccc([nH]4)c(-c4cc(S(=O)(=O)[O-])ccc4F)c4nc(c(-c5cc(S(=O)(=O)[O-])ccc5F)c5ccc2[nH]5)C=C4)C=C3)cc1
REMARK SMILES IDX 4 1 3 2 2 3 1 4 29 5 30 6 91 7 31 8 90 9 32 10 33 11 34 12
REMARK SMILES IDX 84 13 35 14 89 15 83 16 85 17 36 18 88 19 82 20 81 21 37 23
REMARK SMILES IDX 69 24 49 25 68 26 50 27 53 28 67 29 86 30 51 31 52 32 66 34
REMARK SMILES IDX 87 35 54 36 38 37 39 38 47 39 40 40 46 41 48 42 45 43 41 44
REMARK SMILES IDX 42 45 43 46 44 47 70 48 71 49 79 50 72 51 78 52 80 53 77 54
REMARK SMILES IDX 73 55 74 56 75 57 76 58 55 59 56 60 64 61 57 62 63 63 65 64
REMARK SMILES IDX 62 65 58 66 59 67 60 68 61 69 5 70 6 71 7 72 8 73 9 74 10 75
REMARK SMILES IDX 13 76 11 77 12 78 14 79 15 80 16 81 17 82 18 83 28 84 19 85
REMARK SMILES IDX 27 86 20 87 26 88 21 89 24 90 22 92 25 94 23 95
REMARK H PARENT 85 22 53 33 26 91 21 93
REMARK Flexibility Score: inf
ROOT
ATOM      1  C   UNL A   1      36.239  20.871  25.007  1.00  0.00     0.275 C 
ENDROOT
BRANCH   1   2
ATOM      2  O   UNL A   1      37.302  20.027  25.520  1.00  0.00    -0.458 OA
BRANCH   2   3
ATOM      3  C   UNL A   1      38.633  20.216  25.682  1.00  0.00     0.338 C 
ATOM      4  O   UNL A   1      39.413  19.316  25.377  1.00  0.00    -0.246 OA
BRANCH   3   5
ATOM      5  C   UNL A   1      39.245  21.446  26.290  1.00  0.00     0.060 A 
ATOM      6  C   UNL A   1      40.687  21.492  27.386  1.00  0.00     0.016 A 
ATOM      7  C   UNL A   1      38.561  23.007  25.701  1.00  0.00     0.016 A 
ATOM      8  C   UNL A   1      41.479  23.061  27.805  1.00  0.00     0.010 A 
ATOM      9  C   UNL A   1      39.308  24.572  26.177  1.00  0.00     0.010 A 
ATOM     10  C   UNL A   1      40.790  24.614  27.238  1.00  0.00    -0.014 A 
BRANCH  10  11
ATOM     11  C   UNL A   1      41.516  25.887  27.642  1.00  0.00     0.031 A 
ATOM     12  C   UNL A   1      42.976  26.146  27.337  1.00  0.00     0.074 A 
ATOM     13  C   UNL A   1      40.832  26.867  28.280  1.00  0.00     0.049 A 
ATOM     14  N   UNL A   1      43.622  27.291  27.367  1.00  0.00    -0.248 NA
ATOM     15  C   UNL A   1      43.819  25.019  26.933  1.00  0.00     0.031 C 
ATOM     16  C   UNL A   1      39.432  26.790  28.679  1.00  0.00     0.029 A 
ATOM     17  N   UNL A   1      41.200  28.116  28.728  1.00  0.00    -0.354 N 
ATOM     18  C   UNL A   1      44.891  27.030  26.858  1.00  0.00     0.074 A 
ATOM     19  C   UNL A   1      44.962  25.610  26.626  1.00  0.00     0.031 C 
ATOM     20  C   UNL A   1      39.053  27.905  29.308  1.00  0.00     0.029 A 
ATOM     21  C   UNL A   1      40.191  28.798  29.380  1.00  0.00     0.049 A 
ATOM     22  H   UNL A   1      42.101  28.490  28.595  1.00  0.00     0.167 HD
ATOM     23  C   UNL A   1      45.911  27.886  26.595  1.00  0.00     0.034 A 
ATOM     24  C   UNL A   1      40.151  30.005  29.976  1.00  0.00     0.034 A 
ATOM     25  C   UNL A   1      45.930  29.260  27.027  1.00  0.00     0.049 A 
ATOM     26  C   UNL A   1      41.356  30.883  29.862  1.00  0.00     0.074 A 
ATOM     27  C   UNL A   1      46.938  30.198  26.896  1.00  0.00     0.029 A 
ATOM     28  N   UNL A   1      44.913  29.871  27.752  1.00  0.00    -0.354 N 
ATOM     29  N   UNL A   1      42.487  30.641  29.244  1.00  0.00    -0.248 NA
ATOM     30  C   UNL A   1      41.272  32.204  30.491  1.00  0.00     0.031 C 
ATOM     31  C   UNL A   1      46.573  31.338  27.627  1.00  0.00     0.029 A 
ATOM     32  C   UNL A   1      45.301  31.143  28.143  1.00  0.00     0.049 A 
ATOM     33  H   UNL A   1      44.042  29.460  27.958  1.00  0.00     0.167 HD
ATOM     34  C   UNL A   1      43.247  31.793  29.385  1.00  0.00     0.074 A 
ATOM     35  C   UNL A   1      42.434  32.733  30.136  1.00  0.00     0.031 C 
ATOM     36  C   UNL A   1      44.498  32.052  28.928  1.00  0.00     0.034 A 
BRANCH  23  37
ATOM     37  C   UNL A   1      47.110  27.303  25.880  1.00  0.00     0.023 A 
ATOM     38  C   UNL A   1      48.108  26.597  26.585  1.00  0.00     0.031 A 
ATOM     39  C   UNL A   1      47.300  27.510  24.505  1.00  0.00     0.131 A 
ATOM     40  C   UNL A   1      49.274  26.178  25.923  1.00  0.00     0.055 A 
ATOM     41  C   UNL A   1      48.437  27.042  23.840  1.00  0.00     0.041 A 
ATOM     42  F   UNL A   1      46.401  28.202  23.788  1.00  0.00    -0.206 F 
ATOM     43  C   UNL A   1      49.436  26.383  24.551  1.00  0.00     0.022 A 
BRANCH  40  44
ATOM     44  S   UNL A   1      50.632  25.461  26.894  1.00  0.00     0.124 S 
ATOM     45  O   UNL A   1      51.128  26.627  27.622  1.00  0.00    -0.237 OA
ATOM     46  O   UNL A   1      49.950  24.449  27.691  1.00  0.00    -0.237 OA
ATOM     47  O   UNL A   1      51.543  24.942  25.876  1.00  0.00    -0.744 OA
ENDBRANCH  40  44
ENDBRANCH  23  37
BRANCH  24  48
ATOM     48  C   UNL A   1      38.927  30.425  30.724  1.00  0.00     0.023 A 
ATOM     49  C   UNL A   1      37.879  31.127  30.105  1.00  0.00     0.031 A 
ATOM     50  C   UNL A   1      38.777  30.088  32.085  1.00  0.00     0.131 A 
ATOM     51  C   UNL A   1      36.736  31.476  30.847  1.00  0.00     0.055 A 
ATOM     52  C   UNL A   1      37.624  30.404  32.806  1.00  0.00     0.041 A 
ATOM     53  F   UNL A   1      39.740  29.404  32.723  1.00  0.00    -0.206 F 
ATOM     54  C   UNL A   1      36.599  31.109  32.188  1.00  0.00     0.022 A 
BRANCH  51  55
ATOM     55  S   UNL A   1      35.436  32.458  30.048  1.00  0.00     0.124 S 
ATOM     56  O   UNL A   1      36.136  33.701  29.749  1.00  0.00    -0.237 OA
ATOM     57  O   UNL A   1      35.091  31.621  28.902  1.00  0.00    -0.237 OA
ATOM     58  O   UNL A   1      34.404  32.556  31.077  1.00  0.00    -0.744 OA
ENDBRANCH  51  55
ENDBRANCH  24  48
BRANCH  36  59
ATOM     59  C   UNL A   1      45.046  33.418  29.239  1.00  0.00     0.023 A 
ATOM     60  C   UNL A   1      44.837  34.501  28.368  1.00  0.00     0.031 A 
ATOM     61  C   UNL A   1      45.831  33.626  30.384  1.00  0.00     0.131 A 
ATOM     62  C   UNL A   1      45.473  35.724  28.615  1.00  0.00     0.055 A 
ATOM     63  C   UNL A   1      46.407  34.865  30.661  1.00  0.00     0.041 A 
ATOM     64  F   UNL A   1      46.064  32.622  31.246  1.00  0.00    -0.206 F 
ATOM     65  C   UNL A   1      46.244  35.918  29.764  1.00  0.00     0.022 A 
BRANCH  62  66
ATOM     66  S   UNL A   1      45.375  37.019  27.350  1.00  0.00     0.124 S 
ATOM     67  O   UNL A   1      43.999  36.883  26.885  1.00  0.00    -0.237 OA
ATOM     68  O   UNL A   1      45.674  38.226  28.113  1.00  0.00    -0.237 OA
ATOM     69  O   UNL A   1      46.398  36.629  26.380  1.00  0.00    -0.744 OA
ENDBRANCH  62  66
ENDBRANCH  36  59
ENDBRANCH  10  11
ENDBRANCH   3   5
ENDBRANCH   2   3
ENDBRANCH   1   2
BRANCH   1  70
ATOM     70  C   UNL A   1      35.319  21.449  26.088  1.00  0.00     0.274 C 
BRANCH  70  71
ATOM     71  O   UNL A   1      34.086  20.719  26.130  1.00  0.00    -0.461 OA
BRANCH  71  72
ATOM     72  C   UNL A   1      33.012  21.470  25.803  1.00  0.00     0.324 C 
ATOM     73  O   UNL A   1      32.395  22.133  26.634  1.00  0.00    -0.250 OA
BRANCH  72  74
ATOM     74  C   UNL A   1      32.621  21.455  24.347  1.00  0.00     0.183 C 
ATOM     75  C   UNL A   1      32.973  20.056  23.853  1.00  0.00     0.034 C 
ATOM     76  N   UNL A   1      32.705  22.429  22.880  1.00  0.00    -0.184 NA
ATOM     77  C   UNL A   1      32.108  19.831  22.643  1.00  0.00     0.019 C 
ATOM     78  C   UNL A   1      31.778  21.188  22.003  1.00  0.00     0.103 C 
BRANCH  76  79
ATOM     79  S   UNL A   1      33.430  24.709  22.290  1.00  0.00     0.243 S 
ATOM     80  O   UNL A   1      34.789  25.060  22.753  1.00  0.00    -0.207 OA
ATOM     81  O   UNL A   1      33.211  25.110  20.895  1.00  0.00    -0.207 OA
BRANCH  79  82
ATOM     82  C   UNL A   1      32.596  26.292  23.123  1.00  0.00     0.084 A 
ATOM     83  C   UNL A   1      33.244  27.530  22.992  1.00  0.00     0.024 A 
ATOM     84  C   UNL A   1      31.189  26.320  23.223  1.00  0.00     0.050 A 
ATOM     85  C   UNL A   1      32.639  28.731  23.332  1.00  0.00     0.030 A 
ATOM     86  C   UNL A   1      30.531  27.562  23.319  1.00  0.00     0.066 A 
ATOM     87  C   UNL A   1      31.267  28.745  23.470  1.00  0.00     0.065 A 
ATOM     88  N   UNL A   1      29.143  27.664  23.126  1.00  0.00    -0.316 N 
ATOM     89  N   UNL A   1      30.634  29.975  23.624  1.00  0.00    -0.316 N 
ATOM     90  C   UNL A   1      28.469  28.873  23.104  1.00  0.00     0.314 A 
ATOM     91  H   UNL A   1      28.626  26.836  23.000  1.00  0.00     0.170 HD
ATOM     92  C   UNL A   1      29.277  30.135  23.494  1.00  0.00     0.314 A 
ATOM     93  H   UNL A   1      31.182  30.765  23.837  1.00  0.00     0.170 HD
ATOM     94  O   UNL A   1      27.291  28.973  22.791  1.00  0.00    -0.263 OA
ATOM     95  O   UNL A   1      28.750  31.229  23.651  1.00  0.00    -0.263 OA
ENDBRANCH  79  82
ENDBRANCH  76  79
ENDBRANCH  72  74
ENDBRANCH  71  72
ENDBRANCH  70  71
ENDBRANCH   1  70
TORSDOF 16
ENDMDL
MODEL 3
REMARK VINA RESULT:     -13.2      7.543     15.653
REMARK SMILES O=C(OCCOC(=O)[C@@H]1CCCN1S(=O)(=O)c1ccc2[nH]c(=O)c(=O)[nH]c2c1)c1ccc(-c2c3nc(c(-c4cc(S(=O)(=O)[O-])ccc4F)c4ccc([nH]4)c(-c4cc(S(=O)(=O)[O-])ccc4F)c4nc(c(-c5cc(S(=O)(=O)[O-])ccc5F)c5ccc2[nH]5)C=C4)C=C3)cc1
REMARK SMILES IDX 4 1 3 2 2 3 1 4 29 5 30 6 91 7 31 8 90 9 32 10 33 11 34 12
REMARK SMILES IDX 84 13 35 14 89 15 83 16 85 17 36 18 88 19 82 20 81 21 37 23
REMARK SMILES IDX 69 24 49 25 68 26 50 27 53 28 67 29 86 30 51 31 52 32 66 34
REMARK SMILES IDX 87 35 54 36 38 37 39 38 47 39 40 40 46 41 48 42 45 43 41 44
REMARK SMILES IDX 42 45 43 46 44 47 70 48 71 49 79 50 72 51 78 52 80 53 77 54
REMARK SMILES IDX 73 55 74 56 75 57 76 58 55 59 56 60 64 61 57 62 63 63 65 64
REMARK SMILES IDX 62 65 58 66 59 67 60 68 61 69 5 70 6 71 7 72 8 73 9 74 10 75
REMARK SMILES IDX 13 76 11 77 12 78 14 79 15 80 16 81 17 82 18 83 28 84 19 85
REMARK SMILES IDX 27 86 20 87 26 88 21 89 24 90 22 92 25 94 23 95
REMARK H PARENT 85 22 53 33 26 91 21 93
REMARK Flexibility Score: inf
ROOT
ATOM      1  C   UNL A   1      36.041  21.152  24.858  1.00  0.00     0.275 C 
ENDROOT
BRANCH   1   2
ATOM      2  O   UNL A   1      37.062  20.141  25.065  1.00  0.00    -0.458 OA
BRANCH   2   3
ATOM      3  C   UNL A   1      38.351  20.203  25.473  1.00  0.00     0.338 C 
ATOM      4  O   UNL A   1      39.064  19.207  25.379  1.00  0.00    -0.246 OA
BRANCH   3   5
ATOM      5  C   UNL A   1      38.977  21.408  26.118  1.00  0.00     0.060 A 
ATOM      6  C   UNL A   1      40.439  21.407  27.189  1.00  0.00     0.016 A 
ATOM      7  C   UNL A   1      38.286  22.992  25.605  1.00  0.00     0.016 A 
ATOM      8  C   UNL A   1      41.242  22.957  27.655  1.00  0.00     0.010 A 
ATOM      9  C   UNL A   1      39.045  24.535  26.129  1.00  0.00     0.010 A 
ATOM     10  C   UNL A   1      40.546  24.533  27.164  1.00  0.00    -0.014 A 
BRANCH  10  11
ATOM     11  C   UNL A   1      41.282  25.787  27.604  1.00  0.00     0.031 A 
ATOM     12  C   UNL A   1      42.754  26.024  27.345  1.00  0.00     0.074 A 
ATOM     13  C   UNL A   1      40.597  26.771  28.236  1.00  0.00     0.049 A 
ATOM     14  N   UNL A   1      43.419  27.157  27.409  1.00  0.00    -0.248 NA
ATOM     15  C   UNL A   1      43.589  24.888  26.951  1.00  0.00     0.031 C 
ATOM     16  C   UNL A   1      39.185  26.714  28.593  1.00  0.00     0.029 A 
ATOM     17  N   UNL A   1      40.974  28.008  28.711  1.00  0.00    -0.354 N 
ATOM     18  C   UNL A   1      44.698  26.880  26.933  1.00  0.00     0.074 A 
ATOM     19  C   UNL A   1      44.751  25.461  26.684  1.00  0.00     0.031 C 
ATOM     20  C   UNL A   1      38.808  27.828  29.225  1.00  0.00     0.029 A 
ATOM     21  C   UNL A   1      39.959  28.699  29.342  1.00  0.00     0.049 A 
ATOM     22  H   UNL A   1      41.885  28.367  28.608  1.00  0.00     0.167 HD
ATOM     23  C   UNL A   1      45.740  27.720  26.711  1.00  0.00     0.034 A 
ATOM     24  C   UNL A   1      39.923  29.900  29.952  1.00  0.00     0.034 A 
ATOM     25  C   UNL A   1      45.770  29.089  27.160  1.00  0.00     0.049 A 
ATOM     26  C   UNL A   1      41.146  30.757  29.884  1.00  0.00     0.074 A 
ATOM     27  C   UNL A   1      46.798  30.011  27.071  1.00  0.00     0.029 A 
ATOM     28  N   UNL A   1      44.743  29.708  27.863  1.00  0.00    -0.354 N 
ATOM     29  N   UNL A   1      42.289  30.503  29.295  1.00  0.00    -0.248 NA
ATOM     30  C   UNL A   1      41.067  32.071  30.528  1.00  0.00     0.031 C 
ATOM     31  C   UNL A   1      46.432  31.147  27.805  1.00  0.00     0.029 A 
ATOM     32  C   UNL A   1      45.143  30.969  28.282  1.00  0.00     0.049 A 
ATOM     33  H   UNL A   1      43.860  29.311  28.039  1.00  0.00     0.167 HD
ATOM     34  C   UNL A   1      43.065  31.640  29.474  1.00  0.00     0.074 A 
ATOM     35  C   UNL A   1      42.247  32.584  30.213  1.00  0.00     0.031 C 
ATOM     36  C   UNL A   1      44.333  31.882  29.056  1.00  0.00     0.034 A 
BRANCH  23  37
ATOM     37  C   UNL A   1      46.949  27.125  26.023  1.00  0.00     0.023 A 
ATOM     38  C   UNL A   1      47.960  26.472  26.759  1.00  0.00     0.031 A 
ATOM     39  C   UNL A   1      47.135  27.270  24.638  1.00  0.00     0.131 A 
ATOM     40  C   UNL A   1      49.133  26.043  26.116  1.00  0.00     0.055 A 
ATOM     41  C   UNL A   1      48.279  26.790  23.995  1.00  0.00     0.041 A 
ATOM     42  F   UNL A   1      46.223  27.910  23.891  1.00  0.00    -0.206 F 
ATOM     43  C   UNL A   1      49.290  26.184  24.735  1.00  0.00     0.022 A 
BRANCH  40  44
ATOM     44  S   UNL A   1      50.504  25.398  27.118  1.00  0.00     0.124 S 
ATOM     45  O   UNL A   1      51.383  24.835  26.096  1.00  0.00    -0.237 OA
ATOM     46  O   UNL A   1      50.990  26.594  27.796  1.00  0.00    -0.237 OA
ATOM     47  O   UNL A   1      49.860  24.412  27.983  1.00  0.00    -0.744 OA
ENDBRANCH  40  44
ENDBRANCH  23  37
BRANCH  24  48
ATOM     48  C   UNL A   1      38.685  30.332  30.670  1.00  0.00     0.023 A 
ATOM     49  C   UNL A   1      37.687  31.095  30.042  1.00  0.00     0.031 A 
ATOM     50  C   UNL A   1      38.470  29.945  32.009  1.00  0.00     0.131 A 
ATOM     51  C   UNL A   1      36.528  31.454  30.754  1.00  0.00     0.055 A 
ATOM     52  C   UNL A   1      37.301  30.273  32.699  1.00  0.00     0.041 A 
ATOM     53  F   UNL A   1      39.383  29.202  32.654  1.00  0.00    -0.206 F 
ATOM     54  C   UNL A   1      36.325  31.037  32.072  1.00  0.00     0.022 A 
BRANCH  51  55
ATOM     55  S   UNL A   1      35.294  32.513  29.948  1.00  0.00     0.124 S 
ATOM     56  O   UNL A   1      34.343  32.745  31.028  1.00  0.00    -0.237 OA
ATOM     57  O   UNL A   1      36.102  33.658  29.543  1.00  0.00    -0.237 OA
ATOM     58  O   UNL A   1      34.800  31.683  28.851  1.00  0.00    -0.744 OA
ENDBRANCH  51  55
ENDBRANCH  24  48
BRANCH  36  59
ATOM     59  C   UNL A   1      44.896  33.234  29.400  1.00  0.00     0.023 A 
ATOM     60  C   UNL A   1      45.586  33.449  30.605  1.00  0.00     0.031 A 
ATOM     61  C   UNL A   1      44.690  34.328  28.545  1.00  0.00     0.131 A 
ATOM     62  C   UNL A   1      45.977  34.746  30.960  1.00  0.00     0.055 A 
ATOM     63  C   UNL A   1      45.141  35.607  28.873  1.00  0.00     0.041 A 
ATOM     64  F   UNL A   1      44.032  34.176  27.384  1.00  0.00    -0.206 F 
ATOM     65  C   UNL A   1      45.774  35.825  30.094  1.00  0.00     0.022 A 
BRANCH  62  66
ATOM     66  S   UNL A   1      46.648  35.022  32.621  1.00  0.00     0.124 S 
ATOM     67  O   UNL A   1      47.085  36.412  32.544  1.00  0.00    -0.237 OA
ATOM     68  O   UNL A   1      45.491  34.764  33.473  1.00  0.00    -0.237 OA
ATOM     69  O   UNL A   1      47.725  34.038  32.724  1.00  0.00    -0.744 OA
ENDBRANCH  62  66
ENDBRANCH  36  59
ENDBRANCH  10  11
ENDBRANCH   3   5
ENDBRANCH   2   3
ENDBRANCH   1   2
BRANCH   1  70
ATOM     70  C   UNL A   1      34.925  21.142  25.908  1.00  0.00     0.274 C 
BRANCH  70  71
ATOM     71  O   UNL A   1      34.216  22.388  25.888  1.00  0.00    -0.461 OA
BRANCH  71  72
ATOM     72  C   UNL A   1      33.062  22.331  25.187  1.00  0.00     0.324 C 
ATOM     73  O   UNL A   1      32.172  21.525  25.448  1.00  0.00    -0.250 OA
BRANCH  72  74
ATOM     74  C   UNL A   1      32.927  23.331  24.066  1.00  0.00     0.183 C 
ATOM     75  C   UNL A   1      33.804  22.792  22.942  1.00  0.00     0.034 C 
ATOM     76  N   UNL A   1      32.899  25.066  23.755  1.00  0.00    -0.184 NA
ATOM     77  C   UNL A   1      33.262  23.412  21.683  1.00  0.00     0.019 C 
ATOM     78  C   UNL A   1      32.594  24.750  22.029  1.00  0.00     0.103 C 
BRANCH  76  79
ATOM     79  S   UNL A   1      32.889  27.125  25.109  1.00  0.00     0.243 S 
ATOM     80  O   UNL A   1      32.656  26.909  26.552  1.00  0.00    -0.207 OA
ATOM     81  O   UNL A   1      34.000  28.054  24.871  1.00  0.00    -0.207 OA
BRANCH  79  82
ATOM     82  C   UNL A   1      31.436  28.449  24.940  1.00  0.00     0.084 A 
ATOM     83  C   UNL A   1      31.680  29.762  25.372  1.00  0.00     0.024 A 
ATOM     84  C   UNL A   1      30.519  28.290  23.879  1.00  0.00     0.050 A 
ATOM     85  C   UNL A   1      30.822  30.815  25.090  1.00  0.00     0.030 A 
ATOM     86  C   UNL A   1      29.812  29.414  23.408  1.00  0.00     0.066 A 
ATOM     87  C   UNL A   1      29.899  30.641  24.079  1.00  0.00     0.065 A 
ATOM     88  N   UNL A   1      29.122  29.375  22.185  1.00  0.00    -0.316 N 
ATOM     89  N   UNL A   1      29.164  31.747  23.662  1.00  0.00    -0.316 N 
ATOM     90  C   UNL A   1      28.504  30.483  21.628  1.00  0.00     0.314 A 
ATOM     91  H   UNL A   1      29.075  28.520  21.700  1.00  0.00     0.170 HD
ATOM     92  C   UNL A   1      28.432  31.759  22.502  1.00  0.00     0.314 A 
ATOM     93  H   UNL A   1      29.169  32.556  24.224  1.00  0.00     0.170 HD
ATOM     94  O   UNL A   1      28.032  30.485  20.500  1.00  0.00    -0.263 OA
ATOM     95  O   UNL A   1      27.784  32.744  22.172  1.00  0.00    -0.263 OA
ENDBRANCH  79  82
ENDBRANCH  76  79
ENDBRANCH  72  74
ENDBRANCH  71  72
ENDBRANCH  70  71
ENDBRANCH   1  70
TORSDOF 16
ENDMDL
