MODEL 1
REMARK VINA RESULT:     -13.1      0.000      0.000
REMARK SMILES O=C(OCCOC(=O)[C@@H]1CCCN1S(=O)(=O)c1ccc2c3c(cccc13)C(=O)N2)c1ccc(-c2c3nc(c(-c4cc(S(=O)(=O)[O-])ccc4F)c4ccc([nH]4)c(-c4cc(S(=O)(=O)[O-])ccc4F)c4nc(c(-c5cc(S(=O)(=O)[O-])ccc5F)c5ccc2[nH]5)C=C4)C=C3)cc1
REMARK SMILES IDX 4 1 3 2 2 3 1 4 30 5 31 6 92 7 32 8 91 9 33 10 34 11 35 12
REMARK SMILES IDX 85 13 36 14 90 15 84 16 86 17 37 18 89 19 83 20 82 21 38 23
REMARK SMILES IDX 70 24 50 25 69 26 51 27 54 28 68 29 87 30 52 31 53 32 67 34
REMARK SMILES IDX 88 35 55 36 39 37 40 38 48 39 41 40 47 41 49 42 46 43 42 44
REMARK SMILES IDX 43 45 44 46 45 47 71 48 72 49 80 50 73 51 79 52 81 53 78 54
REMARK SMILES IDX 74 55 75 56 76 57 77 58 56 59 57 60 65 61 58 62 64 63 66 64
REMARK SMILES IDX 63 65 59 66 60 67 61 68 62 69 5 70 6 71 7 72 8 73 9 74 10 75
REMARK SMILES IDX 13 76 11 77 12 78 14 79 15 80 16 81 17 82 18 83 26 84 19 85
REMARK SMILES IDX 21 86 25 87 20 88 22 89 24 90 29 91 23 92 27 93 28 95
REMARK H PARENT 86 22 54 33 29 94
REMARK Flexibility Score: inf
ROOT
ATOM      1  C   UNL A   1      31.782  31.936  27.018  1.00  0.00     0.275 C 
ENDROOT
BRANCH   1   2
ATOM      2  O   UNL A   1      32.743  33.007  27.136  1.00  0.00    -0.458 OA
BRANCH   2   3
ATOM      3  C   UNL A   1      33.393  33.462  28.240  1.00  0.00     0.338 C 
ATOM      4  O   UNL A   1      33.015  34.477  28.813  1.00  0.00    -0.246 OA
BRANCH   3   5
ATOM      5  C   UNL A   1      34.664  32.817  28.636  1.00  0.00     0.060 A 
ATOM      6  C   UNL A   1      34.711  31.509  29.122  1.00  0.00     0.016 A 
ATOM      7  C   UNL A   1      35.855  33.533  28.469  1.00  0.00     0.016 A 
ATOM      8  C   UNL A   1      35.912  30.826  29.202  1.00  0.00     0.010 A 
ATOM      9  C   UNL A   1      37.079  32.886  28.657  1.00  0.00     0.010 A 
ATOM     10  C   UNL A   1      37.104  31.515  28.984  1.00  0.00    -0.014 A 
BRANCH  10  11
ATOM     11  C   UNL A   1      38.312  30.918  29.569  1.00  0.00     0.031 A 
ATOM     12  C   UNL A   1      38.558  31.348  30.982  1.00  0.00     0.074 A 
ATOM     13  C   UNL A   1      39.068  29.991  28.952  1.00  0.00     0.049 A 
ATOM     14  N   UNL A   1      39.488  30.974  31.807  1.00  0.00    -0.248 NA
ATOM     15  C   UNL A   1      37.598  32.320  31.551  1.00  0.00     0.031 C 
ATOM     16  C   UNL A   1      38.829  29.413  27.632  1.00  0.00     0.029 A 
ATOM     17  N   UNL A   1      40.211  29.363  29.373  1.00  0.00    -0.354 N 
ATOM     18  C   UNL A   1      39.214  31.659  32.981  1.00  0.00     0.074 A 
ATOM     19  C   UNL A   1      38.097  32.532  32.750  1.00  0.00     0.031 C 
ATOM     20  C   UNL A   1      39.838  28.585  27.312  1.00  0.00     0.029 A 
ATOM     21  C   UNL A   1      40.768  28.527  28.432  1.00  0.00     0.049 A 
ATOM     22  H   UNL A   1      40.600  29.497  30.268  1.00  0.00     0.167 HD
ATOM     23  C   UNL A   1      39.816  31.529  34.177  1.00  0.00     0.034 A 
ATOM     24  C   UNL A   1      41.887  27.777  28.488  1.00  0.00     0.034 A 
ATOM     25  C   UNL A   1      40.931  30.665  34.376  1.00  0.00     0.049 A 
ATOM     26  C   UNL A   1      42.622  27.727  29.802  1.00  0.00     0.074 A 
ATOM     27  C   UNL A   1      41.661  30.469  35.526  1.00  0.00     0.029 A 
ATOM     28  N   UNL A   1      41.482  29.863  33.386  1.00  0.00    -0.354 N 
ATOM     29  N   UNL A   1      42.329  28.342  30.925  1.00  0.00    -0.248 NA
ATOM     30  C   UNL A   1      43.807  26.864  29.882  1.00  0.00     0.031 C 
ATOM     31  C   UNL A   1      42.698  29.593  35.214  1.00  0.00     0.029 A 
ATOM     32  C   UNL A   1      42.565  29.183  33.892  1.00  0.00     0.049 A 
ATOM     33  H   UNL A   1      41.148  29.792  32.463  1.00  0.00     0.167 HD
ATOM     34  C   UNL A   1      43.263  27.909  31.857  1.00  0.00     0.074 A 
ATOM     35  C   UNL A   1      44.138  26.983  31.164  1.00  0.00     0.031 C 
ATOM     36  C   UNL A   1      43.382  28.238  33.166  1.00  0.00     0.034 A 
BRANCH  23  37
ATOM     37  C   UNL A   1      39.302  32.383  35.292  1.00  0.00     0.023 A 
ATOM     38  C   UNL A   1      38.578  31.781  36.331  1.00  0.00     0.031 A 
ATOM     39  C   UNL A   1      39.568  33.763  35.362  1.00  0.00     0.131 A 
ATOM     40  C   UNL A   1      38.136  32.561  37.401  1.00  0.00     0.055 A 
ATOM     41  C   UNL A   1      39.164  34.527  36.455  1.00  0.00     0.041 A 
ATOM     42  F   UNL A   1      40.297  34.367  34.409  1.00  0.00    -0.206 F 
ATOM     43  C   UNL A   1      38.439  33.925  37.479  1.00  0.00     0.022 A 
BRANCH  40  44
ATOM     44  S   UNL A   1      37.162  31.819  38.733  1.00  0.00     0.124 S 
ATOM     45  O   UNL A   1      37.039  30.433  38.285  1.00  0.00    -0.237 OA
ATOM     46  O   UNL A   1      38.027  32.030  39.889  1.00  0.00    -0.237 OA
ATOM     47  O   UNL A   1      35.918  32.582  38.723  1.00  0.00    -0.744 OA
ENDBRANCH  40  44
ENDBRANCH  23  37
BRANCH  24  48
ATOM     48  C   UNL A   1      42.293  26.967  27.304  1.00  0.00     0.023 A 
ATOM     49  C   UNL A   1      42.011  25.589  27.239  1.00  0.00     0.031 A 
ATOM     50  C   UNL A   1      43.050  27.533  26.264  1.00  0.00     0.131 A 
ATOM     51  C   UNL A   1      42.516  24.820  26.180  1.00  0.00     0.055 A 
ATOM     52  C   UNL A   1      43.512  26.772  25.188  1.00  0.00     0.041 A 
ATOM     53  F   UNL A   1      43.361  28.837  26.291  1.00  0.00    -0.206 F 
ATOM     54  C   UNL A   1      43.253  25.405  25.146  1.00  0.00     0.022 A 
BRANCH  51  55
ATOM     55  S   UNL A   1      42.288  23.020  26.143  1.00  0.00     0.124 S 
ATOM     56  O   UNL A   1      42.842  22.662  24.840  1.00  0.00    -0.237 OA
ATOM     57  O   UNL A   1      43.078  22.602  27.300  1.00  0.00    -0.237 OA
ATOM     58  O   UNL A   1      40.846  22.854  26.279  1.00  0.00    -0.744 OA
ENDBRANCH  51  55
ENDBRANCH  24  48
BRANCH  36  59
ATOM     59  C   UNL A   1      44.462  27.590  33.985  1.00  0.00     0.023 A 
ATOM     60  C   UNL A   1      44.143  26.436  34.723  1.00  0.00     0.031 A 
ATOM     61  C   UNL A   1      45.657  28.270  34.264  1.00  0.00     0.131 A 
ATOM     62  C   UNL A   1      44.964  26.053  35.784  1.00  0.00     0.055 A 
ATOM     63  C   UNL A   1      46.504  27.845  35.286  1.00  0.00     0.041 A 
ATOM     64  F   UNL A   1      45.982  29.383  33.587  1.00  0.00    -0.206 F 
ATOM     65  C   UNL A   1      46.144  26.748  36.068  1.00  0.00     0.022 A 
BRANCH  62  66
ATOM     66  S   UNL A   1      44.449  24.735  36.918  1.00  0.00     0.124 S 
ATOM     67  O   UNL A   1      44.147  23.643  35.995  1.00  0.00    -0.237 OA
ATOM     68  O   UNL A   1      45.645  24.552  37.736  1.00  0.00    -0.237 OA
ATOM     69  O   UNL A   1      43.293  25.297  37.610  1.00  0.00    -0.744 OA
ENDBRANCH  62  66
ENDBRANCH  36  59
ENDBRANCH  10  11
ENDBRANCH   3   5
ENDBRANCH   2   3
ENDBRANCH   1   2
BRANCH   1  70
ATOM     70  C   UNL A   1      32.235  30.574  26.434  1.00  0.00     0.274 C 
BRANCH  70  71
ATOM     71  O   UNL A   1      31.413  30.026  25.382  1.00  0.00    -0.461 OA
BRANCH  71  72
ATOM     72  C   UNL A   1      31.965  29.017  24.633  1.00  0.00     0.324 C 
ATOM     73  O   UNL A   1      32.980  29.162  23.957  1.00  0.00    -0.250 OA
BRANCH  72  74
ATOM     74  C   UNL A   1      31.209  27.701  24.693  1.00  0.00     0.183 C 
ATOM     75  C   UNL A   1      31.073  27.116  26.074  1.00  0.00     0.034 C 
ATOM     76  N   UNL A   1      31.509  26.482  23.867  1.00  0.00    -0.184 NA
ATOM     77  C   UNL A   1      30.254  25.863  25.884  1.00  0.00     0.019 C 
ATOM     78  C   UNL A   1      30.574  25.426  24.456  1.00  0.00     0.103 C 
BRANCH  76  79
ATOM     79  S   UNL A   1      33.119  25.877  23.753  1.00  0.00     0.244 S 
ATOM     80  O   UNL A   1      33.635  26.221  22.445  1.00  0.00    -0.207 OA
ATOM     81  O   UNL A   1      33.823  26.338  24.931  1.00  0.00    -0.207 OA
BRANCH  79  82
ATOM     82  C   UNL A   1      32.998  24.107  23.824  1.00  0.00     0.090 A 
ATOM     83  C   UNL A   1      32.790  23.449  22.591  1.00  0.00     0.024 A 
ATOM     84  C   UNL A   1      33.209  23.338  24.998  1.00  0.00     0.005 A 
ATOM     85  C   UNL A   1      32.520  22.076  22.494  1.00  0.00     0.028 A 
ATOM     86  C   UNL A   1      32.951  22.002  24.849  1.00  0.00     0.019 A 
ATOM     87  C   UNL A   1      33.692  23.685  26.284  1.00  0.00     0.010 A 
ATOM     88  C   UNL A   1      32.570  21.389  23.679  1.00  0.00     0.050 A 
ATOM     89  C   UNL A   1      33.089  21.015  25.811  1.00  0.00     0.050 A 
ATOM     90  C   UNL A   1      33.911  22.701  27.271  1.00  0.00     0.002 A 
ATOM     91  N   UNL A   1      32.379  20.049  23.939  1.00  0.00    -0.321 N 
ATOM     92  C   UNL A   1      33.604  21.347  27.058  1.00  0.00     0.014 A 
ATOM     93  C   UNL A   1      32.693  19.727  25.266  1.00  0.00     0.256 C 
ATOM     94  H   UNL A   1      32.061  19.397  23.273  1.00  0.00     0.170 HD
ATOM     95  O   UNL A   1      32.630  18.608  25.740  1.00  0.00    -0.269 OA
ENDBRANCH  79  82
ENDBRANCH  76  79
ENDBRANCH  72  74
ENDBRANCH  71  72
ENDBRANCH  70  71
ENDBRANCH   1  70
TORSDOF 16
ENDMDL
MODEL 2
REMARK VINA RESULT:     -13.0      4.843     10.164
REMARK SMILES O=C(OCCOC(=O)[C@@H]1CCCN1S(=O)(=O)c1ccc2c3c(cccc13)C(=O)N2)c1ccc(-c2c3nc(c(-c4cc(S(=O)(=O)[O-])ccc4F)c4ccc([nH]4)c(-c4cc(S(=O)(=O)[O-])ccc4F)c4nc(c(-c5cc(S(=O)(=O)[O-])ccc5F)c5ccc2[nH]5)C=C4)C=C3)cc1
REMARK SMILES IDX 4 1 3 2 2 3 1 4 30 5 31 6 92 7 32 8 91 9 33 10 34 11 35 12
REMARK SMILES IDX 85 13 36 14 90 15 84 16 86 17 37 18 89 19 83 20 82 21 38 23
REMARK SMILES IDX 70 24 50 25 69 26 51 27 54 28 68 29 87 30 52 31 53 32 67 34
REMARK SMILES IDX 88 35 55 36 39 37 40 38 48 39 41 40 47 41 49 42 46 43 42 44
REMARK SMILES IDX 43 45 44 46 45 47 71 48 72 49 80 50 73 51 79 52 81 53 78 54
REMARK SMILES IDX 74 55 75 56 76 57 77 58 56 59 57 60 65 61 58 62 64 63 66 64
REMARK SMILES IDX 63 65 59 66 60 67 61 68 62 69 5 70 6 71 7 72 8 73 9 74 10 75
REMARK SMILES IDX 13 76 11 77 12 78 14 79 15 80 16 81 17 82 18 83 26 84 19 85
REMARK SMILES IDX 21 86 25 87 20 88 22 89 24 90 29 91 23 92 27 93 28 95
REMARK H PARENT 86 22 54 33 29 94
REMARK Flexibility Score: inf
ROOT
ATOM      1  C   UNL A   1      37.907  20.976  25.237  1.00  0.00     0.275 C 
ENDROOT
BRANCH   1   2
ATOM      2  O   UNL A   1      38.671  22.169  25.513  1.00  0.00    -0.458 OA
BRANCH   2   3
ATOM      3  C   UNL A   1      39.582  22.400  26.495  1.00  0.00     0.338 C 
ATOM      4  O   UNL A   1      40.126  21.467  27.074  1.00  0.00    -0.246 OA
BRANCH   3   5
ATOM      5  C   UNL A   1      39.777  23.785  26.976  1.00  0.00     0.060 A 
ATOM      6  C   UNL A   1      40.085  24.834  26.109  1.00  0.00     0.016 A 
ATOM      7  C   UNL A   1      39.598  24.048  28.340  1.00  0.00     0.016 A 
ATOM      8  C   UNL A   1      39.968  26.151  26.520  1.00  0.00     0.010 A 
ATOM      9  C   UNL A   1      39.591  25.370  28.790  1.00  0.00     0.010 A 
ATOM     10  C   UNL A   1      39.736  26.425  27.867  1.00  0.00    -0.014 A 
BRANCH  10  11
ATOM     11  C   UNL A   1      40.129  27.763  28.332  1.00  0.00     0.031 A 
ATOM     12  C   UNL A   1      41.597  28.026  28.197  1.00  0.00     0.074 A 
ATOM     13  C   UNL A   1      39.257  28.707  28.732  1.00  0.00     0.049 A 
ATOM     14  N   UNL A   1      42.266  29.108  28.453  1.00  0.00    -0.248 NA
ATOM     15  C   UNL A   1      42.420  26.914  27.673  1.00  0.00     0.031 C 
ATOM     16  C   UNL A   1      37.801  28.587  28.767  1.00  0.00     0.029 A 
ATOM     17  N   UNL A   1      39.484  29.978  29.191  1.00  0.00    -0.354 N 
ATOM     18  C   UNL A   1      43.575  28.802  28.114  1.00  0.00     0.074 A 
ATOM     19  C   UNL A   1      43.633  27.422  27.719  1.00  0.00     0.031 C 
ATOM     20  C   UNL A   1      37.271  29.699  29.304  1.00  0.00     0.029 A 
ATOM     21  C   UNL A   1      38.346  30.637  29.597  1.00  0.00     0.049 A 
ATOM     22  H   UNL A   1      40.381  30.385  29.227  1.00  0.00     0.167 HD
ATOM     23  C   UNL A   1      44.639  29.624  28.083  1.00  0.00     0.034 A 
ATOM     24  C   UNL A   1      38.193  31.871  30.117  1.00  0.00     0.034 A 
ATOM     25  C   UNL A   1      44.557  30.987  28.492  1.00  0.00     0.049 A 
ATOM     26  C   UNL A   1      39.415  32.749  30.186  1.00  0.00     0.074 A 
ATOM     27  C   UNL A   1      45.567  31.920  28.550  1.00  0.00     0.029 A 
ATOM     28  N   UNL A   1      43.391  31.601  28.929  1.00  0.00    -0.354 N 
ATOM     29  N   UNL A   1      40.644  32.468  29.817  1.00  0.00    -0.248 NA
ATOM     30  C   UNL A   1      39.240  34.115  30.697  1.00  0.00     0.031 C 
ATOM     31  C   UNL A   1      45.023  33.085  29.084  1.00  0.00     0.029 A 
ATOM     32  C   UNL A   1      43.659  32.903  29.283  1.00  0.00     0.049 A 
ATOM     33  H   UNL A   1      42.507  31.170  28.976  1.00  0.00     0.167 HD
ATOM     34  C   UNL A   1      41.380  33.629  30.009  1.00  0.00     0.074 A 
ATOM     35  C   UNL A   1      40.459  34.619  30.534  1.00  0.00     0.031 C 
ATOM     36  C   UNL A   1      42.693  33.862  29.765  1.00  0.00     0.034 A 
BRANCH  23  37
ATOM     37  C   UNL A   1      45.943  29.033  27.653  1.00  0.00     0.023 A 
ATOM     38  C   UNL A   1      46.139  28.728  26.299  1.00  0.00     0.031 A 
ATOM     39  C   UNL A   1      47.004  28.824  28.556  1.00  0.00     0.131 A 
ATOM     40  C   UNL A   1      47.370  28.220  25.880  1.00  0.00     0.055 A 
ATOM     41  C   UNL A   1      48.244  28.360  28.124  1.00  0.00     0.041 A 
ATOM     42  F   UNL A   1      46.870  29.145  29.853  1.00  0.00    -0.206 F 
ATOM     43  C   UNL A   1      48.430  28.051  26.779  1.00  0.00     0.022 A 
BRANCH  40  44
ATOM     44  S   UNL A   1      47.635  27.776  24.147  1.00  0.00     0.124 S 
ATOM     45  O   UNL A   1      46.800  28.753  23.450  1.00  0.00    -0.237 OA
ATOM     46  O   UNL A   1      49.074  27.968  24.006  1.00  0.00    -0.237 OA
ATOM     47  O   UNL A   1      47.168  26.396  24.064  1.00  0.00    -0.744 OA
ENDBRANCH  40  44
ENDBRANCH  23  37
BRANCH  24  48
ATOM     48  C   UNL A   1      36.834  32.346  30.507  1.00  0.00     0.023 A 
ATOM     49  C   UNL A   1      35.992  32.975  29.572  1.00  0.00     0.031 A 
ATOM     50  C   UNL A   1      36.394  32.265  31.839  1.00  0.00     0.131 A 
ATOM     51  C   UNL A   1      34.774  33.532  29.989  1.00  0.00     0.055 A 
ATOM     52  C   UNL A   1      35.159  32.780  32.241  1.00  0.00     0.041 A 
ATOM     53  F   UNL A   1      37.169  31.692  32.771  1.00  0.00    -0.206 F 
ATOM     54  C   UNL A   1      34.345  33.425  31.315  1.00  0.00     0.022 A 
BRANCH  51  55
ATOM     55  S   UNL A   1      33.733  34.471  28.836  1.00  0.00     0.124 S 
ATOM     56  O   UNL A   1      34.672  35.448  28.293  1.00  0.00    -0.237 OA
ATOM     57  O   UNL A   1      33.307  33.424  27.909  1.00  0.00    -0.237 OA
ATOM     58  O   UNL A   1      32.682  35.014  29.688  1.00  0.00    -0.744 OA
ENDBRANCH  51  55
ENDBRANCH  24  48
BRANCH  36  59
ATOM     59  C   UNL A   1      43.249  35.235  30.015  1.00  0.00     0.023 A 
ATOM     60  C   UNL A   1      43.367  36.118  28.926  1.00  0.00     0.031 A 
ATOM     61  C   UNL A   1      43.918  35.532  31.211  1.00  0.00     0.131 A 
ATOM     62  C   UNL A   1      44.229  37.212  29.023  1.00  0.00     0.055 A 
ATOM     63  C   UNL A   1      44.730  36.659  31.319  1.00  0.00     0.041 A 
ATOM     64  F   UNL A   1      43.838  34.701  32.261  1.00  0.00    -0.206 F 
ATOM     65  C   UNL A   1      44.909  37.489  30.213  1.00  0.00     0.022 A 
BRANCH  62  66
ATOM     66  S   UNL A   1      44.609  38.216  27.561  1.00  0.00     0.124 S 
ATOM     67  O   UNL A   1      43.298  38.333  26.927  1.00  0.00    -0.237 OA
ATOM     68  O   UNL A   1      45.126  39.442  28.162  1.00  0.00    -0.237 OA
ATOM     69  O   UNL A   1      45.583  37.416  26.826  1.00  0.00    -0.744 OA
ENDBRANCH  62  66
ENDBRANCH  36  59
ENDBRANCH  10  11
ENDBRANCH   3   5
ENDBRANCH   2   3
ENDBRANCH   1   2
BRANCH   1  70
ATOM     70  C   UNL A   1      36.360  21.037  25.298  1.00  0.00     0.274 C 
BRANCH  70  71
ATOM     71  O   UNL A   1      35.788  22.297  25.710  1.00  0.00    -0.461 OA
BRANCH  71  72
ATOM     72  C   UNL A   1      34.432  22.317  25.919  1.00  0.00     0.324 C 
ATOM     73  O   UNL A   1      33.912  21.976  26.978  1.00  0.00    -0.250 OA
BRANCH  72  74
ATOM     74  C   UNL A   1      33.616  22.783  24.726  1.00  0.00     0.183 C 
ATOM     75  C   UNL A   1      34.430  23.301  23.570  1.00  0.00     0.034 C 
ATOM     76  N   UNL A   1      32.482  23.769  24.773  1.00  0.00    -0.184 NA
ATOM     77  C   UNL A   1      33.417  23.646  22.508  1.00  0.00     0.019 C 
ATOM     78  C   UNL A   1      32.157  23.994  23.298  1.00  0.00     0.103 C 
BRANCH  76  79
ATOM     79  S   UNL A   1      32.665  25.273  25.595  1.00  0.00     0.244 S 
ATOM     80  O   UNL A   1      31.697  25.315  26.672  1.00  0.00    -0.207 OA
ATOM     81  O   UNL A   1      34.072  25.411  25.907  1.00  0.00    -0.207 OA
BRANCH  79  82
ATOM     82  C   UNL A   1      32.217  26.539  24.433  1.00  0.00     0.090 A 
ATOM     83  C   UNL A   1      33.283  27.140  23.728  1.00  0.00     0.024 A 
ATOM     84  C   UNL A   1      30.880  26.883  24.102  1.00  0.00     0.005 A 
ATOM     85  C   UNL A   1      33.114  28.254  22.893  1.00  0.00     0.028 A 
ATOM     86  C   UNL A   1      30.767  27.964  23.271  1.00  0.00     0.019 A 
ATOM     87  C   UNL A   1      29.639  26.281  24.428  1.00  0.00     0.010 A 
ATOM     88  C   UNL A   1      31.817  28.665  22.727  1.00  0.00     0.050 A 
ATOM     89  C   UNL A   1      29.598  28.509  22.768  1.00  0.00     0.050 A 
ATOM     90  C   UNL A   1      28.430  26.764  23.883  1.00  0.00     0.002 A 
ATOM     91  N   UNL A   1      31.300  29.695  21.971  1.00  0.00    -0.321 N 
ATOM     92  C   UNL A   1      28.383  27.894  23.050  1.00  0.00     0.014 A 
ATOM     93  C   UNL A   1      29.900  29.665  21.940  1.00  0.00     0.256 C 
ATOM     94  H   UNL A   1      31.849  30.371  21.510  1.00  0.00     0.170 HD
ATOM     95  O   UNL A   1      29.205  30.451  21.325  1.00  0.00    -0.269 OA
ENDBRANCH  79  82
ENDBRANCH  76  79
ENDBRANCH  72  74
ENDBRANCH  71  72
ENDBRANCH  70  71
ENDBRANCH   1  70
TORSDOF 16
ENDMDL
MODEL 3
REMARK VINA RESULT:     -13.0      4.767     10.246
REMARK SMILES O=C(OCCOC(=O)[C@@H]1CCCN1S(=O)(=O)c1ccc2c3c(cccc13)C(=O)N2)c1ccc(-c2c3nc(c(-c4cc(S(=O)(=O)[O-])ccc4F)c4ccc([nH]4)c(-c4cc(S(=O)(=O)[O-])ccc4F)c4nc(c(-c5cc(S(=O)(=O)[O-])ccc5F)c5ccc2[nH]5)C=C4)C=C3)cc1
REMARK SMILES IDX 4 1 3 2 2 3 1 4 30 5 31 6 92 7 32 8 91 9 33 10 34 11 35 12
REMARK SMILES IDX 85 13 36 14 90 15 84 16 86 17 37 18 89 19 83 20 82 21 38 23
REMARK SMILES IDX 70 24 50 25 69 26 51 27 54 28 68 29 87 30 52 31 53 32 67 34
REMARK SMILES IDX 88 35 55 36 39 37 40 38 48 39 41 40 47 41 49 42 46 43 42 44
REMARK SMILES IDX 43 45 44 46 45 47 71 48 72 49 80 50 73 51 79 52 81 53 78 54
REMARK SMILES IDX 74 55 75 56 76 57 77 58 56 59 57 60 65 61 58 62 64 63 66 64
REMARK SMILES IDX 63 65 59 66 60 67 61 68 62 69 5 70 6 71 7 72 8 73 9 74 10 75
REMARK SMILES IDX 13 76 11 77 12 78 14 79 15 80 16 81 17 82 18 83 26 84 19 85
REMARK SMILES IDX 21 86 25 87 20 88 22 89 24 90 29 91 23 92 27 93 28 95
REMARK H PARENT 86 22 54 33 29 94
REMARK Flexibility Score: inf
ROOT
ATOM      1  C   UNL A   1      37.652  20.092  24.976  1.00  0.00     0.275 C 
ENDROOT
BRANCH   1   2
ATOM      2  O   UNL A   1      38.605  21.146  25.226  1.00  0.00    -0.458 OA
BRANCH   2   3
ATOM      3  C   UNL A   1      39.659  21.168  26.084  1.00  0.00     0.338 C 
ATOM      4  O   UNL A   1      40.152  20.123  26.494  1.00  0.00    -0.246 OA
BRANCH   3   5
ATOM      5  C   UNL A   1      40.090  22.464  26.652  1.00  0.00     0.060 A 
ATOM      6  C   UNL A   1      39.502  23.672  26.273  1.00  0.00     0.016 A 
ATOM      7  C   UNL A   1      41.087  22.461  27.636  1.00  0.00     0.016 A 
ATOM      8  C   UNL A   1      39.701  24.821  27.019  1.00  0.00     0.010 A 
ATOM      9  C   UNL A   1      41.381  23.642  28.321  1.00  0.00     0.010 A 
ATOM     10  C   UNL A   1      40.653  24.815  28.038  1.00  0.00    -0.014 A 
BRANCH  10  11
ATOM     11  C   UNL A   1      41.187  26.127  28.431  1.00  0.00     0.031 A 
ATOM     12  C   UNL A   1      42.591  26.357  27.963  1.00  0.00     0.074 A 
ATOM     13  C   UNL A   1      40.464  27.080  29.048  1.00  0.00     0.049 A 
ATOM     14  N   UNL A   1      43.336  27.413  28.082  1.00  0.00    -0.248 NA
ATOM     15  C   UNL A   1      43.232  25.241  27.232  1.00  0.00     0.031 C 
ATOM     16  C   UNL A   1      39.054  26.997  29.420  1.00  0.00     0.029 A 
ATOM     17  N   UNL A   1      40.833  28.329  29.473  1.00  0.00    -0.354 N 
ATOM     18  C   UNL A   1      44.519  27.084  27.437  1.00  0.00     0.074 A 
ATOM     19  C   UNL A   1      44.438  25.717  27.006  1.00  0.00     0.031 C 
ATOM     20  C   UNL A   1      38.699  28.103  30.095  1.00  0.00     0.029 A 
ATOM     21  C   UNL A   1      39.843  29.004  30.151  1.00  0.00     0.049 A 
ATOM     22  H   UNL A   1      41.726  28.712  29.308  1.00  0.00     0.167 HD
ATOM     23  C   UNL A   1      45.572  27.880  27.179  1.00  0.00     0.034 A 
ATOM     24  C   UNL A   1      39.856  30.224  30.723  1.00  0.00     0.034 A 
ATOM     25  C   UNL A   1      45.633  29.231  27.630  1.00  0.00     0.049 A 
ATOM     26  C   UNL A   1      41.088  31.068  30.526  1.00  0.00     0.074 A 
ATOM     27  C   UNL A   1      46.658  30.135  27.472  1.00  0.00     0.029 A 
ATOM     28  N   UNL A   1      44.621  29.859  28.343  1.00  0.00    -0.354 N 
ATOM     29  N   UNL A   1      42.187  30.767  29.872  1.00  0.00    -0.248 NA
ATOM     30  C   UNL A   1      41.082  32.420  31.098  1.00  0.00     0.031 C 
ATOM     31  C   UNL A   1      46.291  31.296  28.149  1.00  0.00     0.029 A 
ATOM     32  C   UNL A   1      45.006  31.142  28.657  1.00  0.00     0.049 A 
ATOM     33  H   UNL A   1      43.759  29.450  28.586  1.00  0.00     0.167 HD
ATOM     34  C   UNL A   1      42.985  31.903  29.916  1.00  0.00     0.074 A 
ATOM     35  C   UNL A   1      42.244  32.898  30.666  1.00  0.00     0.031 C 
ATOM     36  C   UNL A   1      44.211  32.110  29.377  1.00  0.00     0.034 A 
BRANCH  23  37
ATOM     37  C   UNL A   1      46.720  27.269  26.440  1.00  0.00     0.023 A 
ATOM     38  C   UNL A   1      47.765  26.686  27.169  1.00  0.00     0.031 A 
ATOM     39  C   UNL A   1      46.759  27.212  25.034  1.00  0.00     0.131 A 
ATOM     40  C   UNL A   1      48.818  26.071  26.489  1.00  0.00     0.055 A 
ATOM     41  C   UNL A   1      47.789  26.557  24.362  1.00  0.00     0.041 A 
ATOM     42  F   UNL A   1      45.755  27.721  24.301  1.00  0.00    -0.206 F 
ATOM     43  C   UNL A   1      48.828  25.987  25.091  1.00  0.00     0.022 A 
BRANCH  40  44
ATOM     44  S   UNL A   1      50.202  25.350  27.403  1.00  0.00     0.124 S 
ATOM     45  O   UNL A   1      50.532  26.416  28.347  1.00  0.00    -0.237 OA
ATOM     46  O   UNL A   1      49.587  24.163  27.988  1.00  0.00    -0.237 OA
ATOM     47  O   UNL A   1      51.208  25.102  26.376  1.00  0.00    -0.744 OA
ENDBRANCH  40  44
ENDBRANCH  23  37
BRANCH  24  48
ATOM     48  C   UNL A   1      38.642  30.721  31.433  1.00  0.00     0.023 A 
ATOM     49  C   UNL A   1      37.594  31.340  30.726  1.00  0.00     0.031 A 
ATOM     50  C   UNL A   1      38.551  30.671  32.834  1.00  0.00     0.131 A 
ATOM     51  C   UNL A   1      36.523  31.917  31.425  1.00  0.00     0.055 A 
ATOM     52  C   UNL A   1      37.460  31.207  33.523  1.00  0.00     0.041 A 
ATOM     53  F   UNL A   1      39.534  30.108  33.553  1.00  0.00    -0.206 F 
ATOM     54  C   UNL A   1      36.442  31.842  32.819  1.00  0.00     0.022 A 
BRANCH  51  55
ATOM     55  S   UNL A   1      35.230  32.844  30.551  1.00  0.00     0.124 S 
ATOM     56  O   UNL A   1      34.260  33.100  31.611  1.00  0.00    -0.237 OA
ATOM     57  O   UNL A   1      35.974  34.011  30.081  1.00  0.00    -0.237 OA
ATOM     58  O   UNL A   1      34.793  31.921  29.509  1.00  0.00    -0.744 OA
ENDBRANCH  51  55
ENDBRANCH  24  48
BRANCH  36  59
ATOM     59  C   UNL A   1      44.854  33.459  29.524  1.00  0.00     0.023 A 
ATOM     60  C   UNL A   1      44.804  34.348  28.434  1.00  0.00     0.031 A 
ATOM     61  C   UNL A   1      45.742  33.720  30.577  1.00  0.00     0.131 A 
ATOM     62  C   UNL A   1      45.709  35.408  28.373  1.00  0.00     0.055 A 
ATOM     63  C   UNL A   1      46.601  34.817  30.538  1.00  0.00     0.041 A 
ATOM     64  F   UNL A   1      45.824  32.883  31.623  1.00  0.00    -0.206 F 
ATOM     65  C   UNL A   1      46.605  35.650  29.419  1.00  0.00     0.022 A 
BRANCH  62  66
ATOM     66  S   UNL A   1      45.851  36.412  26.870  1.00  0.00     0.124 S 
ATOM     67  O   UNL A   1      45.815  35.394  25.823  1.00  0.00    -0.237 OA
ATOM     68  O   UNL A   1      44.668  37.262  26.959  1.00  0.00    -0.237 OA
ATOM     69  O   UNL A   1      47.131  37.097  27.023  1.00  0.00    -0.744 OA
ENDBRANCH  62  66
ENDBRANCH  36  59
ENDBRANCH  10  11
ENDBRANCH   3   5
ENDBRANCH   2   3
ENDBRANCH   1   2
BRANCH   1  70
ATOM     70  C   UNL A   1      36.137  20.408  25.052  1.00  0.00     0.274 C 
BRANCH  70  71
ATOM     71  O   UNL A   1      35.785  21.757  25.428  1.00  0.00    -0.461 OA
BRANCH  71  72
ATOM     72  C   UNL A   1      34.456  22.003  25.662  1.00  0.00     0.324 C 
ATOM     73  O   UNL A   1      33.913  21.784  26.741  1.00  0.00    -0.250 OA
BRANCH  72  74
ATOM     74  C   UNL A   1      33.698  22.560  24.469  1.00  0.00     0.183 C 
ATOM     75  C   UNL A   1      34.566  22.984  23.314  1.00  0.00     0.034 C 
ATOM     76  N   UNL A   1      32.683  23.667  24.517  1.00  0.00    -0.184 NA
ATOM     77  C   UNL A   1      33.599  23.442  22.251  1.00  0.00     0.019 C 
ATOM     78  C   UNL A   1      32.386  23.929  23.041  1.00  0.00     0.103 C 
BRANCH  76  79
ATOM     79  S   UNL A   1      33.033  25.140  25.340  1.00  0.00     0.244 S 
ATOM     80  O   UNL A   1      32.205  25.198  26.527  1.00  0.00    -0.207 OA
ATOM     81  O   UNL A   1      34.472  25.207  25.483  1.00  0.00    -0.207 OA
BRANCH  79  82
ATOM     82  C   UNL A   1      32.509  26.453  24.266  1.00  0.00     0.090 A 
ATOM     83  C   UNL A   1      33.528  27.096  23.528  1.00  0.00     0.024 A 
ATOM     84  C   UNL A   1      31.153  26.800  24.031  1.00  0.00     0.005 A 
ATOM     85  C   UNL A   1      33.303  28.245  22.757  1.00  0.00     0.028 A 
ATOM     86  C   UNL A   1      30.984  27.917  23.258  1.00  0.00     0.019 A 
ATOM     87  C   UNL A   1      29.937  26.173  24.400  1.00  0.00     0.010 A 
ATOM     88  C   UNL A   1      31.996  28.652  22.686  1.00  0.00     0.050 A 
ATOM     89  C   UNL A   1      29.784  28.474  22.851  1.00  0.00     0.050 A 
ATOM     90  C   UNL A   1      28.695  26.669  23.951  1.00  0.00     0.002 A 
ATOM     91  N   UNL A   1      31.428  29.711  22.011  1.00  0.00    -0.321 N 
ATOM     92  C   UNL A   1      28.592  27.836  23.175  1.00  0.00     0.014 A 
ATOM     93  C   UNL A   1      30.029  29.669  22.061  1.00  0.00     0.256 C 
ATOM     94  H   UNL A   1      31.944  30.412  21.550  1.00  0.00     0.170 HD
ATOM     95  O   UNL A   1      29.293  30.477  21.525  1.00  0.00    -0.269 OA
ENDBRANCH  79  82
ENDBRANCH  76  79
ENDBRANCH  72  74
ENDBRANCH  71  72
ENDBRANCH  70  71
ENDBRANCH   1  70
TORSDOF 16
ENDMDL
