MODEL 1
REMARK VINA RESULT:     -11.5      0.000      0.000
REMARK SMILES O=C(OCCOC(=O)c1cc2cnc(Cl)cc2[nH]1)c1ccc(-c2c3nc(c(-c4cc(S(=O)(=O)[O-])ccc4F)c4ccc([nH]4)c(-c4cc(S(=O)(=O)[O-])ccc4F)c4nc(c(-c5cc(S(=O)(=O)[O-])ccc5F)c5ccc2[nH]5)C=C4)C=C3)cc1
REMARK SMILES IDX 3 1 2 2 1 3 19 4 20 5 81 6 21 7 80 8 22 9 23 10 24 11 74 12
REMARK SMILES IDX 25 13 79 14 73 15 75 16 26 17 78 18 72 19 71 20 27 22 59 23
REMARK SMILES IDX 39 24 58 25 40 26 43 27 57 28 76 29 41 30 42 31 56 33 77 34
REMARK SMILES IDX 44 35 28 36 29 37 37 38 30 39 36 40 38 41 35 42 31 43 32 44
REMARK SMILES IDX 33 45 34 46 60 47 61 48 69 49 62 50 68 51 70 52 67 53 63 54
REMARK SMILES IDX 64 55 65 56 66 57 45 58 46 59 54 60 47 61 53 62 55 63 52 64
REMARK SMILES IDX 48 65 49 66 50 67 51 68 4 69 5 70 6 71 7 72 8 73 9 74 10 75
REMARK SMILES IDX 18 76 11 77 17 78 12 80 16 81 13 82 14 83 15 84
REMARK H PARENT 75 21 43 32 18 79
REMARK Flexibility Score: inf
ROOT
ATOM      1  O   UNL A   1      34.964  33.074  28.867  1.00  0.00    -0.458 OA
ENDROOT
BRANCH   1   2
ATOM      2  C   UNL A   1      35.349  31.849  28.409  1.00  0.00     0.338 C 
ATOM      3  O   UNL A   1      34.786  31.282  27.482  1.00  0.00    -0.246 OA
BRANCH   2   4
ATOM      4  C   UNL A   1      36.393  31.171  29.190  1.00  0.00     0.060 A 
ATOM      5  C   UNL A   1      37.591  31.855  29.332  1.00  0.00     0.016 A 
ATOM      6  C   UNL A   1      36.287  29.813  29.502  1.00  0.00     0.016 A 
ATOM      7  C   UNL A   1      38.741  31.107  29.457  1.00  0.00     0.010 A 
ATOM      8  C   UNL A   1      37.449  29.066  29.649  1.00  0.00     0.010 A 
ATOM      9  C   UNL A   1      38.681  29.701  29.505  1.00  0.00    -0.014 A 
BRANCH   9  10
ATOM     10  C   UNL A   1      39.970  29.000  29.547  1.00  0.00     0.031 A 
ATOM     11  C   UNL A   1      40.446  28.796  30.940  1.00  0.00     0.074 A 
ATOM     12  C   UNL A   1      40.658  28.534  28.484  1.00  0.00     0.049 A 
ATOM     13  N   UNL A   1      41.526  29.236  31.501  1.00  0.00    -0.248 NA
ATOM     14  C   UNL A   1      39.453  28.231  31.874  1.00  0.00     0.031 C 
ATOM     15  C   UNL A   1      40.194  28.462  27.095  1.00  0.00     0.029 A 
ATOM     16  N   UNL A   1      41.880  27.911  28.437  1.00  0.00    -0.354 N 
ATOM     17  C   UNL A   1      41.426  28.812  32.823  1.00  0.00     0.074 A 
ATOM     18  C   UNL A   1      40.050  28.451  33.040  1.00  0.00     0.031 C 
ATOM     19  C   UNL A   1      40.995  27.623  26.405  1.00  0.00     0.029 A 
ATOM     20  C   UNL A   1      42.081  27.185  27.268  1.00  0.00     0.049 A 
ATOM     21  H   UNL A   1      42.548  27.973  29.156  1.00  0.00     0.167 HD
ATOM     22  C   UNL A   1      42.513  28.472  33.566  1.00  0.00     0.034 A 
ATOM     23  C   UNL A   1      42.986  26.199  27.056  1.00  0.00     0.034 A 
ATOM     24  C   UNL A   1      43.727  29.020  33.042  1.00  0.00     0.049 A 
ATOM     25  C   UNL A   1      44.048  26.264  28.081  1.00  0.00     0.074 A 
ATOM     26  C   UNL A   1      44.316  30.262  33.014  1.00  0.00     0.029 A 
ATOM     27  N   UNL A   1      44.387  28.227  32.142  1.00  0.00    -0.354 N 
ATOM     28  N   UNL A   1      44.982  27.169  28.122  1.00  0.00    -0.248 NA
ATOM     29  C   UNL A   1      43.922  25.443  29.281  1.00  0.00     0.031 C 
ATOM     30  C   UNL A   1      45.217  30.246  31.915  1.00  0.00     0.029 A 
ATOM     31  C   UNL A   1      45.158  28.992  31.306  1.00  0.00     0.049 A 
ATOM     32  H   UNL A   1      44.316  27.246  32.100  1.00  0.00     0.167 HD
ATOM     33  C   UNL A   1      45.241  27.325  29.469  1.00  0.00     0.074 A 
ATOM     34  C   UNL A   1      44.721  26.125  30.105  1.00  0.00     0.031 C 
ATOM     35  C   UNL A   1      45.551  28.547  29.982  1.00  0.00     0.034 A 
BRANCH  22  36
ATOM     36  C   UNL A   1      42.490  27.290  34.508  1.00  0.00     0.023 A 
ATOM     37  C   UNL A   1      43.221  26.114  34.246  1.00  0.00     0.031 A 
ATOM     38  C   UNL A   1      41.925  27.381  35.790  1.00  0.00     0.131 A 
ATOM     39  C   UNL A   1      43.304  25.062  35.160  1.00  0.00     0.055 A 
ATOM     40  C   UNL A   1      42.080  26.364  36.746  1.00  0.00     0.041 A 
ATOM     41  F   UNL A   1      41.252  28.478  36.170  1.00  0.00    -0.206 F 
ATOM     42  C   UNL A   1      42.759  25.189  36.428  1.00  0.00     0.022 A 
BRANCH  39  43
ATOM     43  S   UNL A   1      44.121  23.517  34.673  1.00  0.00     0.124 S 
ATOM     44  O   UNL A   1      43.047  22.815  33.982  1.00  0.00    -0.237 OA
ATOM     45  O   UNL A   1      45.209  24.010  33.833  1.00  0.00    -0.237 OA
ATOM     46  O   UNL A   1      44.543  22.938  35.947  1.00  0.00    -0.744 OA
ENDBRANCH  39  43
ENDBRANCH  22  36
BRANCH  23  47
ATOM     47  C   UNL A   1      42.794  24.975  26.245  1.00  0.00     0.023 A 
ATOM     48  C   UNL A   1      41.843  24.019  26.646  1.00  0.00     0.031 A 
ATOM     49  C   UNL A   1      43.730  24.584  25.271  1.00  0.00     0.131 A 
ATOM     50  C   UNL A   1      41.877  22.718  26.131  1.00  0.00     0.055 A 
ATOM     51  C   UNL A   1      43.757  23.285  24.750  1.00  0.00     0.041 A 
ATOM     52  F   UNL A   1      44.684  25.435  24.862  1.00  0.00    -0.206 F 
ATOM     53  C   UNL A   1      42.836  22.340  25.191  1.00  0.00     0.022 A 
BRANCH  50  54
ATOM     54  S   UNL A   1      40.713  21.474  26.748  1.00  0.00     0.124 S 
ATOM     55  O   UNL A   1      39.465  21.866  26.098  1.00  0.00    -0.237 OA
ATOM     56  O   UNL A   1      41.316  20.238  26.262  1.00  0.00    -0.237 OA
ATOM     57  O   UNL A   1      40.741  21.671  28.195  1.00  0.00    -0.744 OA
ENDBRANCH  50  54
ENDBRANCH  23  47
BRANCH  35  58
ATOM     58  C   UNL A   1      46.148  29.576  29.060  1.00  0.00     0.023 A 
ATOM     59  C   UNL A   1      45.247  30.443  28.416  1.00  0.00     0.031 A 
ATOM     60  C   UNL A   1      47.500  29.632  28.680  1.00  0.00     0.131 A 
ATOM     61  C   UNL A   1      45.690  31.293  27.399  1.00  0.00     0.055 A 
ATOM     62  C   UNL A   1      47.952  30.543  27.721  1.00  0.00     0.041 A 
ATOM     63  F   UNL A   1      48.401  28.763  29.164  1.00  0.00    -0.206 F 
ATOM     64  C   UNL A   1      47.042  31.367  27.063  1.00  0.00     0.022 A 
BRANCH  61  65
ATOM     65  S   UNL A   1      44.490  32.192  26.383  1.00  0.00     0.124 S 
ATOM     66  O   UNL A   1      43.521  31.150  26.054  1.00  0.00    -0.237 OA
ATOM     67  O   UNL A   1      44.016  33.223  27.305  1.00  0.00    -0.237 OA
ATOM     68  O   UNL A   1      45.281  32.689  25.261  1.00  0.00    -0.744 OA
ENDBRANCH  61  65
ENDBRANCH  35  58
ENDBRANCH   9  10
ENDBRANCH   2   4
ENDBRANCH   1   2
BRANCH   1  69
ATOM     69  C   UNL A   1      34.286  34.116  28.103  1.00  0.00     0.275 C 
BRANCH  69  70
ATOM     70  C   UNL A   1      33.339  35.043  28.886  1.00  0.00     0.275 C 
BRANCH  70  71
ATOM     71  O   UNL A   1      33.148  34.572  30.219  1.00  0.00    -0.457 OA
BRANCH  71  72
ATOM     72  C   UNL A   1      33.662  35.343  31.212  1.00  0.00     0.354 C 
ATOM     73  O   UNL A   1      33.398  36.519  31.413  1.00  0.00    -0.244 OA
BRANCH  72  74
ATOM     74  C   UNL A   1      34.654  34.556  31.893  1.00  0.00     0.126 A 
ATOM     75  C   UNL A   1      34.594  33.223  32.262  1.00  0.00     0.045 A 
ATOM     76  N   UNL A   1      35.934  34.993  32.166  1.00  0.00    -0.349 N 
ATOM     77  C   UNL A   1      35.910  32.795  32.573  1.00  0.00     0.019 A 
ATOM     78  C   UNL A   1      36.741  33.907  32.441  1.00  0.00     0.051 A 
ATOM     79  H   UNL A   1      36.225  35.934  32.167  1.00  0.00     0.167 HD
ATOM     80  C   UNL A   1      36.480  31.554  32.877  1.00  0.00     0.123 A 
ATOM     81  C   UNL A   1      38.129  33.802  32.549  1.00  0.00     0.067 A 
ATOM     82  N   UNL A   1      37.822  31.423  33.000  1.00  0.00    -0.244 NA
ATOM     83  C   UNL A   1      38.590  32.520  32.818  1.00  0.00     0.131 A 
ATOM     84  Cl  UNL A   1      40.276  32.207  32.930  1.00  0.00    -0.062 Cl
ENDBRANCH  72  74
ENDBRANCH  71  72
ENDBRANCH  70  71
ENDBRANCH  69  70
ENDBRANCH   1  69
TORSDOF 14
ENDMDL
MODEL 2
REMARK VINA RESULT:     -11.2      3.006     10.984
REMARK SMILES O=C(OCCOC(=O)c1cc2cnc(Cl)cc2[nH]1)c1ccc(-c2c3nc(c(-c4cc(S(=O)(=O)[O-])ccc4F)c4ccc([nH]4)c(-c4cc(S(=O)(=O)[O-])ccc4F)c4nc(c(-c5cc(S(=O)(=O)[O-])ccc5F)c5ccc2[nH]5)C=C4)C=C3)cc1
REMARK SMILES IDX 3 1 2 2 1 3 19 4 20 5 81 6 21 7 80 8 22 9 23 10 24 11 74 12
REMARK SMILES IDX 25 13 79 14 73 15 75 16 26 17 78 18 72 19 71 20 27 22 59 23
REMARK SMILES IDX 39 24 58 25 40 26 43 27 57 28 76 29 41 30 42 31 56 33 77 34
REMARK SMILES IDX 44 35 28 36 29 37 37 38 30 39 36 40 38 41 35 42 31 43 32 44
REMARK SMILES IDX 33 45 34 46 60 47 61 48 69 49 62 50 68 51 70 52 67 53 63 54
REMARK SMILES IDX 64 55 65 56 66 57 45 58 46 59 54 60 47 61 53 62 55 63 52 64
REMARK SMILES IDX 48 65 49 66 50 67 51 68 4 69 5 70 6 71 7 72 8 73 9 74 10 75
REMARK SMILES IDX 18 76 11 77 17 78 12 80 16 81 13 82 14 83 15 84
REMARK H PARENT 75 21 43 32 18 79
REMARK Flexibility Score: inf
ROOT
ATOM      1  O   UNL A   1      41.458  21.860  27.245  1.00  0.00    -0.458 OA
ENDROOT
BRANCH   1   2
ATOM      2  C   UNL A   1      40.527  22.813  26.952  1.00  0.00     0.338 C 
ATOM      3  O   UNL A   1      39.425  22.542  26.493  1.00  0.00    -0.246 OA
BRANCH   2   4
ATOM      4  C   UNL A   1      40.974  24.206  27.078  1.00  0.00     0.060 A 
ATOM      5  C   UNL A   1      41.858  24.473  28.113  1.00  0.00     0.016 A 
ATOM      6  C   UNL A   1      40.318  25.235  26.397  1.00  0.00     0.016 A 
ATOM      7  C   UNL A   1      41.819  25.730  28.677  1.00  0.00     0.010 A 
ATOM      8  C   UNL A   1      40.299  26.505  26.957  1.00  0.00     0.010 A 
ATOM      9  C   UNL A   1      40.956  26.718  28.168  1.00  0.00    -0.014 A 
BRANCH   9  10
ATOM     10  C   UNL A   1      40.927  27.991  28.899  1.00  0.00     0.031 A 
ATOM     11  C   UNL A   1      41.997  28.917  28.443  1.00  0.00     0.074 A 
ATOM     12  C   UNL A   1      40.033  28.346  29.845  1.00  0.00     0.049 A 
ATOM     13  N   UNL A   1      42.979  29.419  29.122  1.00  0.00    -0.248 NA
ATOM     14  C   UNL A   1      42.103  29.095  26.982  1.00  0.00     0.031 C 
ATOM     15  C   UNL A   1      38.808  27.631  30.213  1.00  0.00     0.029 A 
ATOM     16  N   UNL A   1      39.964  29.490  30.599  1.00  0.00    -0.354 N 
ATOM     17  C   UNL A   1      43.706  30.149  28.186  1.00  0.00     0.074 A 
ATOM     18  C   UNL A   1      43.282  29.698  26.887  1.00  0.00     0.031 C 
ATOM     19  C   UNL A   1      38.007  28.459  30.917  1.00  0.00     0.029 A 
ATOM     20  C   UNL A   1      38.703  29.718  31.137  1.00  0.00     0.049 A 
ATOM     21  H   UNL A   1      40.731  30.089  30.745  1.00  0.00     0.167 HD
ATOM     22  C   UNL A   1      44.368  31.293  28.506  1.00  0.00     0.034 A 
ATOM     23  C   UNL A   1      38.208  30.886  31.614  1.00  0.00     0.034 A 
ATOM     24  C   UNL A   1      44.625  31.402  29.910  1.00  0.00     0.049 A 
ATOM     25  C   UNL A   1      39.317  31.820  31.899  1.00  0.00     0.074 A 
ATOM     26  C   UNL A   1      45.496  30.821  30.800  1.00  0.00     0.029 A 
ATOM     27  N   UNL A   1      43.654  32.039  30.634  1.00  0.00    -0.354 N 
ATOM     28  N   UNL A   1      40.137  31.710  32.904  1.00  0.00    -0.248 NA
ATOM     29  C   UNL A   1      39.712  32.782  30.875  1.00  0.00     0.031 C 
ATOM     30  C   UNL A   1      44.897  30.956  32.083  1.00  0.00     0.029 A 
ATOM     31  C   UNL A   1      43.680  31.622  31.939  1.00  0.00     0.049 A 
ATOM     32  H   UNL A   1      43.025  32.703  30.269  1.00  0.00     0.167 HD
ATOM     33  C   UNL A   1      41.324  32.231  32.429  1.00  0.00     0.074 A 
ATOM     34  C   UNL A   1      40.958  33.040  31.277  1.00  0.00     0.031 C 
ATOM     35  C   UNL A   1      42.519  31.698  32.806  1.00  0.00     0.034 A 
BRANCH  22  36
ATOM     36  C   UNL A   1      44.383  32.485  27.577  1.00  0.00     0.023 A 
ATOM     37  C   UNL A   1      43.694  33.676  27.884  1.00  0.00     0.031 A 
ATOM     38  C   UNL A   1      45.254  32.553  26.479  1.00  0.00     0.131 A 
ATOM     39  C   UNL A   1      43.792  34.824  27.096  1.00  0.00     0.055 A 
ATOM     40  C   UNL A   1      45.425  33.732  25.736  1.00  0.00     0.041 A 
ATOM     41  F   UNL A   1      46.002  31.496  26.127  1.00  0.00    -0.206 F 
ATOM     42  C   UNL A   1      44.680  34.872  26.032  1.00  0.00     0.022 A 
BRANCH  39  43
ATOM     43  S   UNL A   1      42.740  36.255  27.466  1.00  0.00     0.124 S 
ATOM     44  O   UNL A   1      43.220  37.237  26.502  1.00  0.00    -0.237 OA
ATOM     45  O   UNL A   1      41.407  35.714  27.218  1.00  0.00    -0.237 OA
ATOM     46  O   UNL A   1      43.035  36.543  28.868  1.00  0.00    -0.744 OA
ENDBRANCH  39  43
ENDBRANCH  22  36
BRANCH  23  47
ATOM     47  C   UNL A   1      36.818  31.380  31.488  1.00  0.00     0.023 A 
ATOM     48  C   UNL A   1      36.264  31.574  30.210  1.00  0.00     0.031 A 
ATOM     49  C   UNL A   1      36.141  31.954  32.578  1.00  0.00     0.131 A 
ATOM     50  C   UNL A   1      35.117  32.358  30.040  1.00  0.00     0.055 A 
ATOM     51  C   UNL A   1      34.988  32.730  32.408  1.00  0.00     0.041 A 
ATOM     52  F   UNL A   1      36.628  31.835  33.823  1.00  0.00    -0.206 F 
ATOM     53  C   UNL A   1      34.479  32.947  31.131  1.00  0.00     0.022 A 
BRANCH  50  54
ATOM     54  S   UNL A   1      34.488  32.685  28.372  1.00  0.00     0.124 S 
ATOM     55  O   UNL A   1      33.921  31.393  27.994  1.00  0.00    -0.237 OA
ATOM     56  O   UNL A   1      33.523  33.749  28.624  1.00  0.00    -0.237 OA
ATOM     57  O   UNL A   1      35.684  33.074  27.629  1.00  0.00    -0.744 OA
ENDBRANCH  50  54
ENDBRANCH  23  47
BRANCH  35  58
ATOM     58  C   UNL A   1      42.586  30.956  34.113  1.00  0.00     0.023 A 
ATOM     59  C   UNL A   1      42.396  29.564  34.058  1.00  0.00     0.031 A 
ATOM     60  C   UNL A   1      42.668  31.559  35.381  1.00  0.00     0.131 A 
ATOM     61  C   UNL A   1      42.246  28.823  35.234  1.00  0.00     0.055 A 
ATOM     62  C   UNL A   1      42.601  30.802  36.555  1.00  0.00     0.041 A 
ATOM     63  F   UNL A   1      42.736  32.891  35.521  1.00  0.00    -0.206 F 
ATOM     64  C   UNL A   1      42.371  29.430  36.485  1.00  0.00     0.022 A 
BRANCH  61  65
ATOM     65  S   UNL A   1      41.718  27.093  35.155  1.00  0.00     0.124 S 
ATOM     66  O   UNL A   1      40.774  27.108  34.042  1.00  0.00    -0.237 OA
ATOM     67  O   UNL A   1      42.978  26.397  34.901  1.00  0.00    -0.237 OA
ATOM     68  O   UNL A   1      41.133  26.843  36.469  1.00  0.00    -0.744 OA
ENDBRANCH  61  65
ENDBRANCH  35  58
ENDBRANCH   9  10
ENDBRANCH   2   4
ENDBRANCH   1   2
BRANCH   1  69
ATOM     69  C   UNL A   1      41.212  20.436  27.453  1.00  0.00     0.275 C 
BRANCH  69  70
ATOM     70  C   UNL A   1      42.067  19.459  26.625  1.00  0.00     0.275 C 
BRANCH  70  71
ATOM     71  O   UNL A   1      42.574  20.091  25.451  1.00  0.00    -0.457 OA
BRANCH  71  72
ATOM     72  C   UNL A   1      43.926  20.151  25.334  1.00  0.00     0.354 C 
ATOM     73  O   UNL A   1      44.686  19.195  25.311  1.00  0.00    -0.244 OA
BRANCH  72  74
ATOM     74  C   UNL A   1      44.295  21.541  25.366  1.00  0.00     0.126 A 
ATOM     75  C   UNL A   1      43.781  22.588  24.620  1.00  0.00     0.045 A 
ATOM     76  N   UNL A   1      45.157  22.091  26.291  1.00  0.00    -0.349 N 
ATOM     77  C   UNL A   1      44.182  23.802  25.234  1.00  0.00     0.019 A 
ATOM     78  C   UNL A   1      44.990  23.461  26.319  1.00  0.00     0.051 A 
ATOM     79  H   UNL A   1      45.795  21.584  26.844  1.00  0.00     0.167 HD
ATOM     80  C   UNL A   1      43.870  25.149  25.015  1.00  0.00     0.123 A 
ATOM     81  C   UNL A   1      45.448  24.422  27.222  1.00  0.00     0.067 A 
ATOM     82  N   UNL A   1      44.311  26.104  25.867  1.00  0.00    -0.244 NA
ATOM     83  C   UNL A   1      45.053  25.721  26.929  1.00  0.00     0.131 A 
ATOM     84  Cl  UNL A   1      45.488  27.017  27.970  1.00  0.00    -0.062 Cl
ENDBRANCH  72  74
ENDBRANCH  71  72
ENDBRANCH  70  71
ENDBRANCH  69  70
ENDBRANCH   1  69
TORSDOF 14
ENDMDL
MODEL 3
REMARK VINA RESULT:     -10.7      3.466     11.207
REMARK SMILES O=C(OCCOC(=O)c1cc2cnc(Cl)cc2[nH]1)c1ccc(-c2c3nc(c(-c4cc(S(=O)(=O)[O-])ccc4F)c4ccc([nH]4)c(-c4cc(S(=O)(=O)[O-])ccc4F)c4nc(c(-c5cc(S(=O)(=O)[O-])ccc5F)c5ccc2[nH]5)C=C4)C=C3)cc1
REMARK SMILES IDX 3 1 2 2 1 3 19 4 20 5 81 6 21 7 80 8 22 9 23 10 24 11 74 12
REMARK SMILES IDX 25 13 79 14 73 15 75 16 26 17 78 18 72 19 71 20 27 22 59 23
REMARK SMILES IDX 39 24 58 25 40 26 43 27 57 28 76 29 41 30 42 31 56 33 77 34
REMARK SMILES IDX 44 35 28 36 29 37 37 38 30 39 36 40 38 41 35 42 31 43 32 44
REMARK SMILES IDX 33 45 34 46 60 47 61 48 69 49 62 50 68 51 70 52 67 53 63 54
REMARK SMILES IDX 64 55 65 56 66 57 45 58 46 59 54 60 47 61 53 62 55 63 52 64
REMARK SMILES IDX 48 65 49 66 50 67 51 68 4 69 5 70 6 71 7 72 8 73 9 74 10 75
REMARK SMILES IDX 18 76 11 77 17 78 12 80 16 81 13 82 14 83 15 84
REMARK H PARENT 75 21 43 32 18 79
REMARK Flexibility Score: inf
ROOT
ATOM      1  O   UNL A   1      41.111  21.572  26.710  1.00  0.00    -0.458 OA
ENDROOT
BRANCH   1   2
ATOM      2  C   UNL A   1      40.208  22.594  26.694  1.00  0.00     0.338 C 
ATOM      3  O   UNL A   1      39.030  22.431  26.405  1.00  0.00    -0.246 OA
BRANCH   2   4
ATOM      4  C   UNL A   1      40.759  23.940  26.899  1.00  0.00     0.060 A 
ATOM      5  C   UNL A   1      41.574  24.104  28.009  1.00  0.00     0.016 A 
ATOM      6  C   UNL A   1      40.251  25.038  26.199  1.00  0.00     0.016 A 
ATOM      7  C   UNL A   1      41.594  25.345  28.607  1.00  0.00     0.010 A 
ATOM      8  C   UNL A   1      40.293  26.291  26.795  1.00  0.00     0.010 A 
ATOM      9  C   UNL A   1      40.863  26.416  28.061  1.00  0.00    -0.014 A 
BRANCH   9  10
ATOM     10  C   UNL A   1      40.881  27.670  28.827  1.00  0.00     0.031 A 
ATOM     11  C   UNL A   1      41.996  28.559  28.408  1.00  0.00     0.074 A 
ATOM     12  C   UNL A   1      39.992  28.038  29.773  1.00  0.00     0.049 A 
ATOM     13  N   UNL A   1      42.991  28.999  29.111  1.00  0.00    -0.248 NA
ATOM     14  C   UNL A   1      42.127  28.772  26.954  1.00  0.00     0.031 C 
ATOM     15  C   UNL A   1      38.733  27.368  30.108  1.00  0.00     0.029 A 
ATOM     16  N   UNL A   1      39.965  29.163  30.557  1.00  0.00    -0.354 N 
ATOM     17  C   UNL A   1      43.761  29.721  28.204  1.00  0.00     0.074 A 
ATOM     18  C   UNL A   1      43.333  29.325  26.889  1.00  0.00     0.031 C 
ATOM     19  C   UNL A   1      37.961  28.211  30.826  1.00  0.00     0.029 A 
ATOM     20  C   UNL A   1      38.708  29.431  31.088  1.00  0.00     0.049 A 
ATOM     21  H   UNL A   1      40.755  29.724  30.728  1.00  0.00     0.167 HD
ATOM     22  C   UNL A   1      44.468  30.826  28.563  1.00  0.00     0.034 A 
ATOM     23  C   UNL A   1      38.260  30.607  31.591  1.00  0.00     0.034 A 
ATOM     24  C   UNL A   1      44.713  30.885  29.972  1.00  0.00     0.049 A 
ATOM     25  C   UNL A   1      39.405  31.483  31.915  1.00  0.00     0.074 A 
ATOM     26  C   UNL A   1      45.547  30.242  30.855  1.00  0.00     0.029 A 
ATOM     27  N   UNL A   1      43.762  31.545  30.703  1.00  0.00    -0.354 N 
ATOM     28  N   UNL A   1      40.207  31.309  32.925  1.00  0.00    -0.248 NA
ATOM     29  C   UNL A   1      39.854  32.454  30.922  1.00  0.00     0.031 C 
ATOM     30  C   UNL A   1      44.939  30.369  32.134  1.00  0.00     0.029 A 
ATOM     31  C   UNL A   1      43.754  31.091  31.996  1.00  0.00     0.049 A 
ATOM     32  H   UNL A   1      43.168  32.246  30.350  1.00  0.00     0.167 HD
ATOM     33  C   UNL A   1      41.421  31.790  32.477  1.00  0.00     0.074 A 
ATOM     34  C   UNL A   1      41.105  32.646  31.344  1.00  0.00     0.031 C 
ATOM     35  C   UNL A   1      42.587  31.195  32.852  1.00  0.00     0.034 A 
BRANCH  22  36
ATOM     36  C   UNL A   1      44.546  32.041  27.667  1.00  0.00     0.023 A 
ATOM     37  C   UNL A   1      43.887  33.245  27.987  1.00  0.00     0.031 A 
ATOM     38  C   UNL A   1      45.450  32.110  26.596  1.00  0.00     0.131 A 
ATOM     39  C   UNL A   1      44.042  34.409  27.234  1.00  0.00     0.055 A 
ATOM     40  C   UNL A   1      45.679  33.302  25.890  1.00  0.00     0.041 A 
ATOM     41  F   UNL A   1      46.175  31.040  26.236  1.00  0.00    -0.206 F 
ATOM     42  C   UNL A   1      44.961  34.457  26.197  1.00  0.00     0.022 A 
BRANCH  39  43
ATOM     43  S   UNL A   1      43.024  35.862  27.613  1.00  0.00     0.124 S 
ATOM     44  O   UNL A   1      43.966  36.708  28.335  1.00  0.00    -0.237 OA
ATOM     45  O   UNL A   1      42.649  36.317  26.277  1.00  0.00    -0.237 OA
ATOM     46  O   UNL A   1      41.926  35.313  28.406  1.00  0.00    -0.744 OA
ENDBRANCH  39  43
ENDBRANCH  22  36
BRANCH  23  47
ATOM     47  C   UNL A   1      36.894  31.165  31.464  1.00  0.00     0.023 A 
ATOM     48  C   UNL A   1      36.358  31.402  30.186  1.00  0.00     0.031 A 
ATOM     49  C   UNL A   1      36.237  31.754  32.559  1.00  0.00     0.131 A 
ATOM     50  C   UNL A   1      35.249  32.239  30.020  1.00  0.00     0.055 A 
ATOM     51  C   UNL A   1      35.121  32.584  32.393  1.00  0.00     0.041 A 
ATOM     52  F   UNL A   1      36.709  31.595  33.804  1.00  0.00    -0.206 F 
ATOM     53  C   UNL A   1      34.631  32.841  31.116  1.00  0.00     0.022 A 
BRANCH  50  54
ATOM     54  S   UNL A   1      34.646  32.618  28.353  1.00  0.00     0.124 S 
ATOM     55  O   UNL A   1      33.672  33.675  28.608  1.00  0.00    -0.237 OA
ATOM     56  O   UNL A   1      35.873  33.038  27.685  1.00  0.00    -0.237 OA
ATOM     57  O   UNL A   1      34.077  31.351  27.902  1.00  0.00    -0.744 OA
ENDBRANCH  50  54
ENDBRANCH  23  47
BRANCH  35  58
ATOM     58  C   UNL A   1      42.606  30.415  34.139  1.00  0.00     0.023 A 
ATOM     59  C   UNL A   1      43.125  31.073  35.267  1.00  0.00     0.031 A 
ATOM     60  C   UNL A   1      42.294  29.049  34.259  1.00  0.00     0.131 A 
ATOM     61  C   UNL A   1      43.363  30.367  36.450  1.00  0.00     0.055 A 
ATOM     62  C   UNL A   1      42.456  28.367  35.469  1.00  0.00     0.041 A 
ATOM     63  F   UNL A   1      41.901  28.324  33.201  1.00  0.00    -0.206 F 
ATOM     64  C   UNL A   1      43.010  29.022  36.566  1.00  0.00     0.022 A 
BRANCH  61  65
ATOM     65  S   UNL A   1      44.292  31.142  37.798  1.00  0.00     0.124 S 
ATOM     66  O   UNL A   1      44.450  30.038  38.740  1.00  0.00    -0.237 OA
ATOM     67  O   UNL A   1      45.516  31.571  37.122  1.00  0.00    -0.237 OA
ATOM     68  O   UNL A   1      43.425  32.228  38.245  1.00  0.00    -0.744 OA
ENDBRANCH  61  65
ENDBRANCH  35  58
ENDBRANCH   9  10
ENDBRANCH   2   4
ENDBRANCH   1   2
BRANCH   1  69
ATOM     69  C   UNL A   1      40.811  20.146  26.793  1.00  0.00     0.275 C 
BRANCH  69  70
ATOM     70  C   UNL A   1      41.969  19.177  26.494  1.00  0.00     0.275 C 
BRANCH  70  71
ATOM     71  O   UNL A   1      42.578  19.479  25.240  1.00  0.00    -0.457 OA
BRANCH  71  72
ATOM     72  C   UNL A   1      43.913  19.246  25.144  1.00  0.00     0.354 C 
ATOM     73  O   UNL A   1      44.445  18.148  25.082  1.00  0.00    -0.244 OA
BRANCH  72  74
ATOM     74  C   UNL A   1      44.576  20.517  25.255  1.00  0.00     0.126 A 
ATOM     75  C   UNL A   1      45.718  20.955  24.604  1.00  0.00     0.045 A 
ATOM     76  N   UNL A   1      44.070  21.596  25.950  1.00  0.00    -0.349 N 
ATOM     77  C   UNL A   1      45.788  22.364  24.744  1.00  0.00     0.019 A 
ATOM     78  C   UNL A   1      44.707  22.749  25.537  1.00  0.00     0.051 A 
ATOM     79  H   UNL A   1      43.365  21.549  26.635  1.00  0.00     0.167 HD
ATOM     80  C   UNL A   1      46.623  23.352  24.208  1.00  0.00     0.123 A 
ATOM     81  C   UNL A   1      44.405  24.094  25.762  1.00  0.00     0.067 A 
ATOM     82  N   UNL A   1      46.363  24.663  24.420  1.00  0.00    -0.244 NA
ATOM     83  C   UNL A   1      45.278  24.988  25.157  1.00  0.00     0.131 A 
ATOM     84  Cl  UNL A   1      45.018  26.682  25.291  1.00  0.00    -0.062 Cl
ENDBRANCH  72  74
ENDBRANCH  71  72
ENDBRANCH  70  71
ENDBRANCH  69  70
ENDBRANCH   1  69
TORSDOF 14
ENDMDL
