MODEL 1
REMARK VINA RESULT:     -11.7      0.000      0.000
REMARK SMILES C[C@@H]1[NH2+]CC[C@H]1C(=O)NCc1cccc(C(=O)OCCOC(=O)c2ccc(-c3c4nc(c(-c5cc(S(=O)(=O)[O-])ccc5F)c5ccc([nH]5)c(-c5cc(S(=O)(=O)[O-])ccc5F)c5nc(c(-c6cc(S(=O)(=O)[O-])ccc6F)c6ccc3[nH]6)C=C5)C=C4)cc2)c1
REMARK SMILES IDX 19 1 18 2 16 3 17 4 15 5 11 6 12 7 87 8 13 9 14 10 10 11
REMARK SMILES IDX 9 12 7 13 8 14 6 16 1 17 2 18 3 19 4 20 5 23 20 24 21 25
REMARK SMILES IDX 22 26 23 27 24 28 25 29 86 30 26 31 85 32 27 33 28 34 29 35
REMARK SMILES IDX 79 36 30 37 84 38 78 39 80 40 31 41 83 42 77 43 76 44 32 46
REMARK SMILES IDX 64 47 44 48 63 49 45 50 48 51 62 52 81 53 46 54 47 55 61 57
REMARK SMILES IDX 82 58 49 59 33 60 34 61 42 62 35 63 41 64 43 65 40 66 36 67
REMARK SMILES IDX 37 68 38 69 39 70 65 71 66 72 74 73 67 74 73 75 75 76 72 77
REMARK SMILES IDX 68 78 69 79 70 80 71 81 50 82 51 83 59 84 52 85 58 86 60 87
REMARK SMILES IDX 57 88 53 89 54 90 55 91 56 92
REMARK H PARENT 9 15 3 21 3 22 80 45 48 56
REMARK Flexibility Score: inf
ROOT
ATOM      1  C   UNL A   1      30.962  29.719  24.466  1.00  0.00     0.275 C 
ENDROOT
BRANCH   1   2
ATOM      2  O   UNL A   1      31.798  29.110  23.464  1.00  0.00    -0.458 OA
BRANCH   2   3
ATOM      3  C   UNL A   1      31.237  28.109  22.739  1.00  0.00     0.338 C 
ATOM      4  O   UNL A   1      30.256  28.201  22.019  1.00  0.00    -0.246 OA
BRANCH   3   5
ATOM      5  C   UNL A   1      32.050  26.870  22.850  1.00  0.00     0.060 A 
ATOM      6  C   UNL A   1      33.623  25.435  24.030  1.00  0.00    -0.028 A 
ATOM      7  C   UNL A   1      33.699  24.616  22.892  1.00  0.00     0.005 A 
ATOM      8  C   UNL A   1      32.827  26.591  23.981  1.00  0.00     0.021 A 
ATOM      9  C   UNL A   1      32.906  24.875  21.775  1.00  0.00     0.001 A 
ATOM     10  C   UNL A   1      32.055  25.977  21.772  1.00  0.00     0.016 A 
BRANCH   6  11
ATOM     11  C   UNL A   1      34.409  25.071  25.264  1.00  0.00     0.151 C 
BRANCH  11  12
ATOM     12  N   UNL A   1      33.570  24.500  26.305  1.00  0.00    -0.352 N 
ATOM     13  C   UNL A   1      32.990  23.282  26.447  1.00  0.00     0.229 C 
ATOM     14  O   UNL A   1      32.232  23.137  27.413  1.00  0.00    -0.275 OA
ATOM     15  H   UNL A   1      33.386  25.117  27.050  1.00  0.00     0.163 HD
BRANCH  13  16
ATOM     16  C   UNL A   1      33.251  22.108  25.515  1.00  0.00     0.142 C 
ATOM     17  C   UNL A   1      35.544  21.065  25.208  1.00  0.00     0.076 C 
ATOM     18  C   UNL A   1      34.260  21.087  26.040  1.00  0.00     0.192 C 
ATOM     19  N   UNL A   1      33.616  19.765  25.955  1.00  0.00    -0.343 N 
ATOM     20  C   UNL A   1      32.473  19.886  25.054  1.00  0.00     0.261 C 
ATOM     21  H   UNL A   1      33.300  19.473  26.880  1.00  0.00     0.346 HD
ATOM     22  H   UNL A   1      34.274  19.068  25.606  1.00  0.00     0.346 HD
ATOM     23  C   UNL A   1      32.005  21.324  25.132  1.00  0.00     0.081 C 
ENDBRANCH  13  16
ENDBRANCH  11  12
ENDBRANCH   6  11
ENDBRANCH   3   5
ENDBRANCH   2   3
ENDBRANCH   1   2
BRANCH   1  24
ATOM     24  C   UNL A   1      31.613  29.624  25.846  1.00  0.00     0.275 C 
BRANCH  24  25
ATOM     25  O   UNL A   1      32.904  30.264  25.839  1.00  0.00    -0.458 OA
BRANCH  25  26
ATOM     26  C   UNL A   1      33.112  31.168  26.824  1.00  0.00     0.338 C 
ATOM     27  O   UNL A   1      32.323  31.991  27.256  1.00  0.00    -0.246 OA
BRANCH  26  28
ATOM     28  C   UNL A   1      34.442  30.941  27.411  1.00  0.00     0.060 A 
ATOM     29  C   UNL A   1      34.802  29.628  27.703  1.00  0.00     0.016 A 
ATOM     30  C   UNL A   1      35.277  31.996  27.774  1.00  0.00     0.016 A 
ATOM     31  C   UNL A   1      35.981  29.353  28.388  1.00  0.00     0.010 A 
ATOM     32  C   UNL A   1      36.483  31.718  28.433  1.00  0.00     0.010 A 
ATOM     33  C   UNL A   1      36.835  30.395  28.768  1.00  0.00    -0.014 A 
BRANCH  33  34
ATOM     34  C   UNL A   1      38.041  30.095  29.592  1.00  0.00     0.031 A 
ATOM     35  C   UNL A   1      39.125  29.210  29.033  1.00  0.00     0.074 A 
ATOM     36  C   UNL A   1      38.197  30.649  30.810  1.00  0.00     0.049 A 
ATOM     37  N   UNL A   1      40.195  28.735  29.616  1.00  0.00    -0.248 NA
ATOM     38  C   UNL A   1      38.976  28.802  27.627  1.00  0.00     0.031 C 
ATOM     39  C   UNL A   1      37.255  31.574  31.444  1.00  0.00     0.029 A 
ATOM     40  N   UNL A   1      39.210  30.527  31.730  1.00  0.00    -0.354 N 
ATOM     41  C   UNL A   1      40.825  27.936  28.667  1.00  0.00     0.074 A 
ATOM     42  C   UNL A   1      40.004  27.980  27.474  1.00  0.00     0.031 C 
ATOM     43  C   UNL A   1      37.747  31.953  32.635  1.00  0.00     0.029 A 
ATOM     44  C   UNL A   1      39.000  31.246  32.884  1.00  0.00     0.049 A 
ATOM     45  H   UNL A   1      40.012  29.977  31.577  1.00  0.00     0.167 HD
ATOM     46  C   UNL A   1      41.980  27.232  28.780  1.00  0.00     0.034 A 
ATOM     47  C   UNL A   1      39.713  31.303  34.027  1.00  0.00     0.034 A 
ATOM     48  C   UNL A   1      42.806  27.223  29.963  1.00  0.00     0.049 A 
ATOM     49  C   UNL A   1      40.968  30.477  34.147  1.00  0.00     0.074 A 
ATOM     50  C   UNL A   1      43.994  26.547  30.183  1.00  0.00     0.029 A 
ATOM     51  N   UNL A   1      42.536  27.932  31.127  1.00  0.00    -0.354 N 
ATOM     52  N   UNL A   1      41.518  29.676  33.264  1.00  0.00    -0.248 NA
ATOM     53  C   UNL A   1      41.694  30.556  35.422  1.00  0.00     0.031 C 
ATOM     54  C   UNL A   1      44.412  26.801  31.494  1.00  0.00     0.029 A 
ATOM     55  C   UNL A   1      43.523  27.693  32.073  1.00  0.00     0.049 A 
ATOM     56  H   UNL A   1      41.757  28.519  31.262  1.00  0.00     0.167 HD
ATOM     57  C   UNL A   1      42.665  29.170  33.872  1.00  0.00     0.074 A 
ATOM     58  C   UNL A   1      42.737  29.772  35.187  1.00  0.00     0.031 C 
ATOM     59  C   UNL A   1      43.576  28.289  33.386  1.00  0.00     0.034 A 
BRANCH  46  60
ATOM     60  C   UNL A   1      42.377  26.363  27.610  1.00  0.00     0.023 A 
ATOM     61  C   UNL A   1      41.927  25.038  27.476  1.00  0.00     0.031 A 
ATOM     62  C   UNL A   1      43.256  26.861  26.631  1.00  0.00     0.131 A 
ATOM     63  C   UNL A   1      42.415  24.235  26.433  1.00  0.00     0.055 A 
ATOM     64  C   UNL A   1      43.674  26.082  25.550  1.00  0.00     0.041 A 
ATOM     65  F   UNL A   1      43.736  28.112  26.716  1.00  0.00    -0.206 F 
ATOM     66  C   UNL A   1      43.266  24.756  25.455  1.00  0.00     0.022 A 
BRANCH  63  67
ATOM     67  S   UNL A   1      42.038  22.461  26.454  1.00  0.00     0.124 S 
ATOM     68  O   UNL A   1      40.583  22.466  26.313  1.00  0.00    -0.237 OA
ATOM     69  O   UNL A   1      42.788  21.965  25.305  1.00  0.00    -0.237 OA
ATOM     70  O   UNL A   1      42.529  22.020  27.758  1.00  0.00    -0.744 OA
ENDBRANCH  63  67
ENDBRANCH  46  60
BRANCH  47  71
ATOM     71  C   UNL A   1      39.231  32.123  35.178  1.00  0.00     0.023 A 
ATOM     72  C   UNL A   1      38.600  31.530  36.283  1.00  0.00     0.031 A 
ATOM     73  C   UNL A   1      39.356  33.524  35.164  1.00  0.00     0.131 A 
ATOM     74  C   UNL A   1      38.086  32.337  37.309  1.00  0.00     0.055 A 
ATOM     75  C   UNL A   1      38.892  34.318  36.213  1.00  0.00     0.041 A 
ATOM     76  F   UNL A   1      39.947  34.143  34.129  1.00  0.00    -0.206 F 
ATOM     77  C   UNL A   1      38.241  33.725  37.289  1.00  0.00     0.022 A 
BRANCH  74  78
ATOM     78  S   UNL A   1      37.136  31.552  38.641  1.00  0.00     0.124 S 
ATOM     79  O   UNL A   1      36.969  30.198  38.129  1.00  0.00    -0.237 OA
ATOM     80  O   UNL A   1      38.033  31.702  39.782  1.00  0.00    -0.237 OA
ATOM     81  O   UNL A   1      35.914  32.351  38.704  1.00  0.00    -0.744 OA
ENDBRANCH  74  78
ENDBRANCH  47  71
BRANCH  59  82
ATOM     82  C   UNL A   1      44.751  27.964  34.275  1.00  0.00     0.023 A 
ATOM     83  C   UNL A   1      44.697  26.930  35.225  1.00  0.00     0.031 A 
ATOM     84  C   UNL A   1      45.936  28.715  34.178  1.00  0.00     0.131 A 
ATOM     85  C   UNL A   1      45.789  26.709  36.079  1.00  0.00     0.055 A 
ATOM     86  C   UNL A   1      47.038  28.456  34.994  1.00  0.00     0.041 A 
ATOM     87  F   UNL A   1      46.041  29.714  33.288  1.00  0.00    -0.206 F 
ATOM     88  C   UNL A   1      46.964  27.457  35.961  1.00  0.00     0.022 A 
BRANCH  85  89
ATOM     89  S   UNL A   1      45.623  25.486  37.409  1.00  0.00     0.124 S 
ATOM     90  O   UNL A   1      46.731  24.579  37.129  1.00  0.00    -0.237 OA
ATOM     91  O   UNL A   1      45.757  26.308  38.607  1.00  0.00    -0.237 OA
ATOM     92  O   UNL A   1      44.291  24.922  37.192  1.00  0.00    -0.744 OA
ENDBRANCH  85  89
ENDBRANCH  59  82
ENDBRANCH  33  34
ENDBRANCH  26  28
ENDBRANCH  25  26
ENDBRANCH  24  25
ENDBRANCH   1  24
TORSDOF 17
ENDMDL
MODEL 2
REMARK VINA RESULT:     -11.6      5.246     10.367
REMARK SMILES C[C@@H]1[NH2+]CC[C@H]1C(=O)NCc1cccc(C(=O)OCCOC(=O)c2ccc(-c3c4nc(c(-c5cc(S(=O)(=O)[O-])ccc5F)c5ccc([nH]5)c(-c5cc(S(=O)(=O)[O-])ccc5F)c5nc(c(-c6cc(S(=O)(=O)[O-])ccc6F)c6ccc3[nH]6)C=C5)C=C4)cc2)c1
REMARK SMILES IDX 19 1 18 2 16 3 17 4 15 5 11 6 12 7 87 8 13 9 14 10 10 11
REMARK SMILES IDX 9 12 7 13 8 14 6 16 1 17 2 18 3 19 4 20 5 23 20 24 21 25
REMARK SMILES IDX 22 26 23 27 24 28 25 29 86 30 26 31 85 32 27 33 28 34 29 35
REMARK SMILES IDX 79 36 30 37 84 38 78 39 80 40 31 41 83 42 77 43 76 44 32 46
REMARK SMILES IDX 64 47 44 48 63 49 45 50 48 51 62 52 81 53 46 54 47 55 61 57
REMARK SMILES IDX 82 58 49 59 33 60 34 61 42 62 35 63 41 64 43 65 40 66 36 67
REMARK SMILES IDX 37 68 38 69 39 70 65 71 66 72 74 73 67 74 73 75 75 76 72 77
REMARK SMILES IDX 68 78 69 79 70 80 71 81 50 82 51 83 59 84 52 85 58 86 60 87
REMARK SMILES IDX 57 88 53 89 54 90 55 91 56 92
REMARK H PARENT 9 15 3 21 3 22 80 45 48 56
REMARK Flexibility Score: inf
ROOT
ATOM      1  C   UNL A   1      35.492  20.125  25.002  1.00  0.00     0.275 C 
ENDROOT
BRANCH   1   2
ATOM      2  O   UNL A   1      34.453  20.816  25.722  1.00  0.00    -0.458 OA
BRANCH   2   3
ATOM      3  C   UNL A   1      33.176  20.492  25.395  1.00  0.00     0.338 C 
ATOM      4  O   UNL A   1      32.623  19.426  25.612  1.00  0.00    -0.246 OA
BRANCH   3   5
ATOM      5  C   UNL A   1      32.476  21.667  24.814  1.00  0.00     0.060 A 
ATOM      6  C   UNL A   1      31.090  23.658  25.023  1.00  0.00    -0.028 A 
ATOM      7  C   UNL A   1      31.026  23.736  23.623  1.00  0.00     0.005 A 
ATOM      8  C   UNL A   1      31.783  22.587  25.611  1.00  0.00     0.021 A 
ATOM      9  C   UNL A   1      31.737  22.839  22.827  1.00  0.00     0.001 A 
ATOM     10  C   UNL A   1      32.491  21.833  23.424  1.00  0.00     0.016 A 
BRANCH   6  11
ATOM     11  C   UNL A   1      30.401  24.705  25.861  1.00  0.00     0.151 C 
BRANCH  11  12
ATOM     12  N   UNL A   1      31.343  25.613  26.494  1.00  0.00    -0.352 N 
ATOM     13  C   UNL A   1      32.125  26.608  26.005  1.00  0.00     0.229 C 
ATOM     14  O   UNL A   1      32.913  27.137  26.798  1.00  0.00    -0.275 OA
ATOM     15  H   UNL A   1      31.430  25.481  27.466  1.00  0.00     0.163 HD
BRANCH  13  16
ATOM     16  C   UNL A   1      32.054  27.110  24.571  1.00  0.00     0.142 C 
ATOM     17  C   UNL A   1      29.883  27.796  23.448  1.00  0.00     0.076 C 
ATOM     18  C   UNL A   1      31.048  28.237  24.337  1.00  0.00     0.192 C 
ATOM     19  N   UNL A   1      31.774  29.327  23.663  1.00  0.00    -0.343 N 
ATOM     20  C   UNL A   1      33.014  28.769  23.128  1.00  0.00     0.261 C 
ATOM     21  H   UNL A   1      31.987  30.068  24.332  1.00  0.00     0.346 HD
ATOM     22  H   UNL A   1      31.208  29.725  22.913  1.00  0.00     0.346 HD
ATOM     23  C   UNL A   1      33.382  27.596  24.012  1.00  0.00     0.081 C 
ENDBRANCH  13  16
ENDBRANCH  11  12
ENDBRANCH   6  11
ENDBRANCH   3   5
ENDBRANCH   2   3
ENDBRANCH   1   2
BRANCH   1  24
ATOM     24  C   UNL A   1      36.621  21.084  24.625  1.00  0.00     0.275 C 
BRANCH  24  25
ATOM     25  O   UNL A   1      37.236  21.628  25.809  1.00  0.00    -0.458 OA
BRANCH  25  26
ATOM     26  C   UNL A   1      38.550  21.345  25.965  1.00  0.00     0.338 C 
ATOM     27  O   UNL A   1      39.134  20.326  25.642  1.00  0.00    -0.246 OA
BRANCH  26  28
ATOM     28  C   UNL A   1      39.236  22.532  26.498  1.00  0.00     0.060 A 
ATOM     29  C   UNL A   1      38.753  23.782  26.117  1.00  0.00     0.016 A 
ATOM     30  C   UNL A   1      40.396  22.431  27.264  1.00  0.00     0.016 A 
ATOM     31  C   UNL A   1      39.437  24.942  26.466  1.00  0.00     0.010 A 
ATOM     32  C   UNL A   1      41.066  23.602  27.648  1.00  0.00     0.010 A 
ATOM     33  C   UNL A   1      40.607  24.867  27.232  1.00  0.00    -0.014 A 
BRANCH  33  34
ATOM     34  C   UNL A   1      41.385  26.108  27.509  1.00  0.00     0.031 A 
ATOM     35  C   UNL A   1      40.787  27.186  28.376  1.00  0.00     0.074 A 
ATOM     36  C   UNL A   1      42.638  26.254  27.037  1.00  0.00     0.049 A 
ATOM     37  N   UNL A   1      41.241  28.381  28.651  1.00  0.00    -0.248 NA
ATOM     38  C   UNL A   1      39.499  26.872  29.012  1.00  0.00     0.031 C 
ATOM     39  C   UNL A   1      43.362  25.261  26.239  1.00  0.00     0.029 A 
ATOM     40  N   UNL A   1      43.534  27.287  27.168  1.00  0.00    -0.354 N 
ATOM     41  C   UNL A   1      40.277  28.981  29.453  1.00  0.00     0.074 A 
ATOM     42  C   UNL A   1      39.204  28.019  29.607  1.00  0.00     0.031 C 
ATOM     43  C   UNL A   1      44.595  25.724  25.975  1.00  0.00     0.029 A 
ATOM     44  C   UNL A   1      44.728  27.072  26.519  1.00  0.00     0.049 A 
ATOM     45  H   UNL A   1      43.340  28.106  27.680  1.00  0.00     0.167 HD
ATOM     46  C   UNL A   1      40.286  30.219  30.012  1.00  0.00     0.034 A 
ATOM     47  C   UNL A   1      45.795  27.879  26.349  1.00  0.00     0.034 A 
ATOM     48  C   UNL A   1      41.376  31.155  29.879  1.00  0.00     0.049 A 
ATOM     49  C   UNL A   1      45.763  29.266  26.939  1.00  0.00     0.074 A 
ATOM     50  C   UNL A   1      41.487  32.432  30.403  1.00  0.00     0.029 A 
ATOM     51  N   UNL A   1      42.550  30.914  29.177  1.00  0.00    -0.354 N 
ATOM     52  N   UNL A   1      44.818  29.843  27.643  1.00  0.00    -0.248 NA
ATOM     53  C   UNL A   1      46.941  30.113  26.703  1.00  0.00     0.031 C 
ATOM     54  C   UNL A   1      42.700  32.982  29.974  1.00  0.00     0.029 A 
ATOM     55  C   UNL A   1      43.380  32.025  29.238  1.00  0.00     0.049 A 
ATOM     56  H   UNL A   1      42.763  30.077  28.705  1.00  0.00     0.167 HD
ATOM     57  C   UNL A   1      45.295  31.116  27.949  1.00  0.00     0.074 A 
ATOM     58  C   UNL A   1      46.619  31.212  27.370  1.00  0.00     0.031 C 
ATOM     59  C   UNL A   1      44.694  32.113  28.646  1.00  0.00     0.034 A 
BRANCH  46  60
ATOM     60  C   UNL A   1      39.047  30.647  30.762  1.00  0.00     0.023 A 
ATOM     61  C   UNL A   1      38.034  31.413  30.157  1.00  0.00     0.031 A 
ATOM     62  C   UNL A   1      38.896  30.315  32.120  1.00  0.00     0.131 A 
ATOM     63  C   UNL A   1      36.958  31.883  30.926  1.00  0.00     0.055 A 
ATOM     64  C   UNL A   1      37.783  30.718  32.860  1.00  0.00     0.041 A 
ATOM     65  F   UNL A   1      39.839  29.604  32.758  1.00  0.00    -0.206 F 
ATOM     66  C   UNL A   1      36.813  31.520  32.267  1.00  0.00     0.022 A 
BRANCH  63  67
ATOM     67  S   UNL A   1      35.827  33.096  30.188  1.00  0.00     0.124 S 
ATOM     68  O   UNL A   1      34.690  32.255  29.823  1.00  0.00    -0.237 OA
ATOM     69  O   UNL A   1      35.605  34.028  31.287  1.00  0.00    -0.237 OA
ATOM     70  O   UNL A   1      36.586  33.630  29.059  1.00  0.00    -0.744 OA
ENDBRANCH  63  67
ENDBRANCH  46  60
BRANCH  47  71
ATOM     71  C   UNL A   1      46.962  27.427  25.535  1.00  0.00     0.023 A 
ATOM     72  C   UNL A   1      47.121  27.832  24.200  1.00  0.00     0.031 A 
ATOM     73  C   UNL A   1      47.912  26.541  26.073  1.00  0.00     0.131 A 
ATOM     74  C   UNL A   1      48.185  27.323  23.439  1.00  0.00     0.055 A 
ATOM     75  C   UNL A   1      48.999  26.080  25.328  1.00  0.00     0.041 A 
ATOM     76  F   UNL A   1      47.804  26.117  27.343  1.00  0.00    -0.206 F 
ATOM     77  C   UNL A   1      49.133  26.463  23.997  1.00  0.00     0.022 A 
BRANCH  74  78
ATOM     78  S   UNL A   1      48.270  27.740  21.675  1.00  0.00     0.124 S 
ATOM     79  O   UNL A   1      48.634  26.458  21.084  1.00  0.00    -0.237 OA
ATOM     80  O   UNL A   1      46.913  28.207  21.408  1.00  0.00    -0.237 OA
ATOM     81  O   UNL A   1      49.304  28.770  21.617  1.00  0.00    -0.744 OA
ENDBRANCH  74  78
ENDBRANCH  47  71
BRANCH  59  82
ATOM     82  C   UNL A   1      45.491  33.377  28.853  1.00  0.00     0.023 A 
ATOM     83  C   UNL A   1      45.370  34.479  27.990  1.00  0.00     0.031 A 
ATOM     84  C   UNL A   1      46.397  33.469  29.924  1.00  0.00     0.131 A 
ATOM     85  C   UNL A   1      46.183  35.607  28.179  1.00  0.00     0.055 A 
ATOM     86  C   UNL A   1      47.166  34.614  30.138  1.00  0.00     0.041 A 
ATOM     87  F   UNL A   1      46.553  32.445  30.778  1.00  0.00    -0.206 F 
ATOM     88  C   UNL A   1      47.070  35.687  29.256  1.00  0.00     0.022 A 
BRANCH  85  89
ATOM     89  S   UNL A   1      46.129  36.938  26.948  1.00  0.00     0.124 S 
ATOM     90  O   UNL A   1      46.993  37.947  27.552  1.00  0.00    -0.237 OA
ATOM     91  O   UNL A   1      46.653  36.281  25.755  1.00  0.00    -0.237 OA
ATOM     92  O   UNL A   1      44.712  37.292  26.887  1.00  0.00    -0.744 OA
ENDBRANCH  85  89
ENDBRANCH  59  82
ENDBRANCH  33  34
ENDBRANCH  26  28
ENDBRANCH  25  26
ENDBRANCH  24  25
ENDBRANCH   1  24
TORSDOF 17
ENDMDL
MODEL 3
REMARK VINA RESULT:     -11.6      5.306      8.029
REMARK SMILES C[C@@H]1[NH2+]CC[C@H]1C(=O)NCc1cccc(C(=O)OCCOC(=O)c2ccc(-c3c4nc(c(-c5cc(S(=O)(=O)[O-])ccc5F)c5ccc([nH]5)c(-c5cc(S(=O)(=O)[O-])ccc5F)c5nc(c(-c6cc(S(=O)(=O)[O-])ccc6F)c6ccc3[nH]6)C=C5)C=C4)cc2)c1
REMARK SMILES IDX 19 1 18 2 16 3 17 4 15 5 11 6 12 7 87 8 13 9 14 10 10 11
REMARK SMILES IDX 9 12 7 13 8 14 6 16 1 17 2 18 3 19 4 20 5 23 20 24 21 25
REMARK SMILES IDX 22 26 23 27 24 28 25 29 86 30 26 31 85 32 27 33 28 34 29 35
REMARK SMILES IDX 79 36 30 37 84 38 78 39 80 40 31 41 83 42 77 43 76 44 32 46
REMARK SMILES IDX 64 47 44 48 63 49 45 50 48 51 62 52 81 53 46 54 47 55 61 57
REMARK SMILES IDX 82 58 49 59 33 60 34 61 42 62 35 63 41 64 43 65 40 66 36 67
REMARK SMILES IDX 37 68 38 69 39 70 65 71 66 72 74 73 67 74 73 75 75 76 72 77
REMARK SMILES IDX 68 78 69 79 70 80 71 81 50 82 51 83 59 84 52 85 58 86 60 87
REMARK SMILES IDX 57 88 53 89 54 90 55 91 56 92
REMARK H PARENT 9 15 3 21 3 22 80 45 48 56
REMARK Flexibility Score: inf
ROOT
ATOM      1  C   UNL A   1      38.199  20.029  24.632  1.00  0.00     0.275 C 
ENDROOT
BRANCH   1   2
ATOM      2  O   UNL A   1      36.926  20.386  25.205  1.00  0.00    -0.458 OA
BRANCH   2   3
ATOM      3  C   UNL A   1      36.682  21.714  25.345  1.00  0.00     0.338 C 
ATOM      4  O   UNL A   1      37.362  22.512  25.969  1.00  0.00    -0.246 OA
BRANCH   3   5
ATOM      5  C   UNL A   1      35.502  22.111  24.534  1.00  0.00     0.060 A 
ATOM      6  C   UNL A   1      33.254  21.722  23.682  1.00  0.00    -0.028 A 
ATOM      7  C   UNL A   1      33.407  22.828  22.831  1.00  0.00     0.005 A 
ATOM      8  C   UNL A   1      34.332  21.343  24.500  1.00  0.00     0.021 A 
ATOM      9  C   UNL A   1      34.559  23.612  22.882  1.00  0.00     0.001 A 
ATOM     10  C   UNL A   1      35.585  23.275  23.761  1.00  0.00     0.016 A 
BRANCH   6  11
ATOM     11  C   UNL A   1      31.955  20.956  23.684  1.00  0.00     0.151 C 
BRANCH  11  12
ATOM     12  N   UNL A   1      31.906  19.951  22.637  1.00  0.00    -0.352 N 
ATOM     13  C   UNL A   1      32.469  18.722  22.521  1.00  0.00     0.229 C 
ATOM     14  O   UNL A   1      32.322  18.142  21.438  1.00  0.00    -0.275 OA
ATOM     15  H   UNL A   1      31.359  20.211  21.861  1.00  0.00     0.163 HD
BRANCH  13  16
ATOM     16  C   UNL A   1      33.225  18.029  23.644  1.00  0.00     0.142 C 
ATOM     17  C   UNL A   1      32.697  18.395  26.100  1.00  0.00     0.076 C 
ATOM     18  C   UNL A   1      32.359  17.608  24.832  1.00  0.00     0.192 C 
ATOM     19  N   UNL A   1      32.628  16.180  25.073  1.00  0.00    -0.343 N 
ATOM     20  C   UNL A   1      33.870  15.840  24.384  1.00  0.00     0.261 C 
ATOM     21  H   UNL A   1      31.861  15.616  24.706  1.00  0.00     0.346 HD
ATOM     22  H   UNL A   1      32.711  15.995  26.073  1.00  0.00     0.346 HD
ATOM     23  C   UNL A   1      33.993  16.791  23.212  1.00  0.00     0.081 C 
ENDBRANCH  13  16
ENDBRANCH  11  12
ENDBRANCH   6  11
ENDBRANCH   3   5
ENDBRANCH   2   3
ENDBRANCH   1   2
BRANCH   1  24
ATOM     24  C   UNL A   1      39.021  19.196  25.615  1.00  0.00     0.275 C 
BRANCH  24  25
ATOM     25  O   UNL A   1      39.464  20.010  26.718  1.00  0.00    -0.458 OA
BRANCH  25  26
ATOM     26  C   UNL A   1      40.795  20.255  26.764  1.00  0.00     0.338 C 
ATOM     27  O   UNL A   1      41.699  19.504  26.442  1.00  0.00    -0.246 OA
BRANCH  26  28
ATOM     28  C   UNL A   1      41.011  21.653  27.165  1.00  0.00     0.060 A 
ATOM     29  C   UNL A   1      40.502  22.648  26.334  1.00  0.00     0.016 A 
ATOM     30  C   UNL A   1      41.793  21.991  28.268  1.00  0.00     0.016 A 
ATOM     31  C   UNL A   1      40.791  23.988  26.574  1.00  0.00     0.010 A 
ATOM     32  C   UNL A   1      42.056  23.343  28.532  1.00  0.00     0.010 A 
ATOM     33  C   UNL A   1      41.578  24.353  27.674  1.00  0.00    -0.014 A 
BRANCH  33  34
ATOM     34  C   UNL A   1      41.967  25.780  27.859  1.00  0.00     0.031 A 
ATOM     35  C   UNL A   1      43.254  26.287  27.261  1.00  0.00     0.074 A 
ATOM     36  C   UNL A   1      41.154  26.635  28.509  1.00  0.00     0.049 A 
ATOM     37  N   UNL A   1      43.832  27.452  27.394  1.00  0.00    -0.248 NA
ATOM     38  C   UNL A   1      43.990  25.346  26.403  1.00  0.00     0.031 C 
ATOM     39  C   UNL A   1      39.850  26.292  29.081  1.00  0.00     0.029 A 
ATOM     40  N   UNL A   1      41.295  27.973  28.789  1.00  0.00    -0.354 N 
ATOM     41  C   UNL A   1      45.021  27.374  26.676  1.00  0.00     0.074 A 
ATOM     42  C   UNL A   1      45.085  26.037  26.122  1.00  0.00     0.031 C 
ATOM     43  C   UNL A   1      39.303  27.395  29.619  1.00  0.00     0.029 A 
ATOM     44  C   UNL A   1      40.243  28.505  29.498  1.00  0.00     0.049 A 
ATOM     45  H   UNL A   1      42.076  28.502  28.508  1.00  0.00     0.167 HD
ATOM     46  C   UNL A   1      45.968  28.329  26.494  1.00  0.00     0.034 A 
ATOM     47  C   UNL A   1      40.068  29.735  30.024  1.00  0.00     0.034 A 
ATOM     48  C   UNL A   1      45.875  29.668  27.023  1.00  0.00     0.049 A 
ATOM     49  C   UNL A   1      41.155  30.765  29.849  1.00  0.00     0.074 A 
ATOM     50  C   UNL A   1      46.777  30.711  26.898  1.00  0.00     0.029 A 
ATOM     51  N   UNL A   1      44.812  30.155  27.773  1.00  0.00    -0.354 N 
ATOM     52  N   UNL A   1      42.303  30.657  29.221  1.00  0.00    -0.248 NA
ATOM     53  C   UNL A   1      40.926  32.081  30.462  1.00  0.00     0.031 C 
ATOM     54  C   UNL A   1      46.287  31.808  27.616  1.00  0.00     0.029 A 
ATOM     55  C   UNL A   1      45.045  31.475  28.133  1.00  0.00     0.049 A 
ATOM     56  H   UNL A   1      44.009  29.639  28.014  1.00  0.00     0.167 HD
ATOM     57  C   UNL A   1      42.924  31.897  29.349  1.00  0.00     0.074 A 
ATOM     58  C   UNL A   1      42.014  32.742  30.096  1.00  0.00     0.031 C 
ATOM     59  C   UNL A   1      44.135  32.302  28.889  1.00  0.00     0.034 A 
BRANCH  46  60
ATOM     60  C   UNL A   1      47.216  27.929  25.743  1.00  0.00     0.023 A 
ATOM     61  C   UNL A   1      47.352  28.128  24.358  1.00  0.00     0.031 A 
ATOM     62  C   UNL A   1      48.275  27.301  26.424  1.00  0.00     0.131 A 
ATOM     63  C   UNL A   1      48.483  27.636  23.688  1.00  0.00     0.055 A 
ATOM     64  C   UNL A   1      49.434  26.886  25.764  1.00  0.00     0.041 A 
ATOM     65  F   UNL A   1      48.195  27.065  27.743  1.00  0.00    -0.206 F 
ATOM     66  C   UNL A   1      49.536  27.038  24.386  1.00  0.00     0.022 A 
BRANCH  63  67
ATOM     67  S   UNL A   1      48.495  27.655  21.873  1.00  0.00     0.124 S 
ATOM     68  O   UNL A   1      47.161  28.172  21.575  1.00  0.00    -0.237 OA
ATOM     69  O   UNL A   1      49.607  28.550  21.575  1.00  0.00    -0.237 OA
ATOM     70  O   UNL A   1      48.707  26.254  21.516  1.00  0.00    -0.744 OA
ENDBRANCH  63  67
ENDBRANCH  46  60
BRANCH  47  71
ATOM     71  C   UNL A   1      38.845  30.049  30.819  1.00  0.00     0.023 A 
ATOM     72  C   UNL A   1      37.798  30.811  30.276  1.00  0.00     0.031 A 
ATOM     73  C   UNL A   1      38.730  29.628  32.156  1.00  0.00     0.131 A 
ATOM     74  C   UNL A   1      36.699  31.157  31.078  1.00  0.00     0.055 A 
ATOM     75  C   UNL A   1      37.610  29.929  32.932  1.00  0.00     0.041 A 
ATOM     76  F   UNL A   1      39.705  28.902  32.726  1.00  0.00    -0.206 F 
ATOM     77  C   UNL A   1      36.590  30.709  32.396  1.00  0.00     0.022 A 
BRANCH  74  78
ATOM     78  S   UNL A   1      35.442  32.275  30.397  1.00  0.00     0.124 S 
ATOM     79  O   UNL A   1      34.468  32.323  31.480  1.00  0.00    -0.237 OA
ATOM     80  O   UNL A   1      36.212  33.494  30.170  1.00  0.00    -0.237 OA
ATOM     81  O   UNL A   1      34.996  31.589  29.186  1.00  0.00    -0.744 OA
ENDBRANCH  74  78
ENDBRANCH  47  71
BRANCH  59  82
ATOM     82  C   UNL A   1      44.518  33.737  29.149  1.00  0.00     0.023 A 
ATOM     83  C   UNL A   1      43.973  34.797  28.404  1.00  0.00     0.031 A 
ATOM     84  C   UNL A   1      45.458  34.045  30.150  1.00  0.00     0.131 A 
ATOM     85  C   UNL A   1      44.411  36.110  28.632  1.00  0.00     0.055 A 
ATOM     86  C   UNL A   1      45.851  35.359  30.408  1.00  0.00     0.041 A 
ATOM     87  F   UNL A   1      46.011  33.072  30.891  1.00  0.00    -0.206 F 
ATOM     88  C   UNL A   1      45.336  36.400  29.639  1.00  0.00     0.022 A 
BRANCH  85  89
ATOM     89  S   UNL A   1      43.820  37.430  27.537  1.00  0.00     0.124 S 
ATOM     90  O   UNL A   1      43.120  36.677  26.502  1.00  0.00    -0.237 OA
ATOM     91  O   UNL A   1      42.980  38.223  28.429  1.00  0.00    -0.237 OA
ATOM     92  O   UNL A   1      45.050  38.089  27.099  1.00  0.00    -0.744 OA
ENDBRANCH  85  89
ENDBRANCH  59  82
ENDBRANCH  33  34
ENDBRANCH  26  28
ENDBRANCH  25  26
ENDBRANCH  24  25
ENDBRANCH   1  24
TORSDOF 17
ENDMDL
