MODEL 1
REMARK VINA RESULT:     -12.2      0.000      0.000
REMARK SMILES Cc1ccccc1C[C@H](C[C@@H]1Cc2ccccc21)C(=O)OCCOC(=O)c1ccc(-c2c3nc(c(-c4cc(S(=O)(=O)[O-])ccc4F)c4ccc([nH]4)c(-c4cc(S(=O)(=O)[O-])ccc4F)c4nc(c(-c5cc(S(=O)(=O)[O-])ccc5F)c5ccc2[nH]5)C=C4)C=C3)cc1
REMARK SMILES IDX 23 1 22 2 21 3 19 4 20 5 9 6 8 7 7 8 1 9 2 10 3 11 4 12 6 13
REMARK SMILES IDX 5 14 10 15 11 16 12 17 18 18 13 19 17 20 14 21 16 22 15 23
REMARK SMILES IDX 24 24 25 25 26 26 27 27 28 28 89 29 29 30 88 31 30 32 31 33
REMARK SMILES IDX 32 34 82 35 33 36 87 37 81 38 83 39 34 40 86 41 80 42 79 43
REMARK SMILES IDX 35 45 67 46 47 47 66 48 48 49 51 50 65 51 84 52 49 53 50 54
REMARK SMILES IDX 64 56 85 57 52 58 36 59 37 60 45 61 38 62 44 63 46 64 43 65
REMARK SMILES IDX 39 66 40 67 41 68 42 69 68 70 69 71 77 72 70 73 76 74 78 75
REMARK SMILES IDX 75 76 71 77 72 78 73 79 74 80 53 81 54 82 62 83 55 84 61 85
REMARK SMILES IDX 63 86 60 87 56 88 57 89 58 90 59 91
REMARK H PARENT 83 44 51 55
REMARK Flexibility Score: inf
ROOT
ATOM      1  C   UNL A   1      37.409  22.423  24.973  1.00  0.00     0.275 C 
ENDROOT
BRANCH   1   2
ATOM      2  C   UNL A   1      35.868  22.315  24.946  1.00  0.00     0.274 C 
BRANCH   2   3
ATOM      3  O   UNL A   1      35.251  23.588  24.710  1.00  0.00    -0.462 OA
BRANCH   3   4
ATOM      4  C   UNL A   1      34.660  23.775  23.510  1.00  0.00     0.309 C 
ATOM      5  O   UNL A   1      35.056  23.278  22.469  1.00  0.00    -0.252 OA
BRANCH   4   6
ATOM      6  C   UNL A   1      33.488  24.733  23.669  1.00  0.00     0.104 C 
BRANCH   6   7
ATOM      7  C   UNL A   1      32.813  24.598  25.044  1.00  0.00     0.051 C 
BRANCH   7   8
ATOM      8  C   UNL A   1      32.639  25.884  25.818  1.00  0.00    -0.044 A 
ATOM      9  C   UNL A   1      30.072  25.682  26.132  1.00  0.00     0.044 C 
ATOM     10  C   UNL A   1      31.392  26.388  26.254  1.00  0.00    -0.048 A 
ATOM     11  C   UNL A   1      31.342  27.650  26.866  1.00  0.00     0.004 A 
ATOM     12  C   UNL A   1      32.489  28.419  27.022  1.00  0.00     0.000 A 
ATOM     13  C   UNL A   1      33.794  26.657  26.029  1.00  0.00     0.004 A 
ATOM     14  C   UNL A   1      33.716  27.921  26.606  1.00  0.00     0.000 A 
ENDBRANCH   7   8
ENDBRANCH   6   7
BRANCH   6  15
ATOM     15  C   UNL A   1      32.496  24.766  22.490  1.00  0.00     0.024 C 
BRANCH  15  16
ATOM     16  C   UNL A   1      32.446  26.152  21.839  1.00  0.00     0.025 C 
ATOM     17  C   UNL A   1      33.525  27.224  22.253  1.00  0.00     0.044 C 
ATOM     18  C   UNL A   1      31.446  27.078  22.487  1.00  0.00    -0.041 A 
ATOM     19  C   UNL A   1      32.388  28.012  22.833  1.00  0.00    -0.044 A 
ATOM     20  C   UNL A   1      30.114  27.235  22.794  1.00  0.00     0.004 A 
ATOM     21  C   UNL A   1      32.048  29.172  23.488  1.00  0.00     0.004 A 
ATOM     22  C   UNL A   1      29.738  28.393  23.467  1.00  0.00     0.000 A 
ATOM     23  C   UNL A   1      30.699  29.360  23.809  1.00  0.00     0.000 A 
ENDBRANCH  15  16
ENDBRANCH   6  15
ENDBRANCH   4   6
ENDBRANCH   3   4
ENDBRANCH   2   3
ENDBRANCH   1   2
BRANCH   1  24
ATOM     24  O   UNL A   1      37.970  22.848  26.243  1.00  0.00    -0.458 OA
BRANCH  24  25
ATOM     25  C   UNL A   1      39.308  22.655  26.496  1.00  0.00     0.338 C 
ATOM     26  O   UNL A   1      39.927  21.653  26.245  1.00  0.00    -0.246 OA
BRANCH  25  27
ATOM     27  C   UNL A   1      39.930  23.949  26.929  1.00  0.00     0.060 A 
ATOM     28  C   UNL A   1      40.658  24.799  26.071  1.00  0.00     0.016 A 
ATOM     29  C   UNL A   1      39.479  24.444  28.129  1.00  0.00     0.016 A 
ATOM     30  C   UNL A   1      40.840  26.169  26.403  1.00  0.00     0.010 A 
ATOM     31  C   UNL A   1      39.361  25.800  28.255  1.00  0.00     0.010 A 
ATOM     32  C   UNL A   1      40.150  26.688  27.498  1.00  0.00    -0.014 A 
BRANCH  32  33
ATOM     33  C   UNL A   1      40.266  27.997  28.176  1.00  0.00     0.031 A 
ATOM     34  C   UNL A   1      39.314  29.143  28.179  1.00  0.00     0.074 A 
ATOM     35  C   UNL A   1      41.183  27.927  29.180  1.00  0.00     0.049 A 
ATOM     36  N   UNL A   1      39.448  30.126  29.006  1.00  0.00    -0.248 NA
ATOM     37  C   UNL A   1      38.131  29.332  27.346  1.00  0.00     0.031 C 
ATOM     38  C   UNL A   1      41.240  28.592  30.475  1.00  0.00     0.029 A 
ATOM     39  N   UNL A   1      42.285  27.097  29.254  1.00  0.00    -0.354 N 
ATOM     40  C   UNL A   1      38.269  30.826  29.099  1.00  0.00     0.074 A 
ATOM     41  C   UNL A   1      37.500  30.341  27.979  1.00  0.00     0.031 C 
ATOM     42  C   UNL A   1      42.442  28.356  31.037  1.00  0.00     0.029 A 
ATOM     43  C   UNL A   1      43.253  27.666  30.048  1.00  0.00     0.049 A 
ATOM     44  H   UNL A   1      42.365  26.225  28.803  1.00  0.00     0.167 HD
ATOM     45  C   UNL A   1      38.101  31.629  30.197  1.00  0.00     0.034 A 
ATOM     46  C   UNL A   1      44.368  28.141  29.412  1.00  0.00     0.034 A 
ATOM     47  C   UNL A   1      39.383  31.821  30.894  1.00  0.00     0.049 A 
ATOM     48  C   UNL A   1      44.421  29.653  29.486  1.00  0.00     0.074 A 
ATOM     49  C   UNL A   1      39.896  31.466  32.130  1.00  0.00     0.029 A 
ATOM     50  N   UNL A   1      40.451  32.326  30.162  1.00  0.00    -0.354 N 
ATOM     51  N   UNL A   1      43.408  30.399  29.831  1.00  0.00    -0.248 NA
ATOM     52  C   UNL A   1      45.616  30.441  29.233  1.00  0.00     0.031 C 
ATOM     53  C   UNL A   1      41.305  31.691  32.096  1.00  0.00     0.029 A 
ATOM     54  C   UNL A   1      41.635  32.210  30.855  1.00  0.00     0.049 A 
ATOM     55  H   UNL A   1      40.371  32.716  29.262  1.00  0.00     0.167 HD
ATOM     56  C   UNL A   1      43.773  31.711  29.890  1.00  0.00     0.074 A 
ATOM     57  C   UNL A   1      45.177  31.683  29.512  1.00  0.00     0.031 C 
ATOM     58  C   UNL A   1      42.873  32.682  30.240  1.00  0.00     0.034 A 
BRANCH  45  59
ATOM     59  C   UNL A   1      36.807  32.172  30.793  1.00  0.00     0.023 A 
ATOM     60  C   UNL A   1      36.000  33.031  29.999  1.00  0.00     0.031 A 
ATOM     61  C   UNL A   1      36.349  31.988  32.109  1.00  0.00     0.131 A 
ATOM     62  C   UNL A   1      34.860  33.683  30.509  1.00  0.00     0.055 A 
ATOM     63  C   UNL A   1      35.188  32.608  32.610  1.00  0.00     0.041 A 
ATOM     64  F   UNL A   1      36.996  31.217  32.987  1.00  0.00    -0.206 F 
ATOM     65  C   UNL A   1      34.441  33.467  31.815  1.00  0.00     0.022 A 
BRANCH  62  66
ATOM     66  S   UNL A   1      33.958  34.859  29.456  1.00  0.00     0.124 S 
ATOM     67  O   UNL A   1      32.805  34.070  29.034  1.00  0.00    -0.237 OA
ATOM     68  O   UNL A   1      33.686  35.962  30.370  1.00  0.00    -0.237 OA
ATOM     69  O   UNL A   1      34.914  35.165  28.392  1.00  0.00    -0.744 OA
ENDBRANCH  62  66
ENDBRANCH  45  59
BRANCH  46  70
ATOM     70  C   UNL A   1      44.742  27.266  28.235  1.00  0.00     0.023 A 
ATOM     71  C   UNL A   1      45.075  27.945  27.034  1.00  0.00     0.031 A 
ATOM     72  C   UNL A   1      45.268  25.972  28.404  1.00  0.00     0.131 A 
ATOM     73  C   UNL A   1      46.043  27.421  26.159  1.00  0.00     0.055 A 
ATOM     74  C   UNL A   1      46.172  25.419  27.479  1.00  0.00     0.041 A 
ATOM     75  F   UNL A   1      45.038  25.281  29.531  1.00  0.00    -0.206 F 
ATOM     76  C   UNL A   1      46.596  26.159  26.374  1.00  0.00     0.022 A 
BRANCH  73  77
ATOM     77  S   UNL A   1      46.817  28.549  24.951  1.00  0.00     0.124 S 
ATOM     78  O   UNL A   1      46.360  27.994  23.682  1.00  0.00    -0.237 OA
ATOM     79  O   UNL A   1      46.251  29.841  25.331  1.00  0.00    -0.237 OA
ATOM     80  O   UNL A   1      48.245  28.412  25.225  1.00  0.00    -0.744 OA
ENDBRANCH  73  77
ENDBRANCH  46  70
BRANCH  58  81
ATOM     81  C   UNL A   1      43.061  34.174  30.061  1.00  0.00     0.023 A 
ATOM     82  C   UNL A   1      42.855  34.825  28.842  1.00  0.00     0.031 A 
ATOM     83  C   UNL A   1      43.370  35.023  31.156  1.00  0.00     0.131 A 
ATOM     84  C   UNL A   1      43.031  36.211  28.710  1.00  0.00     0.055 A 
ATOM     85  C   UNL A   1      43.461  36.413  31.043  1.00  0.00     0.041 A 
ATOM     86  F   UNL A   1      43.580  34.547  32.392  1.00  0.00    -0.206 F 
ATOM     87  C   UNL A   1      43.309  37.018  29.807  1.00  0.00     0.022 A 
BRANCH  84  88
ATOM     88  S   UNL A   1      42.947  36.908  27.043  1.00  0.00     0.124 S 
ATOM     89  O   UNL A   1      44.290  37.460  26.882  1.00  0.00    -0.237 OA
ATOM     90  O   UNL A   1      42.647  35.735  26.229  1.00  0.00    -0.237 OA
ATOM     91  O   UNL A   1      41.876  37.896  27.135  1.00  0.00    -0.744 OA
ENDBRANCH  84  88
ENDBRANCH  58  81
ENDBRANCH  32  33
ENDBRANCH  25  27
ENDBRANCH  24  25
ENDBRANCH   1  24
TORSDOF 18
ENDMDL
MODEL 2
REMARK VINA RESULT:     -12.2      4.221      9.695
REMARK SMILES Cc1ccccc1C[C@H](C[C@@H]1Cc2ccccc21)C(=O)OCCOC(=O)c1ccc(-c2c3nc(c(-c4cc(S(=O)(=O)[O-])ccc4F)c4ccc([nH]4)c(-c4cc(S(=O)(=O)[O-])ccc4F)c4nc(c(-c5cc(S(=O)(=O)[O-])ccc5F)c5ccc2[nH]5)C=C4)C=C3)cc1
REMARK SMILES IDX 23 1 22 2 21 3 19 4 20 5 9 6 8 7 7 8 1 9 2 10 3 11 4 12 6 13
REMARK SMILES IDX 5 14 10 15 11 16 12 17 18 18 13 19 17 20 14 21 16 22 15 23
REMARK SMILES IDX 24 24 25 25 26 26 27 27 28 28 89 29 29 30 88 31 30 32 31 33
REMARK SMILES IDX 32 34 82 35 33 36 87 37 81 38 83 39 34 40 86 41 80 42 79 43
REMARK SMILES IDX 35 45 67 46 47 47 66 48 48 49 51 50 65 51 84 52 49 53 50 54
REMARK SMILES IDX 64 56 85 57 52 58 36 59 37 60 45 61 38 62 44 63 46 64 43 65
REMARK SMILES IDX 39 66 40 67 41 68 42 69 68 70 69 71 77 72 70 73 76 74 78 75
REMARK SMILES IDX 75 76 71 77 72 78 73 79 74 80 53 81 54 82 62 83 55 84 61 85
REMARK SMILES IDX 63 86 60 87 56 88 57 89 58 90 59 91
REMARK H PARENT 83 44 51 55
REMARK Flexibility Score: inf
ROOT
ATOM      1  C   UNL A   1      33.677  31.189  27.644  1.00  0.00     0.275 C 
ENDROOT
BRANCH   1   2
ATOM      2  C   UNL A   1      32.554  30.454  26.879  1.00  0.00     0.274 C 
BRANCH   2   3
ATOM      3  O   UNL A   1      33.080  29.443  26.009  1.00  0.00    -0.462 OA
BRANCH   3   4
ATOM      4  C   UNL A   1      32.294  29.037  24.987  1.00  0.00     0.309 C 
ATOM      5  O   UNL A   1      31.392  29.706  24.513  1.00  0.00    -0.252 OA
BRANCH   4   6
ATOM      6  C   UNL A   1      32.680  27.620  24.587  1.00  0.00     0.104 C 
BRANCH   6   7
ATOM      7  C   UNL A   1      33.628  26.968  25.606  1.00  0.00     0.051 C 
BRANCH   7   8
ATOM      8  C   UNL A   1      33.259  25.570  26.044  1.00  0.00    -0.044 A 
ATOM      9  C   UNL A   1      35.502  24.458  25.361  1.00  0.00     0.044 C 
ATOM     10  C   UNL A   1      34.092  24.439  25.877  1.00  0.00    -0.048 A 
ATOM     11  C   UNL A   1      33.597  23.171  26.219  1.00  0.00     0.004 A 
ATOM     12  C   UNL A   1      32.298  23.009  26.689  1.00  0.00     0.000 A 
ATOM     13  C   UNL A   1      31.967  25.389  26.566  1.00  0.00     0.004 A 
ATOM     14  C   UNL A   1      31.484  24.120  26.866  1.00  0.00     0.000 A 
ENDBRANCH   7   8
ENDBRANCH   6   7
BRANCH   6  15
ATOM     15  C   UNL A   1      33.128  27.446  23.123  1.00  0.00     0.024 C 
BRANCH  15  16
ATOM     16  C   UNL A   1      32.132  26.592  22.330  1.00  0.00     0.025 C 
ATOM     17  C   UNL A   1      30.725  26.279  22.969  1.00  0.00     0.044 C 
ATOM     18  C   UNL A   1      32.389  25.110  22.453  1.00  0.00    -0.041 A 
ATOM     19  C   UNL A   1      31.159  24.843  22.997  1.00  0.00    -0.044 A 
ATOM     20  C   UNL A   1      33.322  24.123  22.237  1.00  0.00     0.004 A 
ATOM     21  C   UNL A   1      30.782  23.565  23.336  1.00  0.00     0.004 A 
ATOM     22  C   UNL A   1      32.977  22.820  22.580  1.00  0.00     0.000 A 
ATOM     23  C   UNL A   1      31.711  22.540  23.123  1.00  0.00     0.000 A 
ENDBRANCH  15  16
ENDBRANCH   6  15
ENDBRANCH   4   6
ENDBRANCH   3   4
ENDBRANCH   2   3
ENDBRANCH   1   2
BRANCH   1  24
ATOM     24  O   UNL A   1      34.999  30.604  27.501  1.00  0.00    -0.458 OA
BRANCH  24  25
ATOM     25  C   UNL A   1      35.919  30.744  28.513  1.00  0.00     0.338 C 
ATOM     26  O   UNL A   1      35.790  31.451  29.479  1.00  0.00    -0.246 OA
BRANCH  25  27
ATOM     27  C   UNL A   1      37.006  29.725  28.348  1.00  0.00     0.060 A 
ATOM     28  C   UNL A   1      37.980  29.768  27.328  1.00  0.00     0.016 A 
ATOM     29  C   UNL A   1      37.221  28.914  29.437  1.00  0.00     0.016 A 
ATOM     30  C   UNL A   1      39.203  29.059  27.473  1.00  0.00     0.010 A 
ATOM     31  C   UNL A   1      38.507  28.539  29.709  1.00  0.00     0.010 A 
ATOM     32  C   UNL A   1      39.487  28.461  28.700  1.00  0.00    -0.014 A 
BRANCH  32  33
ATOM     33  C   UNL A   1      40.569  27.532  29.091  1.00  0.00     0.031 A 
ATOM     34  C   UNL A   1      40.741  26.092  28.751  1.00  0.00     0.074 A 
ATOM     35  C   UNL A   1      41.669  28.231  29.484  1.00  0.00     0.049 A 
ATOM     36  N   UNL A   1      41.856  25.478  28.973  1.00  0.00    -0.248 NA
ATOM     37  C   UNL A   1      39.778  25.194  28.122  1.00  0.00     0.031 C 
ATOM     38  C   UNL A   1      43.090  27.939  29.347  1.00  0.00     0.029 A 
ATOM     39  N   UNL A   1      41.705  29.490  30.051  1.00  0.00    -0.354 N 
ATOM     40  C   UNL A   1      41.912  24.323  28.229  1.00  0.00     0.074 A 
ATOM     41  C   UNL A   1      40.553  24.147  27.777  1.00  0.00     0.031 C 
ATOM     42  C   UNL A   1      43.793  28.834  30.069  1.00  0.00     0.029 A 
ATOM     43  C   UNL A   1      42.837  29.629  30.821  1.00  0.00     0.049 A 
ATOM     44  H   UNL A   1      41.021  30.185  29.924  1.00  0.00     0.167 HD
ATOM     45  C   UNL A   1      43.148  23.767  28.028  1.00  0.00     0.034 A 
ATOM     46  C   UNL A   1      42.659  29.648  32.177  1.00  0.00     0.034 A 
ATOM     47  C   UNL A   1      44.135  24.362  28.943  1.00  0.00     0.049 A 
ATOM     48  C   UNL A   1      43.241  28.401  32.809  1.00  0.00     0.074 A 
ATOM     49  C   UNL A   1      45.264  25.150  28.798  1.00  0.00     0.029 A 
ATOM     50  N   UNL A   1      43.869  24.315  30.306  1.00  0.00    -0.354 N 
ATOM     51  N   UNL A   1      43.581  27.337  32.136  1.00  0.00    -0.248 NA
ATOM     52  C   UNL A   1      43.536  28.265  34.227  1.00  0.00     0.031 C 
ATOM     53  C   UNL A   1      45.620  25.641  30.090  1.00  0.00     0.029 A 
ATOM     54  C   UNL A   1      44.728  25.124  31.015  1.00  0.00     0.049 A 
ATOM     55  H   UNL A   1      43.156  23.771  30.713  1.00  0.00     0.167 HD
ATOM     56  C   UNL A   1      44.151  26.409  32.956  1.00  0.00     0.074 A 
ATOM     57  C   UNL A   1      44.107  27.047  34.262  1.00  0.00     0.031 C 
ATOM     58  C   UNL A   1      44.596  25.209  32.467  1.00  0.00     0.034 A 
BRANCH  45  59
ATOM     59  C   UNL A   1      43.589  22.785  26.947  1.00  0.00     0.023 A 
ATOM     60  C   UNL A   1      42.973  21.506  26.898  1.00  0.00     0.031 A 
ATOM     61  C   UNL A   1      44.627  22.972  26.019  1.00  0.00     0.131 A 
ATOM     62  C   UNL A   1      43.405  20.491  26.021  1.00  0.00     0.055 A 
ATOM     63  C   UNL A   1      45.036  21.972  25.115  1.00  0.00     0.041 A 
ATOM     64  F   UNL A   1      45.314  24.115  25.939  1.00  0.00    -0.206 F 
ATOM     65  C   UNL A   1      44.433  20.722  25.117  1.00  0.00     0.022 A 
BRANCH  62  66
ATOM     66  S   UNL A   1      42.638  18.845  26.113  1.00  0.00     0.124 S 
ATOM     67  O   UNL A   1      41.254  19.132  25.750  1.00  0.00    -0.237 OA
ATOM     68  O   UNL A   1      43.414  18.078  25.145  1.00  0.00    -0.237 OA
ATOM     69  O   UNL A   1      42.838  18.455  27.508  1.00  0.00    -0.744 OA
ENDBRANCH  62  66
ENDBRANCH  45  59
BRANCH  46  70
ATOM     70  C   UNL A   1      41.372  30.352  32.551  1.00  0.00     0.023 A 
ATOM     71  C   UNL A   1      41.189  31.649  32.004  1.00  0.00     0.031 A 
ATOM     72  C   UNL A   1      40.213  29.644  32.917  1.00  0.00     0.131 A 
ATOM     73  C   UNL A   1      39.904  32.110  31.665  1.00  0.00     0.055 A 
ATOM     74  C   UNL A   1      38.927  30.150  32.650  1.00  0.00     0.041 A 
ATOM     75  F   UNL A   1      40.297  28.395  33.398  1.00  0.00    -0.206 F 
ATOM     76  C   UNL A   1      38.769  31.367  31.985  1.00  0.00     0.022 A 
BRANCH  73  77
ATOM     77  S   UNL A   1      39.767  33.507  30.500  1.00  0.00     0.124 S 
ATOM     78  O   UNL A   1      39.290  34.579  31.365  1.00  0.00    -0.237 OA
ATOM     79  O   UNL A   1      41.139  33.635  30.012  1.00  0.00    -0.237 OA
ATOM     80  O   UNL A   1      38.814  33.025  29.503  1.00  0.00    -0.744 OA
ENDBRANCH  73  77
ENDBRANCH  46  70
BRANCH  58  81
ATOM     81  C   UNL A   1      44.969  23.997  33.293  1.00  0.00     0.023 A 
ATOM     82  C   UNL A   1      46.203  23.864  33.936  1.00  0.00     0.031 A 
ATOM     83  C   UNL A   1      44.041  22.951  33.545  1.00  0.00     0.131 A 
ATOM     84  C   UNL A   1      46.516  22.730  34.700  1.00  0.00     0.055 A 
ATOM     85  C   UNL A   1      44.322  21.863  34.376  1.00  0.00     0.041 A 
ATOM     86  F   UNL A   1      42.811  22.945  33.012  1.00  0.00    -0.206 F 
ATOM     87  C   UNL A   1      45.576  21.737  34.948  1.00  0.00     0.022 A 
BRANCH  84  88
ATOM     88  S   UNL A   1      48.214  22.572  35.302  1.00  0.00     0.124 S 
ATOM     89  O   UNL A   1      48.374  21.121  35.369  1.00  0.00    -0.237 OA
ATOM     90  O   UNL A   1      48.980  23.242  34.256  1.00  0.00    -0.237 OA
ATOM     91  O   UNL A   1      48.188  23.254  36.593  1.00  0.00    -0.744 OA
ENDBRANCH  84  88
ENDBRANCH  58  81
ENDBRANCH  32  33
ENDBRANCH  25  27
ENDBRANCH  24  25
ENDBRANCH   1  24
TORSDOF 18
ENDMDL
MODEL 3
REMARK VINA RESULT:     -12.2      3.718      9.474
REMARK SMILES Cc1ccccc1C[C@H](C[C@@H]1Cc2ccccc21)C(=O)OCCOC(=O)c1ccc(-c2c3nc(c(-c4cc(S(=O)(=O)[O-])ccc4F)c4ccc([nH]4)c(-c4cc(S(=O)(=O)[O-])ccc4F)c4nc(c(-c5cc(S(=O)(=O)[O-])ccc5F)c5ccc2[nH]5)C=C4)C=C3)cc1
REMARK SMILES IDX 23 1 22 2 21 3 19 4 20 5 9 6 8 7 7 8 1 9 2 10 3 11 4 12 6 13
REMARK SMILES IDX 5 14 10 15 11 16 12 17 18 18 13 19 17 20 14 21 16 22 15 23
REMARK SMILES IDX 24 24 25 25 26 26 27 27 28 28 89 29 29 30 88 31 30 32 31 33
REMARK SMILES IDX 32 34 82 35 33 36 87 37 81 38 83 39 34 40 86 41 80 42 79 43
REMARK SMILES IDX 35 45 67 46 47 47 66 48 48 49 51 50 65 51 84 52 49 53 50 54
REMARK SMILES IDX 64 56 85 57 52 58 36 59 37 60 45 61 38 62 44 63 46 64 43 65
REMARK SMILES IDX 39 66 40 67 41 68 42 69 68 70 69 71 77 72 70 73 76 74 78 75
REMARK SMILES IDX 75 76 71 77 72 78 73 79 74 80 53 81 54 82 62 83 55 84 61 85
REMARK SMILES IDX 63 86 60 87 56 88 57 89 58 90 59 91
REMARK H PARENT 83 44 51 55
REMARK Flexibility Score: inf
ROOT
ATOM      1  C   UNL A   1      32.893  29.729  26.067  1.00  0.00     0.275 C 
ENDROOT
BRANCH   1   2
ATOM      2  C   UNL A   1      31.909  28.616  26.491  1.00  0.00     0.274 C 
BRANCH   2   3
ATOM      3  O   UNL A   1      31.978  27.485  25.613  1.00  0.00    -0.462 OA
BRANCH   3   4
ATOM      4  C   UNL A   1      31.330  26.363  25.998  1.00  0.00     0.309 C 
ATOM      5  O   UNL A   1      30.218  26.355  26.500  1.00  0.00    -0.252 OA
BRANCH   4   6
ATOM      6  C   UNL A   1      32.228  25.157  25.763  1.00  0.00     0.104 C 
BRANCH   6   7
ATOM      7  C   UNL A   1      31.551  23.841  26.177  1.00  0.00     0.051 C 
BRANCH   7   8
ATOM      8  C   UNL A   1      32.206  22.578  25.670  1.00  0.00    -0.044 A 
ATOM      9  C   UNL A   1      33.632  22.126  27.790  1.00  0.00     0.044 C 
ATOM     10  C   UNL A   1      33.183  21.846  26.384  1.00  0.00    -0.048 A 
ATOM     11  C   UNL A   1      33.804  20.751  25.765  1.00  0.00     0.004 A 
ATOM     12  C   UNL A   1      33.496  20.396  24.456  1.00  0.00     0.000 A 
ATOM     13  C   UNL A   1      31.875  22.172  24.366  1.00  0.00     0.004 A 
ATOM     14  C   UNL A   1      32.528  21.105  23.758  1.00  0.00     0.000 A 
ENDBRANCH   7   8
ENDBRANCH   6   7
BRANCH   6  15
ATOM     15  C   UNL A   1      33.674  25.300  26.276  1.00  0.00     0.024 C 
BRANCH  15  16
ATOM     16  C   UNL A   1      34.675  25.378  25.117  1.00  0.00     0.025 C 
ATOM     17  C   UNL A   1      34.248  24.813  23.708  1.00  0.00     0.044 C 
ATOM     18  C   UNL A   1      35.687  24.259  25.130  1.00  0.00    -0.041 A 
ATOM     19  C   UNL A   1      35.320  23.781  23.898  1.00  0.00    -0.044 A 
ATOM     20  C   UNL A   1      36.681  23.669  25.875  1.00  0.00     0.004 A 
ATOM     21  C   UNL A   1      35.943  22.696  23.330  1.00  0.00     0.004 A 
ATOM     22  C   UNL A   1      37.326  22.561  25.334  1.00  0.00     0.000 A 
ATOM     23  C   UNL A   1      36.961  22.078  24.065  1.00  0.00     0.000 A 
ENDBRANCH  15  16
ENDBRANCH   6  15
ENDBRANCH   4   6
ENDBRANCH   3   4
ENDBRANCH   2   3
ENDBRANCH   1   2
BRANCH   1  24
ATOM     24  O   UNL A   1      34.196  29.671  26.708  1.00  0.00    -0.458 OA
BRANCH  24  25
ATOM     25  C   UNL A   1      34.608  30.708  27.510  1.00  0.00     0.338 C 
ATOM     26  O   UNL A   1      33.964  31.696  27.757  1.00  0.00    -0.246 OA
BRANCH  25  27
ATOM     27  C   UNL A   1      35.881  30.331  28.205  1.00  0.00     0.060 A 
ATOM     28  C   UNL A   1      35.954  29.933  29.556  1.00  0.00     0.016 A 
ATOM     29  C   UNL A   1      36.946  30.069  27.377  1.00  0.00     0.016 A 
ATOM     30  C   UNL A   1      37.070  29.190  30.026  1.00  0.00     0.010 A 
ATOM     31  C   UNL A   1      37.813  29.080  27.748  1.00  0.00     0.010 A 
ATOM     32  C   UNL A   1      38.001  28.725  29.099  1.00  0.00    -0.014 A 
BRANCH  32  33
ATOM     33  C   UNL A   1      39.322  28.090  29.296  1.00  0.00     0.031 A 
ATOM     34  C   UNL A   1      39.759  26.705  28.968  1.00  0.00     0.074 A 
ATOM     35  C   UNL A   1      40.283  29.043  29.450  1.00  0.00     0.049 A 
ATOM     36  N   UNL A   1      41.007  26.371  28.986  1.00  0.00    -0.248 NA
ATOM     37  C   UNL A   1      38.932  25.573  28.562  1.00  0.00     0.031 C 
ATOM     38  C   UNL A   1      41.683  29.066  29.047  1.00  0.00     0.029 A 
ATOM     39  N   UNL A   1      40.129  30.315  29.965  1.00  0.00    -0.354 N 
ATOM     40  C   UNL A   1      41.193  25.209  28.276  1.00  0.00     0.074 A 
ATOM     41  C   UNL A   1      39.852  24.704  28.101  1.00  0.00     0.031 C 
ATOM     42  C   UNL A   1      42.279  30.143  29.595  1.00  0.00     0.029 A 
ATOM     43  C   UNL A   1      41.319  30.757  30.496  1.00  0.00     0.049 A 
ATOM     44  H   UNL A   1      39.290  30.830  29.954  1.00  0.00     0.167 HD
ATOM     45  C   UNL A   1      42.466  24.929  27.853  1.00  0.00     0.034 A 
ATOM     46  C   UNL A   1      41.392  30.831  31.861  1.00  0.00     0.034 A 
ATOM     47  C   UNL A   1      43.438  25.793  28.543  1.00  0.00     0.049 A 
ATOM     48  C   UNL A   1      42.354  29.792  32.400  1.00  0.00     0.074 A 
ATOM     49  C   UNL A   1      44.307  26.800  28.160  1.00  0.00     0.029 A 
ATOM     50  N   UNL A   1      43.444  25.783  29.932  1.00  0.00    -0.354 N 
ATOM     51  N   UNL A   1      42.802  28.786  31.703  1.00  0.00    -0.248 NA
ATOM     52  C   UNL A   1      42.926  29.826  33.737  1.00  0.00     0.031 C 
ATOM     53  C   UNL A   1      44.770  27.447  29.345  1.00  0.00     0.029 A 
ATOM     54  C   UNL A   1      44.206  26.811  30.440  1.00  0.00     0.049 A 
ATOM     55  H   UNL A   1      42.963  25.124  30.484  1.00  0.00     0.167 HD
ATOM     56  C   UNL A   1      43.712  28.069  32.420  1.00  0.00     0.074 A 
ATOM     57  C   UNL A   1      43.761  28.771  33.693  1.00  0.00     0.031 C 
ATOM     58  C   UNL A   1      44.326  26.967  31.887  1.00  0.00     0.034 A 
BRANCH  45  59
ATOM     59  C   UNL A   1      42.916  23.997  26.734  1.00  0.00     0.023 A 
ATOM     60  C   UNL A   1      42.591  22.616  26.825  1.00  0.00     0.031 A 
ATOM     61  C   UNL A   1      43.718  24.338  25.630  1.00  0.00     0.131 A 
ATOM     62  C   UNL A   1      43.076  21.662  25.908  1.00  0.00     0.055 A 
ATOM     63  C   UNL A   1      44.172  23.392  24.692  1.00  0.00     0.041 A 
ATOM     64  F   UNL A   1      44.119  25.592  25.403  1.00  0.00    -0.206 F 
ATOM     65  C   UNL A   1      43.861  22.047  24.830  1.00  0.00     0.022 A 
BRANCH  62  66
ATOM     66  S   UNL A   1      42.708  19.902  26.174  1.00  0.00     0.124 S 
ATOM     67  O   UNL A   1      42.403  19.865  27.601  1.00  0.00    -0.237 OA
ATOM     68  O   UNL A   1      41.589  19.670  25.268  1.00  0.00    -0.237 OA
ATOM     69  O   UNL A   1      43.953  19.234  25.795  1.00  0.00    -0.744 OA
ENDBRANCH  62  66
ENDBRANCH  45  59
BRANCH  46  70
ATOM     70  C   UNL A   1      40.068  31.255  32.458  1.00  0.00     0.023 A 
ATOM     71  C   UNL A   1      39.439  32.373  31.851  1.00  0.00     0.031 A 
ATOM     72  C   UNL A   1      39.238  30.354  33.150  1.00  0.00     0.131 A 
ATOM     73  C   UNL A   1      38.037  32.458  31.781  1.00  0.00     0.055 A 
ATOM     74  C   UNL A   1      37.838  30.492  33.147  1.00  0.00     0.041 A 
ATOM     75  F   UNL A   1      39.748  29.248  33.713  1.00  0.00    -0.206 F 
ATOM     76  C   UNL A   1      37.230  31.522  32.426  1.00  0.00     0.022 A 
BRANCH  73  77
ATOM     77  S   UNL A   1      37.300  33.590  30.555  1.00  0.00     0.124 S 
ATOM     78  O   UNL A   1      37.813  33.055  29.300  1.00  0.00    -0.237 OA
ATOM     79  O   UNL A   1      35.869  33.413  30.795  1.00  0.00    -0.237 OA
ATOM     80  O   UNL A   1      37.819  34.899  30.946  1.00  0.00    -0.744 OA
ENDBRANCH  73  77
ENDBRANCH  46  70
BRANCH  58  81
ATOM     81  C   UNL A   1      45.115  25.929  32.657  1.00  0.00     0.023 A 
ATOM     82  C   UNL A   1      44.510  24.899  33.383  1.00  0.00     0.031 A 
ATOM     83  C   UNL A   1      46.533  25.884  32.610  1.00  0.00     0.131 A 
ATOM     84  C   UNL A   1      45.270  23.948  34.082  1.00  0.00     0.055 A 
ATOM     85  C   UNL A   1      47.288  24.887  33.234  1.00  0.00     0.041 A 
ATOM     86  F   UNL A   1      47.254  26.794  31.939  1.00  0.00    -0.206 F 
ATOM     87  C   UNL A   1      46.657  23.917  33.994  1.00  0.00     0.022 A 
BRANCH  84  88
ATOM     88  S   UNL A   1      44.382  22.798  35.158  1.00  0.00     0.124 S 
ATOM     89  O   UNL A   1      45.025  23.037  36.448  1.00  0.00    -0.237 OA
ATOM     90  O   UNL A   1      43.004  23.265  35.045  1.00  0.00    -0.237 OA
ATOM     91  O   UNL A   1      44.650  21.491  34.563  1.00  0.00    -0.744 OA
ENDBRANCH  84  88
ENDBRANCH  58  81
ENDBRANCH  32  33
ENDBRANCH  25  27
ENDBRANCH  24  25
ENDBRANCH   1  24
TORSDOF 18
ENDMDL
