MODEL 1
REMARK VINA RESULT:     -12.6      0.000      0.000
REMARK SMILES CN1C(=O)C[C@H](C(=O)OCCOC(=O)c2ccc(-c3c4nc(c(-c5cc(S(=O)(=O)[O-])ccc5F)c5ccc([nH]5)c(-c5cc(S(=O)(=O)[O-])ccc5F)c5nc(c(-c6cc(S(=O)(=O)[O-])ccc6F)c6ccc3[nH]6)C=C5)C=C4)cc2)C12CC[NH+](Cc1ccc(Cl)c(F)c1)CC2
REMARK SMILES IDX 11 1 10 2 9 3 7 4 8 5 6 6 1 7 2 8 3 9 78 10 4 11 5 12 79 13
REMARK SMILES IDX 92 14 80 15 91 16 81 17 82 19 83 20 84 21 90 22 85 23 88 24
REMARK SMILES IDX 86 25 89 26 87 27 12 28 13 29 14 30 15 31 16 32 77 33 17 34
REMARK SMILES IDX 76 35 18 36 19 37 20 38 70 39 21 40 75 41 69 42 71 43 22 44
REMARK SMILES IDX 74 45 68 46 67 47 23 49 55 50 35 51 54 52 36 53 39 54 53 55
REMARK SMILES IDX 72 56 37 57 38 58 52 60 73 61 40 62 24 63 25 64 33 65 26 66
REMARK SMILES IDX 32 67 34 68 31 69 27 70 28 71 29 72 30 73 56 74 57 75 65 76
REMARK SMILES IDX 58 77 64 78 66 79 63 80 59 81 60 82 61 83 62 84 41 85 42 86
REMARK SMILES IDX 50 87 43 88 49 89 51 90 48 91 44 92 45 93 46 94 47 95
REMARK H PARENT 81 18 71 48 39 59
REMARK Flexibility Score: inf
ROOT
ATOM      1  C   UNL A   1      34.960  20.648  24.984  1.00  0.00     0.275 C 
ENDROOT
BRANCH   1   2
ATOM      2  C   UNL A   1      34.440  21.791  24.108  1.00  0.00     0.274 C 
BRANCH   2   3
ATOM      3  O   UNL A   1      34.579  23.059  24.800  1.00  0.00    -0.462 OA
BRANCH   3   4
ATOM      4  C   UNL A   1      33.772  23.228  25.889  1.00  0.00     0.311 C 
ATOM      5  O   UNL A   1      34.204  23.459  27.011  1.00  0.00    -0.252 OA
BRANCH   4   6
ATOM      6  C   UNL A   1      32.269  23.121  25.517  1.00  0.00     0.134 C 
ATOM      7  C   UNL A   1      29.256  25.410  26.024  1.00  0.00     0.147 C 
ATOM      8  N   UNL A   1      30.250  24.360  25.887  1.00  0.00    -0.339 N 
ATOM      9  C   UNL A   1      30.302  23.386  26.874  1.00  0.00     0.223 C 
ATOM     10  C   UNL A   1      31.488  24.481  25.065  1.00  0.00     0.067 C 
ATOM     11  O   UNL A   1      29.473  23.184  27.751  1.00  0.00    -0.275 OA
ATOM     12  C   UNL A   1      31.575  22.622  26.779  1.00  0.00     0.118 C 
ATOM     13  C   UNL A   1      31.101  24.442  23.178  1.00  0.00     0.091 C 
ATOM     14  C   UNL A   1      32.432  25.860  25.717  1.00  0.00     0.091 C 
ATOM     15  C   UNL A   1      32.118  25.694  21.967  1.00  0.00     0.265 C 
ATOM     16  C   UNL A   1      33.690  26.636  24.814  1.00  0.00     0.265 C 
ATOM     17  N   UNL A   1      33.333  27.074  23.049  1.00  0.00    -0.331 N 
ATOM     18  H   UNL A   1      33.919  27.024  22.216  1.00  0.00     0.348 HD
BRANCH  17  19
ATOM     19  C   UNL A   1      33.056  28.611  23.589  1.00  0.00     0.299 C 
BRANCH  19  20
ATOM     20  C   UNL A   1      31.590  29.292  23.640  1.00  0.00     0.009 A 
ATOM     21  C   UNL A   1      31.143  30.235  24.609  1.00  0.00     0.011 A 
ATOM     22  C   UNL A   1      30.630  29.002  22.653  1.00  0.00     0.050 A 
ATOM     23  C   UNL A   1      29.907  30.895  24.582  1.00  0.00     0.024 A 
ATOM     24  C   UNL A   1      29.411  29.706  22.581  1.00  0.00     0.142 A 
ATOM     25  C   UNL A   1      29.051  30.657  23.531  1.00  0.00     0.076 A 
ATOM     26  F   UNL A   1      28.610  29.479  21.529  1.00  0.00    -0.205 F 
ATOM     27  Cl  UNL A   1      27.610  31.582  23.395  1.00  0.00    -0.081 Cl
ENDBRANCH  19  20
ENDBRANCH  17  19
ENDBRANCH   4   6
ENDBRANCH   3   4
ENDBRANCH   2   3
ENDBRANCH   1   2
BRANCH   1  28
ATOM     28  O   UNL A   1      36.084  21.128  25.738  1.00  0.00    -0.458 OA
BRANCH  28  29
ATOM     29  C   UNL A   1      37.271  20.571  25.412  1.00  0.00     0.338 C 
ATOM     30  O   UNL A   1      37.478  19.504  24.864  1.00  0.00    -0.246 OA
BRANCH  29  31
ATOM     31  C   UNL A   1      38.277  21.622  25.518  1.00  0.00     0.060 A 
ATOM     32  C   UNL A   1      39.870  21.083  26.043  1.00  0.00     0.016 A 
ATOM     33  C   UNL A   1      37.930  23.271  25.546  1.00  0.00     0.016 A 
ATOM     34  C   UNL A   1      41.256  22.412  26.514  1.00  0.00     0.010 A 
ATOM     35  C   UNL A   1      39.065  24.477  26.020  1.00  0.00     0.010 A 
ATOM     36  C   UNL A   1      40.716  24.187  26.530  1.00  0.00    -0.014 A 
BRANCH  36  37
ATOM     37  C   UNL A   1      41.383  25.554  27.005  1.00  0.00     0.031 A 
ATOM     38  C   UNL A   1      42.795  25.962  26.542  1.00  0.00     0.074 A 
ATOM     39  C   UNL A   1      41.016  26.298  28.096  1.00  0.00     0.049 A 
ATOM     40  N   UNL A   1      43.474  27.053  26.833  1.00  0.00    -0.248 NA
ATOM     41  C   UNL A   1      43.585  24.987  25.781  1.00  0.00     0.031 C 
ATOM     42  C   UNL A   1      40.090  25.940  29.153  1.00  0.00     0.029 A 
ATOM     43  N   UNL A   1      41.213  27.643  28.385  1.00  0.00    -0.354 N 
ATOM     44  C   UNL A   1      44.772  26.864  26.361  1.00  0.00     0.074 A 
ATOM     45  C   UNL A   1      44.782  25.556  25.742  1.00  0.00     0.031 C 
ATOM     46  C   UNL A   1      39.458  27.022  29.609  1.00  0.00     0.029 A 
ATOM     47  C   UNL A   1      40.199  28.183  29.175  1.00  0.00     0.049 A 
ATOM     48  H   UNL A   1      41.989  28.159  28.066  1.00  0.00     0.167 HD
ATOM     49  C   UNL A   1      45.864  27.671  26.469  1.00  0.00     0.034 A 
ATOM     50  C   UNL A   1      39.915  29.435  29.598  1.00  0.00     0.034 A 
ATOM     51  C   UNL A   1      45.869  28.953  27.141  1.00  0.00     0.049 A 
ATOM     52  C   UNL A   1      41.043  30.417  29.510  1.00  0.00     0.074 A 
ATOM     53  C   UNL A   1      46.910  29.862  27.257  1.00  0.00     0.029 A 
ATOM     54  N   UNL A   1      44.797  29.504  27.834  1.00  0.00    -0.354 N 
ATOM     55  N   UNL A   1      42.225  30.244  28.974  1.00  0.00    -0.248 NA
ATOM     56  C   UNL A   1      40.864  31.702  30.194  1.00  0.00     0.031 C 
ATOM     57  C   UNL A   1      46.490  30.926  28.064  1.00  0.00     0.029 A 
ATOM     58  C   UNL A   1      45.156  30.733  28.376  1.00  0.00     0.049 A 
ATOM     59  H   UNL A   1      43.912  29.084  27.928  1.00  0.00     0.167 HD
ATOM     60  C   UNL A   1      42.955  31.371  29.314  1.00  0.00     0.074 A 
ATOM     61  C   UNL A   1      42.054  32.258  30.021  1.00  0.00     0.031 C 
ATOM     62  C   UNL A   1      44.270  31.615  29.100  1.00  0.00     0.034 A 
BRANCH  49  63
ATOM     63  C   UNL A   1      47.171  27.168  25.878  1.00  0.00     0.023 A 
ATOM     64  C   UNL A   1      48.072  26.399  26.635  1.00  0.00     0.031 A 
ATOM     65  C   UNL A   1      47.532  27.470  24.550  1.00  0.00     0.131 A 
ATOM     66  C   UNL A   1      49.317  26.037  26.095  1.00  0.00     0.055 A 
ATOM     67  C   UNL A   1      48.732  27.025  23.987  1.00  0.00     0.041 A 
ATOM     68  F   UNL A   1      46.729  28.216  23.775  1.00  0.00    -0.206 F 
ATOM     69  C   UNL A   1      49.643  26.319  24.767  1.00  0.00     0.022 A 
BRANCH  66  70
ATOM     70  S   UNL A   1      50.569  25.345  27.211  1.00  0.00     0.124 S 
ATOM     71  O   UNL A   1      49.814  24.284  27.874  1.00  0.00    -0.237 OA
ATOM     72  O   UNL A   1      51.608  24.907  26.286  1.00  0.00    -0.237 OA
ATOM     73  O   UNL A   1      50.928  26.474  28.067  1.00  0.00    -0.744 OA
ENDBRANCH  66  70
ENDBRANCH  49  63
BRANCH  50  74
ATOM     74  C   UNL A   1      38.612  29.817  30.253  1.00  0.00     0.023 A 
ATOM     75  C   UNL A   1      37.607  30.461  29.503  1.00  0.00     0.031 A 
ATOM     76  C   UNL A   1      38.337  29.604  31.617  1.00  0.00     0.131 A 
ATOM     77  C   UNL A   1      36.401  30.856  30.114  1.00  0.00     0.055 A 
ATOM     78  C   UNL A   1      37.090  29.878  32.186  1.00  0.00     0.041 A 
ATOM     79  F   UNL A   1      39.284  29.134  32.444  1.00  0.00    -0.206 F 
ATOM     80  C   UNL A   1      36.114  30.518  31.436  1.00  0.00     0.022 A 
BRANCH  77  81
ATOM     81  S   UNL A   1      35.281  31.973  29.218  1.00  0.00     0.124 S 
ATOM     82  O   UNL A   1      34.592  31.043  28.330  1.00  0.00    -0.237 OA
ATOM     83  O   UNL A   1      34.483  32.540  30.297  1.00  0.00    -0.237 OA
ATOM     84  O   UNL A   1      36.190  32.906  28.555  1.00  0.00    -0.744 OA
ENDBRANCH  77  81
ENDBRANCH  50  74
BRANCH  62  85
ATOM     85  C   UNL A   1      44.794  32.932  29.605  1.00  0.00     0.023 A 
ATOM     86  C   UNL A   1      44.755  34.098  28.817  1.00  0.00     0.031 A 
ATOM     87  C   UNL A   1      45.400  33.004  30.870  1.00  0.00     0.131 A 
ATOM     88  C   UNL A   1      45.375  35.268  29.277  1.00  0.00     0.055 A 
ATOM     89  C   UNL A   1      45.954  34.190  31.350  1.00  0.00     0.041 A 
ATOM     90  F   UNL A   1      45.476  31.916  31.653  1.00  0.00    -0.206 F 
ATOM     91  C   UNL A   1      45.958  35.326  30.545  1.00  0.00     0.022 A 
BRANCH  88  92
ATOM     92  S   UNL A   1      45.524  36.678  28.145  1.00  0.00     0.124 S 
ATOM     93  O   UNL A   1      46.818  37.235  28.524  1.00  0.00    -0.237 OA
ATOM     94  O   UNL A   1      45.464  36.036  26.835  1.00  0.00    -0.237 OA
ATOM     95  O   UNL A   1      44.369  37.510  28.480  1.00  0.00    -0.744 OA
ENDBRANCH  88  92
ENDBRANCH  62  85
ENDBRANCH  36  37
ENDBRANCH  29  31
ENDBRANCH  28  29
ENDBRANCH   1  28
TORSDOF 16
ENDMDL
MODEL 2
REMARK VINA RESULT:     -12.5      1.545      7.408
REMARK SMILES CN1C(=O)C[C@H](C(=O)OCCOC(=O)c2ccc(-c3c4nc(c(-c5cc(S(=O)(=O)[O-])ccc5F)c5ccc([nH]5)c(-c5cc(S(=O)(=O)[O-])ccc5F)c5nc(c(-c6cc(S(=O)(=O)[O-])ccc6F)c6ccc3[nH]6)C=C5)C=C4)cc2)C12CC[NH+](Cc1ccc(Cl)c(F)c1)CC2
REMARK SMILES IDX 11 1 10 2 9 3 7 4 8 5 6 6 1 7 2 8 3 9 78 10 4 11 5 12 79 13
REMARK SMILES IDX 92 14 80 15 91 16 81 17 82 19 83 20 84 21 90 22 85 23 88 24
REMARK SMILES IDX 86 25 89 26 87 27 12 28 13 29 14 30 15 31 16 32 77 33 17 34
REMARK SMILES IDX 76 35 18 36 19 37 20 38 70 39 21 40 75 41 69 42 71 43 22 44
REMARK SMILES IDX 74 45 68 46 67 47 23 49 55 50 35 51 54 52 36 53 39 54 53 55
REMARK SMILES IDX 72 56 37 57 38 58 52 60 73 61 40 62 24 63 25 64 33 65 26 66
REMARK SMILES IDX 32 67 34 68 31 69 27 70 28 71 29 72 30 73 56 74 57 75 65 76
REMARK SMILES IDX 58 77 64 78 66 79 63 80 59 81 60 82 61 83 62 84 41 85 42 86
REMARK SMILES IDX 50 87 43 88 49 89 51 90 48 91 44 92 45 93 46 94 47 95
REMARK H PARENT 81 18 71 48 39 59
REMARK Flexibility Score: inf
ROOT
ATOM      1  C   UNL A   1      35.135  20.656  24.932  1.00  0.00     0.275 C 
ENDROOT
BRANCH   1   2
ATOM      2  C   UNL A   1      34.534  21.862  24.204  1.00  0.00     0.274 C 
BRANCH   2   3
ATOM      3  O   UNL A   1      34.693  23.063  25.003  1.00  0.00    -0.462 OA
BRANCH   3   4
ATOM      4  C   UNL A   1      33.827  23.193  26.052  1.00  0.00     0.311 C 
ATOM      5  O   UNL A   1      34.197  23.383  27.203  1.00  0.00    -0.252 OA
BRANCH   4   6
ATOM      6  C   UNL A   1      32.347  23.099  25.594  1.00  0.00     0.134 C 
ATOM      7  C   UNL A   1      29.386  25.505  25.733  1.00  0.00     0.147 C 
ATOM      8  N   UNL A   1      30.351  24.419  25.740  1.00  0.00    -0.339 N 
ATOM      9  C   UNL A   1      30.312  23.525  26.800  1.00  0.00     0.223 C 
ATOM     10  C   UNL A   1      31.641  24.441  24.992  1.00  0.00     0.067 C 
ATOM     11  O   UNL A   1      29.424  23.415  27.635  1.00  0.00    -0.275 OA
ATOM     12  C   UNL A   1      31.562  22.720  26.844  1.00  0.00     0.118 C 
ATOM     13  C   UNL A   1      31.368  24.265  23.092  1.00  0.00     0.091 C 
ATOM     14  C   UNL A   1      32.589  25.840  25.594  1.00  0.00     0.091 C 
ATOM     15  C   UNL A   1      32.498  25.390  21.856  1.00  0.00     0.265 C 
ATOM     16  C   UNL A   1      33.924  26.507  24.716  1.00  0.00     0.265 C 
ATOM     17  N   UNL A   1      33.690  26.815  22.904  1.00  0.00    -0.331 N 
ATOM     18  H   UNL A   1      34.324  26.683  22.116  1.00  0.00     0.348 HD
BRANCH  17  19
ATOM     19  C   UNL A   1      33.431  28.397  23.306  1.00  0.00     0.299 C 
BRANCH  19  20
ATOM     20  C   UNL A   1      31.961  29.056  23.450  1.00  0.00     0.009 A 
ATOM     21  C   UNL A   1      31.470  29.754  24.590  1.00  0.00     0.011 A 
ATOM     22  C   UNL A   1      31.046  29.006  22.383  1.00  0.00     0.050 A 
ATOM     23  C   UNL A   1      30.234  30.409  24.663  1.00  0.00     0.024 A 
ATOM     24  C   UNL A   1      29.827  29.715  22.423  1.00  0.00     0.142 A 
ATOM     25  C   UNL A   1      29.424  30.424  23.550  1.00  0.00     0.076 A 
ATOM     26  F   UNL A   1      29.073  29.739  21.315  1.00  0.00    -0.205 F 
ATOM     27  Cl  UNL A   1      27.986  31.363  23.569  1.00  0.00    -0.081 Cl
ENDBRANCH  19  20
ENDBRANCH  17  19
ENDBRANCH   4   6
ENDBRANCH   3   4
ENDBRANCH   2   3
ENDBRANCH   1   2
BRANCH   1  28
ATOM     28  O   UNL A   1      36.238  21.111  25.731  1.00  0.00    -0.458 OA
BRANCH  28  29
ATOM     29  C   UNL A   1      37.419  20.507  25.474  1.00  0.00     0.338 C 
ATOM     30  O   UNL A   1      37.613  19.429  24.940  1.00  0.00    -0.246 OA
BRANCH  29  31
ATOM     31  C   UNL A   1      38.457  21.517  25.633  1.00  0.00     0.060 A 
ATOM     32  C   UNL A   1      39.919  20.966  26.447  1.00  0.00     0.016 A 
ATOM     33  C   UNL A   1      38.208  23.174  25.449  1.00  0.00     0.016 A 
ATOM     34  C   UNL A   1      41.296  22.274  26.997  1.00  0.00     0.010 A 
ATOM     35  C   UNL A   1      39.329  24.371  25.976  1.00  0.00     0.010 A 
ATOM     36  C   UNL A   1      40.865  24.063  26.761  1.00  0.00    -0.014 A 
BRANCH  36  37
ATOM     37  C   UNL A   1      41.534  25.441  27.200  1.00  0.00     0.031 A 
ATOM     38  C   UNL A   1      40.844  26.384  28.206  1.00  0.00     0.074 A 
ATOM     39  C   UNL A   1      42.515  26.118  26.522  1.00  0.00     0.049 A 
ATOM     40  N   UNL A   1      41.268  27.540  28.674  1.00  0.00    -0.248 NA
ATOM     41  C   UNL A   1      39.476  26.064  28.631  1.00  0.00     0.031 C 
ATOM     42  C   UNL A   1      43.032  25.851  25.194  1.00  0.00     0.029 A 
ATOM     43  N   UNL A   1      43.438  27.060  26.963  1.00  0.00    -0.354 N 
ATOM     44  C   UNL A   1      40.206  28.108  29.377  1.00  0.00     0.074 A 
ATOM     45  C   UNL A   1      39.119  27.158  29.291  1.00  0.00     0.031 C 
ATOM     46  C   UNL A   1      44.324  26.173  25.121  1.00  0.00     0.029 A 
ATOM     47  C   UNL A   1      44.633  27.026  26.244  1.00  0.00     0.049 A 
ATOM     48  H   UNL A   1      43.265  27.685  27.704  1.00  0.00     0.167 HD
ATOM     49  C   UNL A   1      40.120  29.321  29.993  1.00  0.00     0.034 A 
ATOM     50  C   UNL A   1      45.820  27.656  26.383  1.00  0.00     0.034 A 
ATOM     51  C   UNL A   1      41.187  30.298  30.026  1.00  0.00     0.049 A 
ATOM     52  C   UNL A   1      45.806  28.875  27.255  1.00  0.00     0.074 A 
ATOM     53  C   UNL A   1      41.211  31.528  30.668  1.00  0.00     0.029 A 
ATOM     54  N   UNL A   1      42.410  30.179  29.376  1.00  0.00    -0.354 N 
ATOM     55  N   UNL A   1      44.820  29.337  27.982  1.00  0.00    -0.248 NA
ATOM     56  C   UNL A   1      46.996  29.731  27.223  1.00  0.00     0.031 C 
ATOM     57  C   UNL A   1      42.413  32.173  30.358  1.00  0.00     0.029 A 
ATOM     58  C   UNL A   1      43.186  31.310  29.602  1.00  0.00     0.049 A 
ATOM     59  H   UNL A   1      42.685  29.405  28.833  1.00  0.00     0.167 HD
ATOM     60  C   UNL A   1      45.245  30.572  28.442  1.00  0.00     0.074 A 
ATOM     61  C   UNL A   1      46.611  30.742  27.987  1.00  0.00     0.031 C 
ATOM     62  C   UNL A   1      44.540  31.498  29.135  1.00  0.00     0.034 A 
BRANCH  49  63
ATOM     63  C   UNL A   1      38.799  29.681  30.652  1.00  0.00     0.023 A 
ATOM     64  C   UNL A   1      37.845  30.482  29.999  1.00  0.00     0.031 A 
ATOM     65  C   UNL A   1      38.490  29.236  31.953  1.00  0.00     0.131 A 
ATOM     66  C   UNL A   1      36.680  30.883  30.673  1.00  0.00     0.055 A 
ATOM     67  C   UNL A   1      37.285  29.560  32.582  1.00  0.00     0.041 A 
ATOM     68  F   UNL A   1      39.361  28.484  32.644  1.00  0.00    -0.206 F 
ATOM     69  C   UNL A   1      36.378  30.405  31.949  1.00  0.00     0.022 A 
BRANCH  66  70
ATOM     70  S   UNL A   1      35.654  32.175  29.920  1.00  0.00     0.124 S 
ATOM     71  O   UNL A   1      34.563  32.280  30.886  1.00  0.00    -0.237 OA
ATOM     72  O   UNL A   1      36.568  33.310  29.862  1.00  0.00    -0.237 OA
ATOM     73  O   UNL A   1      35.279  31.606  28.626  1.00  0.00    -0.744 OA
ENDBRANCH  66  70
ENDBRANCH  49  63
BRANCH  50  74
ATOM     74  C   UNL A   1      47.060  27.274  25.616  1.00  0.00     0.023 A 
ATOM     75  C   UNL A   1      47.258  27.760  24.307  1.00  0.00     0.031 A 
ATOM     76  C   UNL A   1      48.047  26.405  26.117  1.00  0.00     0.131 A 
ATOM     77  C   UNL A   1      48.394  27.379  23.567  1.00  0.00     0.055 A 
ATOM     78  C   UNL A   1      49.234  26.136  25.431  1.00  0.00     0.041 A 
ATOM     79  F   UNL A   1      47.877  25.776  27.291  1.00  0.00    -0.206 F 
ATOM     80  C   UNL A   1      49.410  26.617  24.141  1.00  0.00     0.022 A 
BRANCH  77  81
ATOM     81  S   UNL A   1      48.450  27.741  21.786  1.00  0.00     0.124 S 
ATOM     82  O   UNL A   1      48.700  26.416  21.228  1.00  0.00    -0.237 OA
ATOM     83  O   UNL A   1      47.127  28.301  21.543  1.00  0.00    -0.237 OA
ATOM     84  O   UNL A   1      49.561  28.684  21.666  1.00  0.00    -0.744 OA
ENDBRANCH  77  81
ENDBRANCH  50  74
BRANCH  62  85
ATOM     85  C   UNL A   1      45.269  32.768  29.482  1.00  0.00     0.023 A 
ATOM     86  C   UNL A   1      45.270  33.881  28.622  1.00  0.00     0.031 A 
ATOM     87  C   UNL A   1      46.027  32.838  30.662  1.00  0.00     0.131 A 
ATOM     88  C   UNL A   1      46.072  34.991  28.923  1.00  0.00     0.055 A 
ATOM     89  C   UNL A   1      46.767  33.973  30.990  1.00  0.00     0.041 A 
ATOM     90  F   UNL A   1      46.071  31.796  31.509  1.00  0.00    -0.206 F 
ATOM     91  C   UNL A   1      46.806  35.051  30.111  1.00  0.00     0.022 A 
BRANCH  88  92
ATOM     92  S   UNL A   1      46.245  36.304  27.683  1.00  0.00     0.124 S 
ATOM     93  O   UNL A   1      47.656  36.199  27.327  1.00  0.00    -0.237 OA
ATOM     94  O   UNL A   1      45.295  35.891  26.654  1.00  0.00    -0.237 OA
ATOM     95  O   UNL A   1      45.879  37.516  28.414  1.00  0.00    -0.744 OA
ENDBRANCH  88  92
ENDBRANCH  62  85
ENDBRANCH  36  37
ENDBRANCH  29  31
ENDBRANCH  28  29
ENDBRANCH   1  28
TORSDOF 16
ENDMDL
MODEL 3
REMARK VINA RESULT:     -11.7      1.177      7.708
REMARK SMILES CN1C(=O)C[C@H](C(=O)OCCOC(=O)c2ccc(-c3c4nc(c(-c5cc(S(=O)(=O)[O-])ccc5F)c5ccc([nH]5)c(-c5cc(S(=O)(=O)[O-])ccc5F)c5nc(c(-c6cc(S(=O)(=O)[O-])ccc6F)c6ccc3[nH]6)C=C5)C=C4)cc2)C12CC[NH+](Cc1ccc(Cl)c(F)c1)CC2
REMARK SMILES IDX 11 1 10 2 9 3 7 4 8 5 6 6 1 7 2 8 3 9 78 10 4 11 5 12 79 13
REMARK SMILES IDX 92 14 80 15 91 16 81 17 82 19 83 20 84 21 90 22 85 23 88 24
REMARK SMILES IDX 86 25 89 26 87 27 12 28 13 29 14 30 15 31 16 32 77 33 17 34
REMARK SMILES IDX 76 35 18 36 19 37 20 38 70 39 21 40 75 41 69 42 71 43 22 44
REMARK SMILES IDX 74 45 68 46 67 47 23 49 55 50 35 51 54 52 36 53 39 54 53 55
REMARK SMILES IDX 72 56 37 57 38 58 52 60 73 61 40 62 24 63 25 64 33 65 26 66
REMARK SMILES IDX 32 67 34 68 31 69 27 70 28 71 29 72 30 73 56 74 57 75 65 76
REMARK SMILES IDX 58 77 64 78 66 79 63 80 59 81 60 82 61 83 62 84 41 85 42 86
REMARK SMILES IDX 50 87 43 88 49 89 51 90 48 91 44 92 45 93 46 94 47 95
REMARK H PARENT 81 18 71 48 39 59
REMARK Flexibility Score: inf
ROOT
ATOM      1  C   UNL A   1      35.309  20.695  25.059  1.00  0.00     0.275 C 
ENDROOT
BRANCH   1   2
ATOM      2  C   UNL A   1      34.663  21.929  24.422  1.00  0.00     0.274 C 
BRANCH   2   3
ATOM      3  O   UNL A   1      33.255  21.995  24.764  1.00  0.00    -0.462 OA
BRANCH   3   4
ATOM      4  C   UNL A   1      32.414  22.327  23.740  1.00  0.00     0.311 C 
ATOM      5  O   UNL A   1      32.684  22.128  22.563  1.00  0.00    -0.252 OA
BRANCH   4   6
ATOM      6  C   UNL A   1      31.089  22.947  24.259  1.00  0.00     0.134 C 
ATOM      7  C   UNL A   1      30.269  25.662  26.815  1.00  0.00     0.147 C 
ATOM      8  N   UNL A   1      30.391  24.512  25.936  1.00  0.00    -0.339 N 
ATOM      9  C   UNL A   1      30.282  23.250  26.503  1.00  0.00     0.223 C 
ATOM     10  C   UNL A   1      31.068  24.541  24.608  1.00  0.00     0.067 C 
ATOM     11  O   UNL A   1      29.888  22.983  27.630  1.00  0.00    -0.275 OA
ATOM     12  C   UNL A   1      30.784  22.215  25.560  1.00  0.00     0.118 C 
ATOM     13  C   UNL A   1      30.033  25.505  23.299  1.00  0.00     0.091 C 
ATOM     14  C   UNL A   1      32.771  25.032  24.883  1.00  0.00     0.091 C 
ATOM     15  C   UNL A   1      31.008  26.713  22.011  1.00  0.00     0.265 C 
ATOM     16  C   UNL A   1      33.786  25.626  23.611  1.00  0.00     0.265 C 
ATOM     17  N   UNL A   1      33.079  26.912  22.481  1.00  0.00    -0.331 N 
ATOM     18  H   UNL A   1      33.171  27.040  21.473  1.00  0.00     0.348 HD
BRANCH  17  19
ATOM     19  C   UNL A   1      33.912  28.020  23.381  1.00  0.00     0.299 C 
BRANCH  19  20
ATOM     20  C   UNL A   1      33.221  28.977  24.487  1.00  0.00     0.009 A 
ATOM     21  C   UNL A   1      33.835  29.444  25.684  1.00  0.00     0.011 A 
ATOM     22  C   UNL A   1      31.912  29.458  24.301  1.00  0.00     0.050 A 
ATOM     23  C   UNL A   1      33.261  30.355  26.581  1.00  0.00     0.024 A 
ATOM     24  C   UNL A   1      31.352  30.423  25.163  1.00  0.00     0.142 A 
ATOM     25  C   UNL A   1      32.023  30.882  26.292  1.00  0.00     0.076 A 
ATOM     26  F   UNL A   1      30.158  30.943  24.840  1.00  0.00    -0.205 F 
ATOM     27  Cl  UNL A   1      31.384  32.123  27.292  1.00  0.00    -0.081 Cl
ENDBRANCH  19  20
ENDBRANCH  17  19
ENDBRANCH   4   6
ENDBRANCH   3   4
ENDBRANCH   2   3
ENDBRANCH   1   2
BRANCH   1  28
ATOM     28  O   UNL A   1      36.439  21.124  25.835  1.00  0.00    -0.458 OA
BRANCH  28  29
ATOM     29  C   UNL A   1      37.615  20.553  25.495  1.00  0.00     0.338 C 
ATOM     30  O   UNL A   1      37.801  19.506  24.900  1.00  0.00    -0.246 OA
BRANCH  29  31
ATOM     31  C   UNL A   1      38.645  21.573  25.657  1.00  0.00     0.060 A 
ATOM     32  C   UNL A   1      40.100  21.040  26.495  1.00  0.00     0.016 A 
ATOM     33  C   UNL A   1      38.386  23.225  25.452  1.00  0.00     0.016 A 
ATOM     34  C   UNL A   1      41.459  22.364  27.050  1.00  0.00     0.010 A 
ATOM     35  C   UNL A   1      39.492  24.436  25.980  1.00  0.00     0.010 A 
ATOM     36  C   UNL A   1      41.020  24.147  26.789  1.00  0.00    -0.014 A 
BRANCH  36  37
ATOM     37  C   UNL A   1      41.673  25.535  27.222  1.00  0.00     0.031 A 
ATOM     38  C   UNL A   1      40.923  26.525  28.133  1.00  0.00     0.074 A 
ATOM     39  C   UNL A   1      42.713  26.171  26.594  1.00  0.00     0.049 A 
ATOM     40  N   UNL A   1      41.327  27.696  28.585  1.00  0.00    -0.248 NA
ATOM     41  C   UNL A   1      39.523  26.240  28.465  1.00  0.00     0.031 C 
ATOM     42  C   UNL A   1      43.325  25.844  25.321  1.00  0.00     0.029 A 
ATOM     43  N   UNL A   1      43.613  27.120  27.066  1.00  0.00    -0.354 N 
ATOM     44  C   UNL A   1      40.223  28.304  29.182  1.00  0.00     0.074 A 
ATOM     45  C   UNL A   1      39.132  27.363  29.052  1.00  0.00     0.031 C 
ATOM     46  C   UNL A   1      44.623  26.148  25.334  1.00  0.00     0.029 A 
ATOM     47  C   UNL A   1      44.858  27.043  26.442  1.00  0.00     0.049 A 
ATOM     48  H   UNL A   1      43.393  27.777  27.766  1.00  0.00     0.167 HD
ATOM     49  C   UNL A   1      40.108  29.542  29.740  1.00  0.00     0.034 A 
ATOM     50  C   UNL A   1      46.041  27.665  26.646  1.00  0.00     0.034 A 
ATOM     51  C   UNL A   1      41.183  30.508  29.815  1.00  0.00     0.049 A 
ATOM     52  C   UNL A   1      45.979  28.918  27.464  1.00  0.00     0.074 A 
ATOM     53  C   UNL A   1      41.177  31.762  30.407  1.00  0.00     0.029 A 
ATOM     54  N   UNL A   1      42.450  30.348  29.266  1.00  0.00    -0.354 N 
ATOM     55  N   UNL A   1      44.947  29.421  28.095  1.00  0.00    -0.248 NA
ATOM     56  C   UNL A   1      47.180  29.759  27.489  1.00  0.00     0.031 C 
ATOM     57  C   UNL A   1      42.409  32.380  30.164  1.00  0.00     0.029 A 
ATOM     58  C   UNL A   1      43.224  31.478  29.504  1.00  0.00     0.049 A 
ATOM     59  H   UNL A   1      42.755  29.549  28.777  1.00  0.00     0.167 HD
ATOM     60  C   UNL A   1      45.354  30.669  28.536  1.00  0.00     0.074 A 
ATOM     61  C   UNL A   1      46.752  30.805  28.180  1.00  0.00     0.031 C 
ATOM     62  C   UNL A   1      44.612  31.631  29.136  1.00  0.00     0.034 A 
BRANCH  49  63
ATOM     63  C   UNL A   1      38.746  29.944  30.282  1.00  0.00     0.023 A 
ATOM     64  C   UNL A   1      37.869  30.752  29.538  1.00  0.00     0.031 A 
ATOM     65  C   UNL A   1      38.321  29.532  31.560  1.00  0.00     0.131 A 
ATOM     66  C   UNL A   1      36.662  31.192  30.106  1.00  0.00     0.055 A 
ATOM     67  C   UNL A   1      37.076  29.895  32.082  1.00  0.00     0.041 A 
ATOM     68  F   UNL A   1      39.115  28.774  32.334  1.00  0.00    -0.206 F 
ATOM     69  C   UNL A   1      36.245  30.747  31.361  1.00  0.00     0.022 A 
BRANCH  66  70
ATOM     70  S   UNL A   1      35.732  32.492  29.248  1.00  0.00     0.124 S 
ATOM     71  O   UNL A   1      36.410  33.696  29.720  1.00  0.00    -0.237 OA
ATOM     72  O   UNL A   1      35.936  32.152  27.845  1.00  0.00    -0.237 OA
ATOM     73  O   UNL A   1      34.367  32.320  29.741  1.00  0.00    -0.744 OA
ENDBRANCH  66  70
ENDBRANCH  49  63
BRANCH  50  74
ATOM     74  C   UNL A   1      47.329  27.237  25.991  1.00  0.00     0.023 A 
ATOM     75  C   UNL A   1      48.245  26.428  26.696  1.00  0.00     0.031 A 
ATOM     76  C   UNL A   1      47.713  27.635  24.697  1.00  0.00     0.131 A 
ATOM     77  C   UNL A   1      49.468  26.055  26.108  1.00  0.00     0.055 A 
ATOM     78  C   UNL A   1      48.865  27.154  24.071  1.00  0.00     0.041 A 
ATOM     79  F   UNL A   1      46.980  28.523  24.005  1.00  0.00    -0.206 F 
ATOM     80  C   UNL A   1      49.759  26.364  24.780  1.00  0.00     0.022 A 
BRANCH  77  81
ATOM     81  S   UNL A   1      50.758  25.309  27.150  1.00  0.00     0.124 S 
ATOM     82  O   UNL A   1      49.998  24.292  27.871  1.00  0.00    -0.237 OA
ATOM     83  O   UNL A   1      51.708  24.817  26.160  1.00  0.00    -0.237 OA
ATOM     84  O   UNL A   1      51.226  26.428  27.965  1.00  0.00    -0.744 OA
ENDBRANCH  77  81
ENDBRANCH  50  74
BRANCH  62  85
ATOM     85  C   UNL A   1      45.331  32.906  29.486  1.00  0.00     0.023 A 
ATOM     86  C   UNL A   1      45.467  33.958  28.562  1.00  0.00     0.031 A 
ATOM     87  C   UNL A   1      45.944  33.040  30.742  1.00  0.00     0.131 A 
ATOM     88  C   UNL A   1      46.259  35.069  28.886  1.00  0.00     0.055 A 
ATOM     89  C   UNL A   1      46.673  34.178  31.083  1.00  0.00     0.041 A 
ATOM     90  F   UNL A   1      45.856  32.056  31.653  1.00  0.00    -0.206 F 
ATOM     91  C   UNL A   1      46.847  35.193  30.147  1.00  0.00     0.022 A 
BRANCH  88  92
ATOM     92  S   UNL A   1      46.617  36.291  27.593  1.00  0.00     0.124 S 
ATOM     93  O   UNL A   1      45.565  36.018  26.620  1.00  0.00    -0.237 OA
ATOM     94  O   UNL A   1      46.506  37.554  28.317  1.00  0.00    -0.237 OA
ATOM     95  O   UNL A   1      47.969  35.943  27.158  1.00  0.00    -0.744 OA
ENDBRANCH  88  92
ENDBRANCH  62  85
ENDBRANCH  36  37
ENDBRANCH  29  31
ENDBRANCH  28  29
ENDBRANCH   1  28
TORSDOF 16
ENDMDL
