MODEL 1
REMARK VINA RESULT:     -12.2      0.000      0.000
REMARK SMILES O=C(OCCOC(=O)c1nc(/N=C/c2cccc([N+](=O)[O-])c2)n[nH]1)c1ccc(-c2c3nc(c(-c4cc(S(=O)(=O)[O-])ccc4F)c4ccc([nH]4)c(-c4cc(S(=O)(=O)[O-])ccc4F)c4nc(c(-c5cc(S(=O)(=O)[O-])ccc5F)c5ccc2[nH]5)C=C4)C=C3)cc1
REMARK SMILES IDX 4 1 3 2 2 3 1 4 25 5 26 6 87 7 27 8 86 9 28 10 29 11 30 12
REMARK SMILES IDX 80 13 31 14 85 15 79 16 81 17 32 18 84 19 78 20 77 21 33 23
REMARK SMILES IDX 65 24 45 25 64 26 46 27 49 28 63 29 82 30 47 31 48 32 62 34
REMARK SMILES IDX 83 35 50 36 34 37 35 38 43 39 36 40 42 41 44 42 41 43 37 44
REMARK SMILES IDX 38 45 39 46 40 47 66 48 67 49 75 50 68 51 74 52 76 53 73 54
REMARK SMILES IDX 69 55 70 56 71 57 72 58 51 59 52 60 60 61 53 62 59 63 61 64
REMARK SMILES IDX 58 65 54 66 55 67 56 68 57 69 5 70 6 71 7 72 8 73 9 74 10 75
REMARK SMILES IDX 24 76 11 77 23 78 12 80 13 81 14 82 15 83 22 84 16 85 18 86
REMARK SMILES IDX 17 87 19 88 20 89 21 90
REMARK H PARENT 81 22 49 33 24 79
REMARK Flexibility Score: inf
ROOT
ATOM      1  C   UNL A   1      32.418  29.862  27.205  1.00  0.00     0.275 C 
ENDROOT
BRANCH   1   2
ATOM      2  O   UNL A   1      33.837  30.067  27.254  1.00  0.00    -0.458 OA
BRANCH   2   3
ATOM      3  C   UNL A   1      34.542  30.930  28.021  1.00  0.00     0.338 C 
ATOM      4  O   UNL A   1      34.139  32.093  28.090  1.00  0.00    -0.246 OA
BRANCH   3   5
ATOM      5  C   UNL A   1      35.865  30.621  28.661  1.00  0.00     0.060 A 
ATOM      6  C   UNL A   1      36.096  29.652  29.639  1.00  0.00     0.016 A 
ATOM      7  C   UNL A   1      36.988  31.232  28.078  1.00  0.00     0.016 A 
ATOM      8  C   UNL A   1      37.371  29.200  29.936  1.00  0.00     0.010 A 
ATOM      9  C   UNL A   1      38.276  30.766  28.355  1.00  0.00     0.010 A 
ATOM     10  C   UNL A   1      38.466  29.714  29.266  1.00  0.00    -0.014 A 
BRANCH  10  11
ATOM     11  C   UNL A   1      39.807  29.307  29.720  1.00  0.00     0.031 A 
ATOM     12  C   UNL A   1      40.324  28.031  29.165  1.00  0.00     0.074 A 
ATOM     13  C   UNL A   1      40.641  30.116  30.402  1.00  0.00     0.049 A 
ATOM     14  N   UNL A   1      41.378  27.351  29.504  1.00  0.00    -0.248 NA
ATOM     15  C   UNL A   1      39.583  27.493  28.011  1.00  0.00     0.031 C 
ATOM     16  C   UNL A   1      40.418  31.536  30.674  1.00  0.00     0.029 A 
ATOM     17  N   UNL A   1      41.840  29.847  31.034  1.00  0.00    -0.354 N 
ATOM     18  C   UNL A   1      41.463  26.338  28.565  1.00  0.00     0.074 A 
ATOM     19  C   UNL A   1      40.299  26.425  27.716  1.00  0.00     0.031 C 
ATOM     20  C   UNL A   1      41.368  31.973  31.515  1.00  0.00     0.029 A 
ATOM     21  C   UNL A   1      42.134  30.830  31.964  1.00  0.00     0.049 A 
ATOM     22  H   UNL A   1      42.406  29.064  30.849  1.00  0.00     0.167 HD
ATOM     23  C   UNL A   1      42.472  25.456  28.404  1.00  0.00     0.034 A 
ATOM     24  C   UNL A   1      42.721  30.677  33.171  1.00  0.00     0.034 A 
ATOM     25  C   UNL A   1      43.579  25.387  29.316  1.00  0.00     0.049 A 
ATOM     26  C   UNL A   1      43.712  29.487  33.226  1.00  0.00     0.074 A 
ATOM     27  C   UNL A   1      44.637  24.503  29.323  1.00  0.00     0.029 A 
ATOM     28  N   UNL A   1      43.738  26.221  30.418  1.00  0.00    -0.354 N 
ATOM     29  N   UNL A   1      43.722  28.400  32.476  1.00  0.00    -0.248 NA
ATOM     30  C   UNL A   1      44.823  29.529  34.187  1.00  0.00     0.031 C 
ATOM     31  C   UNL A   1      45.362  24.722  30.498  1.00  0.00     0.029 A 
ATOM     32  C   UNL A   1      44.847  25.839  31.145  1.00  0.00     0.049 A 
ATOM     33  H   UNL A   1      43.145  26.974  30.646  1.00  0.00     0.167 HD
ATOM     34  C   UNL A   1      44.843  27.658  32.857  1.00  0.00     0.074 A 
ATOM     35  C   UNL A   1      45.454  28.384  33.948  1.00  0.00     0.031 C 
ATOM     36  C   UNL A   1      45.366  26.525  32.311  1.00  0.00     0.034 A 
BRANCH  23  37
ATOM     37  C   UNL A   1      42.314  24.465  27.288  1.00  0.00     0.023 A 
ATOM     38  C   UNL A   1      41.591  23.268  27.458  1.00  0.00     0.031 A 
ATOM     39  C   UNL A   1      43.041  24.639  26.101  1.00  0.00     0.131 A 
ATOM     40  C   UNL A   1      41.731  22.239  26.519  1.00  0.00     0.055 A 
ATOM     41  C   UNL A   1      43.074  23.657  25.114  1.00  0.00     0.041 A 
ATOM     42  F   UNL A   1      43.783  25.741  25.909  1.00  0.00    -0.206 F 
ATOM     43  C   UNL A   1      42.441  22.437  25.332  1.00  0.00     0.022 A 
BRANCH  40  44
ATOM     44  S   UNL A   1      41.203  20.566  26.991  1.00  0.00     0.124 S 
ATOM     45  O   UNL A   1      40.091  20.336  26.070  1.00  0.00    -0.237 OA
ATOM     46  O   UNL A   1      42.402  19.773  26.750  1.00  0.00    -0.237 OA
ATOM     47  O   UNL A   1      40.819  20.712  28.393  1.00  0.00    -0.744 OA
ENDBRANCH  40  44
ENDBRANCH  23  37
BRANCH  24  48
ATOM     48  C   UNL A   1      42.389  31.622  34.481  1.00  0.00     0.023 A 
ATOM     49  C   UNL A   1      40.711  31.077  34.932  1.00  0.00     0.031 A 
ATOM     50  C   UNL A   1      43.032  33.330  35.384  1.00  0.00     0.131 A 
ATOM     51  C   UNL A   1      39.767  32.070  36.049  1.00  0.00     0.055 A 
ATOM     52  C   UNL A   1      41.944  34.206  36.511  1.00  0.00     0.041 A 
ATOM     53  F   UNL A   1      44.163  34.092  35.249  1.00  0.00    -0.206 F 
ATOM     54  C   UNL A   1      40.357  33.559  36.800  1.00  0.00     0.022 A 
BRANCH  51  55
ATOM     55  S   UNL A   1      38.174  31.458  36.622  1.00  0.00     0.124 S 
ATOM     56  O   UNL A   1      38.136  31.972  37.983  1.00  0.00    -0.237 OA
ATOM     57  O   UNL A   1      37.259  32.069  35.665  1.00  0.00    -0.237 OA
ATOM     58  O   UNL A   1      38.327  30.010  36.491  1.00  0.00    -0.744 OA
ENDBRANCH  51  55
ENDBRANCH  24  48
BRANCH  36  59
ATOM     59  C   UNL A   1      46.673  25.994  32.862  1.00  0.00     0.023 A 
ATOM     60  C   UNL A   1      46.744  24.946  33.794  1.00  0.00     0.031 A 
ATOM     61  C   UNL A   1      47.882  26.496  32.335  1.00  0.00     0.131 A 
ATOM     62  C   UNL A   1      48.000  24.437  34.171  1.00  0.00     0.055 A 
ATOM     63  C   UNL A   1      49.118  25.942  32.662  1.00  0.00     0.041 A 
ATOM     64  F   UNL A   1      47.872  27.505  31.450  1.00  0.00    -0.206 F 
ATOM     65  C   UNL A   1      49.182  24.908  33.587  1.00  0.00     0.022 A 
BRANCH  62  66
ATOM     66  S   UNL A   1      48.101  23.191  35.489  1.00  0.00     0.124 S 
ATOM     67  O   UNL A   1      47.364  23.837  36.570  1.00  0.00    -0.237 OA
ATOM     68  O   UNL A   1      47.461  22.032  34.878  1.00  0.00    -0.237 OA
ATOM     69  O   UNL A   1      49.538  23.052  35.721  1.00  0.00    -0.744 OA
ENDBRANCH  62  66
ENDBRANCH  36  59
ENDBRANCH  10  11
ENDBRANCH   3   5
ENDBRANCH   2   3
ENDBRANCH   1   2
BRANCH   1  70
ATOM     70  C   UNL A   1      31.773  30.305  25.870  1.00  0.00     0.275 C 
BRANCH  70  71
ATOM     71  O   UNL A   1      32.358  29.727  24.678  1.00  0.00    -0.456 OA
BRANCH  71  72
ATOM     72  C   UNL A   1      31.541  28.976  23.876  1.00  0.00     0.376 C 
ATOM     73  O   UNL A   1      30.361  29.244  23.671  1.00  0.00    -0.242 OA
BRANCH  72  74
ATOM     74  C   UNL A   1      32.292  27.969  23.154  1.00  0.00     0.237 A 
ATOM     75  N   UNL A   1      32.418  26.676  23.408  1.00  0.00    -0.184 NA
ATOM     76  N   UNL A   1      33.106  28.276  22.099  1.00  0.00    -0.251 N 
ATOM     77  C   UNL A   1      33.322  26.237  22.452  1.00  0.00     0.268 A 
ATOM     78  N   UNL A   1      33.750  27.197  21.628  1.00  0.00    -0.132 NA
ATOM     79  H   UNL A   1      33.209  29.182  21.729  1.00  0.00     0.192 HD
BRANCH  77  80
ATOM     80  N   UNL A   1      33.856  24.940  22.311  1.00  0.00    -0.218 NA
ATOM     81  C   UNL A   1      33.963  24.360  23.460  1.00  0.00     0.123 C 
BRANCH  81  82
ATOM     82  C   UNL A   1      34.519  23.008  23.738  1.00  0.00    -0.000 A 
ATOM     83  C   UNL A   1      36.261  23.100  23.900  1.00  0.00     0.010 A 
ATOM     84  C   UNL A   1      33.570  21.537  24.077  1.00  0.00     0.095 A 
ATOM     85  C   UNL A   1      37.142  21.672  24.480  1.00  0.00     0.008 A 
ATOM     86  C   UNL A   1      34.316  20.040  24.680  1.00  0.00     0.270 A 
ATOM     87  C   UNL A   1      36.111  19.990  24.918  1.00  0.00     0.085 A 
BRANCH  86  88
ATOM     88  N   UNL A   1      33.506  18.890  24.998  1.00  0.00     0.062 N 
ATOM     89  O   UNL A   1      33.950  17.785  24.668  1.00  0.00    -0.258 OA
ATOM     90  O   UNL A   1      32.443  19.098  25.591  1.00  0.00    -0.258 OA
ENDBRANCH  86  88
ENDBRANCH  81  82
ENDBRANCH  77  80
ENDBRANCH  72  74
ENDBRANCH  71  72
ENDBRANCH  70  71
ENDBRANCH   1  70
TORSDOF 17
ENDMDL
MODEL 2
REMARK VINA RESULT:     -12.0      4.803     10.279
REMARK SMILES O=C(OCCOC(=O)c1nc(/N=C/c2cccc([N+](=O)[O-])c2)n[nH]1)c1ccc(-c2c3nc(c(-c4cc(S(=O)(=O)[O-])ccc4F)c4ccc([nH]4)c(-c4cc(S(=O)(=O)[O-])ccc4F)c4nc(c(-c5cc(S(=O)(=O)[O-])ccc5F)c5ccc2[nH]5)C=C4)C=C3)cc1
REMARK SMILES IDX 4 1 3 2 2 3 1 4 25 5 26 6 87 7 27 8 86 9 28 10 29 11 30 12
REMARK SMILES IDX 80 13 31 14 85 15 79 16 81 17 32 18 84 19 78 20 77 21 33 23
REMARK SMILES IDX 65 24 45 25 64 26 46 27 49 28 63 29 82 30 47 31 48 32 62 34
REMARK SMILES IDX 83 35 50 36 34 37 35 38 43 39 36 40 42 41 44 42 41 43 37 44
REMARK SMILES IDX 38 45 39 46 40 47 66 48 67 49 75 50 68 51 74 52 76 53 73 54
REMARK SMILES IDX 69 55 70 56 71 57 72 58 51 59 52 60 60 61 53 62 59 63 61 64
REMARK SMILES IDX 58 65 54 66 55 67 56 68 57 69 5 70 6 71 7 72 8 73 9 74 10 75
REMARK SMILES IDX 24 76 11 77 23 78 12 80 13 81 14 82 15 83 22 84 16 85 18 86
REMARK SMILES IDX 17 87 19 88 20 89 21 90
REMARK H PARENT 81 22 49 33 24 79
REMARK Flexibility Score: inf
ROOT
ATOM      1  C   UNL A   1      38.904  21.196  25.923  1.00  0.00     0.275 C 
ENDROOT
BRANCH   1   2
ATOM      2  O   UNL A   1      39.938  20.207  26.025  1.00  0.00    -0.458 OA
BRANCH   2   3
ATOM      3  C   UNL A   1      41.275  20.388  26.119  1.00  0.00     0.338 C 
ATOM      4  O   UNL A   1      41.998  19.401  25.960  1.00  0.00    -0.246 OA
BRANCH   3   5
ATOM      5  C   UNL A   1      41.937  21.661  26.564  1.00  0.00     0.060 A 
ATOM      6  C   UNL A   1      42.318  22.719  25.737  1.00  0.00     0.016 A 
ATOM      7  C   UNL A   1      41.994  21.872  27.952  1.00  0.00     0.016 A 
ATOM      8  C   UNL A   1      42.610  23.975  26.241  1.00  0.00     0.010 A 
ATOM      9  C   UNL A   1      42.266  23.141  28.468  1.00  0.00     0.010 A 
ATOM     10  C   UNL A   1      42.539  24.212  27.602  1.00  0.00    -0.014 A 
BRANCH  10  11
ATOM     11  C   UNL A   1      43.000  25.520  28.099  1.00  0.00     0.031 A 
ATOM     12  C   UNL A   1      41.936  26.494  28.454  1.00  0.00     0.074 A 
ATOM     13  C   UNL A   1      44.275  25.779  28.450  1.00  0.00     0.049 A 
ATOM     14  N   UNL A   1      42.039  27.754  28.752  1.00  0.00    -0.248 NA
ATOM     15  C   UNL A   1      40.576  25.939  28.561  1.00  0.00     0.031 C 
ATOM     16  C   UNL A   1      45.353  24.794  28.528  1.00  0.00     0.029 A 
ATOM     17  N   UNL A   1      44.897  26.970  28.771  1.00  0.00    -0.354 N 
ATOM     18  C   UNL A   1      40.766  28.130  29.143  1.00  0.00     0.074 A 
ATOM     19  C   UNL A   1      39.890  27.001  28.938  1.00  0.00     0.031 C 
ATOM     20  C   UNL A   1      46.513  25.434  28.743  1.00  0.00     0.029 A 
ATOM     21  C   UNL A   1      46.270  26.856  28.636  1.00  0.00     0.049 A 
ATOM     22  H   UNL A   1      44.428  27.787  29.055  1.00  0.00     0.167 HD
ATOM     23  C   UNL A   1      40.392  29.309  29.686  1.00  0.00     0.034 A 
ATOM     24  C   UNL A   1      47.137  27.790  28.187  1.00  0.00     0.034 A 
ATOM     25  C   UNL A   1      41.301  30.412  29.815  1.00  0.00     0.049 A 
ATOM     26  C   UNL A   1      46.684  29.242  28.484  1.00  0.00     0.074 A 
ATOM     27  C   UNL A   1      41.050  31.686  30.279  1.00  0.00     0.029 A 
ATOM     28  N   UNL A   1      42.637  30.375  29.430  1.00  0.00    -0.354 N 
ATOM     29  N   UNL A   1      45.457  29.689  28.676  1.00  0.00    -0.248 NA
ATOM     30  C   UNL A   1      47.703  30.294  28.616  1.00  0.00     0.031 C 
ATOM     31  C   UNL A   1      42.199  32.450  30.054  1.00  0.00     0.029 A 
ATOM     32  C   UNL A   1      43.213  31.618  29.594  1.00  0.00     0.049 A 
ATOM     33  H   UNL A   1      43.104  29.576  29.090  1.00  0.00     0.167 HD
ATOM     34  C   UNL A   1      45.565  31.050  28.975  1.00  0.00     0.074 A 
ATOM     35  C   UNL A   1      46.971  31.372  28.876  1.00  0.00     0.031 C 
ATOM     36  C   UNL A   1      44.609  31.936  29.368  1.00  0.00     0.034 A 
BRANCH  23  37
ATOM     37  C   UNL A   1      38.939  29.445  30.035  1.00  0.00     0.023 A 
ATOM     38  C   UNL A   1      38.036  30.121  29.192  1.00  0.00     0.031 A 
ATOM     39  C   UNL A   1      38.494  29.050  31.306  1.00  0.00     0.131 A 
ATOM     40  C   UNL A   1      36.783  30.502  29.689  1.00  0.00     0.055 A 
ATOM     41  C   UNL A   1      37.201  29.326  31.745  1.00  0.00     0.041 A 
ATOM     42  F   UNL A   1      39.328  28.444  32.165  1.00  0.00    -0.206 F 
ATOM     43  C   UNL A   1      36.347  30.082  30.947  1.00  0.00     0.022 A 
BRANCH  40  44
ATOM     44  S   UNL A   1      35.849  31.770  28.782  1.00  0.00     0.124 S 
ATOM     45  O   UNL A   1      34.867  32.186  29.783  1.00  0.00    -0.237 OA
ATOM     46  O   UNL A   1      36.877  32.750  28.455  1.00  0.00    -0.237 OA
ATOM     47  O   UNL A   1      35.295  31.039  27.645  1.00  0.00    -0.744 OA
ENDBRANCH  40  44
ENDBRANCH  23  37
BRANCH  24  48
ATOM     48  C   UNL A   1      48.519  27.439  27.359  1.00  0.00     0.023 A 
ATOM     49  C   UNL A   1      48.014  27.721  25.633  1.00  0.00     0.031 A 
ATOM     50  C   UNL A   1      50.293  26.472  27.610  1.00  0.00     0.131 A 
ATOM     51  C   UNL A   1      49.044  27.105  24.335  1.00  0.00     0.055 A 
ATOM     52  C   UNL A   1      51.223  25.929  26.175  1.00  0.00     0.041 A 
ATOM     53  F   UNL A   1      50.959  26.007  28.715  1.00  0.00    -0.206 F 
ATOM     54  C   UNL A   1      50.572  26.253  24.596  1.00  0.00     0.022 A 
BRANCH  51  55
ATOM     55  S   UNL A   1      48.634  27.516  22.631  1.00  0.00     0.124 S 
ATOM     56  O   UNL A   1      49.705  28.441  22.288  1.00  0.00    -0.237 OA
ATOM     57  O   UNL A   1      48.671  26.207  21.992  1.00  0.00    -0.237 OA
ATOM     58  O   UNL A   1      47.302  28.104  22.760  1.00  0.00    -0.744 OA
ENDBRANCH  51  55
ENDBRANCH  24  48
BRANCH  36  59
ATOM     59  C   UNL A   1      45.034  33.340  29.742  1.00  0.00     0.023 A 
ATOM     60  C   UNL A   1      45.031  34.410  28.832  1.00  0.00     0.031 A 
ATOM     61  C   UNL A   1      45.342  33.617  31.091  1.00  0.00     0.131 A 
ATOM     62  C   UNL A   1      45.334  35.707  29.287  1.00  0.00     0.055 A 
ATOM     63  C   UNL A   1      45.576  34.913  31.545  1.00  0.00     0.041 A 
ATOM     64  F   UNL A   1      45.371  32.629  31.999  1.00  0.00    -0.206 F 
ATOM     65  C   UNL A   1      45.574  35.967  30.641  1.00  0.00     0.022 A 
BRANCH  62  66
ATOM     66  S   UNL A   1      45.483  37.062  28.086  1.00  0.00     0.124 S 
ATOM     67  O   UNL A   1      46.641  37.789  28.595  1.00  0.00    -0.237 OA
ATOM     68  O   UNL A   1      45.672  36.350  26.828  1.00  0.00    -0.237 OA
ATOM     69  O   UNL A   1      44.209  37.770  28.208  1.00  0.00    -0.744 OA
ENDBRANCH  62  66
ENDBRANCH  36  59
ENDBRANCH  10  11
ENDBRANCH   3   5
ENDBRANCH   2   3
ENDBRANCH   1   2
BRANCH   1  70
ATOM     70  C   UNL A   1      37.685  20.735  25.088  1.00  0.00     0.275 C 
BRANCH  70  71
ATOM     71  O   UNL A   1      36.391  21.083  25.637  1.00  0.00    -0.456 OA
BRANCH  71  72
ATOM     72  C   UNL A   1      35.284  20.569  25.016  1.00  0.00     0.376 C 
ATOM     73  O   UNL A   1      35.177  19.392  24.689  1.00  0.00    -0.242 OA
BRANCH  72  74
ATOM     74  C   UNL A   1      34.201  21.532  24.988  1.00  0.00     0.237 A 
ATOM     75  N   UNL A   1      34.062  22.614  24.239  1.00  0.00    -0.184 NA
ATOM     76  N   UNL A   1      33.159  21.490  25.873  1.00  0.00    -0.251 N 
ATOM     77  C   UNL A   1      32.891  23.192  24.708  1.00  0.00     0.268 A 
ATOM     78  N   UNL A   1      32.310  22.515  25.701  1.00  0.00    -0.132 NA
ATOM     79  H   UNL A   1      33.044  20.790  26.556  1.00  0.00     0.192 HD
BRANCH  77  80
ATOM     80  N   UNL A   1      32.312  24.408  24.293  1.00  0.00    -0.218 NA
ATOM     81  C   UNL A   1      32.377  25.292  25.231  1.00  0.00     0.123 C 
BRANCH  81  82
ATOM     82  C   UNL A   1      31.842  26.681  25.201  1.00  0.00    -0.000 A 
ATOM     83  C   UNL A   1      32.607  27.644  26.449  1.00  0.00     0.010 A 
ATOM     84  C   UNL A   1      30.750  27.354  23.962  1.00  0.00     0.095 A 
ATOM     85  C   UNL A   1      32.331  29.397  26.466  1.00  0.00     0.008 A 
ATOM     86  C   UNL A   1      30.397  29.093  23.848  1.00  0.00     0.270 A 
ATOM     87  C   UNL A   1      31.135  30.219  25.060  1.00  0.00     0.085 A 
BRANCH  86  88
ATOM     88  N   UNL A   1      29.555  29.605  22.795  1.00  0.00     0.062 N 
ATOM     89  O   UNL A   1      28.411  29.948  23.111  1.00  0.00    -0.258 OA
ATOM     90  O   UNL A   1      30.050  29.679  21.666  1.00  0.00    -0.258 OA
ENDBRANCH  86  88
ENDBRANCH  81  82
ENDBRANCH  77  80
ENDBRANCH  72  74
ENDBRANCH  71  72
ENDBRANCH  70  71
ENDBRANCH   1  70
TORSDOF 17
ENDMDL
MODEL 3
REMARK VINA RESULT:     -11.7      6.855     11.319
REMARK SMILES O=C(OCCOC(=O)c1nc(/N=C/c2cccc([N+](=O)[O-])c2)n[nH]1)c1ccc(-c2c3nc(c(-c4cc(S(=O)(=O)[O-])ccc4F)c4ccc([nH]4)c(-c4cc(S(=O)(=O)[O-])ccc4F)c4nc(c(-c5cc(S(=O)(=O)[O-])ccc5F)c5ccc2[nH]5)C=C4)C=C3)cc1
REMARK SMILES IDX 4 1 3 2 2 3 1 4 25 5 26 6 87 7 27 8 86 9 28 10 29 11 30 12
REMARK SMILES IDX 80 13 31 14 85 15 79 16 81 17 32 18 84 19 78 20 77 21 33 23
REMARK SMILES IDX 65 24 45 25 64 26 46 27 49 28 63 29 82 30 47 31 48 32 62 34
REMARK SMILES IDX 83 35 50 36 34 37 35 38 43 39 36 40 42 41 44 42 41 43 37 44
REMARK SMILES IDX 38 45 39 46 40 47 66 48 67 49 75 50 68 51 74 52 76 53 73 54
REMARK SMILES IDX 69 55 70 56 71 57 72 58 51 59 52 60 60 61 53 62 59 63 61 64
REMARK SMILES IDX 58 65 54 66 55 67 56 68 57 69 5 70 6 71 7 72 8 73 9 74 10 75
REMARK SMILES IDX 24 76 11 77 23 78 12 80 13 81 14 82 15 83 22 84 16 85 18 86
REMARK SMILES IDX 17 87 19 88 20 89 21 90
REMARK H PARENT 81 22 49 33 24 79
REMARK Flexibility Score: inf
ROOT
ATOM      1  C   UNL A   1      43.127  19.185  25.749  1.00  0.00     0.275 C 
ENDROOT
BRANCH   1   2
ATOM      2  O   UNL A   1      43.819  19.692  24.599  1.00  0.00    -0.458 OA
BRANCH   2   3
ATOM      3  C   UNL A   1      45.116  20.061  24.487  1.00  0.00     0.338 C 
ATOM      4  O   UNL A   1      45.926  19.201  24.131  1.00  0.00    -0.246 OA
BRANCH   3   5
ATOM      5  C   UNL A   1      45.668  21.389  24.920  1.00  0.00     0.060 A 
ATOM      6  C   UNL A   1      46.092  22.415  24.075  1.00  0.00     0.016 A 
ATOM      7  C   UNL A   1      45.560  21.682  26.290  1.00  0.00     0.016 A 
ATOM      8  C   UNL A   1      46.271  23.711  24.528  1.00  0.00     0.010 A 
ATOM      9  C   UNL A   1      45.716  22.992  26.752  1.00  0.00     0.010 A 
ATOM     10  C   UNL A   1      46.038  24.023  25.855  1.00  0.00    -0.014 A 
BRANCH  10  11
ATOM     11  C   UNL A   1      46.383  25.379  26.316  1.00  0.00     0.031 A 
ATOM     12  C   UNL A   1      45.241  26.303  26.535  1.00  0.00     0.074 A 
ATOM     13  C   UNL A   1      47.609  25.731  26.751  1.00  0.00     0.049 A 
ATOM     14  N   UNL A   1      45.249  27.580  26.772  1.00  0.00    -0.248 NA
ATOM     15  C   UNL A   1      43.911  25.674  26.566  1.00  0.00     0.031 C 
ATOM     16  C   UNL A   1      48.732  24.818  26.964  1.00  0.00     0.029 A 
ATOM     17  N   UNL A   1      48.135  26.971  27.055  1.00  0.00    -0.354 N 
ATOM     18  C   UNL A   1      43.929  27.897  27.043  1.00  0.00     0.074 A 
ATOM     19  C   UNL A   1      43.138  26.708  26.831  1.00  0.00     0.031 C 
ATOM     20  C   UNL A   1      49.832  25.536  27.234  1.00  0.00     0.029 A 
ATOM     21  C   UNL A   1      49.519  26.935  27.034  1.00  0.00     0.049 A 
ATOM     22  H   UNL A   1      47.600  27.772  27.258  1.00  0.00     0.167 HD
ATOM     23  C   UNL A   1      43.447  29.076  27.492  1.00  0.00     0.034 A 
ATOM     24  C   UNL A   1      50.366  27.896  26.604  1.00  0.00     0.034 A 
ATOM     25  C   UNL A   1      44.279  30.237  27.632  1.00  0.00     0.049 A 
ATOM     26  C   UNL A   1      49.809  29.330  26.787  1.00  0.00     0.074 A 
ATOM     27  C   UNL A   1      43.920  31.515  28.006  1.00  0.00     0.029 A 
ATOM     28  N   UNL A   1      45.642  30.262  27.355  1.00  0.00    -0.354 N 
ATOM     29  N   UNL A   1      48.547  29.711  26.860  1.00  0.00    -0.248 NA
ATOM     30  C   UNL A   1      50.753  30.447  26.941  1.00  0.00     0.031 C 
ATOM     31  C   UNL A   1      45.039  32.335  27.831  1.00  0.00     0.029 A 
ATOM     32  C   UNL A   1      46.131  31.544  27.496  1.00  0.00     0.049 A 
ATOM     33  H   UNL A   1      46.179  29.477  27.095  1.00  0.00     0.167 HD
ATOM     34  C   UNL A   1      48.554  31.089  27.092  1.00  0.00     0.074 A 
ATOM     35  C   UNL A   1      49.943  31.491  27.086  1.00  0.00     0.031 C 
ATOM     36  C   UNL A   1      47.521  31.934  27.363  1.00  0.00     0.034 A 
BRANCH  23  37
ATOM     37  C   UNL A   1      41.965  29.142  27.720  1.00  0.00     0.023 A 
ATOM     38  C   UNL A   1      41.413  29.100  29.014  1.00  0.00     0.031 A 
ATOM     39  C   UNL A   1      41.094  29.067  26.622  1.00  0.00     0.131 A 
ATOM     40  C   UNL A   1      40.045  28.844  29.172  1.00  0.00     0.055 A 
ATOM     41  C   UNL A   1      39.717  28.936  26.791  1.00  0.00     0.041 A 
ATOM     42  F   UNL A   1      41.572  29.057  25.368  1.00  0.00    -0.206 F 
ATOM     43  C   UNL A   1      39.188  28.794  28.070  1.00  0.00     0.022 A 
BRANCH  40  44
ATOM     44  S   UNL A   1      39.453  28.313  30.806  1.00  0.00     0.124 S 
ATOM     45  O   UNL A   1      38.643  29.459  31.214  1.00  0.00    -0.237 OA
ATOM     46  O   UNL A   1      38.718  27.093  30.497  1.00  0.00    -0.237 OA
ATOM     47  O   UNL A   1      40.683  28.127  31.571  1.00  0.00    -0.744 OA
ENDBRANCH  40  44
ENDBRANCH  23  37
BRANCH  24  48
ATOM     48  C   UNL A   1      51.827  27.589  25.905  1.00  0.00     0.023 A 
ATOM     49  C   UNL A   1      51.673  28.439  24.303  1.00  0.00     0.031 A 
ATOM     50  C   UNL A   1      53.413  26.323  26.081  1.00  0.00     0.131 A 
ATOM     51  C   UNL A   1      52.846  28.074  23.032  1.00  0.00     0.055 A 
ATOM     52  C   UNL A   1      54.520  26.085  24.690  1.00  0.00     0.041 A 
ATOM     53  F   UNL A   1      53.815  25.458  27.064  1.00  0.00    -0.206 F 
ATOM     54  C   UNL A   1      54.201  26.953  23.219  1.00  0.00     0.022 A 
BRANCH  51  55
ATOM     55  S   UNL A   1      52.795  29.025  21.504  1.00  0.00     0.124 S 
ATOM     56  O   UNL A   1      51.776  30.018  21.811  1.00  0.00    -0.237 OA
ATOM     57  O   UNL A   1      54.168  29.504  21.405  1.00  0.00    -0.237 OA
ATOM     58  O   UNL A   1      52.421  28.014  20.515  1.00  0.00    -0.744 OA
ENDBRANCH  51  55
ENDBRANCH  24  48
BRANCH  36  59
ATOM     59  C   UNL A   1      47.836  33.378  27.693  1.00  0.00     0.023 A 
ATOM     60  C   UNL A   1      47.928  34.385  26.719  1.00  0.00     0.031 A 
ATOM     61  C   UNL A   1      47.931  33.756  29.049  1.00  0.00     0.131 A 
ATOM     62  C   UNL A   1      48.113  35.722  27.119  1.00  0.00     0.055 A 
ATOM     63  C   UNL A   1      48.047  35.089  29.439  1.00  0.00     0.041 A 
ATOM     64  F   UNL A   1      47.861  32.832  30.020  1.00  0.00    -0.206 F 
ATOM     65  C   UNL A   1      48.141  36.081  28.471  1.00  0.00     0.022 A 
BRANCH  62  66
ATOM     66  S   UNL A   1      48.387  37.001  25.859  1.00  0.00     0.124 S 
ATOM     67  O   UNL A   1      49.080  36.253  24.816  1.00  0.00    -0.237 OA
ATOM     68  O   UNL A   1      47.030  37.434  25.545  1.00  0.00    -0.237 OA
ATOM     69  O   UNL A   1      49.206  37.995  26.551  1.00  0.00    -0.744 OA
ENDBRANCH  62  66
ENDBRANCH  36  59
ENDBRANCH  10  11
ENDBRANCH   3   5
ENDBRANCH   2   3
ENDBRANCH   1   2
BRANCH   1  70
ATOM     70  C   UNL A   1      41.759  19.865  25.999  1.00  0.00     0.275 C 
BRANCH  70  71
ATOM     71  O   UNL A   1      41.815  21.124  26.713  1.00  0.00    -0.456 OA
BRANCH  71  72
ATOM     72  C   UNL A   1      41.753  22.272  25.969  1.00  0.00     0.376 C 
ATOM     73  O   UNL A   1      42.555  22.549  25.083  1.00  0.00    -0.242 OA
BRANCH  72  74
ATOM     74  C   UNL A   1      40.524  22.998  26.222  1.00  0.00     0.237 A 
ATOM     75  N   UNL A   1      39.280  22.549  26.263  1.00  0.00    -0.184 NA
ATOM     76  N   UNL A   1      40.490  24.358  26.358  1.00  0.00    -0.251 N 
ATOM     77  C   UNL A   1      38.520  23.695  26.446  1.00  0.00     0.268 A 
ATOM     78  N   UNL A   1      39.240  24.817  26.522  1.00  0.00    -0.132 NA
ATOM     79  H   UNL A   1      41.289  24.933  26.339  1.00  0.00     0.192 HD
BRANCH  77  80
ATOM     80  N   UNL A   1      37.115  23.791  26.499  1.00  0.00    -0.218 NA
ATOM     81  C   UNL A   1      36.607  23.749  25.312  1.00  0.00     0.123 C 
BRANCH  81  82
ATOM     82  C   UNL A   1      35.170  23.861  24.943  1.00  0.00    -0.000 A 
ATOM     83  C   UNL A   1      34.924  23.263  23.314  1.00  0.00     0.010 A 
ATOM     84  C   UNL A   1      33.842  24.326  26.037  1.00  0.00     0.095 A 
ATOM     85  C   UNL A   1      33.263  23.055  22.722  1.00  0.00     0.008 A 
ATOM     86  C   UNL A   1      32.131  24.155  25.585  1.00  0.00     0.270 A 
ATOM     87  C   UNL A   1      31.718  23.528  23.936  1.00  0.00     0.085 A 
BRANCH  86  88
ATOM     88  N   UNL A   1      31.085  24.487  26.521  1.00  0.00     0.062 N 
ATOM     89  O   UNL A   1      30.629  25.634  26.467  1.00  0.00    -0.258 OA
ATOM     90  O   UNL A   1      30.715  23.594  27.290  1.00  0.00    -0.258 OA
ENDBRANCH  86  88
ENDBRANCH  81  82
ENDBRANCH  77  80
ENDBRANCH  72  74
ENDBRANCH  71  72
ENDBRANCH  70  71
ENDBRANCH   1  70
TORSDOF 17
ENDMDL
