MODEL 1
REMARK VINA RESULT:     -12.4      0.000      0.000
REMARK SMILES COC(=O)[C@H]1CC[C@]2(C)[C@H]3CC=C4[C@@H]5CC(C)(C)CC[C@@]5(C(=O)OCCOC(=O)c5ccc(-c6c7nc(c(-c8cc(S(=O)(=O)[O-])ccc8F)c8ccc([nH]8)c(-c8cc(S(=O)(=O)[O-])ccc8F)c8nc(c(-c9cc(S(=O)(=O)[O-])ccc9F)c9ccc6[nH]9)C=C8)C=C7)cc5)CC[C@@]4(C)[C@@]3(C)CC[C@H]2C1(C)C
REMARK SMILES IDX 26 1 25 2 24 3 22 4 23 5 21 6 5 7 6 8 102 9 7 10 101 11
REMARK SMILES IDX 103 12 104 13 8 14 100 15 9 16 10 17 99 18 11 19 97 20 12 21
REMARK SMILES IDX 95 22 98 23 13 24 94 25 96 26 14 27 93 28 15 29 16 30 20 31
REMARK SMILES IDX 17 32 18 33 19 34 3 35 4 36 2 37 1 38 27 39 28 40 29 41
REMARK SMILES IDX 30 42 31 43 92 44 32 45 91 46 33 47 34 48 35 49 85 50 36 51
REMARK SMILES IDX 90 52 84 53 86 54 37 55 89 56 83 57 82 58 38 60 70 61 50 62
REMARK SMILES IDX 69 63 51 64 54 65 68 66 87 67 52 68 53 69 67 71 88 72 55 73
REMARK SMILES IDX 39 74 40 75 48 76 41 77 47 78 49 79 46 80 42 81 43 82 44 83
REMARK SMILES IDX 45 84 71 85 72 86 80 87 73 88 79 89 81 90 78 91 74 92 75 93
REMARK SMILES IDX 76 94 77 95 56 96 57 97 65 98 58 99 64 100 66 101 63 102
REMARK SMILES IDX 59 103 60 104 61 105 62 106
REMARK H PARENT 86 59 54 70
REMARK Flexibility Score: inf
ROOT
ATOM      1  C   UNL A   1      43.575  38.629  27.743  1.00  0.00     0.275 C 
ENDROOT
BRANCH   1   2
ATOM      2  C   UNL A   1      43.848  40.088  27.438  1.00  0.00     0.274 C 
BRANCH   2   3
ATOM      3  O   UNL A   1      43.850  40.514  26.059  1.00  0.00    -0.462 OA
BRANCH   3   4
ATOM      4  C   UNL A   1      44.939  41.097  25.482  1.00  0.00     0.312 C 
ATOM      5  O   UNL A   1      45.781  40.392  24.934  1.00  0.00    -0.252 OA
BRANCH   4   6
ATOM      6  C   UNL A   1      44.794  42.622  25.190  1.00  0.00     0.075 C 
ATOM      7  C   UNL A   1      50.420  46.125  20.455  1.00  0.00     0.105 C 
ATOM      8  C   UNL A   1      49.925  45.507  19.088  1.00  0.00     0.016 C 
ATOM      9  C   UNL A   1      49.553  45.863  21.757  1.00  0.00    -0.019 C 
ATOM     10  C   UNL A   1      48.468  44.955  18.978  1.00  0.00     0.008 C 
ATOM     11  C   UNL A   1      48.096  45.573  21.263  1.00  0.00     0.002 C 
ATOM     12  C   UNL A   1      50.116  44.768  22.711  1.00  0.00     0.012 C 
ATOM     13  C   UNL A   1      49.568  47.155  22.624  1.00  0.00     0.012 C 
ATOM     14  C   UNL A   1      47.989  44.324  20.321  1.00  0.00    -0.026 C 
ATOM     15  C   UNL A   1      46.995  45.717  22.294  1.00  0.00     0.005 C 
ATOM     16  C   UNL A   1      49.059  43.193  20.521  1.00  0.00     0.012 C 
ATOM     17  C   UNL A   1      46.496  43.654  20.204  1.00  0.00     0.006 C 
ATOM     18  C   UNL A   1      45.624  45.684  21.656  1.00  0.00     0.008 C 
ATOM     19  C   UNL A   1      46.551  42.128  20.591  1.00  0.00     0.032 C 
ATOM     20  C   UNL A   1      45.215  44.352  20.991  1.00  0.00    -0.020 C 
ATOM     21  C   UNL A   1      46.627  42.034  22.096  1.00  0.00    -0.027 C 
ATOM     22  C   UNL A   1      44.538  43.297  22.067  1.00  0.00    -0.006 C 
ATOM     23  C   UNL A   1      44.143  44.766  19.933  1.00  0.00     0.012 C 
ATOM     24  C   UNL A   1      45.740  42.718  22.839  1.00  0.00    -0.063 C 
ATOM     25  C   UNL A   1      43.494  43.804  23.134  1.00  0.00     0.013 C 
ATOM     26  C   UNL A   1      43.743  42.209  21.263  1.00  0.00     0.017 C 
ATOM     27  C   UNL A   1      45.895  43.191  24.298  1.00  0.00     0.033 C 
ATOM     28  C   UNL A   1      43.423  43.002  24.491  1.00  0.00     0.020 C 
ATOM     29  C   UNL A   1      47.282  43.289  24.979  1.00  0.00     0.015 C 
ATOM     30  C   UNL A   1      47.262  44.003  26.353  1.00  0.00    -0.035 C 
ATOM     31  C   UNL A   1      44.814  43.301  26.595  1.00  0.00     0.020 C 
ATOM     32  C   UNL A   1      48.649  43.840  27.006  1.00  0.00     0.011 C 
ATOM     33  C   UNL A   1      47.000  45.517  26.200  1.00  0.00     0.011 C 
ATOM     34  C   UNL A   1      46.193  43.369  27.258  1.00  0.00     0.007 C 
BRANCH   7  35
ATOM     35  C   UNL A   1      51.906  45.871  20.744  1.00  0.00     0.309 C 
ATOM     36  O   UNL A   1      52.510  44.883  20.342  1.00  0.00    -0.252 OA
BRANCH  35  37
ATOM     37  O   UNL A   1      52.498  46.926  21.366  1.00  0.00    -0.469 OA
ATOM     38  C   UNL A   1      52.724  48.079  20.553  1.00  0.00     0.282 C 
ENDBRANCH  35  37
ENDBRANCH   7  35
ENDBRANCH   4   6
ENDBRANCH   3   4
ENDBRANCH   2   3
ENDBRANCH   1   2
BRANCH   1  39
ATOM     39  O   UNL A   1      44.530  37.811  27.074  1.00  0.00    -0.458 OA
BRANCH  39  40
ATOM     40  C   UNL A   1      45.413  37.213  27.908  1.00  0.00     0.338 C 
ATOM     41  O   UNL A   1      46.357  37.748  28.469  1.00  0.00    -0.246 OA
BRANCH  40  42
ATOM     42  C   UNL A   1      45.111  35.771  27.978  1.00  0.00     0.060 A 
ATOM     43  C   UNL A   1      44.499  35.125  26.905  1.00  0.00     0.016 A 
ATOM     44  C   UNL A   1      45.413  35.055  29.131  1.00  0.00     0.016 A 
ATOM     45  C   UNL A   1      44.198  33.774  26.949  1.00  0.00     0.010 A 
ATOM     46  C   UNL A   1      45.130  33.689  29.181  1.00  0.00     0.010 A 
ATOM     47  C   UNL A   1      44.522  33.049  28.088  1.00  0.00    -0.014 A 
BRANCH  47  48
ATOM     48  C   UNL A   1      44.014  31.674  28.206  1.00  0.00     0.031 A 
ATOM     49  C   UNL A   1      44.823  30.600  27.557  1.00  0.00     0.074 A 
ATOM     50  C   UNL A   1      42.924  31.388  28.936  1.00  0.00     0.049 A 
ATOM     51  N   UNL A   1      44.499  29.367  27.295  1.00  0.00    -0.248 NA
ATOM     52  C   UNL A   1      46.183  30.980  27.139  1.00  0.00     0.031 C 
ATOM     53  C   UNL A   1      42.176  32.348  29.745  1.00  0.00     0.029 A 
ATOM     54  N   UNL A   1      42.260  30.205  29.122  1.00  0.00    -0.354 N 
ATOM     55  C   UNL A   1      45.595  28.834  26.630  1.00  0.00     0.074 A 
ATOM     56  C   UNL A   1      46.599  29.872  26.550  1.00  0.00     0.031 C 
ATOM     57  C   UNL A   1      41.162  31.710  30.355  1.00  0.00     0.029 A 
ATOM     58  C   UNL A   1      41.118  30.331  29.880  1.00  0.00     0.049 A 
ATOM     59  H   UNL A   1      42.569  29.347  28.750  1.00  0.00     0.167 HD
ATOM     60  C   UNL A   1      45.719  27.594  26.104  1.00  0.00     0.034 A 
ATOM     61  C   UNL A   1      40.118  29.450  30.083  1.00  0.00     0.034 A 
ATOM     62  C   UNL A   1      44.670  26.611  26.189  1.00  0.00     0.049 A 
ATOM     63  C   UNL A   1      40.206  28.121  29.367  1.00  0.00     0.074 A 
ATOM     64  C   UNL A   1      44.612  25.352  25.624  1.00  0.00     0.029 A 
ATOM     65  N   UNL A   1      43.482  26.791  26.890  1.00  0.00    -0.354 N 
ATOM     66  N   UNL A   1      41.178  27.650  28.615  1.00  0.00    -0.248 NA
ATOM     67  C   UNL A   1      39.053  27.223  29.491  1.00  0.00     0.031 C 
ATOM     68  C   UNL A   1      43.363  24.799  25.930  1.00  0.00     0.029 A 
ATOM     69  C   UNL A   1      42.672  25.679  26.751  1.00  0.00     0.049 A 
ATOM     70  H   UNL A   1      43.250  27.594  27.411  1.00  0.00     0.167 HD
ATOM     71  C   UNL A   1      40.755  26.396  28.183  1.00  0.00     0.074 A 
ATOM     72  C   UNL A   1      39.452  26.176  28.782  1.00  0.00     0.031 C 
ATOM     73  C   UNL A   1      41.372  25.507  27.361  1.00  0.00     0.034 A 
BRANCH  60  74
ATOM     74  C   UNL A   1      46.959  27.329  25.294  1.00  0.00     0.023 A 
ATOM     75  C   UNL A   1      47.126  27.836  23.993  1.00  0.00     0.031 A 
ATOM     76  C   UNL A   1      47.939  26.449  25.790  1.00  0.00     0.131 A 
ATOM     77  C   UNL A   1      48.198  27.391  23.203  1.00  0.00     0.055 A 
ATOM     78  C   UNL A   1      49.047  26.076  25.028  1.00  0.00     0.041 A 
ATOM     79  F   UNL A   1      47.812  25.903  27.010  1.00  0.00    -0.206 F 
ATOM     80  C   UNL A   1      49.172  26.534  23.721  1.00  0.00     0.022 A 
BRANCH  77  81
ATOM     81  S   UNL A   1      48.214  27.816  21.439  1.00  0.00     0.124 S 
ATOM     82  O   UNL A   1      49.243  28.851  21.395  1.00  0.00    -0.237 OA
ATOM     83  O   UNL A   1      48.558  26.546  20.812  1.00  0.00    -0.237 OA
ATOM     84  O   UNL A   1      46.853  28.287  21.188  1.00  0.00    -0.744 OA
ENDBRANCH  77  81
ENDBRANCH  60  74
BRANCH  61  85
ATOM     85  C   UNL A   1      38.899  29.827  30.864  1.00  0.00     0.023 A 
ATOM     86  C   UNL A   1      37.959  30.739  30.358  1.00  0.00     0.031 A 
ATOM     87  C   UNL A   1      38.689  29.330  32.165  1.00  0.00     0.131 A 
ATOM     88  C   UNL A   1      36.878  31.153  31.159  1.00  0.00     0.055 A 
ATOM     89  C   UNL A   1      37.582  29.694  32.932  1.00  0.00     0.041 A 
ATOM     90  F   UNL A   1      39.561  28.471  32.716  1.00  0.00    -0.206 F 
ATOM     91  C   UNL A   1      36.675  30.623  32.434  1.00  0.00     0.022 A 
BRANCH  88  92
ATOM     92  S   UNL A   1      35.793  32.473  30.549  1.00  0.00     0.124 S 
ATOM     93  O   UNL A   1      35.740  32.180  29.122  1.00  0.00    -0.237 OA
ATOM     94  O   UNL A   1      34.566  32.228  31.301  1.00  0.00    -0.237 OA
ATOM     95  O   UNL A   1      36.508  33.696  30.909  1.00  0.00    -0.744 OA
ENDBRANCH  88  92
ENDBRANCH  61  85
BRANCH  73  96
ATOM     96  C   UNL A   1      40.652  24.207  27.110  1.00  0.00     0.023 A 
ATOM     97  C   UNL A   1      39.457  24.157  26.372  1.00  0.00     0.031 A 
ATOM     98  C   UNL A   1      41.174  23.005  27.617  1.00  0.00     0.131 A 
ATOM     99  C   UNL A   1      38.795  22.932  26.205  1.00  0.00     0.055 A 
ATOM    100  C   UNL A   1      40.544  21.781  27.394  1.00  0.00     0.041 A 
ATOM    101  F   UNL A   1      42.312  23.001  28.329  1.00  0.00    -0.206 F 
ATOM    102  C   UNL A   1      39.341  21.743  26.695  1.00  0.00     0.022 A 
BRANCH  99 103
ATOM    103  S   UNL A   1      37.166  22.926  25.412  1.00  0.00     0.124 S 
ATOM    104  O   UNL A   1      36.610  21.657  25.872  1.00  0.00    -0.237 OA
ATOM    105  O   UNL A   1      36.546  24.129  25.959  1.00  0.00    -0.237 OA
ATOM    106  O   UNL A   1      37.478  22.986  23.985  1.00  0.00    -0.744 OA
ENDBRANCH  99 103
ENDBRANCH  73  96
ENDBRANCH  47  48
ENDBRANCH  40  42
ENDBRANCH  39  40
ENDBRANCH   1  39
TORSDOF 16
ENDMDL
MODEL 2
REMARK VINA RESULT:     -12.0      7.984     14.307
REMARK SMILES COC(=O)[C@H]1CC[C@]2(C)[C@H]3CC=C4[C@@H]5CC(C)(C)CC[C@@]5(C(=O)OCCOC(=O)c5ccc(-c6c7nc(c(-c8cc(S(=O)(=O)[O-])ccc8F)c8ccc([nH]8)c(-c8cc(S(=O)(=O)[O-])ccc8F)c8nc(c(-c9cc(S(=O)(=O)[O-])ccc9F)c9ccc6[nH]9)C=C8)C=C7)cc5)CC[C@@]4(C)[C@@]3(C)CC[C@H]2C1(C)C
REMARK SMILES IDX 26 1 25 2 24 3 22 4 23 5 21 6 5 7 6 8 102 9 7 10 101 11
REMARK SMILES IDX 103 12 104 13 8 14 100 15 9 16 10 17 99 18 11 19 97 20 12 21
REMARK SMILES IDX 95 22 98 23 13 24 94 25 96 26 14 27 93 28 15 29 16 30 20 31
REMARK SMILES IDX 17 32 18 33 19 34 3 35 4 36 2 37 1 38 27 39 28 40 29 41
REMARK SMILES IDX 30 42 31 43 92 44 32 45 91 46 33 47 34 48 35 49 85 50 36 51
REMARK SMILES IDX 90 52 84 53 86 54 37 55 89 56 83 57 82 58 38 60 70 61 50 62
REMARK SMILES IDX 69 63 51 64 54 65 68 66 87 67 52 68 53 69 67 71 88 72 55 73
REMARK SMILES IDX 39 74 40 75 48 76 41 77 47 78 49 79 46 80 42 81 43 82 44 83
REMARK SMILES IDX 45 84 71 85 72 86 80 87 73 88 79 89 81 90 78 91 74 92 75 93
REMARK SMILES IDX 76 94 77 95 56 96 57 97 65 98 58 99 64 100 66 101 63 102
REMARK SMILES IDX 59 103 60 104 61 105 62 106
REMARK H PARENT 86 59 54 70
REMARK Flexibility Score: inf
ROOT
ATOM      1  C   UNL A   1      46.298  32.204  26.343  1.00  0.00     0.275 C 
ENDROOT
BRANCH   1   2
ATOM      2  C   UNL A   1      46.778  30.770  26.449  1.00  0.00     0.274 C 
BRANCH   2   3
ATOM      3  O   UNL A   1      45.910  29.718  25.978  1.00  0.00    -0.462 OA
BRANCH   3   4
ATOM      4  C   UNL A   1      46.374  28.467  25.698  1.00  0.00     0.312 C 
ATOM      5  O   UNL A   1      47.325  28.334  24.935  1.00  0.00    -0.252 OA
BRANCH   4   6
ATOM      6  C   UNL A   1      45.940  27.360  26.708  1.00  0.00     0.075 C 
ATOM      7  C   UNL A   1      39.893  29.113  31.877  1.00  0.00     0.105 C 
ATOM      8  C   UNL A   1      38.718  29.038  30.822  1.00  0.00     0.016 C 
ATOM      9  C   UNL A   1      41.351  28.703  31.408  1.00  0.00    -0.019 C 
ATOM     10  C   UNL A   1      38.938  28.268  29.482  1.00  0.00     0.008 C 
ATOM     11  C   UNL A   1      41.167  27.740  30.188  1.00  0.00     0.002 C 
ATOM     12  C   UNL A   1      42.308  29.898  31.118  1.00  0.00     0.012 C 
ATOM     13  C   UNL A   1      42.047  27.946  32.577  1.00  0.00     0.012 C 
ATOM     14  C   UNL A   1      40.409  28.395  28.980  1.00  0.00    -0.026 C 
ATOM     15  C   UNL A   1      42.356  26.873  29.829  1.00  0.00     0.005 C 
ATOM     16  C   UNL A   1      40.541  29.950  28.821  1.00  0.00     0.012 C 
ATOM     17  C   UNL A   1      40.642  27.672  27.526  1.00  0.00     0.006 C 
ATOM     18  C   UNL A   1      41.985  25.802  28.827  1.00  0.00     0.008 C 
ATOM     19  C   UNL A   1      41.186  28.716  26.480  1.00  0.00     0.032 C 
ATOM     20  C   UNL A   1      41.563  26.297  27.426  1.00  0.00    -0.020 C 
ATOM     21  C   UNL A   1      42.653  28.935  26.762  1.00  0.00    -0.027 C 
ATOM     22  C   UNL A   1      42.858  26.525  26.426  1.00  0.00    -0.006 C 
ATOM     23  C   UNL A   1      40.676  25.140  26.864  1.00  0.00     0.012 C 
ATOM     24  C   UNL A   1      43.460  27.867  26.886  1.00  0.00    -0.063 C 
ATOM     25  C   UNL A   1      44.030  25.473  26.385  1.00  0.00     0.013 C 
ATOM     26  C   UNL A   1      42.342  26.558  24.945  1.00  0.00     0.017 C 
ATOM     27  C   UNL A   1      44.804  27.780  27.638  1.00  0.00     0.033 C 
ATOM     28  C   UNL A   1      45.461  26.021  26.008  1.00  0.00     0.020 C 
ATOM     29  C   UNL A   1      45.206  28.825  28.707  1.00  0.00     0.015 C 
ATOM     30  C   UNL A   1      46.469  28.445  29.518  1.00  0.00    -0.035 C 
ATOM     31  C   UNL A   1      47.230  27.035  27.523  1.00  0.00     0.020 C 
ATOM     32  C   UNL A   1      46.874  29.654  30.383  1.00  0.00     0.011 C 
ATOM     33  C   UNL A   1      46.194  27.265  30.476  1.00  0.00     0.011 C 
ATOM     34  C   UNL A   1      47.620  28.092  28.561  1.00  0.00     0.007 C 
BRANCH   7  35
ATOM     35  C   UNL A   1      39.936  30.432  32.659  1.00  0.00     0.309 C 
ATOM     36  O   UNL A   1      39.956  31.534  32.122  1.00  0.00    -0.252 OA
BRANCH  35  37
ATOM     37  O   UNL A   1      39.804  30.242  34.000  1.00  0.00    -0.469 OA
ATOM     38  C   UNL A   1      40.868  30.751  34.807  1.00  0.00     0.282 C 
ENDBRANCH  35  37
ENDBRANCH   7  35
ENDBRANCH   4   6
ENDBRANCH   3   4
ENDBRANCH   2   3
ENDBRANCH   1   2
BRANCH   1  39
ATOM     39  O   UNL A   1      45.075  32.249  25.616  1.00  0.00    -0.458 OA
BRANCH  39  40
ATOM     40  C   UNL A   1      44.467  33.459  25.648  1.00  0.00     0.338 C 
ATOM     41  O   UNL A   1      44.382  34.251  24.723  1.00  0.00    -0.246 OA
BRANCH  40  42
ATOM     42  C   UNL A   1      43.982  33.719  27.015  1.00  0.00     0.060 A 
ATOM     43  C   UNL A   1      43.742  32.663  27.893  1.00  0.00     0.016 A 
ATOM     44  C   UNL A   1      43.736  35.024  27.427  1.00  0.00     0.016 A 
ATOM     45  C   UNL A   1      43.281  32.880  29.180  1.00  0.00     0.010 A 
ATOM     46  C   UNL A   1      43.286  35.258  28.727  1.00  0.00     0.010 A 
ATOM     47  C   UNL A   1      43.059  34.184  29.604  1.00  0.00    -0.014 A 
BRANCH  47  48
ATOM     48  C   UNL A   1      42.376  34.391  30.890  1.00  0.00     0.031 A 
ATOM     49  C   UNL A   1      43.244  34.600  32.087  1.00  0.00     0.074 A 
ATOM     50  C   UNL A   1      41.039  34.478  30.969  1.00  0.00     0.049 A 
ATOM     51  N   UNL A   1      42.932  34.561  33.350  1.00  0.00    -0.248 NA
ATOM     52  C   UNL A   1      44.663  34.881  31.813  1.00  0.00     0.031 C 
ATOM     53  C   UNL A   1      40.124  34.462  29.829  1.00  0.00     0.029 A 
ATOM     54  N   UNL A   1      40.215  34.603  32.056  1.00  0.00    -0.354 N 
ATOM     55  C   UNL A   1      44.126  34.758  34.029  1.00  0.00     0.074 A 
ATOM     56  C   UNL A   1      45.163  34.938  33.036  1.00  0.00     0.031 C 
ATOM     57  C   UNL A   1      38.863  34.590  30.278  1.00  0.00     0.029 A 
ATOM     58  C   UNL A   1      38.877  34.570  31.737  1.00  0.00     0.049 A 
ATOM     59  H   UNL A   1      40.548  34.708  32.977  1.00  0.00     0.167 HD
ATOM     60  C   UNL A   1      44.327  34.747  35.366  1.00  0.00     0.034 A 
ATOM     61  C   UNL A   1      37.802  34.446  32.542  1.00  0.00     0.034 A 
ATOM     62  C   UNL A   1      43.258  34.533  36.307  1.00  0.00     0.049 A 
ATOM     63  C   UNL A   1      38.059  34.290  34.024  1.00  0.00     0.074 A 
ATOM     64  C   UNL A   1      43.323  34.399  37.679  1.00  0.00     0.029 A 
ATOM     65  N   UNL A   1      41.917  34.413  35.955  1.00  0.00    -0.354 N 
ATOM     66  N   UNL A   1      39.201  34.334  34.674  1.00  0.00    -0.248 NA
ATOM     67  C   UNL A   1      36.892  34.026  34.874  1.00  0.00     0.031 C 
ATOM     68  C   UNL A   1      42.030  34.136  38.149  1.00  0.00     0.029 A 
ATOM     69  C   UNL A   1      41.146  34.182  37.079  1.00  0.00     0.049 A 
ATOM     70  H   UNL A   1      41.567  34.484  35.037  1.00  0.00     0.167 HD
ATOM     71  C   UNL A   1      38.890  34.112  36.013  1.00  0.00     0.074 A 
ATOM     72  C   UNL A   1      37.448  33.962  36.076  1.00  0.00     0.031 C 
ATOM     73  C   UNL A   1      39.709  34.028  37.094  1.00  0.00     0.034 A 
BRANCH  60  74
ATOM     74  C   UNL A   1      45.757  34.830  35.831  1.00  0.00     0.023 A 
ATOM     75  C   UNL A   1      46.377  36.056  36.129  1.00  0.00     0.031 A 
ATOM     76  C   UNL A   1      46.548  33.667  35.856  1.00  0.00     0.131 A 
ATOM     77  C   UNL A   1      47.762  36.101  36.353  1.00  0.00     0.055 A 
ATOM     78  C   UNL A   1      47.909  33.709  36.162  1.00  0.00     0.041 A 
ATOM     79  F   UNL A   1      46.019  32.473  35.542  1.00  0.00    -0.206 F 
ATOM     80  C   UNL A   1      48.527  34.933  36.396  1.00  0.00     0.022 A 
BRANCH  77  81
ATOM     81  S   UNL A   1      48.579  37.720  36.424  1.00  0.00     0.124 S 
ATOM     82  O   UNL A   1      48.535  38.009  37.855  1.00  0.00    -0.237 OA
ATOM     83  O   UNL A   1      49.897  37.432  35.872  1.00  0.00    -0.237 OA
ATOM     84  O   UNL A   1      47.727  38.570  35.596  1.00  0.00    -0.744 OA
ENDBRANCH  77  81
ENDBRANCH  60  74
BRANCH  61  85
ATOM     85  C   UNL A   1      36.422  34.321  31.979  1.00  0.00     0.023 A 
ATOM     86  C   UNL A   1      35.464  35.331  32.160  1.00  0.00     0.031 A 
ATOM     87  C   UNL A   1      36.016  33.152  31.305  1.00  0.00     0.131 A 
ATOM     88  C   UNL A   1      34.145  35.139  31.710  1.00  0.00     0.055 A 
ATOM     89  C   UNL A   1      34.725  32.992  30.804  1.00  0.00     0.041 A 
ATOM     90  F   UNL A   1      36.878  32.140  31.117  1.00  0.00    -0.206 F 
ATOM     91  C   UNL A   1      33.775  33.984  31.018  1.00  0.00     0.022 A 
BRANCH  88  92
ATOM     92  S   UNL A   1      32.888  36.378  32.128  1.00  0.00     0.124 S 
ATOM     93  O   UNL A   1      31.776  35.540  32.564  1.00  0.00    -0.237 OA
ATOM     94  O   UNL A   1      33.558  37.150  33.170  1.00  0.00    -0.237 OA
ATOM     95  O   UNL A   1      32.676  37.089  30.868  1.00  0.00    -0.744 OA
ENDBRANCH  88  92
ENDBRANCH  61  85
BRANCH  73  96
ATOM     96  C   UNL A   1      39.046  33.807  38.428  1.00  0.00     0.023 A 
ATOM     97  C   UNL A   1      38.520  32.556  38.792  1.00  0.00     0.031 A 
ATOM     98  C   UNL A   1      38.944  34.866  39.346  1.00  0.00     0.131 A 
ATOM     99  C   UNL A   1      37.868  32.408  40.024  1.00  0.00     0.055 A 
ATOM    100  C   UNL A   1      38.349  34.696  40.597  1.00  0.00     0.041 A 
ATOM    101  F   UNL A   1      39.430  36.080  39.046  1.00  0.00    -0.206 F 
ATOM    102  C   UNL A   1      37.796  33.465  40.935  1.00  0.00     0.022 A 
BRANCH  99 103
ATOM    103  S   UNL A   1      37.038  30.838  40.386  1.00  0.00     0.124 S 
ATOM    104  O   UNL A   1      35.772  31.288  40.955  1.00  0.00    -0.237 OA
ATOM    105  O   UNL A   1      36.958  30.215  39.069  1.00  0.00    -0.237 OA
ATOM    106  O   UNL A   1      37.943  30.180  41.327  1.00  0.00    -0.744 OA
ENDBRANCH  99 103
ENDBRANCH  73  96
ENDBRANCH  47  48
ENDBRANCH  40  42
ENDBRANCH  39  40
ENDBRANCH   1  39
TORSDOF 16
ENDMDL
MODEL 3
REMARK VINA RESULT:     -11.9      9.160     13.775
REMARK SMILES COC(=O)[C@H]1CC[C@]2(C)[C@H]3CC=C4[C@@H]5CC(C)(C)CC[C@@]5(C(=O)OCCOC(=O)c5ccc(-c6c7nc(c(-c8cc(S(=O)(=O)[O-])ccc8F)c8ccc([nH]8)c(-c8cc(S(=O)(=O)[O-])ccc8F)c8nc(c(-c9cc(S(=O)(=O)[O-])ccc9F)c9ccc6[nH]9)C=C8)C=C7)cc5)CC[C@@]4(C)[C@@]3(C)CC[C@H]2C1(C)C
REMARK SMILES IDX 26 1 25 2 24 3 22 4 23 5 21 6 5 7 6 8 102 9 7 10 101 11
REMARK SMILES IDX 103 12 104 13 8 14 100 15 9 16 10 17 99 18 11 19 97 20 12 21
REMARK SMILES IDX 95 22 98 23 13 24 94 25 96 26 14 27 93 28 15 29 16 30 20 31
REMARK SMILES IDX 17 32 18 33 19 34 3 35 4 36 2 37 1 38 27 39 28 40 29 41
REMARK SMILES IDX 30 42 31 43 92 44 32 45 91 46 33 47 34 48 35 49 85 50 36 51
REMARK SMILES IDX 90 52 84 53 86 54 37 55 89 56 83 57 82 58 38 60 70 61 50 62
REMARK SMILES IDX 69 63 51 64 54 65 68 66 87 67 52 68 53 69 67 71 88 72 55 73
REMARK SMILES IDX 39 74 40 75 48 76 41 77 47 78 49 79 46 80 42 81 43 82 44 83
REMARK SMILES IDX 45 84 71 85 72 86 80 87 73 88 79 89 81 90 78 91 74 92 75 93
REMARK SMILES IDX 76 94 77 95 56 96 57 97 65 98 58 99 64 100 66 101 63 102
REMARK SMILES IDX 59 103 60 104 61 105 62 106
REMARK H PARENT 86 59 54 70
REMARK Flexibility Score: inf
ROOT
ATOM      1  C   UNL A   1      43.396  28.768  36.382  1.00  0.00     0.275 C 
ENDROOT
BRANCH   1   2
ATOM      2  C   UNL A   1      42.354  29.836  36.650  1.00  0.00     0.274 C 
BRANCH   2   3
ATOM      3  O   UNL A   1      41.334  30.065  35.656  1.00  0.00    -0.462 OA
BRANCH   3   4
ATOM      4  C   UNL A   1      40.517  31.156  35.694  1.00  0.00     0.312 C 
ATOM      5  O   UNL A   1      40.112  31.568  36.777  1.00  0.00    -0.252 OA
BRANCH   4   6
ATOM      6  C   UNL A   1      40.530  32.036  34.406  1.00  0.00     0.075 C 
ATOM      7  C   UNL A   1      41.837  28.309  27.283  1.00  0.00     0.105 C 
ATOM      8  C   UNL A   1      40.417  27.624  27.167  1.00  0.00     0.016 C 
ATOM      9  C   UNL A   1      42.090  29.315  28.482  1.00  0.00    -0.019 C 
ATOM     10  C   UNL A   1      39.223  28.185  28.004  1.00  0.00     0.008 C 
ATOM     11  C   UNL A   1      40.684  29.858  28.905  1.00  0.00     0.002 C 
ATOM     12  C   UNL A   1      42.915  28.730  29.667  1.00  0.00     0.012 C 
ATOM     13  C   UNL A   1      42.971  30.487  27.959  1.00  0.00     0.012 C 
ATOM     14  C   UNL A   1      39.697  28.736  29.383  1.00  0.00    -0.026 C 
ATOM     15  C   UNL A   1      40.673  31.136  29.718  1.00  0.00     0.005 C 
ATOM     16  C   UNL A   1      40.338  27.452  30.018  1.00  0.00     0.012 C 
ATOM     17  C   UNL A   1      38.449  29.246  30.318  1.00  0.00     0.006 C 
ATOM     18  C   UNL A   1      39.278  31.710  29.837  1.00  0.00     0.008 C 
ATOM     19  C   UNL A   1      38.440  28.469  31.688  1.00  0.00     0.032 C 
ATOM     20  C   UNL A   1      38.259  30.864  30.629  1.00  0.00    -0.020 C 
ATOM     21  C   UNL A   1      39.519  29.059  32.563  1.00  0.00    -0.027 C 
ATOM     22  C   UNL A   1      38.322  31.164  32.252  1.00  0.00    -0.006 C 
ATOM     23  C   UNL A   1      36.871  31.320  30.075  1.00  0.00     0.012 C 
ATOM     24  C   UNL A   1      39.566  30.391  32.733  1.00  0.00    -0.063 C 
ATOM     25  C   UNL A   1      38.450  32.641  32.786  1.00  0.00     0.013 C 
ATOM     26  C   UNL A   1      36.991  30.652  32.905  1.00  0.00     0.017 C 
ATOM     27  C   UNL A   1      40.785  31.252  33.122  1.00  0.00     0.033 C 
ATOM     28  C   UNL A   1      39.179  32.831  34.174  1.00  0.00     0.020 C 
ATOM     29  C   UNL A   1      42.233  30.726  32.971  1.00  0.00     0.015 C 
ATOM     30  C   UNL A   1      43.323  31.806  33.184  1.00  0.00    -0.035 C 
ATOM     31  C   UNL A   1      41.661  33.084  34.650  1.00  0.00     0.020 C 
ATOM     32  C   UNL A   1      44.697  31.110  33.219  1.00  0.00     0.011 C 
ATOM     33  C   UNL A   1      43.350  32.820  32.019  1.00  0.00     0.011 C 
ATOM     34  C   UNL A   1      43.084  32.536  34.516  1.00  0.00     0.007 C 
BRANCH   7  35
ATOM     35  C   UNL A   1      43.008  27.324  27.157  1.00  0.00     0.309 C 
ATOM     36  O   UNL A   1      43.001  26.202  27.651  1.00  0.00    -0.252 OA
BRANCH  35  37
ATOM     37  O   UNL A   1      43.979  27.783  26.322  1.00  0.00    -0.469 OA
ATOM     38  C   UNL A   1      44.041  27.155  25.040  1.00  0.00     0.282 C 
ENDBRANCH  35  37
ENDBRANCH   7  35
ENDBRANCH   4   6
ENDBRANCH   3   4
ENDBRANCH   2   3
ENDBRANCH   1   2
BRANCH   1  39
ATOM     39  O   UNL A   1      42.980  27.535  36.961  1.00  0.00    -0.458 OA
BRANCH  39  40
ATOM     40  C   UNL A   1      42.210  26.781  36.141  1.00  0.00     0.338 C 
ATOM     41  O   UNL A   1      41.134  26.275  36.419  1.00  0.00    -0.246 OA
BRANCH  40  42
ATOM     42  C   UNL A   1      42.916  26.587  34.861  1.00  0.00     0.060 A 
ATOM     43  C   UNL A   1      44.023  25.743  34.785  1.00  0.00     0.016 A 
ATOM     44  C   UNL A   1      42.492  27.269  33.726  1.00  0.00     0.016 A 
ATOM     45  C   UNL A   1      44.707  25.549  33.597  1.00  0.00     0.010 A 
ATOM     46  C   UNL A   1      43.163  27.070  32.518  1.00  0.00     0.010 A 
ATOM     47  C   UNL A   1      44.271  26.208  32.455  1.00  0.00    -0.014 A 
BRANCH  47  48
ATOM     48  C   UNL A   1      45.122  26.160  31.256  1.00  0.00     0.031 A 
ATOM     49  C   UNL A   1      46.193  27.195  31.149  1.00  0.00     0.074 A 
ATOM     50  C   UNL A   1      44.999  25.181  30.346  1.00  0.00     0.049 A 
ATOM     51  N   UNL A   1      46.910  27.537  30.118  1.00  0.00    -0.248 NA
ATOM     52  C   UNL A   1      46.483  27.952  32.378  1.00  0.00     0.031 C 
ATOM     53  C   UNL A   1      44.100  24.033  30.459  1.00  0.00     0.029 A 
ATOM     54  N   UNL A   1      45.636  24.989  29.149  1.00  0.00    -0.354 N 
ATOM     55  C   UNL A   1      47.702  28.590  30.556  1.00  0.00     0.074 A 
ATOM     56  C   UNL A   1      47.391  28.812  31.951  1.00  0.00     0.031 C 
ATOM     57  C   UNL A   1      44.256  23.247  29.380  1.00  0.00     0.029 A 
ATOM     58  C   UNL A   1      45.170  23.900  28.449  1.00  0.00     0.049 A 
ATOM     59  H   UNL A   1      46.359  25.572  28.823  1.00  0.00     0.167 HD
ATOM     60  C   UNL A   1      48.579  29.321  29.830  1.00  0.00     0.034 A 
ATOM     61  C   UNL A   1      45.396  23.538  27.170  1.00  0.00     0.034 A 
ATOM     62  C   UNL A   1      48.824  29.070  28.434  1.00  0.00     0.049 A 
ATOM     63  C   UNL A   1      46.265  24.450  26.333  1.00  0.00     0.074 A 
ATOM     64  C   UNL A   1      49.606  29.783  27.548  1.00  0.00     0.029 A 
ATOM     65  N   UNL A   1      48.272  28.011  27.719  1.00  0.00    -0.354 N 
ATOM     66  N   UNL A   1      46.915  25.534  26.696  1.00  0.00    -0.248 NA
ATOM     67  C   UNL A   1      46.400  24.116  24.910  1.00  0.00     0.031 C 
ATOM     68  C   UNL A   1      49.476  29.193  26.285  1.00  0.00     0.029 A 
ATOM     69  C   UNL A   1      48.674  28.065  26.397  1.00  0.00     0.049 A 
ATOM     70  H   UNL A   1      47.680  27.322  28.099  1.00  0.00     0.167 HD
ATOM     71  C   UNL A   1      47.543  26.008  25.547  1.00  0.00     0.074 A 
ATOM     72  C   UNL A   1      47.213  25.074  24.488  1.00  0.00     0.031 C 
ATOM     73  C   UNL A   1      48.312  27.114  25.371  1.00  0.00     0.034 A 
BRANCH  60  74
ATOM     74  C   UNL A   1      49.191  30.512  30.518  1.00  0.00     0.023 A 
ATOM     75  C   UNL A   1      48.598  31.786  30.478  1.00  0.00     0.031 A 
ATOM     76  C   UNL A   1      50.457  30.391  31.121  1.00  0.00     0.131 A 
ATOM     77  C   UNL A   1      49.307  32.900  30.952  1.00  0.00     0.055 A 
ATOM     78  C   UNL A   1      51.120  31.491  31.665  1.00  0.00     0.041 A 
ATOM     79  F   UNL A   1      51.088  29.207  31.154  1.00  0.00    -0.206 F 
ATOM     80  C   UNL A   1      50.553  32.758  31.567  1.00  0.00     0.022 A 
BRANCH  77  81
ATOM     81  S   UNL A   1      48.655  34.558  30.605  1.00  0.00     0.124 S 
ATOM     82  O   UNL A   1      49.454  35.383  31.507  1.00  0.00    -0.237 OA
ATOM     83  O   UNL A   1      48.933  34.715  29.183  1.00  0.00    -0.237 OA
ATOM     84  O   UNL A   1      47.241  34.450  30.957  1.00  0.00    -0.744 OA
ENDBRANCH  77  81
ENDBRANCH  60  74
BRANCH  61  85
ATOM     85  C   UNL A   1      44.699  22.363  26.561  1.00  0.00     0.023 A 
ATOM     86  C   UNL A   1      45.413  21.238  26.116  1.00  0.00     0.031 A 
ATOM     87  C   UNL A   1      43.306  22.374  26.352  1.00  0.00     0.131 A 
ATOM     88  C   UNL A   1      44.741  20.195  25.453  1.00  0.00     0.055 A 
ATOM     89  C   UNL A   1      42.634  21.309  25.752  1.00  0.00     0.041 A 
ATOM     90  F   UNL A   1      42.568  23.428  26.735  1.00  0.00    -0.206 F 
ATOM     91  C   UNL A   1      43.355  20.216  25.285  1.00  0.00     0.022 A 
BRANCH  88  92
ATOM     92  S   UNL A   1      45.716  18.851  24.723  1.00  0.00     0.124 S 
ATOM     93  O   UNL A   1      47.072  19.375  24.828  1.00  0.00    -0.237 OA
ATOM     94  O   UNL A   1      45.390  17.730  25.598  1.00  0.00    -0.237 OA
ATOM     95  O   UNL A   1      45.191  18.749  23.362  1.00  0.00    -0.744 OA
ENDBRANCH  88  92
ENDBRANCH  61  85
BRANCH  73  96
ATOM     96  C   UNL A   1      48.875  27.332  23.990  1.00  0.00     0.023 A 
ATOM     97  C   UNL A   1      50.215  27.041  23.685  1.00  0.00     0.031 A 
ATOM     98  C   UNL A   1      48.053  27.836  22.968  1.00  0.00     0.131 A 
ATOM     99  C   UNL A   1      50.709  27.305  22.401  1.00  0.00     0.055 A 
ATOM    100  C   UNL A   1      48.534  28.039  21.674  1.00  0.00     0.041 A 
ATOM    101  F   UNL A   1      46.766  28.132  23.209  1.00  0.00    -0.206 F 
ATOM    102  C   UNL A   1      49.872  27.784  21.389  1.00  0.00     0.022 A 
BRANCH  99 103
ATOM    103  S   UNL A   1      52.482  27.095  22.090  1.00  0.00     0.124 S 
ATOM    104  O   UNL A   1      52.999  26.860  23.435  1.00  0.00    -0.237 OA
ATOM    105  O   UNL A   1      52.510  25.949  21.187  1.00  0.00    -0.237 OA
ATOM    106  O   UNL A   1      52.878  28.367  21.487  1.00  0.00    -0.744 OA
ENDBRANCH  99 103
ENDBRANCH  73  96
ENDBRANCH  47  48
ENDBRANCH  40  42
ENDBRANCH  39  40
ENDBRANCH   1  39
TORSDOF 16
ENDMDL
