MODEL 1
REMARK VINA RESULT:     -13.4      0.000      0.000
REMARK SMILES Cc1c(C(=O)OCCOC(=O)c2ccc(-c3c4nc(c(-c5cc(S(=O)(=O)[O-])ccc5F)c5ccc([nH]5)c(-c5cc(S(=O)(=O)[O-])ccc5F)c5nc(c(-c6cc(S(=O)(=O)[O-])ccc6F)c6ccc3[nH]6)C=C5)C=C4)cc2)cccc1-n1c(C)cc(/C=C2/C(=O)NC(=S)N=C2O)c1C
REMARK SMILES IDX 7 1 6 2 4 3 5 4 3 5 1 6 2 7 78 8 75 9 77 10 76 11 79 12
REMARK SMILES IDX 80 13 94 14 81 15 82 16 83 17 95 18 84 19 85 20 86 21 92 22
REMARK SMILES IDX 87 23 88 24 91 25 89 26 90 28 93 29 8 31 9 32 10 33 11 34
REMARK SMILES IDX 12 35 13 36 74 37 14 38 73 39 15 40 16 41 17 42 67 43 18 44
REMARK SMILES IDX 72 45 66 46 68 47 19 48 71 49 65 50 64 51 20 53 52 54 32 55
REMARK SMILES IDX 51 56 33 57 36 58 50 59 69 60 34 61 35 62 49 64 70 65 37 66
REMARK SMILES IDX 21 67 22 68 30 69 23 70 29 71 31 72 28 73 24 74 25 75 26 76
REMARK SMILES IDX 27 77 53 78 54 79 62 80 55 81 61 82 63 83 60 84 56 85 57 86
REMARK SMILES IDX 58 87 59 88 38 89 39 90 47 91 40 92 46 93 48 94 45 95 41 96
REMARK SMILES IDX 42 97 43 98 44 99
REMARK H PARENT 88 27 93 30 68 52 36 63
REMARK Flexibility Score: inf
ROOT
ATOM      1  C   UNL A   1      32.964  30.172  27.146  1.00  0.00     0.275 C 
ENDROOT
BRANCH   1   2
ATOM      2  O   UNL A   1      31.979  29.208  26.754  1.00  0.00    -0.458 OA
BRANCH   2   3
ATOM      3  C   UNL A   1      31.870  29.129  25.413  1.00  0.00     0.338 C 
ATOM      4  O   UNL A   1      32.025  30.058  24.628  1.00  0.00    -0.246 OA
BRANCH   3   5
ATOM      5  C   UNL A   1      31.354  27.843  24.931  1.00  0.00     0.065 A 
ATOM      6  C   UNL A   1      33.774  27.174  24.839  1.00  0.00     0.047 C 
ATOM      7  C   UNL A   1      32.301  26.824  24.830  1.00  0.00    -0.012 A 
ATOM      8  C   UNL A   1      31.816  25.525  24.632  1.00  0.00     0.049 A 
ATOM      9  C   UNL A   1      29.996  27.593  24.687  1.00  0.00     0.016 A 
ATOM     10  C   UNL A   1      30.448  25.237  24.515  1.00  0.00     0.027 A 
ATOM     11  C   UNL A   1      29.536  26.283  24.525  1.00  0.00     0.003 A 
BRANCH   8  12
ATOM     12  N   UNL A   1      32.713  24.583  24.106  1.00  0.00    -0.318 N 
ATOM     13  C   UNL A   1      32.824  24.213  22.781  1.00  0.00     0.020 A 
ATOM     14  C   UNL A   1      33.261  23.595  24.920  1.00  0.00     0.027 A 
ATOM     15  C   UNL A   1      32.116  24.927  21.676  1.00  0.00     0.065 C 
ATOM     16  C   UNL A   1      33.633  23.094  22.751  1.00  0.00     0.031 A 
ATOM     17  C   UNL A   1      33.958  22.736  24.092  1.00  0.00    -0.003 A 
ATOM     18  C   UNL A   1      32.958  23.567  26.392  1.00  0.00     0.065 C 
BRANCH  17  19
ATOM     19  C   UNL A   1      34.682  21.565  24.462  1.00  0.00     0.029 C 
ATOM     20  C   UNL A   1      34.254  20.345  24.838  1.00  0.00     0.102 C 
ATOM     21  C   UNL A   1      35.294  19.299  24.949  1.00  0.00     0.262 C 
ATOM     22  C   UNL A   1      32.895  19.837  25.047  1.00  0.00     0.226 C 
ATOM     23  O   UNL A   1      36.500  19.520  25.060  1.00  0.00    -0.269 OA
ATOM     24  N   UNL A   1      34.808  18.023  24.874  1.00  0.00    -0.297 N 
ATOM     25  N   UNL A   1      32.524  18.608  25.021  1.00  0.00    -0.184 NA
ATOM     26  C   UNL A   1      33.485  17.654  24.824  1.00  0.00     0.203 C 
ATOM     27  H   UNL A   1      35.471  17.296  24.854  1.00  0.00     0.172 HD
ATOM     28  S   UNL A   1      33.141  16.029  24.601  1.00  0.00    -0.038 S 
BRANCH  22  29
ATOM     29  O   UNL A   1      31.961  20.736  25.364  1.00  0.00    -0.493 OA
ATOM     30  H   UNL A   1      31.827  20.975  26.260  1.00  0.00     0.295 HD
ENDBRANCH  22  29
ENDBRANCH  17  19
ENDBRANCH   8  12
ENDBRANCH   3   5
ENDBRANCH   2   3
ENDBRANCH   1   2
BRANCH   1  31
ATOM     31  C   UNL A   1      34.368  29.573  27.228  1.00  0.00     0.275 C 
BRANCH  31  32
ATOM     32  O   UNL A   1      35.263  30.058  28.266  1.00  0.00    -0.458 OA
BRANCH  32  33
ATOM     33  C   UNL A   1      36.535  30.531  28.132  1.00  0.00     0.338 C 
ATOM     34  O   UNL A   1      36.767  31.732  28.235  1.00  0.00    -0.246 OA
BRANCH  33  35
ATOM     35  C   UNL A   1      37.651  29.554  28.068  1.00  0.00     0.060 A 
ATOM     36  C   UNL A   1      38.567  29.618  27.000  1.00  0.00     0.016 A 
ATOM     37  C   UNL A   1      37.894  28.706  29.133  1.00  0.00     0.016 A 
ATOM     38  C   UNL A   1      39.800  28.982  27.084  1.00  0.00     0.010 A 
ATOM     39  C   UNL A   1      39.156  28.196  29.300  1.00  0.00     0.010 A 
ATOM     40  C   UNL A   1      40.094  28.307  28.264  1.00  0.00    -0.014 A 
BRANCH  40  41
ATOM     41  C   UNL A   1      41.204  27.382  28.399  1.00  0.00     0.031 A 
ATOM     42  C   UNL A   1      41.011  25.934  28.226  1.00  0.00     0.074 A 
ATOM     43  C   UNL A   1      42.352  28.037  28.681  1.00  0.00     0.049 A 
ATOM     44  N   UNL A   1      41.459  25.027  29.028  1.00  0.00    -0.248 NA
ATOM     45  C   UNL A   1      40.197  25.371  27.143  1.00  0.00     0.031 C 
ATOM     46  C   UNL A   1      43.737  27.624  28.722  1.00  0.00     0.029 A 
ATOM     47  N   UNL A   1      42.425  29.343  29.149  1.00  0.00    -0.354 N 
ATOM     48  C   UNL A   1      41.376  23.842  28.318  1.00  0.00     0.074 A 
ATOM     49  C   UNL A   1      40.370  24.053  27.308  1.00  0.00     0.031 C 
ATOM     50  C   UNL A   1      44.423  28.520  29.473  1.00  0.00     0.029 A 
ATOM     51  C   UNL A   1      43.460  29.459  30.048  1.00  0.00     0.049 A 
ATOM     52  H   UNL A   1      41.826  30.075  28.876  1.00  0.00     0.167 HD
ATOM     53  C   UNL A   1      42.410  22.956  28.346  1.00  0.00     0.034 A 
ATOM     54  C   UNL A   1      43.133  29.592  31.372  1.00  0.00     0.034 A 
ATOM     55  C   UNL A   1      43.537  23.538  29.062  1.00  0.00     0.049 A 
ATOM     56  C   UNL A   1      43.513  28.345  32.147  1.00  0.00     0.074 A 
ATOM     57  C   UNL A   1      44.679  24.186  28.620  1.00  0.00     0.029 A 
ATOM     58  N   UNL A   1      43.411  23.840  30.401  1.00  0.00    -0.354 N 
ATOM     59  N   UNL A   1      43.650  27.164  31.608  1.00  0.00    -0.248 NA
ATOM     60  C   UNL A   1      43.751  28.332  33.584  1.00  0.00     0.031 C 
ATOM     61  C   UNL A   1      45.255  24.864  29.728  1.00  0.00     0.029 A 
ATOM     62  C   UNL A   1      44.450  24.638  30.827  1.00  0.00     0.049 A 
ATOM     63  H   UNL A   1      42.676  23.527  30.975  1.00  0.00     0.167 HD
ATOM     64  C   UNL A   1      44.101  26.278  32.548  1.00  0.00     0.074 A 
ATOM     65  C   UNL A   1      44.058  27.038  33.788  1.00  0.00     0.031 C 
ATOM     66  C   UNL A   1      44.500  25.009  32.226  1.00  0.00     0.034 A 
BRANCH  53  67
ATOM     67  C   UNL A   1      42.571  21.784  27.408  1.00  0.00     0.023 A 
ATOM     68  C   UNL A   1      43.612  21.809  26.458  1.00  0.00     0.031 A 
ATOM     69  C   UNL A   1      41.775  20.625  27.413  1.00  0.00     0.131 A 
ATOM     70  C   UNL A   1      43.788  20.781  25.522  1.00  0.00     0.055 A 
ATOM     71  C   UNL A   1      41.941  19.596  26.468  1.00  0.00     0.041 A 
ATOM     72  F   UNL A   1      40.825  20.437  28.344  1.00  0.00    -0.206 F 
ATOM     73  C   UNL A   1      42.946  19.676  25.508  1.00  0.00     0.022 A 
BRANCH  70  74
ATOM     74  S   UNL A   1      45.145  20.931  24.328  1.00  0.00     0.124 S 
ATOM     75  O   UNL A   1      46.270  21.291  25.185  1.00  0.00    -0.237 OA
ATOM     76  O   UNL A   1      45.189  19.600  23.734  1.00  0.00    -0.237 OA
ATOM     77  O   UNL A   1      44.690  21.992  23.430  1.00  0.00    -0.744 OA
ENDBRANCH  70  74
ENDBRANCH  53  67
BRANCH  54  78
ATOM     78  C   UNL A   1      41.900  30.427  31.642  1.00  0.00     0.023 A 
ATOM     79  C   UNL A   1      40.677  29.750  31.872  1.00  0.00     0.031 A 
ATOM     80  C   UNL A   1      41.932  31.792  31.964  1.00  0.00     0.131 A 
ATOM     81  C   UNL A   1      39.618  30.371  32.556  1.00  0.00     0.055 A 
ATOM     82  C   UNL A   1      40.836  32.436  32.563  1.00  0.00     0.041 A 
ATOM     83  F   UNL A   1      43.049  32.513  31.792  1.00  0.00    -0.206 F 
ATOM     84  C   UNL A   1      39.685  31.719  32.898  1.00  0.00     0.022 A 
BRANCH  81  85
ATOM     85  S   UNL A   1      38.313  29.306  33.246  1.00  0.00     0.124 S 
ATOM     86  O   UNL A   1      38.844  27.969  33.005  1.00  0.00    -0.237 OA
ATOM     87  O   UNL A   1      38.270  29.735  34.644  1.00  0.00    -0.237 OA
ATOM     88  O   UNL A   1      37.128  29.661  32.473  1.00  0.00    -0.744 OA
ENDBRANCH  81  85
ENDBRANCH  54  78
BRANCH  66  89
ATOM     89  C   UNL A   1      44.988  23.974  33.203  1.00  0.00     0.023 A 
ATOM     90  C   UNL A   1      46.327  23.893  33.581  1.00  0.00     0.031 A 
ATOM     91  C   UNL A   1      44.125  23.001  33.770  1.00  0.00     0.131 A 
ATOM     92  C   UNL A   1      46.733  23.016  34.595  1.00  0.00     0.055 A 
ATOM     93  C   UNL A   1      44.548  22.065  34.712  1.00  0.00     0.041 A 
ATOM     94  F   UNL A   1      42.823  22.922  33.463  1.00  0.00    -0.206 F 
ATOM     95  C   UNL A   1      45.856  22.093  35.160  1.00  0.00     0.022 A 
BRANCH  92  96
ATOM     96  S   UNL A   1      48.414  23.191  35.225  1.00  0.00     0.124 S 
ATOM     97  O   UNL A   1      49.099  23.851  34.118  1.00  0.00    -0.237 OA
ATOM     98  O   UNL A   1      48.199  24.013  36.414  1.00  0.00    -0.237 OA
ATOM     99  O   UNL A   1      48.829  21.815  35.485  1.00  0.00    -0.744 OA
ENDBRANCH  92  96
ENDBRANCH  66  89
ENDBRANCH  40  41
ENDBRANCH  33  35
ENDBRANCH  32  33
ENDBRANCH  31  32
ENDBRANCH   1  31
TORSDOF 17
ENDMDL
MODEL 2
REMARK VINA RESULT:     -13.3      1.722      2.029
REMARK SMILES Cc1c(C(=O)OCCOC(=O)c2ccc(-c3c4nc(c(-c5cc(S(=O)(=O)[O-])ccc5F)c5ccc([nH]5)c(-c5cc(S(=O)(=O)[O-])ccc5F)c5nc(c(-c6cc(S(=O)(=O)[O-])ccc6F)c6ccc3[nH]6)C=C5)C=C4)cc2)cccc1-n1c(C)cc(/C=C2/C(=O)NC(=S)N=C2O)c1C
REMARK SMILES IDX 7 1 6 2 4 3 5 4 3 5 1 6 2 7 78 8 75 9 77 10 76 11 79 12
REMARK SMILES IDX 80 13 94 14 81 15 82 16 83 17 95 18 84 19 85 20 86 21 92 22
REMARK SMILES IDX 87 23 88 24 91 25 89 26 90 28 93 29 8 31 9 32 10 33 11 34
REMARK SMILES IDX 12 35 13 36 74 37 14 38 73 39 15 40 16 41 17 42 67 43 18 44
REMARK SMILES IDX 72 45 66 46 68 47 19 48 71 49 65 50 64 51 20 53 52 54 32 55
REMARK SMILES IDX 51 56 33 57 36 58 50 59 69 60 34 61 35 62 49 64 70 65 37 66
REMARK SMILES IDX 21 67 22 68 30 69 23 70 29 71 31 72 28 73 24 74 25 75 26 76
REMARK SMILES IDX 27 77 53 78 54 79 62 80 55 81 61 82 63 83 60 84 56 85 57 86
REMARK SMILES IDX 58 87 59 88 38 89 39 90 47 91 40 92 46 93 48 94 45 95 41 96
REMARK SMILES IDX 42 97 43 98 44 99
REMARK H PARENT 88 27 93 30 68 52 36 63
REMARK Flexibility Score: inf
ROOT
ATOM      1  C   UNL A   1      32.471  30.475  27.246  1.00  0.00     0.275 C 
ENDROOT
BRANCH   1   2
ATOM      2  O   UNL A   1      32.000  29.236  26.700  1.00  0.00    -0.458 OA
BRANCH   2   3
ATOM      3  C   UNL A   1      31.570  29.386  25.431  1.00  0.00     0.338 C 
ATOM      4  O   UNL A   1      31.337  30.456  24.879  1.00  0.00    -0.246 OA
BRANCH   3   5
ATOM      5  C   UNL A   1      31.205  28.128  24.772  1.00  0.00     0.065 A 
ATOM      6  C   UNL A   1      33.631  27.545  25.064  1.00  0.00     0.047 C 
ATOM      7  C   UNL A   1      32.200  27.151  24.767  1.00  0.00    -0.012 A 
ATOM      8  C   UNL A   1      31.817  25.857  24.391  1.00  0.00     0.049 A 
ATOM      9  C   UNL A   1      29.923  27.855  24.273  1.00  0.00     0.016 A 
ATOM     10  C   UNL A   1      30.505  25.536  24.012  1.00  0.00     0.027 A 
ATOM     11  C   UNL A   1      29.559  26.549  23.936  1.00  0.00     0.003 A 
BRANCH   8  12
ATOM     12  N   UNL A   1      32.834  24.989  23.966  1.00  0.00    -0.318 N 
ATOM     13  C   UNL A   1      33.138  24.667  22.660  1.00  0.00     0.020 A 
ATOM     14  C   UNL A   1      33.336  24.013  24.822  1.00  0.00     0.027 A 
ATOM     15  C   UNL A   1      32.533  25.369  21.487  1.00  0.00     0.065 C 
ATOM     16  C   UNL A   1      34.016  23.602  22.710  1.00  0.00     0.031 A 
ATOM     17  C   UNL A   1      34.189  23.224  24.074  1.00  0.00    -0.003 A 
ATOM     18  C   UNL A   1      32.848  23.921  26.241  1.00  0.00     0.065 C 
BRANCH  17  19
ATOM     19  C   UNL A   1      34.934  22.090  24.509  1.00  0.00     0.029 C 
ATOM     20  C   UNL A   1      34.568  20.805  24.677  1.00  0.00     0.102 C 
ATOM     21  C   UNL A   1      35.665  19.848  24.945  1.00  0.00     0.262 C 
ATOM     22  C   UNL A   1      33.261  20.160  24.523  1.00  0.00     0.226 C 
ATOM     23  O   UNL A   1      36.783  20.162  25.352  1.00  0.00    -0.269 OA
ATOM     24  N   UNL A   1      35.349  18.549  24.658  1.00  0.00    -0.297 N 
ATOM     25  N   UNL A   1      33.040  18.913  24.313  1.00  0.00    -0.184 NA
ATOM     26  C   UNL A   1      34.119  18.072  24.272  1.00  0.00     0.203 C 
ATOM     27  H   UNL A   1      36.075  17.889  24.736  1.00  0.00     0.172 HD
ATOM     28  S   UNL A   1      34.014  16.455  23.847  1.00  0.00    -0.038 S 
BRANCH  22  29
ATOM     29  O   UNL A   1      32.187  20.937  24.682  1.00  0.00    -0.493 OA
ATOM     30  H   UNL A   1      31.599  20.782  25.396  1.00  0.00     0.295 HD
ENDBRANCH  22  29
ENDBRANCH  17  19
ENDBRANCH   8  12
ENDBRANCH   3   5
ENDBRANCH   2   3
ENDBRANCH   1   2
BRANCH   1  31
ATOM     31  C   UNL A   1      33.987  30.627  27.130  1.00  0.00     0.275 C 
BRANCH  31  32
ATOM     32  O   UNL A   1      34.827  29.845  28.022  1.00  0.00    -0.458 OA
BRANCH  32  33
ATOM     33  C   UNL A   1      35.929  30.250  28.715  1.00  0.00     0.338 C 
ATOM     34  O   UNL A   1      35.842  31.137  29.560  1.00  0.00    -0.246 OA
BRANCH  33  35
ATOM     35  C   UNL A   1      37.181  29.464  28.580  1.00  0.00     0.060 A 
ATOM     36  C   UNL A   1      38.077  29.761  27.535  1.00  0.00     0.016 A 
ATOM     37  C   UNL A   1      37.550  28.569  29.569  1.00  0.00     0.016 A 
ATOM     38  C   UNL A   1      39.392  29.314  27.579  1.00  0.00     0.010 A 
ATOM     39  C   UNL A   1      38.874  28.244  29.707  1.00  0.00     0.010 A 
ATOM     40  C   UNL A   1      39.785  28.587  28.698  1.00  0.00    -0.014 A 
BRANCH  40  41
ATOM     41  C   UNL A   1      41.023  27.834  28.765  1.00  0.00     0.031 A 
ATOM     42  C   UNL A   1      41.078  26.425  28.341  1.00  0.00     0.074 A 
ATOM     43  C   UNL A   1      42.033  28.595  29.242  1.00  0.00     0.049 A 
ATOM     44  N   UNL A   1      41.626  25.470  29.015  1.00  0.00    -0.248 NA
ATOM     45  C   UNL A   1      40.424  25.945  27.119  1.00  0.00     0.031 C 
ATOM     46  C   UNL A   1      43.463  28.397  29.323  1.00  0.00     0.029 A 
ATOM     47  N   UNL A   1      41.867  29.794  29.923  1.00  0.00    -0.354 N 
ATOM     48  C   UNL A   1      41.774  24.431  28.115  1.00  0.00     0.074 A 
ATOM     49  C   UNL A   1      40.801  24.660  27.077  1.00  0.00     0.031 C 
ATOM     50  C   UNL A   1      43.953  29.240  30.264  1.00  0.00     0.029 A 
ATOM     51  C   UNL A   1      42.821  29.906  30.907  1.00  0.00     0.049 A 
ATOM     52  H   UNL A   1      41.172  30.463  29.729  1.00  0.00     0.167 HD
ATOM     53  C   UNL A   1      42.937  23.721  28.077  1.00  0.00     0.034 A 
ATOM     54  C   UNL A   1      42.409  29.753  32.206  1.00  0.00     0.034 A 
ATOM     55  C   UNL A   1      43.915  24.332  28.966  1.00  0.00     0.049 A 
ATOM     56  C   UNL A   1      42.947  28.462  32.791  1.00  0.00     0.074 A 
ATOM     57  C   UNL A   1      44.957  25.214  28.729  1.00  0.00     0.029 A 
ATOM     58  N   UNL A   1      43.672  24.372  30.322  1.00  0.00    -0.354 N 
ATOM     59  N   UNL A   1      43.302  27.429  32.077  1.00  0.00    -0.248 NA
ATOM     60  C   UNL A   1      43.110  28.233  34.221  1.00  0.00     0.031 C 
ATOM     61  C   UNL A   1      45.356  25.766  29.976  1.00  0.00     0.029 A 
ATOM     62  C   UNL A   1      44.543  25.231  30.955  1.00  0.00     0.049 A 
ATOM     63  H   UNL A   1      42.970  23.855  30.777  1.00  0.00     0.167 HD
ATOM     64  C   UNL A   1      43.843  26.471  32.891  1.00  0.00     0.074 A 
ATOM     65  C   UNL A   1      43.612  26.986  34.232  1.00  0.00     0.031 C 
ATOM     66  C   UNL A   1      44.460  25.353  32.395  1.00  0.00     0.034 A 
BRANCH  53  67
ATOM     67  C   UNL A   1      43.334  22.771  26.974  1.00  0.00     0.023 A 
ATOM     68  C   UNL A   1      42.842  21.450  27.001  1.00  0.00     0.031 A 
ATOM     69  C   UNL A   1      44.148  23.098  25.874  1.00  0.00     0.131 A 
ATOM     70  C   UNL A   1      43.211  20.500  26.038  1.00  0.00     0.055 A 
ATOM     71  C   UNL A   1      44.529  22.146  24.912  1.00  0.00     0.041 A 
ATOM     72  F   UNL A   1      44.583  24.354  25.680  1.00  0.00    -0.206 F 
ATOM     73  C   UNL A   1      44.069  20.834  24.998  1.00  0.00     0.022 A 
BRANCH  70  74
ATOM     74  S   UNL A   1      42.539  18.822  26.187  1.00  0.00     0.124 S 
ATOM     75  O   UNL A   1      43.464  18.048  25.364  1.00  0.00    -0.237 OA
ATOM     76  O   UNL A   1      42.605  18.585  27.624  1.00  0.00    -0.237 OA
ATOM     77  O   UNL A   1      41.188  18.949  25.644  1.00  0.00    -0.744 OA
ENDBRANCH  70  74
ENDBRANCH  53  67
BRANCH  54  78
ATOM     78  C   UNL A   1      41.044  30.330  32.512  1.00  0.00     0.023 A 
ATOM     79  C   UNL A   1      40.843  31.714  32.290  1.00  0.00     0.031 A 
ATOM     80  C   UNL A   1      39.894  29.555  32.721  1.00  0.00     0.131 A 
ATOM     81  C   UNL A   1      39.554  32.244  32.107  1.00  0.00     0.055 A 
ATOM     82  C   UNL A   1      38.604  30.106  32.630  1.00  0.00     0.041 A 
ATOM     83  F   UNL A   1      39.984  28.233  32.927  1.00  0.00    -0.206 F 
ATOM     84  C   UNL A   1      38.426  31.447  32.285  1.00  0.00     0.022 A 
BRANCH  81  85
ATOM     85  S   UNL A   1      39.413  33.889  31.340  1.00  0.00     0.124 S 
ATOM     86  O   UNL A   1      38.134  34.362  31.854  1.00  0.00    -0.237 OA
ATOM     87  O   UNL A   1      40.601  34.571  31.853  1.00  0.00    -0.237 OA
ATOM     88  O   UNL A   1      39.452  33.611  29.908  1.00  0.00    -0.744 OA
ENDBRANCH  81  85
ENDBRANCH  54  78
BRANCH  66  89
ATOM     89  C   UNL A   1      45.059  24.250  33.224  1.00  0.00     0.023 A 
ATOM     90  C   UNL A   1      46.399  24.263  33.610  1.00  0.00     0.031 A 
ATOM     91  C   UNL A   1      44.309  23.116  33.630  1.00  0.00     0.131 A 
ATOM     92  C   UNL A   1      46.898  23.301  34.497  1.00  0.00     0.055 A 
ATOM     93  C   UNL A   1      44.834  22.107  34.436  1.00  0.00     0.041 A 
ATOM     94  F   UNL A   1      43.026  22.938  33.292  1.00  0.00    -0.206 F 
ATOM     95  C   UNL A   1      46.129  22.214  34.908  1.00  0.00     0.022 A 
BRANCH  92  96
ATOM     96  S   UNL A   1      48.548  23.569  35.175  1.00  0.00     0.124 S 
ATOM     97  O   UNL A   1      49.402  22.891  34.206  1.00  0.00    -0.237 OA
ATOM     98  O   UNL A   1      48.630  25.028  35.178  1.00  0.00    -0.237 OA
ATOM     99  O   UNL A   1      48.482  22.946  36.494  1.00  0.00    -0.744 OA
ENDBRANCH  92  96
ENDBRANCH  66  89
ENDBRANCH  40  41
ENDBRANCH  33  35
ENDBRANCH  32  33
ENDBRANCH  31  32
ENDBRANCH   1  31
TORSDOF 17
ENDMDL
MODEL 3
REMARK VINA RESULT:     -13.1      2.423      3.040
REMARK SMILES Cc1c(C(=O)OCCOC(=O)c2ccc(-c3c4nc(c(-c5cc(S(=O)(=O)[O-])ccc5F)c5ccc([nH]5)c(-c5cc(S(=O)(=O)[O-])ccc5F)c5nc(c(-c6cc(S(=O)(=O)[O-])ccc6F)c6ccc3[nH]6)C=C5)C=C4)cc2)cccc1-n1c(C)cc(/C=C2/C(=O)NC(=S)N=C2O)c1C
REMARK SMILES IDX 7 1 6 2 4 3 5 4 3 5 1 6 2 7 78 8 75 9 77 10 76 11 79 12
REMARK SMILES IDX 80 13 94 14 81 15 82 16 83 17 95 18 84 19 85 20 86 21 92 22
REMARK SMILES IDX 87 23 88 24 91 25 89 26 90 28 93 29 8 31 9 32 10 33 11 34
REMARK SMILES IDX 12 35 13 36 74 37 14 38 73 39 15 40 16 41 17 42 67 43 18 44
REMARK SMILES IDX 72 45 66 46 68 47 19 48 71 49 65 50 64 51 20 53 52 54 32 55
REMARK SMILES IDX 51 56 33 57 36 58 50 59 69 60 34 61 35 62 49 64 70 65 37 66
REMARK SMILES IDX 21 67 22 68 30 69 23 70 29 71 31 72 28 73 24 74 25 75 26 76
REMARK SMILES IDX 27 77 53 78 54 79 62 80 55 81 61 82 63 83 60 84 56 85 57 86
REMARK SMILES IDX 58 87 59 88 38 89 39 90 47 91 40 92 46 93 48 94 45 95 41 96
REMARK SMILES IDX 42 97 43 98 44 99
REMARK H PARENT 88 27 93 30 68 52 36 63
REMARK Flexibility Score: inf
ROOT
ATOM      1  C   UNL A   1      32.713  29.799  27.091  1.00  0.00     0.275 C 
ENDROOT
BRANCH   1   2
ATOM      2  O   UNL A   1      32.261  28.697  26.294  1.00  0.00    -0.458 OA
BRANCH   2   3
ATOM      3  C   UNL A   1      31.693  27.738  27.052  1.00  0.00     0.338 C 
ATOM      4  O   UNL A   1      31.452  27.825  28.251  1.00  0.00    -0.246 OA
BRANCH   3   5
ATOM      5  C   UNL A   1      31.536  26.451  26.366  1.00  0.00     0.065 A 
ATOM      6  C   UNL A   1      34.029  26.567  26.081  1.00  0.00     0.047 C 
ATOM      7  C   UNL A   1      32.728  25.795  26.056  1.00  0.00    -0.012 A 
ATOM      8  C   UNL A   1      32.628  24.459  25.647  1.00  0.00     0.049 A 
ATOM      9  C   UNL A   1      30.295  25.844  26.126  1.00  0.00     0.016 A 
ATOM     10  C   UNL A   1      31.400  23.794  25.524  1.00  0.00     0.027 A 
ATOM     11  C   UNL A   1      30.226  24.500  25.748  1.00  0.00     0.003 A 
BRANCH   8  12
ATOM     12  N   UNL A   1      33.714  23.929  24.934  1.00  0.00    -0.318 N 
ATOM     13  C   UNL A   1      33.830  23.853  23.561  1.00  0.00     0.020 A 
ATOM     14  C   UNL A   1      34.574  23.011  25.532  1.00  0.00     0.027 A 
ATOM     15  C   UNL A   1      32.874  24.520  22.627  1.00  0.00     0.065 C 
ATOM     16  C   UNL A   1      34.917  23.041  23.301  1.00  0.00     0.031 A 
ATOM     17  C   UNL A   1      35.424  22.555  24.542  1.00  0.00    -0.003 A 
ATOM     18  C   UNL A   1      34.396  22.630  26.975  1.00  0.00     0.065 C 
BRANCH  17  19
ATOM     19  C   UNL A   1      36.472  21.598  24.667  1.00  0.00     0.029 C 
ATOM     20  C   UNL A   1      37.721  21.715  25.155  1.00  0.00     0.102 C 
ATOM     21  C   UNL A   1      38.474  20.452  25.323  1.00  0.00     0.262 C 
ATOM     22  C   UNL A   1      38.435  22.888  25.669  1.00  0.00     0.226 C 
ATOM     23  O   UNL A   1      38.199  19.394  24.758  1.00  0.00    -0.269 OA
ATOM     24  N   UNL A   1      39.507  20.537  26.215  1.00  0.00    -0.297 N 
ATOM     25  N   UNL A   1      39.444  22.885  26.462  1.00  0.00    -0.184 NA
ATOM     26  C   UNL A   1      39.951  21.674  26.846  1.00  0.00     0.203 C 
ATOM     27  H   UNL A   1      39.980  19.700  26.426  1.00  0.00     0.172 HD
ATOM     28  S   UNL A   1      41.154  21.499  28.001  1.00  0.00    -0.038 S 
BRANCH  22  29
ATOM     29  O   UNL A   1      38.039  24.078  25.212  1.00  0.00    -0.493 OA
ATOM     30  H   UNL A   1      38.100  24.271  24.297  1.00  0.00     0.295 HD
ENDBRANCH  22  29
ENDBRANCH  17  19
ENDBRANCH   8  12
ENDBRANCH   3   5
ENDBRANCH   2   3
ENDBRANCH   1   2
BRANCH   1  31
ATOM     31  C   UNL A   1      34.160  30.186  26.787  1.00  0.00     0.275 C 
BRANCH  31  32
ATOM     32  O   UNL A   1      35.223  29.432  27.431  1.00  0.00    -0.458 OA
BRANCH  32  33
ATOM     33  C   UNL A   1      36.181  29.887  28.288  1.00  0.00     0.338 C 
ATOM     34  O   UNL A   1      35.894  30.688  29.174  1.00  0.00    -0.246 OA
BRANCH  33  35
ATOM     35  C   UNL A   1      37.518  29.243  28.263  1.00  0.00     0.060 A 
ATOM     36  C   UNL A   1      38.493  29.704  27.357  1.00  0.00     0.016 A 
ATOM     37  C   UNL A   1      37.864  28.322  29.237  1.00  0.00     0.016 A 
ATOM     38  C   UNL A   1      39.835  29.391  27.538  1.00  0.00     0.010 A 
ATOM     39  C   UNL A   1      39.191  28.124  29.519  1.00  0.00     0.010 A 
ATOM     40  C   UNL A   1      40.170  28.630  28.653  1.00  0.00    -0.014 A 
BRANCH  40  41
ATOM     41  C   UNL A   1      41.467  28.002  28.829  1.00  0.00     0.031 A 
ATOM     42  C   UNL A   1      41.782  26.716  28.187  1.00  0.00     0.074 A 
ATOM     43  C   UNL A   1      42.269  28.752  29.618  1.00  0.00     0.049 A 
ATOM     44  N   UNL A   1      42.326  25.707  28.779  1.00  0.00    -0.248 NA
ATOM     45  C   UNL A   1      41.419  26.421  26.796  1.00  0.00     0.031 C 
ATOM     46  C   UNL A   1      43.676  28.683  29.941  1.00  0.00     0.029 A 
ATOM     47  N   UNL A   1      41.829  29.773  30.451  1.00  0.00    -0.354 N 
ATOM     48  C   UNL A   1      42.765  24.882  27.759  1.00  0.00     0.074 A 
ATOM     49  C   UNL A   1      41.965  25.212  26.607  1.00  0.00     0.031 C 
ATOM     50  C   UNL A   1      43.880  29.371  31.091  1.00  0.00     0.029 A 
ATOM     51  C   UNL A   1      42.575  29.785  31.606  1.00  0.00     0.049 A 
ATOM     52  H   UNL A   1      41.096  30.396  30.243  1.00  0.00     0.167 HD
ATOM     53  C   UNL A   1      44.000  24.310  27.827  1.00  0.00     0.034 A 
ATOM     54  C   UNL A   1      41.967  29.342  32.753  1.00  0.00     0.034 A 
ATOM     55  C   UNL A   1      44.719  24.830  28.982  1.00  0.00     0.049 A 
ATOM     56  C   UNL A   1      42.562  28.021  33.200  1.00  0.00     0.074 A 
ATOM     57  C   UNL A   1      45.660  25.839  29.109  1.00  0.00     0.029 A 
ATOM     58  N   UNL A   1      44.242  24.581  30.251  1.00  0.00    -0.354 N 
ATOM     59  N   UNL A   1      43.170  27.187  32.401  1.00  0.00    -0.248 NA
ATOM     60  C   UNL A   1      42.503  27.536  34.572  1.00  0.00     0.031 C 
ATOM     61  C   UNL A   1      45.761  26.175  30.486  1.00  0.00     0.029 A 
ATOM     62  C   UNL A   1      44.868  25.382  31.180  1.00  0.00     0.049 A 
ATOM     63  H   UNL A   1      43.546  23.919  30.464  1.00  0.00     0.167 HD
ATOM     64  C   UNL A   1      43.684  26.147  33.126  1.00  0.00     0.074 A 
ATOM     65  C   UNL A   1      43.157  26.365  34.465  1.00  0.00     0.031 C 
ATOM     66  C   UNL A   1      44.521  25.213  32.576  1.00  0.00     0.034 A 
BRANCH  53  67
ATOM     67  C   UNL A   1      44.706  23.637  26.675  1.00  0.00     0.023 A 
ATOM     68  C   UNL A   1      44.348  22.318  26.334  1.00  0.00     0.031 A 
ATOM     69  C   UNL A   1      45.693  24.231  25.869  1.00  0.00     0.131 A 
ATOM     70  C   UNL A   1      44.997  21.612  25.310  1.00  0.00     0.055 A 
ATOM     71  C   UNL A   1      46.354  23.525  24.848  1.00  0.00     0.041 A 
ATOM     72  F   UNL A   1      46.036  25.520  26.025  1.00  0.00    -0.206 F 
ATOM     73  C   UNL A   1      46.014  22.203  24.572  1.00  0.00     0.022 A 
BRANCH  70  74
ATOM     74  S   UNL A   1      44.473  19.909  24.976  1.00  0.00     0.124 S 
ATOM     75  O   UNL A   1      44.528  19.852  23.518  1.00  0.00    -0.237 OA
ATOM     76  O   UNL A   1      45.477  19.127  25.688  1.00  0.00    -0.237 OA
ATOM     77  O   UNL A   1      43.127  19.851  25.545  1.00  0.00    -0.744 OA
ENDBRANCH  70  74
ENDBRANCH  53  67
BRANCH  54  78
ATOM     78  C   UNL A   1      40.505  29.712  32.882  1.00  0.00     0.023 A 
ATOM     79  C   UNL A   1      40.146  31.070  32.706  1.00  0.00     0.031 A 
ATOM     80  C   UNL A   1      39.458  28.779  32.875  1.00  0.00     0.131 A 
ATOM     81  C   UNL A   1      38.834  31.438  32.360  1.00  0.00     0.055 A 
ATOM     82  C   UNL A   1      38.129  29.162  32.622  1.00  0.00     0.041 A 
ATOM     83  F   UNL A   1      39.702  27.469  33.021  1.00  0.00    -0.206 F 
ATOM     84  C   UNL A   1      37.815  30.490  32.326  1.00  0.00     0.022 A 
BRANCH  81  85
ATOM     85  S   UNL A   1      38.574  33.102  31.670  1.00  0.00     0.124 S 
ATOM     86  O   UNL A   1      39.443  33.924  32.504  1.00  0.00    -0.237 OA
ATOM     87  O   UNL A   1      38.997  32.929  30.280  1.00  0.00    -0.237 OA
ATOM     88  O   UNL A   1      37.142  33.330  31.837  1.00  0.00    -0.744 OA
ENDBRANCH  81  85
ENDBRANCH  54  78
BRANCH  66  89
ATOM     89  C   UNL A   1      45.108  24.034  33.301  1.00  0.00     0.023 A 
ATOM     90  C   UNL A   1      46.462  23.971  33.629  1.00  0.00     0.031 A 
ATOM     91  C   UNL A   1      44.331  22.903  33.663  1.00  0.00     0.131 A 
ATOM     92  C   UNL A   1      46.957  22.931  34.427  1.00  0.00     0.055 A 
ATOM     93  C   UNL A   1      44.846  21.822  34.376  1.00  0.00     0.041 A 
ATOM     94  F   UNL A   1      43.028  22.796  33.369  1.00  0.00    -0.206 F 
ATOM     95  C   UNL A   1      46.163  21.849  34.797  1.00  0.00     0.022 A 
BRANCH  92  96
ATOM     96  S   UNL A   1      48.643  23.091  35.050  1.00  0.00     0.124 S 
ATOM     97  O   UNL A   1      49.179  24.175  34.235  1.00  0.00    -0.237 OA
ATOM     98  O   UNL A   1      48.407  23.413  36.456  1.00  0.00    -0.237 OA
ATOM     99  O   UNL A   1      49.226  21.774  34.802  1.00  0.00    -0.744 OA
ENDBRANCH  92  96
ENDBRANCH  66  89
ENDBRANCH  40  41
ENDBRANCH  33  35
ENDBRANCH  32  33
ENDBRANCH  31  32
ENDBRANCH   1  31
TORSDOF 17
ENDMDL
