MODEL 1
REMARK VINA RESULT:     -12.6      0.000      0.000
REMARK SMILES O=C(OCCOC(=O)[C@H]1C[C@@H](C(=O)N2CCCC2)C[N@@H+](Cc2cccnc2)C1)c1ccc(-c2c3nc(c(-c4cc(S(=O)(=O)[O-])ccc4F)c4ccc([nH]4)c(-c4cc(S(=O)(=O)[O-])ccc4F)c4nc(c(-c5cc(S(=O)(=O)[O-])ccc5F)c5ccc2[nH]5)C=C4)C=C3)cc1
REMARK SMILES IDX 4 1 3 2 2 3 1 4 29 5 30 6 91 7 31 8 90 9 32 10 33 11 34 12
REMARK SMILES IDX 84 13 35 14 89 15 83 16 85 17 36 18 88 19 82 20 81 21 37 23
REMARK SMILES IDX 69 24 49 25 68 26 50 27 53 28 67 29 86 30 51 31 52 32 66 34
REMARK SMILES IDX 87 35 54 36 38 37 39 38 47 39 40 40 46 41 48 42 45 43 41 44
REMARK SMILES IDX 42 45 43 46 44 47 70 48 71 49 79 50 72 51 78 52 80 53 77 54
REMARK SMILES IDX 73 55 74 56 75 57 76 58 55 59 56 60 64 61 57 62 63 63 65 64
REMARK SMILES IDX 62 65 58 66 59 67 60 68 61 69 5 70 6 71 7 72 8 73 9 74 10 75
REMARK SMILES IDX 28 76 11 77 20 78 19 79 12 81 13 82 14 83 15 84 18 85 16 86
REMARK SMILES IDX 17 87 21 88 22 89 23 90 27 91 24 92 26 93 25 94
REMARK H PARENT 85 22 53 33 20 80
REMARK Flexibility Score: inf
ROOT
ATOM      1  C   UNL A   1      37.798  21.439  25.724  1.00  0.00     0.275 C 
ENDROOT
BRANCH   1   2
ATOM      2  O   UNL A   1      39.226  21.542  25.730  1.00  0.00    -0.458 OA
BRANCH   2   3
ATOM      3  C   UNL A   1      40.052  21.933  26.726  1.00  0.00     0.338 C 
ATOM      4  O   UNL A   1      40.443  21.067  27.510  1.00  0.00    -0.246 OA
BRANCH   3   5
ATOM      5  C   UNL A   1      40.397  23.365  27.034  1.00  0.00     0.060 A 
ATOM      6  C   UNL A   1      39.838  24.519  26.476  1.00  0.00     0.016 A 
ATOM      7  C   UNL A   1      41.300  23.546  28.092  1.00  0.00     0.016 A 
ATOM      8  C   UNL A   1      40.071  25.789  27.019  1.00  0.00     0.010 A 
ATOM      9  C   UNL A   1      41.474  24.802  28.679  1.00  0.00     0.010 A 
ATOM     10  C   UNL A   1      40.865  25.942  28.149  1.00  0.00    -0.014 A 
BRANCH  10  11
ATOM     11  C   UNL A   1      41.227  27.299  28.634  1.00  0.00     0.031 A 
ATOM     12  C   UNL A   1      42.639  27.760  28.393  1.00  0.00     0.074 A 
ATOM     13  C   UNL A   1      40.324  28.106  29.229  1.00  0.00     0.049 A 
ATOM     14  N   UNL A   1      43.221  28.878  28.731  1.00  0.00    -0.248 NA
ATOM     15  C   UNL A   1      43.545  26.796  27.742  1.00  0.00     0.031 C 
ATOM     16  C   UNL A   1      38.941  27.749  29.565  1.00  0.00     0.029 A 
ATOM     17  N   UNL A   1      40.423  29.417  29.632  1.00  0.00    -0.354 N 
ATOM     18  C   UNL A   1      44.552  28.716  28.365  1.00  0.00     0.074 A 
ATOM     19  C   UNL A   1      44.723  27.345  27.958  1.00  0.00     0.031 C 
ATOM     20  C   UNL A   1      38.308  28.833  30.053  1.00  0.00     0.029 A 
ATOM     21  C   UNL A   1      39.240  29.955  30.093  1.00  0.00     0.049 A 
ATOM     22  H   UNL A   1      41.266  29.926  29.596  1.00  0.00     0.167 HD
ATOM     23  C   UNL A   1      45.531  29.646  28.271  1.00  0.00     0.034 A 
ATOM     24  C   UNL A   1      38.953  31.219  30.474  1.00  0.00     0.034 A 
ATOM     25  C   UNL A   1      45.315  31.023  28.607  1.00  0.00     0.049 A 
ATOM     26  C   UNL A   1      40.064  32.247  30.390  1.00  0.00     0.074 A 
ATOM     27  C   UNL A   1      46.200  32.079  28.549  1.00  0.00     0.029 A 
ATOM     28  N   UNL A   1      44.101  31.532  29.056  1.00  0.00    -0.354 N 
ATOM     29  N   UNL A   1      41.307  32.095  29.985  1.00  0.00    -0.248 NA
ATOM     30  C   UNL A   1      39.728  33.620  30.787  1.00  0.00     0.031 C 
ATOM     31  C   UNL A   1      45.539  33.219  29.020  1.00  0.00     0.029 A 
ATOM     32  C   UNL A   1      44.218  32.888  29.295  1.00  0.00     0.049 A 
ATOM     33  H   UNL A   1      43.281  31.005  29.186  1.00  0.00     0.167 HD
ATOM     34  C   UNL A   1      41.883  33.362  30.034  1.00  0.00     0.074 A 
ATOM     35  C   UNL A   1      40.846  34.265  30.493  1.00  0.00     0.031 C 
ATOM     36  C   UNL A   1      43.147  33.755  29.727  1.00  0.00     0.034 A 
BRANCH  23  37
ATOM     37  C   UNL A   1      46.879  29.161  27.795  1.00  0.00     0.023 A 
ATOM     38  C   UNL A   1      47.135  28.930  26.429  1.00  0.00     0.031 A 
ATOM     39  C   UNL A   1      47.858  28.771  28.721  1.00  0.00     0.131 A 
ATOM     40  C   UNL A   1      48.264  28.194  26.044  1.00  0.00     0.055 A 
ATOM     41  C   UNL A   1      49.038  28.141  28.319  1.00  0.00     0.041 A 
ATOM     42  F   UNL A   1      47.661  28.943  30.037  1.00  0.00    -0.206 F 
ATOM     43  C   UNL A   1      49.233  27.822  26.978  1.00  0.00     0.022 A 
BRANCH  40  44
ATOM     44  S   UNL A   1      48.328  27.531  24.354  1.00  0.00     0.124 S 
ATOM     45  O   UNL A   1      47.189  28.204  23.733  1.00  0.00    -0.237 OA
ATOM     46  O   UNL A   1      49.645  27.955  23.895  1.00  0.00    -0.237 OA
ATOM     47  O   UNL A   1      48.165  26.091  24.544  1.00  0.00    -0.744 OA
ENDBRANCH  40  44
ENDBRANCH  23  37
BRANCH  24  48
ATOM     48  C   UNL A   1      37.585  31.618  30.938  1.00  0.00     0.023 A 
ATOM     49  C   UNL A   1      36.662  32.217  30.060  1.00  0.00     0.031 A 
ATOM     50  C   UNL A   1      37.207  31.496  32.287  1.00  0.00     0.131 A 
ATOM     51  C   UNL A   1      35.446  32.730  30.549  1.00  0.00     0.055 A 
ATOM     52  C   UNL A   1      35.974  31.957  32.759  1.00  0.00     0.041 A 
ATOM     53  F   UNL A   1      38.041  30.933  33.176  1.00  0.00    -0.206 F 
ATOM     54  C   UNL A   1      35.092  32.595  31.891  1.00  0.00     0.022 A 
BRANCH  51  55
ATOM     55  S   UNL A   1      34.380  33.678  29.423  1.00  0.00     0.124 S 
ATOM     56  O   UNL A   1      33.819  32.623  28.586  1.00  0.00    -0.237 OA
ATOM     57  O   UNL A   1      33.456  34.321  30.352  1.00  0.00    -0.237 OA
ATOM     58  O   UNL A   1      35.312  34.581  28.750  1.00  0.00    -0.744 OA
ENDBRANCH  51  55
ENDBRANCH  24  48
BRANCH  36  59
ATOM     59  C   UNL A   1      43.448  35.228  29.801  1.00  0.00     0.023 A 
ATOM     60  C   UNL A   1      43.287  36.074  28.692  1.00  0.00     0.031 A 
ATOM     61  C   UNL A   1      43.880  35.794  31.014  1.00  0.00     0.131 A 
ATOM     62  C   UNL A   1      43.613  37.433  28.804  1.00  0.00     0.055 A 
ATOM     63  C   UNL A   1      44.131  37.159  31.138  1.00  0.00     0.041 A 
ATOM     64  F   UNL A   1      44.049  35.028  32.104  1.00  0.00    -0.206 F 
ATOM     65  C   UNL A   1      44.011  37.985  30.024  1.00  0.00     0.022 A 
BRANCH  62  66
ATOM     66  S   UNL A   1      43.609  38.449  27.302  1.00  0.00     0.124 S 
ATOM     67  O   UNL A   1      42.404  37.985  26.626  1.00  0.00    -0.237 OA
ATOM     68  O   UNL A   1      43.554  39.803  27.844  1.00  0.00    -0.237 OA
ATOM     69  O   UNL A   1      44.866  38.094  26.647  1.00  0.00    -0.744 OA
ENDBRANCH  62  66
ENDBRANCH  36  59
ENDBRANCH  10  11
ENDBRANCH   3   5
ENDBRANCH   2   3
ENDBRANCH   1   2
BRANCH   1  70
ATOM     70  C   UNL A   1      37.185  21.537  24.321  1.00  0.00     0.274 C 
BRANCH  70  71
ATOM     71  O   UNL A   1      36.265  22.637  24.137  1.00  0.00    -0.462 OA
BRANCH  71  72
ATOM     72  C   UNL A   1      35.765  23.209  25.275  1.00  0.00     0.314 C 
ATOM     73  O   UNL A   1      36.255  24.188  25.819  1.00  0.00    -0.252 OA
BRANCH  72  74
ATOM     74  C   UNL A   1      34.499  22.499  25.769  1.00  0.00     0.155 C 
ATOM     75  C   UNL A   1      33.362  23.508  25.966  1.00  0.00     0.040 C 
ATOM     76  C   UNL A   1      34.103  21.461  24.723  1.00  0.00     0.277 C 
ATOM     77  C   UNL A   1      31.987  22.840  26.164  1.00  0.00     0.134 C 
ATOM     78  N   UNL A   1      32.810  20.817  24.932  1.00  0.00    -0.330 N 
ATOM     79  C   UNL A   1      31.739  21.786  25.083  1.00  0.00     0.276 C 
ATOM     80  H   UNL A   1      32.933  20.314  25.810  1.00  0.00     0.348 HD
BRANCH  77  81
ATOM     81  C   UNL A   1      30.927  23.954  26.172  1.00  0.00     0.231 C 
ATOM     82  O   UNL A   1      30.220  24.143  27.164  1.00  0.00    -0.274 OA
ATOM     83  N   UNL A   1      30.981  24.883  25.163  1.00  0.00    -0.342 N 
ATOM     84  C   UNL A   1      30.591  24.701  23.777  1.00  0.00     0.119 C 
ATOM     85  C   UNL A   1      31.539  26.199  25.388  1.00  0.00     0.119 C 
ATOM     86  C   UNL A   1      31.509  25.660  23.038  1.00  0.00     0.023 C 
ATOM     87  C   UNL A   1      31.595  26.841  24.004  1.00  0.00     0.023 C 
ENDBRANCH  77  81
BRANCH  78  88
ATOM     88  C   UNL A   1      32.445  19.772  23.947  1.00  0.00     0.300 C 
BRANCH  88  89
ATOM     89  C   UNL A   1      32.845  18.333  24.205  1.00  0.00     0.025 A 
ATOM     90  C   UNL A   1      33.632  17.588  23.324  1.00  0.00     0.013 A 
ATOM     91  C   UNL A   1      32.519  17.711  25.410  1.00  0.00     0.120 A 
ATOM     92  C   UNL A   1      34.020  16.289  23.638  1.00  0.00     0.021 A 
ATOM     93  N   UNL A   1      32.873  16.445  25.747  1.00  0.00    -0.264 NA
ATOM     94  C   UNL A   1      33.620  15.766  24.852  1.00  0.00     0.111 A 
ENDBRANCH  88  89
ENDBRANCH  78  88
ENDBRANCH  72  74
ENDBRANCH  71  72
ENDBRANCH  70  71
ENDBRANCH   1  70
TORSDOF 17
ENDMDL
MODEL 2
REMARK VINA RESULT:     -12.6      1.401      1.697
REMARK SMILES O=C(OCCOC(=O)[C@H]1C[C@@H](C(=O)N2CCCC2)C[N@@H+](Cc2cccnc2)C1)c1ccc(-c2c3nc(c(-c4cc(S(=O)(=O)[O-])ccc4F)c4ccc([nH]4)c(-c4cc(S(=O)(=O)[O-])ccc4F)c4nc(c(-c5cc(S(=O)(=O)[O-])ccc5F)c5ccc2[nH]5)C=C4)C=C3)cc1
REMARK SMILES IDX 4 1 3 2 2 3 1 4 29 5 30 6 91 7 31 8 90 9 32 10 33 11 34 12
REMARK SMILES IDX 84 13 35 14 89 15 83 16 85 17 36 18 88 19 82 20 81 21 37 23
REMARK SMILES IDX 69 24 49 25 68 26 50 27 53 28 67 29 86 30 51 31 52 32 66 34
REMARK SMILES IDX 87 35 54 36 38 37 39 38 47 39 40 40 46 41 48 42 45 43 41 44
REMARK SMILES IDX 42 45 43 46 44 47 70 48 71 49 79 50 72 51 78 52 80 53 77 54
REMARK SMILES IDX 73 55 74 56 75 57 76 58 55 59 56 60 64 61 57 62 63 63 65 64
REMARK SMILES IDX 62 65 58 66 59 67 60 68 61 69 5 70 6 71 7 72 8 73 9 74 10 75
REMARK SMILES IDX 28 76 11 77 20 78 19 79 12 81 13 82 14 83 15 84 18 85 16 86
REMARK SMILES IDX 17 87 21 88 22 89 23 90 27 91 24 92 26 93 25 94
REMARK H PARENT 85 22 53 33 20 80
REMARK Flexibility Score: inf
ROOT
ATOM      1  C   UNL A   1      37.525  21.921  25.709  1.00  0.00     0.275 C 
ENDROOT
BRANCH   1   2
ATOM      2  O   UNL A   1      38.894  21.505  25.760  1.00  0.00    -0.458 OA
BRANCH   2   3
ATOM      3  C   UNL A   1      39.862  21.853  26.637  1.00  0.00     0.338 C 
ATOM      4  O   UNL A   1      40.356  20.956  27.322  1.00  0.00    -0.246 OA
BRANCH   3   5
ATOM      5  C   UNL A   1      40.265  23.270  26.941  1.00  0.00     0.060 A 
ATOM      6  C   UNL A   1      39.754  24.445  26.381  1.00  0.00     0.016 A 
ATOM      7  C   UNL A   1      41.176  23.417  27.998  1.00  0.00     0.016 A 
ATOM      8  C   UNL A   1      40.038  25.706  26.921  1.00  0.00     0.010 A 
ATOM      9  C   UNL A   1      41.401  24.666  28.582  1.00  0.00     0.010 A 
ATOM     10  C   UNL A   1      40.838  25.829  28.050  1.00  0.00    -0.014 A 
BRANCH  10  11
ATOM     11  C   UNL A   1      41.255  27.171  28.532  1.00  0.00     0.031 A 
ATOM     12  C   UNL A   1      42.653  27.617  28.199  1.00  0.00     0.074 A 
ATOM     13  C   UNL A   1      40.409  27.980  29.205  1.00  0.00     0.049 A 
ATOM     14  N   UNL A   1      43.275  28.720  28.514  1.00  0.00    -0.248 NA
ATOM     15  C   UNL A   1      43.495  26.652  27.468  1.00  0.00     0.031 C 
ATOM     16  C   UNL A   1      39.049  27.636  29.633  1.00  0.00     0.029 A 
ATOM     17  N   UNL A   1      40.558  29.281  29.623  1.00  0.00    -0.354 N 
ATOM     18  C   UNL A   1      44.575  28.545  28.051  1.00  0.00     0.074 A 
ATOM     19  C   UNL A   1      44.694  27.180  27.608  1.00  0.00     0.031 C 
ATOM     20  C   UNL A   1      38.469  28.719  30.184  1.00  0.00     0.029 A 
ATOM     21  C   UNL A   1      39.419  29.828  30.178  1.00  0.00     0.049 A 
ATOM     22  H   UNL A   1      41.403  29.778  29.536  1.00  0.00     0.167 HD
ATOM     23  C   UNL A   1      45.558  29.463  27.903  1.00  0.00     0.034 A 
ATOM     24  C   UNL A   1      39.180  31.088  30.600  1.00  0.00     0.034 A 
ATOM     25  C   UNL A   1      45.389  30.836  28.278  1.00  0.00     0.049 A 
ATOM     26  C   UNL A   1      40.298  32.101  30.455  1.00  0.00     0.074 A 
ATOM     27  C   UNL A   1      46.284  31.880  28.176  1.00  0.00     0.029 A 
ATOM     28  N   UNL A   1      44.218  31.354  28.823  1.00  0.00    -0.354 N 
ATOM     29  N   UNL A   1      41.506  31.939  29.959  1.00  0.00    -0.248 NA
ATOM     30  C   UNL A   1      40.013  33.471  30.900  1.00  0.00     0.031 C 
ATOM     31  C   UNL A   1      45.676  33.020  28.713  1.00  0.00     0.029 A 
ATOM     32  C   UNL A   1      44.372  32.703  29.076  1.00  0.00     0.049 A 
ATOM     33  H   UNL A   1      43.401  30.837  29.001  1.00  0.00     0.167 HD
ATOM     34  C   UNL A   1      42.104  33.197  29.989  1.00  0.00     0.074 A 
ATOM     35  C   UNL A   1      41.117  34.106  30.538  1.00  0.00     0.031 C 
ATOM     36  C   UNL A   1      43.349  33.577  29.599  1.00  0.00     0.034 A 
BRANCH  23  37
ATOM     37  C   UNL A   1      46.861  28.967  27.324  1.00  0.00     0.023 A 
ATOM     38  C   UNL A   1      47.015  28.758  25.938  1.00  0.00     0.031 A 
ATOM     39  C   UNL A   1      47.898  28.547  28.170  1.00  0.00     0.131 A 
ATOM     40  C   UNL A   1      48.102  28.013  25.461  1.00  0.00     0.055 A 
ATOM     41  C   UNL A   1      49.036  27.908  27.673  1.00  0.00     0.041 A 
ATOM     42  F   UNL A   1      47.798  28.698  29.500  1.00  0.00    -0.206 F 
ATOM     43  C   UNL A   1      49.130  27.611  26.316  1.00  0.00     0.022 A 
BRANCH  40  44
ATOM     44  S   UNL A   1      48.034  27.380  23.760  1.00  0.00     0.124 S 
ATOM     45  O   UNL A   1      47.745  25.965  23.985  1.00  0.00    -0.237 OA
ATOM     46  O   UNL A   1      46.954  28.164  23.171  1.00  0.00    -0.237 OA
ATOM     47  O   UNL A   1      49.369  27.661  23.235  1.00  0.00    -0.744 OA
ENDBRANCH  40  44
ENDBRANCH  23  37
BRANCH  24  48
ATOM     48  C   UNL A   1      37.855  31.498  31.168  1.00  0.00     0.023 A 
ATOM     49  C   UNL A   1      36.855  32.064  30.354  1.00  0.00     0.031 A 
ATOM     50  C   UNL A   1      37.597  31.419  32.549  1.00  0.00     0.131 A 
ATOM     51  C   UNL A   1      35.683  32.589  30.930  1.00  0.00     0.055 A 
ATOM     52  C   UNL A   1      36.406  31.892  33.110  1.00  0.00     0.041 A 
ATOM     53  F   UNL A   1      38.509  30.890  33.379  1.00  0.00    -0.206 F 
ATOM     54  C   UNL A   1      35.449  32.498  32.302  1.00  0.00     0.022 A 
BRANCH  51  55
ATOM     55  S   UNL A   1      34.517  33.495  29.871  1.00  0.00     0.124 S 
ATOM     56  O   UNL A   1      35.405  34.414  29.169  1.00  0.00    -0.237 OA
ATOM     57  O   UNL A   1      33.940  32.421  29.070  1.00  0.00    -0.237 OA
ATOM     58  O   UNL A   1      33.602  34.117  30.826  1.00  0.00    -0.744 OA
ENDBRANCH  51  55
ENDBRANCH  24  48
BRANCH  36  59
ATOM     59  C   UNL A   1      43.677  35.044  29.678  1.00  0.00     0.023 A 
ATOM     60  C   UNL A   1      44.206  35.625  30.842  1.00  0.00     0.031 A 
ATOM     61  C   UNL A   1      43.477  35.867  28.555  1.00  0.00     0.131 A 
ATOM     62  C   UNL A   1      44.463  37.002  30.875  1.00  0.00     0.055 A 
ATOM     63  C   UNL A   1      43.805  37.222  28.570  1.00  0.00     0.041 A 
ATOM     64  F   UNL A   1      42.974  35.361  27.417  1.00  0.00    -0.206 F 
ATOM     65  C   UNL A   1      44.288  37.799  29.741  1.00  0.00     0.022 A 
BRANCH  62  66
ATOM     66  S   UNL A   1      44.931  37.756  32.456  1.00  0.00     0.124 S 
ATOM     67  O   UNL A   1      45.367  39.084  32.040  1.00  0.00    -0.237 OA
ATOM     68  O   UNL A   1      43.681  37.703  33.207  1.00  0.00    -0.237 OA
ATOM     69  O   UNL A   1      45.990  36.880  32.952  1.00  0.00    -0.744 OA
ENDBRANCH  62  66
ENDBRANCH  36  59
ENDBRANCH  10  11
ENDBRANCH   3   5
ENDBRANCH   2   3
ENDBRANCH   1   2
BRANCH   1  70
ATOM     70  C   UNL A   1      36.980  22.053  24.281  1.00  0.00     0.274 C 
BRANCH  70  71
ATOM     71  O   UNL A   1      36.537  23.381  23.922  1.00  0.00    -0.462 OA
BRANCH  71  72
ATOM     72  C   UNL A   1      35.194  23.539  23.710  1.00  0.00     0.314 C 
ATOM     73  O   UNL A   1      34.720  24.195  22.793  1.00  0.00    -0.252 OA
BRANCH  72  74
ATOM     74  C   UNL A   1      34.354  22.770  24.736  1.00  0.00     0.155 C 
ATOM     75  C   UNL A   1      33.190  23.635  25.230  1.00  0.00     0.040 C 
ATOM     76  C   UNL A   1      33.820  21.511  24.057  1.00  0.00     0.277 C 
ATOM     77  C   UNL A   1      32.136  22.837  26.022  1.00  0.00     0.134 C 
ATOM     78  N   UNL A   1      32.840  20.749  24.825  1.00  0.00    -0.330 N 
ATOM     79  C   UNL A   1      31.727  21.577  25.258  1.00  0.00     0.276 C 
ATOM     80  H   UNL A   1      33.365  20.440  25.642  1.00  0.00     0.348 HD
BRANCH  77  81
ATOM     81  C   UNL A   1      30.954  23.780  26.302  1.00  0.00     0.231 C 
ATOM     82  O   UNL A   1      30.278  23.656  27.325  1.00  0.00    -0.274 OA
ATOM     83  N   UNL A   1      30.850  24.908  25.526  1.00  0.00    -0.342 N 
ATOM     84  C   UNL A   1      30.418  24.988  24.143  1.00  0.00     0.119 C 
ATOM     85  C   UNL A   1      31.259  26.202  26.030  1.00  0.00     0.119 C 
ATOM     86  C   UNL A   1      31.181  26.195  23.621  1.00  0.00     0.023 C 
ATOM     87  C   UNL A   1      31.174  27.135  24.825  1.00  0.00     0.023 C 
ENDBRANCH  77  81
BRANCH  78  88
ATOM     88  C   UNL A   1      32.357  19.500  24.192  1.00  0.00     0.300 C 
BRANCH  88  89
ATOM     89  C   UNL A   1      33.019  18.182  24.545  1.00  0.00     0.025 A 
ATOM     90  C   UNL A   1      34.340  17.877  24.209  1.00  0.00     0.013 A 
ATOM     91  C   UNL A   1      32.353  17.240  25.327  1.00  0.00     0.120 A 
ATOM     92  C   UNL A   1      34.919  16.676  24.610  1.00  0.00     0.021 A 
ATOM     93  N   UNL A   1      32.882  16.057  25.730  1.00  0.00    -0.264 NA
ATOM     94  C   UNL A   1      34.155  15.806  25.363  1.00  0.00     0.111 A 
ENDBRANCH  88  89
ENDBRANCH  78  88
ENDBRANCH  72  74
ENDBRANCH  71  72
ENDBRANCH  70  71
ENDBRANCH   1  70
TORSDOF 17
ENDMDL
MODEL 3
REMARK VINA RESULT:     -12.4      1.607      1.984
REMARK SMILES O=C(OCCOC(=O)[C@H]1C[C@@H](C(=O)N2CCCC2)C[N@@H+](Cc2cccnc2)C1)c1ccc(-c2c3nc(c(-c4cc(S(=O)(=O)[O-])ccc4F)c4ccc([nH]4)c(-c4cc(S(=O)(=O)[O-])ccc4F)c4nc(c(-c5cc(S(=O)(=O)[O-])ccc5F)c5ccc2[nH]5)C=C4)C=C3)cc1
REMARK SMILES IDX 4 1 3 2 2 3 1 4 29 5 30 6 91 7 31 8 90 9 32 10 33 11 34 12
REMARK SMILES IDX 84 13 35 14 89 15 83 16 85 17 36 18 88 19 82 20 81 21 37 23
REMARK SMILES IDX 69 24 49 25 68 26 50 27 53 28 67 29 86 30 51 31 52 32 66 34
REMARK SMILES IDX 87 35 54 36 38 37 39 38 47 39 40 40 46 41 48 42 45 43 41 44
REMARK SMILES IDX 42 45 43 46 44 47 70 48 71 49 79 50 72 51 78 52 80 53 77 54
REMARK SMILES IDX 73 55 74 56 75 57 76 58 55 59 56 60 64 61 57 62 63 63 65 64
REMARK SMILES IDX 62 65 58 66 59 67 60 68 61 69 5 70 6 71 7 72 8 73 9 74 10 75
REMARK SMILES IDX 28 76 11 77 20 78 19 79 12 81 13 82 14 83 15 84 18 85 16 86
REMARK SMILES IDX 17 87 21 88 22 89 23 90 27 91 24 92 26 93 25 94
REMARK H PARENT 85 22 53 33 20 80
REMARK Flexibility Score: inf
ROOT
ATOM      1  C   UNL A   1      38.854  20.479  25.624  1.00  0.00     0.275 C 
ENDROOT
BRANCH   1   2
ATOM      2  O   UNL A   1      40.186  20.915  25.920  1.00  0.00    -0.458 OA
BRANCH   2   3
ATOM      3  C   UNL A   1      40.684  21.424  27.068  1.00  0.00     0.338 C 
ATOM      4  O   UNL A   1      40.784  20.661  28.030  1.00  0.00    -0.246 OA
BRANCH   3   5
ATOM      5  C   UNL A   1      40.975  22.882  27.298  1.00  0.00     0.060 A 
ATOM      6  C   UNL A   1      40.336  23.985  26.720  1.00  0.00     0.016 A 
ATOM      7  C   UNL A   1      41.919  23.151  28.299  1.00  0.00     0.016 A 
ATOM      8  C   UNL A   1      40.535  25.287  27.196  1.00  0.00     0.010 A 
ATOM      9  C   UNL A   1      42.062  24.439  28.824  1.00  0.00     0.010 A 
ATOM     10  C   UNL A   1      41.374  25.526  28.278  1.00  0.00    -0.014 A 
BRANCH  10  11
ATOM     11  C   UNL A   1      41.695  26.918  28.686  1.00  0.00     0.031 A 
ATOM     12  C   UNL A   1      43.070  27.431  28.354  1.00  0.00     0.074 A 
ATOM     13  C   UNL A   1      40.785  27.709  29.292  1.00  0.00     0.049 A 
ATOM     14  N   UNL A   1      43.614  28.588  28.615  1.00  0.00    -0.248 NA
ATOM     15  C   UNL A   1      43.988  26.481  27.700  1.00  0.00     0.031 C 
ATOM     16  C   UNL A   1      39.439  27.305  29.712  1.00  0.00     0.029 A 
ATOM     17  N   UNL A   1      40.842  29.039  29.633  1.00  0.00    -0.354 N 
ATOM     18  C   UNL A   1      44.933  28.470  28.189  1.00  0.00     0.074 A 
ATOM     19  C   UNL A   1      45.148  27.092  27.832  1.00  0.00     0.031 C 
ATOM     20  C   UNL A   1      38.779  28.379  30.185  1.00  0.00     0.029 A 
ATOM     21  C   UNL A   1      39.658  29.544  30.131  1.00  0.00     0.049 A 
ATOM     22  H   UNL A   1      41.656  29.584  29.533  1.00  0.00     0.167 HD
ATOM     23  C   UNL A   1      45.860  29.439  28.006  1.00  0.00     0.034 A 
ATOM     24  C   UNL A   1      39.331  30.809  30.471  1.00  0.00     0.034 A 
ATOM     25  C   UNL A   1      45.596  30.818  28.294  1.00  0.00     0.049 A 
ATOM     26  C   UNL A   1      40.386  31.881  30.288  1.00  0.00     0.074 A 
ATOM     27  C   UNL A   1      46.426  31.909  28.147  1.00  0.00     0.029 A 
ATOM     28  N   UNL A   1      44.383  31.291  28.783  1.00  0.00    -0.354 N 
ATOM     29  N   UNL A   1      41.613  31.768  29.828  1.00  0.00    -0.248 NA
ATOM     30  C   UNL A   1      40.005  33.254  30.644  1.00  0.00     0.031 C 
ATOM     31  C   UNL A   1      45.735  33.037  28.603  1.00  0.00     0.029 A 
ATOM     32  C   UNL A   1      44.446  32.660  28.958  1.00  0.00     0.049 A 
ATOM     33  H   UNL A   1      43.595  30.734  28.976  1.00  0.00     0.167 HD
ATOM     34  C   UNL A   1      42.130  33.061  29.793  1.00  0.00     0.074 A 
ATOM     35  C   UNL A   1      41.076  33.935  30.266  1.00  0.00     0.031 C 
ATOM     36  C   UNL A   1      43.358  33.496  29.406  1.00  0.00     0.034 A 
BRANCH  23  37
ATOM     37  C   UNL A   1      47.205  28.994  27.484  1.00  0.00     0.023 A 
ATOM     38  C   UNL A   1      47.382  28.623  26.136  1.00  0.00     0.031 A 
ATOM     39  C   UNL A   1      48.273  28.783  28.368  1.00  0.00     0.131 A 
ATOM     40  C   UNL A   1      48.535  27.926  25.748  1.00  0.00     0.055 A 
ATOM     41  C   UNL A   1      49.467  28.191  27.947  1.00  0.00     0.041 A 
ATOM     42  F   UNL A   1      48.156  29.093  29.668  1.00  0.00    -0.206 F 
ATOM     43  C   UNL A   1      49.592  27.732  26.639  1.00  0.00     0.022 A 
BRANCH  40  44
ATOM     44  S   UNL A   1      48.531  27.076  24.143  1.00  0.00     0.124 S 
ATOM     45  O   UNL A   1      49.422  25.948  24.407  1.00  0.00    -0.237 OA
ATOM     46  O   UNL A   1      47.122  26.745  23.961  1.00  0.00    -0.237 OA
ATOM     47  O   UNL A   1      49.062  28.079  23.222  1.00  0.00    -0.744 OA
ENDBRANCH  40  44
ENDBRANCH  23  37
BRANCH  24  48
ATOM     48  C   UNL A   1      37.969  31.166  30.987  1.00  0.00     0.023 A 
ATOM     49  C   UNL A   1      37.009  31.774  30.155  1.00  0.00     0.031 A 
ATOM     50  C   UNL A   1      37.634  30.994  32.342  1.00  0.00     0.131 A 
ATOM     51  C   UNL A   1      35.799  32.247  30.695  1.00  0.00     0.055 A 
ATOM     52  C   UNL A   1      36.406  31.416  32.863  1.00  0.00     0.041 A 
ATOM     53  F   UNL A   1      38.503  30.420  33.188  1.00  0.00    -0.206 F 
ATOM     54  C   UNL A   1      35.487  32.063  32.042  1.00  0.00     0.022 A 
BRANCH  51  55
ATOM     55  S   UNL A   1      34.683  33.209  29.631  1.00  0.00     0.124 S 
ATOM     56  O   UNL A   1      34.105  32.168  28.788  1.00  0.00    -0.237 OA
ATOM     57  O   UNL A   1      33.785  33.817  30.608  1.00  0.00    -0.237 OA
ATOM     58  O   UNL A   1      35.580  34.139  28.949  1.00  0.00    -0.744 OA
ENDBRANCH  51  55
ENDBRANCH  24  48
BRANCH  36  59
ATOM     59  C   UNL A   1      43.592  34.983  29.403  1.00  0.00     0.023 A 
ATOM     60  C   UNL A   1      44.147  35.649  30.507  1.00  0.00     0.031 A 
ATOM     61  C   UNL A   1      43.272  35.739  28.260  1.00  0.00     0.131 A 
ATOM     62  C   UNL A   1      44.314  37.040  30.466  1.00  0.00     0.055 A 
ATOM     63  C   UNL A   1      43.510  37.111  28.199  1.00  0.00     0.041 A 
ATOM     64  F   UNL A   1      42.739  35.150  27.178  1.00  0.00    -0.206 F 
ATOM     65  C   UNL A   1      44.021  37.772  29.312  1.00  0.00     0.022 A 
BRANCH  62  66
ATOM     66  S   UNL A   1      44.822  37.895  31.982  1.00  0.00     0.124 S 
ATOM     67  O   UNL A   1      43.551  38.411  32.479  1.00  0.00    -0.237 OA
ATOM     68  O   UNL A   1      45.419  36.815  32.762  1.00  0.00    -0.237 OA
ATOM     69  O   UNL A   1      45.760  38.908  31.505  1.00  0.00    -0.744 OA
ENDBRANCH  62  66
ENDBRANCH  36  59
ENDBRANCH  10  11
ENDBRANCH   3   5
ENDBRANCH   2   3
ENDBRANCH   1   2
BRANCH   1  70
ATOM     70  C   UNL A   1      37.884  21.632  25.331  1.00  0.00     0.274 C 
BRANCH  70  71
ATOM     71  O   UNL A   1      37.194  21.536  24.065  1.00  0.00    -0.462 OA
BRANCH  71  72
ATOM     72  C   UNL A   1      36.422  22.608  23.710  1.00  0.00     0.314 C 
ATOM     73  O   UNL A   1      36.655  23.330  22.752  1.00  0.00    -0.252 OA
BRANCH  72  74
ATOM     74  C   UNL A   1      35.210  22.777  24.634  1.00  0.00     0.155 C 
ATOM     75  C   UNL A   1      34.443  24.055  24.281  1.00  0.00     0.040 C 
ATOM     76  C   UNL A   1      34.309  21.558  24.456  1.00  0.00     0.277 C 
ATOM     77  C   UNL A   1      33.058  24.135  24.954  1.00  0.00     0.134 C 
ATOM     78  N   UNL A   1      33.009  21.634  25.116  1.00  0.00    -0.330 N 
ATOM     79  C   UNL A   1      32.281  22.835  24.745  1.00  0.00     0.276 C 
ATOM     80  H   UNL A   1      33.246  21.679  26.106  1.00  0.00     0.348 HD
BRANCH  77  81
ATOM     81  C   UNL A   1      32.335  25.366  24.381  1.00  0.00     0.231 C 
ATOM     82  O   UNL A   1      31.553  25.253  23.434  1.00  0.00    -0.274 OA
ATOM     83  N   UNL A   1      32.380  26.523  25.117  1.00  0.00    -0.342 N 
ATOM     84  C   UNL A   1      33.508  27.423  25.276  1.00  0.00     0.119 C 
ATOM     85  C   UNL A   1      31.250  26.945  25.918  1.00  0.00     0.119 C 
ATOM     86  C   UNL A   1      33.282  28.007  26.660  1.00  0.00     0.023 C 
ATOM     87  C   UNL A   1      31.761  28.141  26.716  1.00  0.00     0.023 C 
ENDBRANCH  77  81
BRANCH  78  88
ATOM     88  C   UNL A   1      32.152  20.432  24.988  1.00  0.00     0.300 C 
BRANCH  88  89
ATOM     89  C   UNL A   1      32.712  19.184  24.334  1.00  0.00     0.025 A 
ATOM     90  C   UNL A   1      33.557  18.290  24.995  1.00  0.00     0.013 A 
ATOM     91  C   UNL A   1      32.317  18.817  23.049  1.00  0.00     0.120 A 
ATOM     92  C   UNL A   1      33.996  17.127  24.368  1.00  0.00     0.021 A 
ATOM     93  N   UNL A   1      32.728  17.697  22.403  1.00  0.00    -0.264 NA
ATOM     94  C   UNL A   1      33.557  16.877  23.083  1.00  0.00     0.111 A 
ENDBRANCH  88  89
ENDBRANCH  78  88
ENDBRANCH  72  74
ENDBRANCH  71  72
ENDBRANCH  70  71
ENDBRANCH   1  70
TORSDOF 17
ENDMDL
