MODEL 1
REMARK VINA RESULT:     -11.3      0.000      0.000
REMARK SMILES CSCc1ccc(C(=O)N[C@H]2C=C[C@@H](C(=O)OCCOC(=O)c3ccc(-c4c5nc(c(-c6cc(S(=O)(=O)[O-])ccc6F)c6ccc([nH]6)c(-c6cc(S(=O)(=O)[O-])ccc6F)c6nc(c(-c7cc(S(=O)(=O)[O-])ccc7F)c7ccc4[nH]7)C=C6)C=C5)cc3)C2)o1
REMARK SMILES IDX 18 1 17 2 15 3 16 4 14 5 11 6 12 7 86 8 13 9 10 10 8 11 9 12
REMARK SMILES IDX 7 14 4 15 5 16 87 17 6 18 3 19 2 20 1 21 19 22 20 23 21 24
REMARK SMILES IDX 22 25 23 26 24 27 85 28 25 29 84 30 26 31 27 32 28 33 78 34
REMARK SMILES IDX 29 35 83 36 77 37 79 38 30 39 82 40 76 41 75 42 31 44 63 45
REMARK SMILES IDX 43 46 62 47 44 48 47 49 61 50 80 51 45 52 46 53 60 55 81 56
REMARK SMILES IDX 48 57 32 58 33 59 41 60 34 61 40 62 42 63 39 64 35 65 36 66
REMARK SMILES IDX 37 67 38 68 64 69 65 70 73 71 66 72 72 73 74 74 71 75 67 76
REMARK SMILES IDX 68 77 69 78 70 79 49 80 50 81 58 82 51 83 57 84 59 85 56 86
REMARK SMILES IDX 52 87 53 88 54 89 55 90
REMARK H PARENT 10 13 79 43 47 54
REMARK Flexibility Score: inf
ROOT
ATOM      1  C   UNL A   1      35.883  21.638  25.400  1.00  0.00     0.274 C 
ENDROOT
BRANCH   1   2
ATOM      2  O   UNL A   1      34.673  21.060  24.881  1.00  0.00    -0.462 OA
BRANCH   2   3
ATOM      3  C   UNL A   1      33.592  21.009  25.706  1.00  0.00     0.312 C 
ATOM      4  O   UNL A   1      33.648  21.046  26.929  1.00  0.00    -0.252 OA
BRANCH   3   5
ATOM      5  C   UNL A   1      32.293  21.075  24.896  1.00  0.00     0.124 C 
ATOM      6  C   UNL A   1      31.832  22.647  23.072  1.00  0.00     0.106 C 
ATOM      7  C   UNL A   1      32.217  21.323  22.546  1.00  0.00    -0.006 C 
ATOM      8  C   UNL A   1      31.827  22.501  24.592  1.00  0.00     0.048 C 
ATOM      9  C   UNL A   1      32.427  20.447  23.538  1.00  0.00    -0.014 C 
BRANCH   6  10
ATOM     10  N   UNL A   1      32.611  23.776  22.605  1.00  0.00    -0.343 N 
ATOM     11  C   UNL A   1      32.422  25.078  22.221  1.00  0.00     0.287 C 
ATOM     12  O   UNL A   1      33.340  25.510  21.510  1.00  0.00    -0.266 OA
ATOM     13  H   UNL A   1      33.564  23.534  22.543  1.00  0.00     0.164 HD
BRANCH  11  14
ATOM     14  C   UNL A   1      31.325  25.933  22.638  1.00  0.00     0.191 A 
ATOM     15  C   UNL A   1      30.309  27.927  22.643  1.00  0.00     0.114 A 
ATOM     16  C   UNL A   1      29.651  27.145  23.560  1.00  0.00     0.047 A 
ATOM     17  O   UNL A   1      31.315  27.200  22.077  1.00  0.00    -0.455 OA
ATOM     18  C   UNL A   1      30.263  25.872  23.514  1.00  0.00     0.056 A 
BRANCH  15  19
ATOM     19  C   UNL A   1      30.182  29.329  22.171  1.00  0.00     0.144 C 
BRANCH  19  20
ATOM     20  S   UNL A   1      29.288  30.438  23.309  1.00  0.00    -0.157 SA
ATOM     21  C   UNL A   1      27.926  30.956  22.232  1.00  0.00     0.085 C 
ENDBRANCH  19  20
ENDBRANCH  15  19
ENDBRANCH  11  14
ENDBRANCH   6  10
ENDBRANCH   3   5
ENDBRANCH   2   3
ENDBRANCH   1   2
BRANCH   1  22
ATOM     22  C   UNL A   1      36.998  20.593  25.339  1.00  0.00     0.275 C 
BRANCH  22  23
ATOM     23  O   UNL A   1      38.267  21.231  25.095  1.00  0.00    -0.458 OA
BRANCH  23  24
ATOM     24  C   UNL A   1      39.194  21.045  26.063  1.00  0.00     0.338 C 
ATOM     25  O   UNL A   1      39.661  19.990  26.456  1.00  0.00    -0.246 OA
BRANCH  24  26
ATOM     26  C   UNL A   1      39.665  22.350  26.540  1.00  0.00     0.060 A 
ATOM     27  C   UNL A   1      39.014  23.505  26.099  1.00  0.00     0.016 A 
ATOM     28  C   UNL A   1      40.822  22.435  27.311  1.00  0.00     0.016 A 
ATOM     29  C   UNL A   1      39.567  24.753  26.364  1.00  0.00     0.010 A 
ATOM     30  C   UNL A   1      41.331  23.694  27.641  1.00  0.00     0.010 A 
ATOM     31  C   UNL A   1      40.726  24.863  27.144  1.00  0.00    -0.014 A 
BRANCH  31  32
ATOM     32  C   UNL A   1      41.319  26.199  27.412  1.00  0.00     0.031 A 
ATOM     33  C   UNL A   1      42.677  26.543  26.865  1.00  0.00     0.074 A 
ATOM     34  C   UNL A   1      40.630  27.104  28.133  1.00  0.00     0.049 A 
ATOM     35  N   UNL A   1      43.424  27.590  27.100  1.00  0.00    -0.248 NA
ATOM     36  C   UNL A   1      43.279  25.569  25.942  1.00  0.00     0.031 C 
ATOM     37  C   UNL A   1      39.286  26.903  28.681  1.00  0.00     0.029 A 
ATOM     38  N   UNL A   1      40.961  28.375  28.530  1.00  0.00    -0.354 N 
ATOM     39  C   UNL A   1      44.602  27.386  26.387  1.00  0.00     0.074 A 
ATOM     40  C   UNL A   1      44.473  26.103  25.727  1.00  0.00     0.031 C 
ATOM     41  C   UNL A   1      38.901  28.016  29.322  1.00  0.00     0.029 A 
ATOM     42  C   UNL A   1      39.994  28.981  29.298  1.00  0.00     0.049 A 
ATOM     43  H   UNL A   1      41.809  28.812  28.288  1.00  0.00     0.167 HD
ATOM     44  C   UNL A   1      45.688  28.195  26.296  1.00  0.00     0.034 A 
ATOM     45  C   UNL A   1      40.003  30.161  29.947  1.00  0.00     0.034 A 
ATOM     46  C   UNL A   1      45.786  29.482  26.943  1.00  0.00     0.049 A 
ATOM     47  C   UNL A   1      41.232  31.023  29.863  1.00  0.00     0.074 A 
ATOM     48  C   UNL A   1      46.832  30.387  26.915  1.00  0.00     0.029 A 
ATOM     49  N   UNL A   1      44.795  30.049  27.736  1.00  0.00    -0.354 N 
ATOM     50  N   UNL A   1      42.358  30.795  29.228  1.00  0.00    -0.248 NA
ATOM     51  C   UNL A   1      41.195  32.298  30.591  1.00  0.00     0.031 C 
ATOM     52  C   UNL A   1      46.496  31.475  27.731  1.00  0.00     0.029 A 
ATOM     53  C   UNL A   1      45.214  31.280  28.219  1.00  0.00     0.049 A 
ATOM     54  H   UNL A   1      43.922  29.636  27.928  1.00  0.00     0.167 HD
ATOM     55  C   UNL A   1      43.160  31.905  29.469  1.00  0.00     0.074 A 
ATOM     56  C   UNL A   1      42.380  32.810  30.291  1.00  0.00     0.031 C 
ATOM     57  C   UNL A   1      44.428  32.156  29.053  1.00  0.00     0.034 A 
BRANCH  44  58
ATOM     58  C   UNL A   1      46.873  27.678  25.516  1.00  0.00     0.023 A 
ATOM     59  C   UNL A   1      47.112  28.054  24.183  1.00  0.00     0.031 A 
ATOM     60  C   UNL A   1      47.758  26.758  26.108  1.00  0.00     0.131 A 
ATOM     61  C   UNL A   1      48.162  27.461  23.465  1.00  0.00     0.055 A 
ATOM     62  C   UNL A   1      48.847  26.230  25.412  1.00  0.00     0.041 A 
ATOM     63  F   UNL A   1      47.570  26.345  27.371  1.00  0.00    -0.206 F 
ATOM     64  C   UNL A   1      49.045  26.568  24.077  1.00  0.00     0.022 A 
BRANCH  61  65
ATOM     65  S   UNL A   1      48.273  27.764  21.679  1.00  0.00     0.124 S 
ATOM     66  O   UNL A   1      49.302  28.799  21.619  1.00  0.00    -0.237 OA
ATOM     67  O   UNL A   1      48.652  26.455  21.160  1.00  0.00    -0.237 OA
ATOM     68  O   UNL A   1      46.928  28.211  21.323  1.00  0.00    -0.744 OA
ENDBRANCH  61  65
ENDBRANCH  44  58
BRANCH  45  69
ATOM     69  C   UNL A   1      38.836  30.566  30.781  1.00  0.00     0.023 A 
ATOM     70  C   UNL A   1      37.737  31.231  30.218  1.00  0.00     0.031 A 
ATOM     71  C   UNL A   1      38.816  30.306  32.163  1.00  0.00     0.131 A 
ATOM     72  C   UNL A   1      36.677  31.645  31.040  1.00  0.00     0.055 A 
ATOM     73  C   UNL A   1      37.738  30.675  32.968  1.00  0.00     0.041 A 
ATOM     74  F   UNL A   1      39.842  29.667  32.749  1.00  0.00    -0.206 F 
ATOM     75  C   UNL A   1      36.664  31.358  32.408  1.00  0.00     0.022 A 
BRANCH  72  76
ATOM     76  S   UNL A   1      35.337  32.621  30.305  1.00  0.00     0.124 S 
ATOM     77  O   UNL A   1      34.384  32.695  31.407  1.00  0.00    -0.237 OA
ATOM     78  O   UNL A   1      36.021  33.864  29.964  1.00  0.00    -0.237 OA
ATOM     79  O   UNL A   1      34.912  31.812  29.165  1.00  0.00    -0.744 OA
ENDBRANCH  72  76
ENDBRANCH  45  69
BRANCH  57  80
ATOM     80  C   UNL A   1      45.021  33.479  29.461  1.00  0.00     0.023 A 
ATOM     81  C   UNL A   1      44.875  34.628  28.663  1.00  0.00     0.031 A 
ATOM     82  C   UNL A   1      45.767  33.583  30.647  1.00  0.00     0.131 A 
ATOM     83  C   UNL A   1      45.513  35.820  29.036  1.00  0.00     0.055 A 
ATOM     84  C   UNL A   1      46.358  34.785  31.038  1.00  0.00     0.041 A 
ATOM     85  F   UNL A   1      45.939  32.515  31.443  1.00  0.00    -0.206 F 
ATOM     86  C   UNL A   1      46.243  35.909  30.224  1.00  0.00     0.022 A 
BRANCH  83  87
ATOM     87  S   UNL A   1      45.449  37.233  27.900  1.00  0.00     0.124 S 
ATOM     88  O   UNL A   1      44.510  36.765  26.885  1.00  0.00    -0.237 OA
ATOM     89  O   UNL A   1      44.974  38.307  28.764  1.00  0.00    -0.237 OA
ATOM     90  O   UNL A   1      46.832  37.370  27.446  1.00  0.00    -0.744 OA
ENDBRANCH  83  87
ENDBRANCH  57  80
ENDBRANCH  31  32
ENDBRANCH  24  26
ENDBRANCH  23  24
ENDBRANCH  22  23
ENDBRANCH   1  22
TORSDOF 18
ENDMDL
MODEL 2
REMARK VINA RESULT:     -11.3      1.979      7.852
REMARK SMILES CSCc1ccc(C(=O)N[C@H]2C=C[C@@H](C(=O)OCCOC(=O)c3ccc(-c4c5nc(c(-c6cc(S(=O)(=O)[O-])ccc6F)c6ccc([nH]6)c(-c6cc(S(=O)(=O)[O-])ccc6F)c6nc(c(-c7cc(S(=O)(=O)[O-])ccc7F)c7ccc4[nH]7)C=C6)C=C5)cc3)C2)o1
REMARK SMILES IDX 18 1 17 2 15 3 16 4 14 5 11 6 12 7 86 8 13 9 10 10 8 11 9 12
REMARK SMILES IDX 7 14 4 15 5 16 87 17 6 18 3 19 2 20 1 21 19 22 20 23 21 24
REMARK SMILES IDX 22 25 23 26 24 27 85 28 25 29 84 30 26 31 27 32 28 33 78 34
REMARK SMILES IDX 29 35 83 36 77 37 79 38 30 39 82 40 76 41 75 42 31 44 63 45
REMARK SMILES IDX 43 46 62 47 44 48 47 49 61 50 80 51 45 52 46 53 60 55 81 56
REMARK SMILES IDX 48 57 32 58 33 59 41 60 34 61 40 62 42 63 39 64 35 65 36 66
REMARK SMILES IDX 37 67 38 68 64 69 65 70 73 71 66 72 72 73 74 74 71 75 67 76
REMARK SMILES IDX 68 77 69 78 70 79 49 80 50 81 58 82 51 83 57 84 59 85 56 86
REMARK SMILES IDX 52 87 53 88 54 89 55 90
REMARK H PARENT 10 13 79 43 47 54
REMARK Flexibility Score: inf
ROOT
ATOM      1  C   UNL A   1      35.501  21.644  25.334  1.00  0.00     0.274 C 
ENDROOT
BRANCH   1   2
ATOM      2  O   UNL A   1      34.257  20.954  25.548  1.00  0.00    -0.462 OA
BRANCH   2   3
ATOM      3  C   UNL A   1      33.201  21.681  26.006  1.00  0.00     0.312 C 
ATOM      4  O   UNL A   1      33.245  22.443  26.963  1.00  0.00    -0.252 OA
BRANCH   3   5
ATOM      5  C   UNL A   1      32.005  21.548  25.058  1.00  0.00     0.124 C 
ATOM      6  C   UNL A   1      31.786  22.652  22.879  1.00  0.00     0.106 C 
ATOM      7  C   UNL A   1      32.202  21.244  22.721  1.00  0.00    -0.006 C 
ATOM      8  C   UNL A   1      31.605  22.861  24.381  1.00  0.00     0.048 C 
ATOM      9  C   UNL A   1      32.281  20.623  23.906  1.00  0.00    -0.014 C 
BRANCH   6  10
ATOM     10  N   UNL A   1      32.636  23.647  22.257  1.00  0.00    -0.343 N 
ATOM     11  C   UNL A   1      33.118  24.905  22.514  1.00  0.00     0.287 C 
ATOM     12  O   UNL A   1      33.472  25.504  21.490  1.00  0.00    -0.266 OA
ATOM     13  H   UNL A   1      32.964  23.323  21.388  1.00  0.00     0.164 HD
BRANCH  11  14
ATOM     14  C   UNL A   1      33.291  25.493  23.830  1.00  0.00     0.191 A 
ATOM     15  C   UNL A   1      32.688  26.980  25.389  1.00  0.00     0.114 A 
ATOM     16  C   UNL A   1      33.857  26.406  25.822  1.00  0.00     0.047 A 
ATOM     17  O   UNL A   1      32.337  26.428  24.192  1.00  0.00    -0.455 OA
ATOM     18  C   UNL A   1      34.206  25.431  24.860  1.00  0.00     0.056 A 
BRANCH  15  19
ATOM     19  C   UNL A   1      31.777  28.033  25.906  1.00  0.00     0.144 C 
BRANCH  19  20
ATOM     20  S   UNL A   1      32.556  29.219  27.050  1.00  0.00    -0.157 SA
ATOM     21  C   UNL A   1      31.843  30.765  26.427  1.00  0.00     0.085 C 
ENDBRANCH  19  20
ENDBRANCH  15  19
ENDBRANCH  11  14
ENDBRANCH   6  10
ENDBRANCH   3   5
ENDBRANCH   2   3
ENDBRANCH   1   2
BRANCH   1  22
ATOM     22  C   UNL A   1      36.610  20.613  25.124  1.00  0.00     0.275 C 
BRANCH  22  23
ATOM     23  O   UNL A   1      37.870  21.273  24.895  1.00  0.00    -0.458 OA
BRANCH  23  24
ATOM     24  C   UNL A   1      38.863  20.918  25.742  1.00  0.00     0.338 C 
ATOM     25  O   UNL A   1      39.314  19.802  25.934  1.00  0.00    -0.246 OA
BRANCH  24  26
ATOM     26  C   UNL A   1      39.425  22.122  26.363  1.00  0.00     0.060 A 
ATOM     27  C   UNL A   1      38.953  23.373  25.960  1.00  0.00     0.016 A 
ATOM     28  C   UNL A   1      40.503  22.015  27.239  1.00  0.00     0.016 A 
ATOM     29  C   UNL A   1      39.612  24.526  26.374  1.00  0.00     0.010 A 
ATOM     30  C   UNL A   1      41.114  23.180  27.714  1.00  0.00     0.010 A 
ATOM     31  C   UNL A   1      40.693  24.443  27.262  1.00  0.00    -0.014 A 
BRANCH  31  32
ATOM     32  C   UNL A   1      41.400  25.679  27.688  1.00  0.00     0.031 A 
ATOM     33  C   UNL A   1      40.678  26.717  28.503  1.00  0.00     0.074 A 
ATOM     34  C   UNL A   1      42.693  25.858  27.355  1.00  0.00     0.049 A 
ATOM     35  N   UNL A   1      41.068  27.915  28.851  1.00  0.00    -0.248 NA
ATOM     36  C   UNL A   1      39.332  26.360  28.975  1.00  0.00     0.031 C 
ATOM     37  C   UNL A   1      43.513  24.904  26.604  1.00  0.00     0.029 A 
ATOM     38  N   UNL A   1      43.547  26.903  27.603  1.00  0.00    -0.354 N 
ATOM     39  C   UNL A   1      40.001  28.475  29.549  1.00  0.00     0.074 A 
ATOM     40  C   UNL A   1      38.943  27.486  29.556  1.00  0.00     0.031 C 
ATOM     41  C   UNL A   1      44.753  25.397  26.473  1.00  0.00     0.029 A 
ATOM     42  C   UNL A   1      44.798  26.731  27.061  1.00  0.00     0.049 A 
ATOM     43  H   UNL A   1      43.289  27.699  28.121  1.00  0.00     0.167 HD
ATOM     44  C   UNL A   1      39.918  29.700  30.127  1.00  0.00     0.034 A 
ATOM     45  C   UNL A   1      45.852  27.569  27.003  1.00  0.00     0.034 A 
ATOM     46  C   UNL A   1      40.995  30.661  30.130  1.00  0.00     0.049 A 
ATOM     47  C   UNL A   1      45.722  28.936  27.616  1.00  0.00     0.074 A 
ATOM     48  C   UNL A   1      41.024  31.927  30.689  1.00  0.00     0.029 A 
ATOM     49  N   UNL A   1      42.239  30.460  29.545  1.00  0.00    -0.354 N 
ATOM     50  N   UNL A   1      44.691  29.471  28.228  1.00  0.00    -0.248 NA
ATOM     51  C   UNL A   1      46.894  29.815  27.525  1.00  0.00     0.031 C 
ATOM     52  C   UNL A   1      42.264  32.509  30.398  1.00  0.00     0.029 A 
ATOM     53  C   UNL A   1      43.034  31.584  29.711  1.00  0.00     0.049 A 
ATOM     54  H   UNL A   1      42.517  29.638  29.078  1.00  0.00     0.167 HD
ATOM     55  C   UNL A   1      45.096  30.747  28.606  1.00  0.00     0.074 A 
ATOM     56  C   UNL A   1      46.471  30.891  28.170  1.00  0.00     0.031 C 
ATOM     57  C   UNL A   1      44.396  31.715  29.251  1.00  0.00     0.034 A 
BRANCH  44  58
ATOM     58  C   UNL A   1      38.595  30.083  30.748  1.00  0.00     0.023 A 
ATOM     59  C   UNL A   1      37.608  30.780  30.029  1.00  0.00     0.031 A 
ATOM     60  C   UNL A   1      38.335  29.781  32.096  1.00  0.00     0.131 A 
ATOM     61  C   UNL A   1      36.441  31.212  30.680  1.00  0.00     0.055 A 
ATOM     62  C   UNL A   1      37.140  30.146  32.717  1.00  0.00     0.041 A 
ATOM     63  F   UNL A   1      39.249  29.136  32.839  1.00  0.00    -0.206 F 
ATOM     64  C   UNL A   1      36.191  30.880  32.013  1.00  0.00     0.022 A 
BRANCH  61  65
ATOM     65  S   UNL A   1      35.321  32.335  29.800  1.00  0.00     0.124 S 
ATOM     66  O   UNL A   1      34.887  31.502  28.681  1.00  0.00    -0.237 OA
ATOM     67  O   UNL A   1      34.310  32.627  30.809  1.00  0.00    -0.237 OA
ATOM     68  O   UNL A   1      36.180  33.459  29.433  1.00  0.00    -0.744 OA
ENDBRANCH  61  65
ENDBRANCH  44  58
BRANCH  45  69
ATOM     69  C   UNL A   1      47.094  27.163  26.287  1.00  0.00     0.023 A 
ATOM     70  C   UNL A   1      48.107  26.445  26.940  1.00  0.00     0.031 A 
ATOM     71  C   UNL A   1      47.291  27.508  24.938  1.00  0.00     0.131 A 
ATOM     72  C   UNL A   1      49.287  26.123  26.252  1.00  0.00     0.055 A 
ATOM     73  C   UNL A   1      48.444  27.142  24.243  1.00  0.00     0.041 A 
ATOM     74  F   UNL A   1      46.349  28.190  24.266  1.00  0.00    -0.206 F 
ATOM     75  C   UNL A   1      49.456  26.454  24.905  1.00  0.00     0.022 A 
BRANCH  72  76
ATOM     76  S   UNL A   1      50.631  25.315  27.163  1.00  0.00     0.124 S 
ATOM     77  O   UNL A   1      51.497  24.864  26.078  1.00  0.00    -0.237 OA
ATOM     78  O   UNL A   1      51.144  26.410  27.980  1.00  0.00    -0.237 OA
ATOM     79  O   UNL A   1      49.951  24.253  27.901  1.00  0.00    -0.744 OA
ENDBRANCH  72  76
ENDBRANCH  45  69
BRANCH  57  80
ATOM     80  C   UNL A   1      45.132  32.995  29.547  1.00  0.00     0.023 A 
ATOM     81  C   UNL A   1      45.118  34.076  28.649  1.00  0.00     0.031 A 
ATOM     82  C   UNL A   1      45.882  33.121  30.729  1.00  0.00     0.131 A 
ATOM     83  C   UNL A   1      45.885  35.218  28.921  1.00  0.00     0.055 A 
ATOM     84  C   UNL A   1      46.603  34.280  31.019  1.00  0.00     0.041 A 
ATOM     85  F   UNL A   1      45.931  32.116  31.618  1.00  0.00    -0.206 F 
ATOM     86  C   UNL A   1      46.617  35.332  30.106  1.00  0.00     0.022 A 
BRANCH  83  87
ATOM     87  S   UNL A   1      45.983  36.521  27.663  1.00  0.00     0.124 S 
ATOM     88  O   UNL A   1      45.575  37.703  28.416  1.00  0.00    -0.237 OA
ATOM     89  O   UNL A   1      47.386  36.469  27.268  1.00  0.00    -0.237 OA
ATOM     90  O   UNL A   1      45.035  36.082  26.640  1.00  0.00    -0.744 OA
ENDBRANCH  83  87
ENDBRANCH  57  80
ENDBRANCH  31  32
ENDBRANCH  24  26
ENDBRANCH  23  24
ENDBRANCH  22  23
ENDBRANCH   1  22
TORSDOF 18
ENDMDL
MODEL 3
REMARK VINA RESULT:     -11.2      5.143      7.973
REMARK SMILES CSCc1ccc(C(=O)N[C@H]2C=C[C@@H](C(=O)OCCOC(=O)c3ccc(-c4c5nc(c(-c6cc(S(=O)(=O)[O-])ccc6F)c6ccc([nH]6)c(-c6cc(S(=O)(=O)[O-])ccc6F)c6nc(c(-c7cc(S(=O)(=O)[O-])ccc7F)c7ccc4[nH]7)C=C6)C=C5)cc3)C2)o1
REMARK SMILES IDX 18 1 17 2 15 3 16 4 14 5 11 6 12 7 86 8 13 9 10 10 8 11 9 12
REMARK SMILES IDX 7 14 4 15 5 16 87 17 6 18 3 19 2 20 1 21 19 22 20 23 21 24
REMARK SMILES IDX 22 25 23 26 24 27 85 28 25 29 84 30 26 31 27 32 28 33 78 34
REMARK SMILES IDX 29 35 83 36 77 37 79 38 30 39 82 40 76 41 75 42 31 44 63 45
REMARK SMILES IDX 43 46 62 47 44 48 47 49 61 50 80 51 45 52 46 53 60 55 81 56
REMARK SMILES IDX 48 57 32 58 33 59 41 60 34 61 40 62 42 63 39 64 35 65 36 66
REMARK SMILES IDX 37 67 38 68 64 69 65 70 73 71 66 72 72 73 74 74 71 75 67 76
REMARK SMILES IDX 68 77 69 78 70 79 49 80 50 81 58 82 51 83 57 84 59 85 56 86
REMARK SMILES IDX 52 87 53 88 54 89 55 90
REMARK H PARENT 10 13 79 43 47 54
REMARK Flexibility Score: inf
ROOT
ATOM      1  C   UNL A   1      31.710  28.782  26.245  1.00  0.00     0.274 C 
ENDROOT
BRANCH   1   2
ATOM      2  O   UNL A   1      31.804  28.860  24.811  1.00  0.00    -0.462 OA
BRANCH   2   3
ATOM      3  C   UNL A   1      30.673  29.169  24.119  1.00  0.00     0.312 C 
ATOM      4  O   UNL A   1      30.163  30.281  24.083  1.00  0.00    -0.252 OA
BRANCH   3   5
ATOM      5  C   UNL A   1      30.229  27.982  23.257  1.00  0.00     0.124 C 
ATOM      6  C   UNL A   1      29.859  25.696  24.063  1.00  0.00     0.106 C 
ATOM      7  C   UNL A   1      28.580  26.420  23.913  1.00  0.00    -0.006 C 
ATOM      8  C   UNL A   1      30.940  26.671  23.599  1.00  0.00     0.048 C 
ATOM      9  C   UNL A   1      28.773  27.655  23.431  1.00  0.00    -0.014 C 
BRANCH   6  10
ATOM     10  N   UNL A   1      30.123  25.121  25.367  1.00  0.00    -0.343 N 
ATOM     11  C   UNL A   1      30.745  24.028  25.910  1.00  0.00     0.287 C 
ATOM     12  O   UNL A   1      30.344  23.762  27.051  1.00  0.00    -0.266 OA
ATOM     13  H   UNL A   1      29.738  25.686  26.075  1.00  0.00     0.164 HD
BRANCH  11  14
ATOM     14  C   UNL A   1      31.820  23.272  25.293  1.00  0.00     0.191 A 
ATOM     15  C   UNL A   1      33.984  23.045  24.767  1.00  0.00     0.114 A 
ATOM     16  C   UNL A   1      33.309  22.052  24.101  1.00  0.00     0.047 A 
ATOM     17  O   UNL A   1      33.093  23.779  25.494  1.00  0.00    -0.455 OA
ATOM     18  C   UNL A   1      31.951  22.167  24.478  1.00  0.00     0.056 A 
BRANCH  15  19
ATOM     19  C   UNL A   1      35.400  23.484  24.849  1.00  0.00     0.144 C 
BRANCH  19  20
ATOM     20  S   UNL A   1      36.519  22.667  23.664  1.00  0.00    -0.157 SA
ATOM     21  C   UNL A   1      37.490  21.648  24.806  1.00  0.00     0.085 C 
ENDBRANCH  19  20
ENDBRANCH  15  19
ENDBRANCH  11  14
ENDBRANCH   6  10
ENDBRANCH   3   5
ENDBRANCH   2   3
ENDBRANCH   1   2
BRANCH   1  22
ATOM     22  C   UNL A   1      31.851  30.188  26.827  1.00  0.00     0.275 C 
BRANCH  22  23
ATOM     23  O   UNL A   1      33.120  30.759  26.450  1.00  0.00    -0.458 OA
BRANCH  23  24
ATOM     24  C   UNL A   1      33.588  31.713  27.288  1.00  0.00     0.338 C 
ATOM     25  O   UNL A   1      33.012  32.717  27.670  1.00  0.00    -0.246 OA
BRANCH  24  26
ATOM     26  C   UNL A   1      34.913  31.319  27.780  1.00  0.00     0.060 A 
ATOM     27  C   UNL A   1      35.129  29.987  28.142  1.00  0.00     0.016 A 
ATOM     28  C   UNL A   1      35.888  32.287  28.008  1.00  0.00     0.016 A 
ATOM     29  C   UNL A   1      36.299  29.633  28.806  1.00  0.00     0.010 A 
ATOM     30  C   UNL A   1      37.095  31.912  28.606  1.00  0.00     0.010 A 
ATOM     31  C   UNL A   1      37.298  30.588  29.038  1.00  0.00    -0.014 A 
BRANCH  31  32
ATOM     32  C   UNL A   1      38.539  30.206  29.760  1.00  0.00     0.031 A 
ATOM     33  C   UNL A   1      39.510  29.244  29.132  1.00  0.00     0.074 A 
ATOM     34  C   UNL A   1      38.797  30.734  30.972  1.00  0.00     0.049 A 
ATOM     35  N   UNL A   1      40.569  28.678  29.651  1.00  0.00    -0.248 NA
ATOM     36  C   UNL A   1      39.242  28.858  27.739  1.00  0.00     0.031 C 
ATOM     37  C   UNL A   1      37.952  31.709  31.667  1.00  0.00     0.029 A 
ATOM     38  N   UNL A   1      39.842  30.528  31.837  1.00  0.00    -0.354 N 
ATOM     39  C   UNL A   1      41.073  27.838  28.663  1.00  0.00     0.074 A 
ATOM     40  C   UNL A   1      40.190  27.957  27.521  1.00  0.00     0.031 C 
ATOM     41  C   UNL A   1      38.523  32.031  32.837  1.00  0.00     0.029 A 
ATOM     42  C   UNL A   1      39.730  31.233  33.012  1.00  0.00     0.049 A 
ATOM     43  H   UNL A   1      40.599  29.932  31.635  1.00  0.00     0.167 HD
ATOM     44  C   UNL A   1      42.172  27.041  28.709  1.00  0.00     0.034 A 
ATOM     45  C   UNL A   1      40.490  31.208  34.124  1.00  0.00     0.034 A 
ATOM     46  C   UNL A   1      43.053  26.956  29.849  1.00  0.00     0.049 A 
ATOM     47  C   UNL A   1      41.679  30.288  34.167  1.00  0.00     0.074 A 
ATOM     48  C   UNL A   1      44.196  26.190  30.004  1.00  0.00     0.029 A 
ATOM     49  N   UNL A   1      42.891  27.666  31.033  1.00  0.00    -0.354 N 
ATOM     50  N   UNL A   1      42.116  29.461  33.246  1.00  0.00    -0.248 NA
ATOM     51  C   UNL A   1      42.473  30.293  35.402  1.00  0.00     0.031 C 
ATOM     52  C   UNL A   1      44.694  26.398  31.297  1.00  0.00     0.029 A 
ATOM     53  C   UNL A   1      43.899  27.341  31.928  1.00  0.00     0.049 A 
ATOM     54  H   UNL A   1      42.165  28.308  31.210  1.00  0.00     0.167 HD
ATOM     55  C   UNL A   1      43.245  28.855  33.787  1.00  0.00     0.074 A 
ATOM     56  C   UNL A   1      43.432  29.428  35.106  1.00  0.00     0.031 C 
ATOM     57  C   UNL A   1      44.054  27.909  33.246  1.00  0.00     0.034 A 
BRANCH  44  58
ATOM     58  C   UNL A   1      42.438  26.159  27.513  1.00  0.00     0.023 A 
ATOM     59  C   UNL A   1      41.985  24.829  27.451  1.00  0.00     0.031 A 
ATOM     60  C   UNL A   1      43.194  26.647  26.432  1.00  0.00     0.131 A 
ATOM     61  C   UNL A   1      42.351  24.014  26.368  1.00  0.00     0.055 A 
ATOM     62  C   UNL A   1      43.490  25.854  25.322  1.00  0.00     0.041 A 
ATOM     63  F   UNL A   1      43.671  27.901  26.444  1.00  0.00    -0.206 F 
ATOM     64  C   UNL A   1      43.082  24.524  25.292  1.00  0.00     0.022 A 
BRANCH  61  65
ATOM     65  S   UNL A   1      41.981  22.240  26.453  1.00  0.00     0.124 S 
ATOM     66  O   UNL A   1      40.522  22.240  26.382  1.00  0.00    -0.237 OA
ATOM     67  O   UNL A   1      42.677  21.717  25.284  1.00  0.00    -0.237 OA
ATOM     68  O   UNL A   1      42.535  21.835  27.743  1.00  0.00    -0.744 OA
ENDBRANCH  61  65
ENDBRANCH  44  58
BRANCH  45  69
ATOM     69  C   UNL A   1      40.112  32.032  35.308  1.00  0.00     0.023 A 
ATOM     70  C   UNL A   1      39.168  31.575  36.239  1.00  0.00     0.031 A 
ATOM     71  C   UNL A   1      40.682  33.302  35.510  1.00  0.00     0.131 A 
ATOM     72  C   UNL A   1      38.797  32.397  37.315  1.00  0.00     0.055 A 
ATOM     73  C   UNL A   1      40.347  34.095  36.608  1.00  0.00     0.041 A 
ATOM     74  F   UNL A   1      41.594  33.782  34.650  1.00  0.00    -0.206 F 
ATOM     75  C   UNL A   1      39.390  33.646  37.513  1.00  0.00     0.022 A 
BRANCH  72  76
ATOM     76  S   UNL A   1      37.476  31.833  38.422  1.00  0.00     0.124 S 
ATOM     77  O   UNL A   1      37.238  30.478  37.937  1.00  0.00    -0.237 OA
ATOM     78  O   UNL A   1      38.111  31.944  39.732  1.00  0.00    -0.237 OA
ATOM     79  O   UNL A   1      36.394  32.784  38.173  1.00  0.00    -0.744 OA
ENDBRANCH  72  76
ENDBRANCH  45  69
BRANCH  57  80
ATOM     80  C   UNL A   1      45.229  27.471  34.080  1.00  0.00     0.023 A 
ATOM     81  C   UNL A   1      45.138  26.382  34.965  1.00  0.00     0.031 A 
ATOM     82  C   UNL A   1      46.445  28.173  34.012  1.00  0.00     0.131 A 
ATOM     83  C   UNL A   1      46.228  26.058  35.786  1.00  0.00     0.055 A 
ATOM     84  C   UNL A   1      47.543  27.814  34.795  1.00  0.00     0.041 A 
ATOM     85  F   UNL A   1      46.583  29.222  33.186  1.00  0.00    -0.206 F 
ATOM     86  C   UNL A   1      47.434  26.759  35.698  1.00  0.00     0.022 A 
BRANCH  83  87
ATOM     87  S   UNL A   1      46.021  24.760  37.036  1.00  0.00     0.124 S 
ATOM     88  O   UNL A   1      47.044  25.114  38.015  1.00  0.00    -0.237 OA
ATOM     89  O   UNL A   1      44.638  24.953  37.460  1.00  0.00    -0.237 OA
ATOM     90  O   UNL A   1      46.274  23.526  36.294  1.00  0.00    -0.744 OA
ENDBRANCH  83  87
ENDBRANCH  57  80
ENDBRANCH  31  32
ENDBRANCH  24  26
ENDBRANCH  23  24
ENDBRANCH  22  23
ENDBRANCH   1  22
TORSDOF 18
ENDMDL
