MODEL 1
REMARK VINA RESULT:     -12.0      0.000      0.000
REMARK SMILES CC[NH2+][C@]1(C(=O)OCCOC(=O)c2ccc(-c3c4nc(c(-c5cc(S(=O)(=O)[O-])ccc5F)c5ccc([nH]5)c(-c5cc(S(=O)(=O)[O-])ccc5F)c5nc(c(-c6cc(S(=O)(=O)[O-])ccc6F)c6ccc3[nH]6)C=C5)C=C4)cc2)CCC[C@@H](Oc2cc(C)cc(C)c2)C1
REMARK SMILES IDX 9 1 8 2 7 3 5 4 6 5 4 6 76 7 89 8 77 9 79 10 78 11 3 12 2 15
REMARK SMILES IDX 1 16 80 17 81 18 82 19 88 20 83 21 86 22 84 23 85 24 87 25
REMARK SMILES IDX 10 26 11 27 12 28 13 29 14 30 75 31 15 32 74 33 16 34 17 35
REMARK SMILES IDX 18 36 68 37 19 38 73 39 67 40 69 41 20 42 72 43 66 44 65 45
REMARK SMILES IDX 21 47 53 48 33 49 52 50 34 51 37 52 51 53 70 54 35 55 36 56
REMARK SMILES IDX 50 58 71 59 38 60 22 61 23 62 31 63 24 64 30 65 32 66 29 67
REMARK SMILES IDX 25 68 26 69 27 70 28 71 54 72 55 73 63 74 56 75 62 76 64 77
REMARK SMILES IDX 61 78 57 79 58 80 59 81 60 82 39 83 40 84 48 85 41 86 47 87
REMARK SMILES IDX 49 88 46 89 42 90 43 91 44 92 45 93
REMARK H PARENT 3 13 3 14 69 46 37 57
REMARK Flexibility Score: inf
ROOT
ATOM      1  C   UNL A   1      31.378  29.680  25.097  1.00  0.00     0.275 C 
ENDROOT
BRANCH   1   2
ATOM      2  C   UNL A   1      31.462  28.742  23.892  1.00  0.00     0.274 C 
BRANCH   2   3
ATOM      3  O   UNL A   1      30.650  27.566  24.098  1.00  0.00    -0.457 OA
BRANCH   3   4
ATOM      4  C   UNL A   1      31.144  26.391  23.600  1.00  0.00     0.368 C 
ATOM      5  O   UNL A   1      31.219  26.136  22.403  1.00  0.00    -0.245 OA
BRANCH   4   6
ATOM      6  C   UNL A   1      31.587  25.397  24.740  1.00  0.00     0.197 C 
ATOM      7  C   UNL A   1      30.348  25.257  25.663  1.00  0.00     0.081 C 
ATOM      8  C   UNL A   1      31.928  24.065  24.041  1.00  0.00     0.126 C 
ATOM      9  C   UNL A   1      30.357  24.085  26.635  1.00  0.00     0.011 C 
ATOM     10  C   UNL A   1      31.775  22.796  24.897  1.00  0.00     0.180 C 
ATOM     11  C   UNL A   1      30.646  22.765  25.949  1.00  0.00     0.046 C 
BRANCH   6  12
ATOM     12  N   UNL A   1      32.832  25.916  25.371  1.00  0.00    -0.332 N 
ATOM     13  H   UNL A   1      32.714  26.924  25.482  1.00  0.00     0.347 HD
ATOM     14  H   UNL A   1      32.920  25.373  26.230  1.00  0.00     0.347 HD
BRANCH  12  15
ATOM     15  C   UNL A   1      34.097  25.707  24.694  1.00  0.00     0.257 C 
ATOM     16  C   UNL A   1      34.954  24.733  25.486  1.00  0.00     0.071 C 
ENDBRANCH  12  15
ENDBRANCH   6  12
BRANCH  10  17
ATOM     17  O   UNL A   1      31.821  21.613  24.056  1.00  0.00    -0.490 OA
BRANCH  17  18
ATOM     18  C   UNL A   1      32.788  20.676  24.320  1.00  0.00     0.120 A 
ATOM     19  C   UNL A   1      32.509  19.354  23.972  1.00  0.00     0.049 A 
ATOM     20  C   UNL A   1      34.047  20.989  24.827  1.00  0.00     0.049 A 
ATOM     21  C   UNL A   1      33.510  18.374  24.064  1.00  0.00    -0.047 A 
ATOM     22  C   UNL A   1      35.086  20.059  24.816  1.00  0.00    -0.047 A 
ATOM     23  C   UNL A   1      33.250  16.958  23.636  1.00  0.00     0.044 C 
ATOM     24  C   UNL A   1      34.802  18.740  24.470  1.00  0.00     0.007 A 
ATOM     25  C   UNL A   1      36.473  20.528  25.134  1.00  0.00     0.044 C 
ENDBRANCH  17  18
ENDBRANCH  10  17
ENDBRANCH   4   6
ENDBRANCH   3   4
ENDBRANCH   2   3
ENDBRANCH   1   2
BRANCH   1  26
ATOM     26  O   UNL A   1      32.704  29.919  25.586  1.00  0.00    -0.458 OA
BRANCH  26  27
ATOM     27  C   UNL A   1      32.833  30.847  26.569  1.00  0.00     0.338 C 
ATOM     28  O   UNL A   1      32.016  31.704  26.853  1.00  0.00    -0.246 OA
BRANCH  27  29
ATOM     29  C   UNL A   1      34.145  30.659  27.254  1.00  0.00     0.060 A 
ATOM     30  C   UNL A   1      34.657  29.383  27.471  1.00  0.00     0.016 A 
ATOM     31  C   UNL A   1      34.865  31.760  27.730  1.00  0.00     0.016 A 
ATOM     32  C   UNL A   1      35.835  29.211  28.197  1.00  0.00     0.010 A 
ATOM     33  C   UNL A   1      36.090  31.574  28.406  1.00  0.00     0.010 A 
ATOM     34  C   UNL A   1      36.586  30.288  28.679  1.00  0.00    -0.014 A 
BRANCH  34  35
ATOM     35  C   UNL A   1      37.800  30.033  29.534  1.00  0.00     0.031 A 
ATOM     36  C   UNL A   1      38.999  29.317  28.956  1.00  0.00     0.074 A 
ATOM     37  C   UNL A   1      37.917  30.515  30.793  1.00  0.00     0.049 A 
ATOM     38  N   UNL A   1      40.047  28.823  29.569  1.00  0.00    -0.248 NA
ATOM     39  C   UNL A   1      39.010  29.118  27.501  1.00  0.00     0.031 C 
ATOM     40  C   UNL A   1      36.918  31.323  31.489  1.00  0.00     0.029 A 
ATOM     41  N   UNL A   1      38.955  30.443  31.699  1.00  0.00    -0.354 N 
ATOM     42  C   UNL A   1      40.791  28.173  28.590  1.00  0.00     0.074 A 
ATOM     43  C   UNL A   1      40.083  28.357  27.340  1.00  0.00     0.031 C 
ATOM     44  C   UNL A   1      37.437  31.775  32.641  1.00  0.00     0.029 A 
ATOM     45  C   UNL A   1      38.742  31.159  32.857  1.00  0.00     0.049 A 
ATOM     46  H   UNL A   1      39.777  29.925  31.532  1.00  0.00     0.167 HD
ATOM     47  C   UNL A   1      41.946  27.472  28.724  1.00  0.00     0.034 A 
ATOM     48  C   UNL A   1      39.472  31.275  33.990  1.00  0.00     0.034 A 
ATOM     49  C   UNL A   1      42.703  27.369  29.948  1.00  0.00     0.049 A 
ATOM     50  C   UNL A   1      40.733  30.457  34.133  1.00  0.00     0.074 A 
ATOM     51  C   UNL A   1      43.863  26.646  30.187  1.00  0.00     0.029 A 
ATOM     52  N   UNL A   1      42.404  28.030  31.130  1.00  0.00    -0.354 N 
ATOM     53  N   UNL A   1      41.337  29.701  33.246  1.00  0.00    -0.248 NA
ATOM     54  C   UNL A   1      41.388  30.474  35.450  1.00  0.00     0.031 C 
ATOM     55  C   UNL A   1      44.235  26.833  31.523  1.00  0.00     0.029 A 
ATOM     56  C   UNL A   1      43.345  27.720  32.104  1.00  0.00     0.049 A 
ATOM     57  H   UNL A   1      41.637  28.632  31.261  1.00  0.00     0.167 HD
ATOM     58  C   UNL A   1      42.437  29.152  33.903  1.00  0.00     0.074 A 
ATOM     59  C   UNL A   1      42.443  29.701  35.241  1.00  0.00     0.031 C 
ATOM     60  C   UNL A   1      43.347  28.257  33.443  1.00  0.00     0.034 A 
BRANCH  47  61
ATOM     61  C   UNL A   1      42.402  26.671  27.531  1.00  0.00     0.023 A 
ATOM     62  C   UNL A   1      42.103  25.309  27.369  1.00  0.00     0.031 A 
ATOM     63  C   UNL A   1      43.188  27.299  26.546  1.00  0.00     0.131 A 
ATOM     64  C   UNL A   1      42.639  24.605  26.278  1.00  0.00     0.055 A 
ATOM     65  C   UNL A   1      43.656  26.611  25.426  1.00  0.00     0.041 A 
ATOM     66  F   UNL A   1      43.521  28.594  26.661  1.00  0.00    -0.206 F 
ATOM     67  C   UNL A   1      43.393  25.253  25.294  1.00  0.00     0.022 A 
BRANCH  64  68
ATOM     68  S   UNL A   1      42.445  22.802  26.222  1.00  0.00     0.124 S 
ATOM     69  O   UNL A   1      41.005  22.654  26.420  1.00  0.00    -0.237 OA
ATOM     70  O   UNL A   1      42.945  22.472  24.892  1.00  0.00    -0.237 OA
ATOM     71  O   UNL A   1      43.272  22.334  27.333  1.00  0.00    -0.744 OA
ENDBRANCH  64  68
ENDBRANCH  47  61
BRANCH  48  72
ATOM     72  C   UNL A   1      38.995  32.117  35.133  1.00  0.00     0.023 A 
ATOM     73  C   UNL A   1      38.465  31.531  36.298  1.00  0.00     0.031 A 
ATOM     74  C   UNL A   1      38.990  33.522  35.054  1.00  0.00     0.131 A 
ATOM     75  C   UNL A   1      37.931  32.343  37.313  1.00  0.00     0.055 A 
ATOM     76  C   UNL A   1      38.529  34.326  36.098  1.00  0.00     0.041 A 
ATOM     77  F   UNL A   1      39.447  34.144  33.955  1.00  0.00    -0.206 F 
ATOM     78  C   UNL A   1      37.983  33.736  37.231  1.00  0.00     0.022 A 
BRANCH  75  79
ATOM     79  S   UNL A   1      37.058  31.557  38.696  1.00  0.00     0.124 S 
ATOM     80  O   UNL A   1      38.005  31.740  39.789  1.00  0.00    -0.237 OA
ATOM     81  O   UNL A   1      35.833  32.344  38.768  1.00  0.00    -0.237 OA
ATOM     82  O   UNL A   1      36.884  30.176  38.246  1.00  0.00    -0.744 OA
ENDBRANCH  75  79
ENDBRANCH  48  72
BRANCH  60  83
ATOM     83  C   UNL A   1      44.441  27.837  34.397  1.00  0.00     0.023 A 
ATOM     84  C   UNL A   1      44.333  26.668  35.171  1.00  0.00     0.031 A 
ATOM     85  C   UNL A   1      45.592  28.629  34.556  1.00  0.00     0.131 A 
ATOM     86  C   UNL A   1      45.327  26.355  36.113  1.00  0.00     0.055 A 
ATOM     87  C   UNL A   1      46.604  28.284  35.455  1.00  0.00     0.041 A 
ATOM     88  F   UNL A   1      45.750  29.757  33.845  1.00  0.00    -0.206 F 
ATOM     89  C   UNL A   1      46.468  27.148  36.250  1.00  0.00     0.022 A 
BRANCH  86  90
ATOM     90  S   UNL A   1      45.067  24.941  37.221  1.00  0.00     0.124 S 
ATOM     91  O   UNL A   1      46.426  24.648  37.662  1.00  0.00    -0.237 OA
ATOM     92  O   UNL A   1      44.174  25.496  38.233  1.00  0.00    -0.237 OA
ATOM     93  O   UNL A   1      44.464  23.930  36.353  1.00  0.00    -0.744 OA
ENDBRANCH  86  90
ENDBRANCH  60  83
ENDBRANCH  34  35
ENDBRANCH  27  29
ENDBRANCH  26  27
ENDBRANCH   1  26
TORSDOF 18
ENDMDL
MODEL 2
REMARK VINA RESULT:     -12.0      1.363      1.611
REMARK SMILES CC[NH2+][C@]1(C(=O)OCCOC(=O)c2ccc(-c3c4nc(c(-c5cc(S(=O)(=O)[O-])ccc5F)c5ccc([nH]5)c(-c5cc(S(=O)(=O)[O-])ccc5F)c5nc(c(-c6cc(S(=O)(=O)[O-])ccc6F)c6ccc3[nH]6)C=C5)C=C4)cc2)CCC[C@@H](Oc2cc(C)cc(C)c2)C1
REMARK SMILES IDX 9 1 8 2 7 3 5 4 6 5 4 6 76 7 89 8 77 9 79 10 78 11 3 12 2 15
REMARK SMILES IDX 1 16 80 17 81 18 82 19 88 20 83 21 86 22 84 23 85 24 87 25
REMARK SMILES IDX 10 26 11 27 12 28 13 29 14 30 75 31 15 32 74 33 16 34 17 35
REMARK SMILES IDX 18 36 68 37 19 38 73 39 67 40 69 41 20 42 72 43 66 44 65 45
REMARK SMILES IDX 21 47 53 48 33 49 52 50 34 51 37 52 51 53 70 54 35 55 36 56
REMARK SMILES IDX 50 58 71 59 38 60 22 61 23 62 31 63 24 64 30 65 32 66 29 67
REMARK SMILES IDX 25 68 26 69 27 70 28 71 54 72 55 73 63 74 56 75 62 76 64 77
REMARK SMILES IDX 61 78 57 79 58 80 59 81 60 82 39 83 40 84 48 85 41 86 47 87
REMARK SMILES IDX 49 88 46 89 42 90 43 91 44 92 45 93
REMARK H PARENT 3 13 3 14 69 46 37 57
REMARK Flexibility Score: inf
ROOT
ATOM      1  C   UNL A   1      31.538  29.162  25.515  1.00  0.00     0.275 C 
ENDROOT
BRANCH   1   2
ATOM      2  C   UNL A   1      31.451  28.554  24.114  1.00  0.00     0.274 C 
BRANCH   2   3
ATOM      3  O   UNL A   1      30.705  27.318  24.136  1.00  0.00    -0.457 OA
BRANCH   3   4
ATOM      4  C   UNL A   1      31.351  26.210  23.658  1.00  0.00     0.368 C 
ATOM      5  O   UNL A   1      31.579  26.013  22.470  1.00  0.00    -0.245 OA
BRANCH   4   6
ATOM      6  C   UNL A   1      31.750  25.207  24.806  1.00  0.00     0.197 C 
ATOM      7  C   UNL A   1      30.488  25.088  25.701  1.00  0.00     0.081 C 
ATOM      8  C   UNL A   1      32.084  23.870  24.114  1.00  0.00     0.126 C 
ATOM      9  C   UNL A   1      30.454  23.914  26.671  1.00  0.00     0.011 C 
ATOM     10  C   UNL A   1      31.890  22.603  24.964  1.00  0.00     0.180 C 
ATOM     11  C   UNL A   1      30.736  22.591  25.990  1.00  0.00     0.046 C 
BRANCH   6  12
ATOM     12  N   UNL A   1      32.989  25.704  25.467  1.00  0.00    -0.332 N 
ATOM     13  H   UNL A   1      32.900  26.717  25.548  1.00  0.00     0.347 HD
ATOM     14  H   UNL A   1      33.030  25.181  26.342  1.00  0.00     0.347 HD
BRANCH  12  15
ATOM     15  C   UNL A   1      34.269  25.438  24.840  1.00  0.00     0.257 C 
ATOM     16  C   UNL A   1      35.107  24.539  25.734  1.00  0.00     0.071 C 
ENDBRANCH  12  15
ENDBRANCH   6  12
BRANCH  10  17
ATOM     17  O   UNL A   1      31.934  21.420  24.123  1.00  0.00    -0.490 OA
BRANCH  17  18
ATOM     18  C   UNL A   1      32.922  20.499  24.365  1.00  0.00     0.120 A 
ATOM     19  C   UNL A   1      32.669  19.179  23.992  1.00  0.00     0.049 A 
ATOM     20  C   UNL A   1      34.176  20.828  24.873  1.00  0.00     0.049 A 
ATOM     21  C   UNL A   1      33.691  18.218  24.062  1.00  0.00    -0.047 A 
ATOM     22  C   UNL A   1      35.234  19.921  24.840  1.00  0.00    -0.047 A 
ATOM     23  C   UNL A   1      33.460  16.806  23.606  1.00  0.00     0.044 C 
ATOM     24  C   UNL A   1      34.977  18.603  24.469  1.00  0.00     0.007 A 
ATOM     25  C   UNL A   1      36.613  20.413  25.162  1.00  0.00     0.044 C 
ENDBRANCH  17  18
ENDBRANCH  10  17
ENDBRANCH   4   6
ENDBRANCH   3   4
ENDBRANCH   2   3
ENDBRANCH   1   2
BRANCH   1  26
ATOM     26  O   UNL A   1      32.723  29.964  25.595  1.00  0.00    -0.458 OA
BRANCH  26  27
ATOM     27  C   UNL A   1      32.806  30.828  26.639  1.00  0.00     0.338 C 
ATOM     28  O   UNL A   1      31.945  31.620  26.980  1.00  0.00    -0.246 OA
BRANCH  27  29
ATOM     29  C   UNL A   1      34.127  30.663  27.311  1.00  0.00     0.060 A 
ATOM     30  C   UNL A   1      34.714  29.406  27.425  1.00  0.00     0.016 A 
ATOM     31  C   UNL A   1      34.781  31.761  27.879  1.00  0.00     0.016 A 
ATOM     32  C   UNL A   1      35.901  29.244  28.140  1.00  0.00     0.010 A 
ATOM     33  C   UNL A   1      36.016  31.593  28.542  1.00  0.00     0.010 A 
ATOM     34  C   UNL A   1      36.587  30.320  28.710  1.00  0.00    -0.014 A 
BRANCH  34  35
ATOM     35  C   UNL A   1      37.815  30.068  29.547  1.00  0.00     0.031 A 
ATOM     36  C   UNL A   1      38.999  29.338  28.957  1.00  0.00     0.074 A 
ATOM     37  C   UNL A   1      37.957  30.566  30.798  1.00  0.00     0.049 A 
ATOM     38  N   UNL A   1      40.055  28.845  29.557  1.00  0.00    -0.248 NA
ATOM     39  C   UNL A   1      38.982  29.120  27.504  1.00  0.00     0.031 C 
ATOM     40  C   UNL A   1      36.977  31.389  31.501  1.00  0.00     0.029 A 
ATOM     41  N   UNL A   1      39.011  30.498  31.685  1.00  0.00    -0.354 N 
ATOM     42  C   UNL A   1      40.776  28.177  28.573  1.00  0.00     0.074 A 
ATOM     43  C   UNL A   1      40.047  28.350  27.333  1.00  0.00     0.031 C 
ATOM     44  C   UNL A   1      37.519  31.852  32.637  1.00  0.00     0.029 A 
ATOM     45  C   UNL A   1      38.824  31.231  32.838  1.00  0.00     0.049 A 
ATOM     46  H   UNL A   1      39.827  29.973  31.511  1.00  0.00     0.167 HD
ATOM     47  C   UNL A   1      41.929  27.471  28.695  1.00  0.00     0.034 A 
ATOM     48  C   UNL A   1      39.575  31.356  33.956  1.00  0.00     0.034 A 
ATOM     49  C   UNL A   1      42.708  27.378  29.906  1.00  0.00     0.049 A 
ATOM     50  C   UNL A   1      40.834  30.532  34.086  1.00  0.00     0.074 A 
ATOM     51  C   UNL A   1      43.867  26.651  30.134  1.00  0.00     0.029 A 
ATOM     52  N   UNL A   1      42.435  28.056  31.085  1.00  0.00    -0.354 N 
ATOM     53  N   UNL A   1      41.417  29.761  33.199  1.00  0.00    -0.248 NA
ATOM     54  C   UNL A   1      41.512  30.561  35.391  1.00  0.00     0.031 C 
ATOM     55  C   UNL A   1      44.264  26.852  31.461  1.00  0.00     0.029 A 
ATOM     56  C   UNL A   1      43.391  27.752  32.046  1.00  0.00     0.049 A 
ATOM     57  H   UNL A   1      41.673  28.664  31.222  1.00  0.00     0.167 HD
ATOM     58  C   UNL A   1      42.525  29.213  33.842  1.00  0.00     0.074 A 
ATOM     59  C   UNL A   1      42.559  29.779  35.173  1.00  0.00     0.031 C 
ATOM     60  C   UNL A   1      43.421  28.306  33.378  1.00  0.00     0.034 A 
BRANCH  47  61
ATOM     61  C   UNL A   1      42.358  26.651  27.505  1.00  0.00     0.023 A 
ATOM     62  C   UNL A   1      42.011  25.300  27.345  1.00  0.00     0.031 A 
ATOM     63  C   UNL A   1      43.168  27.249  26.519  1.00  0.00     0.131 A 
ATOM     64  C   UNL A   1      42.524  24.575  26.255  1.00  0.00     0.055 A 
ATOM     65  C   UNL A   1      43.612  26.542  25.402  1.00  0.00     0.041 A 
ATOM     66  F   UNL A   1      43.547  28.531  26.633  1.00  0.00    -0.206 F 
ATOM     67  C   UNL A   1      43.302  25.194  25.272  1.00  0.00     0.022 A 
BRANCH  64  68
ATOM     68  S   UNL A   1      42.265  22.781  26.203  1.00  0.00     0.124 S 
ATOM     69  O   UNL A   1      40.808  22.691  26.245  1.00  0.00    -0.237 OA
ATOM     70  O   UNL A   1      42.893  22.408  24.940  1.00  0.00    -0.237 OA
ATOM     71  O   UNL A   1      42.948  22.301  27.403  1.00  0.00    -0.744 OA
ENDBRANCH  64  68
ENDBRANCH  47  61
BRANCH  48  72
ATOM     72  C   UNL A   1      39.124  32.216  35.097  1.00  0.00     0.023 A 
ATOM     73  C   UNL A   1      39.597  33.532  35.247  1.00  0.00     0.031 A 
ATOM     74  C   UNL A   1      38.272  31.714  36.098  1.00  0.00     0.131 A 
ATOM     75  C   UNL A   1      39.239  34.283  36.381  1.00  0.00     0.055 A 
ATOM     76  C   UNL A   1      37.858  32.490  37.181  1.00  0.00     0.041 A 
ATOM     77  F   UNL A   1      37.815  30.453  36.034  1.00  0.00    -0.206 F 
ATOM     78  C   UNL A   1      38.353  33.779  37.334  1.00  0.00     0.022 A 
BRANCH  75  79
ATOM     79  S   UNL A   1      40.039  35.889  36.657  1.00  0.00     0.124 S 
ATOM     80  O   UNL A   1      39.300  36.396  37.807  1.00  0.00    -0.237 OA
ATOM     81  O   UNL A   1      41.423  35.500  36.901  1.00  0.00    -0.237 OA
ATOM     82  O   UNL A   1      39.806  36.604  35.402  1.00  0.00    -0.744 OA
ENDBRANCH  75  79
ENDBRANCH  48  72
BRANCH  60  83
ATOM     83  C   UNL A   1      44.529  27.891  34.317  1.00  0.00     0.023 A 
ATOM     84  C   UNL A   1      44.407  26.761  35.145  1.00  0.00     0.031 A 
ATOM     85  C   UNL A   1      45.710  28.650  34.407  1.00  0.00     0.131 A 
ATOM     86  C   UNL A   1      45.418  26.457  36.070  1.00  0.00     0.055 A 
ATOM     87  C   UNL A   1      46.737  28.310  35.290  1.00  0.00     0.041 A 
ATOM     88  F   UNL A   1      45.883  29.739  33.641  1.00  0.00    -0.206 F 
ATOM     89  C   UNL A   1      46.588  27.215  36.138  1.00  0.00     0.022 A 
BRANCH  86  90
ATOM     90  S   UNL A   1      45.146  25.102  37.248  1.00  0.00     0.124 S 
ATOM     91  O   UNL A   1      43.784  25.364  37.702  1.00  0.00    -0.237 OA
ATOM     92  O   UNL A   1      45.323  23.919  36.413  1.00  0.00    -0.237 OA
ATOM     93  O   UNL A   1      46.185  25.308  38.256  1.00  0.00    -0.744 OA
ENDBRANCH  86  90
ENDBRANCH  60  83
ENDBRANCH  34  35
ENDBRANCH  27  29
ENDBRANCH  26  27
ENDBRANCH   1  26
TORSDOF 18
ENDMDL
MODEL 3
REMARK VINA RESULT:     -11.7      1.268      2.150
REMARK SMILES CC[NH2+][C@]1(C(=O)OCCOC(=O)c2ccc(-c3c4nc(c(-c5cc(S(=O)(=O)[O-])ccc5F)c5ccc([nH]5)c(-c5cc(S(=O)(=O)[O-])ccc5F)c5nc(c(-c6cc(S(=O)(=O)[O-])ccc6F)c6ccc3[nH]6)C=C5)C=C4)cc2)CCC[C@@H](Oc2cc(C)cc(C)c2)C1
REMARK SMILES IDX 9 1 8 2 7 3 5 4 6 5 4 6 76 7 89 8 77 9 79 10 78 11 3 12 2 15
REMARK SMILES IDX 1 16 80 17 81 18 82 19 88 20 83 21 86 22 84 23 85 24 87 25
REMARK SMILES IDX 10 26 11 27 12 28 13 29 14 30 75 31 15 32 74 33 16 34 17 35
REMARK SMILES IDX 18 36 68 37 19 38 73 39 67 40 69 41 20 42 72 43 66 44 65 45
REMARK SMILES IDX 21 47 53 48 33 49 52 50 34 51 37 52 51 53 70 54 35 55 36 56
REMARK SMILES IDX 50 58 71 59 38 60 22 61 23 62 31 63 24 64 30 65 32 66 29 67
REMARK SMILES IDX 25 68 26 69 27 70 28 71 54 72 55 73 63 74 56 75 62 76 64 77
REMARK SMILES IDX 61 78 57 79 58 80 59 81 60 82 39 83 40 84 48 85 41 86 47 87
REMARK SMILES IDX 49 88 46 89 42 90 43 91 44 92 45 93
REMARK H PARENT 3 13 3 14 69 46 37 57
REMARK Flexibility Score: inf
ROOT
ATOM      1  C   UNL A   1      31.817  29.895  26.187  1.00  0.00     0.275 C 
ENDROOT
BRANCH   1   2
ATOM      2  C   UNL A   1      31.730  28.813  27.265  1.00  0.00     0.274 C 
BRANCH   2   3
ATOM      3  O   UNL A   1      31.403  27.533  26.683  1.00  0.00    -0.457 OA
BRANCH   3   4
ATOM      4  C   UNL A   1      32.428  26.866  26.068  1.00  0.00     0.368 C 
ATOM      5  O   UNL A   1      33.609  27.009  26.364  1.00  0.00    -0.245 OA
BRANCH   4   6
ATOM      6  C   UNL A   1      31.919  25.910  24.923  1.00  0.00     0.197 C 
ATOM      7  C   UNL A   1      31.523  26.850  23.753  1.00  0.00     0.081 C 
ATOM      8  C   UNL A   1      33.114  25.010  24.550  1.00  0.00     0.126 C 
ATOM      9  C   UNL A   1      31.346  26.195  22.390  1.00  0.00     0.011 C 
ATOM     10  C   UNL A   1      33.119  24.456  23.115  1.00  0.00     0.180 C 
ATOM     11  C   UNL A   1      32.536  25.345  21.995  1.00  0.00     0.046 C 
BRANCH   6  12
ATOM     12  N   UNL A   1      30.841  25.039  25.471  1.00  0.00    -0.332 N 
ATOM     13  H   UNL A   1      30.163  25.652  25.925  1.00  0.00     0.347 HD
ATOM     14  H   UNL A   1      30.509  24.517  24.660  1.00  0.00     0.347 HD
BRANCH  12  15
ATOM     15  C   UNL A   1      31.195  24.010  26.428  1.00  0.00     0.257 C 
ATOM     16  C   UNL A   1      29.957  23.221  26.822  1.00  0.00     0.071 C 
ENDBRANCH  12  15
ENDBRANCH   6  12
BRANCH  10  17
ATOM     17  O   UNL A   1      34.420  23.896  22.796  1.00  0.00    -0.490 OA
BRANCH  17  18
ATOM     18  C   UNL A   1      34.805  22.755  23.454  1.00  0.00     0.120 A 
ATOM     19  C   UNL A   1      36.143  22.658  23.837  1.00  0.00     0.049 A 
ATOM     20  C   UNL A   1      33.920  21.748  23.833  1.00  0.00     0.049 A 
ATOM     21  C   UNL A   1      36.569  21.597  24.652  1.00  0.00    -0.047 A 
ATOM     22  C   UNL A   1      34.295  20.753  24.735  1.00  0.00    -0.047 A 
ATOM     23  C   UNL A   1      37.990  21.507  25.127  1.00  0.00     0.044 C 
ATOM     24  C   UNL A   1      35.633  20.658  25.113  1.00  0.00     0.007 A 
ATOM     25  C   UNL A   1      33.235  19.855  25.296  1.00  0.00     0.044 C 
ENDBRANCH  17  18
ENDBRANCH  10  17
ENDBRANCH   4   6
ENDBRANCH   3   4
ENDBRANCH   2   3
ENDBRANCH   1   2
BRANCH   1  26
ATOM     26  O   UNL A   1      33.165  30.381  26.131  1.00  0.00    -0.458 OA
BRANCH  26  27
ATOM     27  C   UNL A   1      33.504  31.341  27.029  1.00  0.00     0.338 C 
ATOM     28  O   UNL A   1      32.855  32.339  27.287  1.00  0.00    -0.246 OA
BRANCH  27  29
ATOM     29  C   UNL A   1      34.810  30.988  27.658  1.00  0.00     0.060 A 
ATOM     30  C   UNL A   1      35.100  29.670  28.000  1.00  0.00     0.016 A 
ATOM     31  C   UNL A   1      35.751  31.979  27.955  1.00  0.00     0.016 A 
ATOM     32  C   UNL A   1      36.280  29.361  28.676  1.00  0.00     0.010 A 
ATOM     33  C   UNL A   1      36.971  31.643  28.580  1.00  0.00     0.010 A 
ATOM     34  C   UNL A   1      37.248  30.324  28.979  1.00  0.00    -0.014 A 
BRANCH  34  35
ATOM     35  C   UNL A   1      38.459  29.942  29.790  1.00  0.00     0.031 A 
ATOM     36  C   UNL A   1      39.559  29.114  29.168  1.00  0.00     0.074 A 
ATOM     37  C   UNL A   1      38.667  30.402  31.047  1.00  0.00     0.049 A 
ATOM     38  N   UNL A   1      40.572  28.513  29.742  1.00  0.00    -0.248 NA
ATOM     39  C   UNL A   1      39.499  28.925  27.713  1.00  0.00     0.031 C 
ATOM     40  C   UNL A   1      37.779  31.301  31.780  1.00  0.00     0.029 A 
ATOM     41  N   UNL A   1      39.723  30.219  31.915  1.00  0.00    -0.354 N 
ATOM     42  C   UNL A   1      41.212  27.798  28.735  1.00  0.00     0.074 A 
ATOM     43  C   UNL A   1      40.483  28.061  27.511  1.00  0.00     0.031 C 
ATOM     44  C   UNL A   1      38.381  31.690  32.915  1.00  0.00     0.029 A 
ATOM     45  C   UNL A   1      39.624  30.944  33.082  1.00  0.00     0.049 A 
ATOM     46  H   UNL A   1      40.482  29.622  31.718  1.00  0.00     0.167 HD
ATOM     47  C   UNL A   1      42.294  26.984  28.825  1.00  0.00     0.034 A 
ATOM     48  C   UNL A   1      40.401  30.978  34.189  1.00  0.00     0.034 A 
ATOM     49  C   UNL A   1      43.079  26.795  30.022  1.00  0.00     0.049 A 
ATOM     50  C   UNL A   1      41.577  30.036  34.285  1.00  0.00     0.074 A 
ATOM     51  C   UNL A   1      44.167  25.958  30.217  1.00  0.00     0.029 A 
ATOM     52  N   UNL A   1      42.890  27.475  31.216  1.00  0.00    -0.354 N 
ATOM     53  N   UNL A   1      42.071  29.230  33.375  1.00  0.00    -0.248 NA
ATOM     54  C   UNL A   1      42.275  29.978  35.578  1.00  0.00     0.031 C 
ATOM     55  C   UNL A   1      44.603  26.097  31.540  1.00  0.00     0.029 A 
ATOM     56  C   UNL A   1      43.828  27.065  32.155  1.00  0.00     0.049 A 
ATOM     57  H   UNL A   1      42.192  28.150  31.376  1.00  0.00     0.167 HD
ATOM     58  C   UNL A   1      43.132  28.568  33.990  1.00  0.00     0.074 A 
ATOM     59  C   UNL A   1      43.239  29.104  35.329  1.00  0.00     0.031 C 
ATOM     60  C   UNL A   1      43.931  27.589  33.495  1.00  0.00     0.034 A 
BRANCH  47  61
ATOM     61  C   UNL A   1      42.626  26.149  27.614  1.00  0.00     0.023 A 
ATOM     62  C   UNL A   1      42.349  24.775  27.538  1.00  0.00     0.031 A 
ATOM     63  C   UNL A   1      43.267  26.758  26.519  1.00  0.00     0.131 A 
ATOM     64  C   UNL A   1      42.769  24.043  26.414  1.00  0.00     0.055 A 
ATOM     65  C   UNL A   1      43.616  26.039  25.376  1.00  0.00     0.041 A 
ATOM     66  F   UNL A   1      43.575  28.065  26.548  1.00  0.00    -0.206 F 
ATOM     67  C   UNL A   1      43.379  24.671  25.324  1.00  0.00     0.022 A 
BRANCH  64  68
ATOM     68  S   UNL A   1      42.622  22.235  26.446  1.00  0.00     0.124 S 
ATOM     69  O   UNL A   1      43.811  21.829  25.700  1.00  0.00    -0.237 OA
ATOM     70  O   UNL A   1      42.632  21.943  27.875  1.00  0.00    -0.237 OA
ATOM     71  O   UNL A   1      41.352  21.983  25.767  1.00  0.00    -0.744 OA
ENDBRANCH  64  68
ENDBRANCH  47  61
BRANCH  48  72
ATOM     72  C   UNL A   1      40.051  31.856  35.352  1.00  0.00     0.023 A 
ATOM     73  C   UNL A   1      39.131  31.436  36.330  1.00  0.00     0.031 A 
ATOM     74  C   UNL A   1      40.571  33.159  35.467  1.00  0.00     0.131 A 
ATOM     75  C   UNL A   1      38.743  32.317  37.354  1.00  0.00     0.055 A 
ATOM     76  C   UNL A   1      40.242  34.001  36.529  1.00  0.00     0.041 A 
ATOM     77  F   UNL A   1      41.426  33.635  34.546  1.00  0.00    -0.206 F 
ATOM     78  C   UNL A   1      39.311  33.586  37.474  1.00  0.00     0.022 A 
BRANCH  75  79
ATOM     79  S   UNL A   1      37.395  31.827  38.467  1.00  0.00     0.124 S 
ATOM     80  O   UNL A   1      36.360  32.795  38.125  1.00  0.00    -0.237 OA
ATOM     81  O   UNL A   1      37.150  30.450  38.057  1.00  0.00    -0.237 OA
ATOM     82  O   UNL A   1      37.980  31.985  39.799  1.00  0.00    -0.744 OA
ENDBRANCH  75  79
ENDBRANCH  48  72
BRANCH  60  83
ATOM     83  C   UNL A   1      45.009  27.054  34.409  1.00  0.00     0.023 A 
ATOM     84  C   UNL A   1      44.803  25.909  35.198  1.00  0.00     0.031 A 
ATOM     85  C   UNL A   1      46.247  27.713  34.513  1.00  0.00     0.131 A 
ATOM     86  C   UNL A   1      45.793  25.492  36.102  1.00  0.00     0.055 A 
ATOM     87  C   UNL A   1      47.250  27.262  35.374  1.00  0.00     0.041 A 
ATOM     88  F   UNL A   1      46.500  28.812  33.784  1.00  0.00    -0.206 F 
ATOM     89  C   UNL A   1      47.021  26.153  36.185  1.00  0.00     0.022 A 
BRANCH  86  90
ATOM     90  S   UNL A   1      45.422  24.123  37.234  1.00  0.00     0.124 S 
ATOM     91  O   UNL A   1      44.447  24.729  38.134  1.00  0.00    -0.237 OA
ATOM     92  O   UNL A   1      44.906  23.100  36.331  1.00  0.00    -0.237 OA
ATOM     93  O   UNL A   1      46.717  23.816  37.839  1.00  0.00    -0.744 OA
ENDBRANCH  86  90
ENDBRANCH  60  83
ENDBRANCH  34  35
ENDBRANCH  27  29
ENDBRANCH  26  27
ENDBRANCH   1  26
TORSDOF 18
ENDMDL
