MODEL 1
REMARK VINA RESULT:     -11.9      0.000      0.000
REMARK SMILES CC(/C=C1\SC(=S)N(CC(=O)NCC(=O)OCCOC(=O)c2ccc(-c3c4nc(c(-c5cc(S(=O)(=O)[O-])ccc5F)c5ccc([nH]5)c(-c5cc(S(=O)(=O)[O-])ccc5F)c5nc(c(-c6cc(S(=O)(=O)[O-])ccc6F)c6ccc3[nH]6)C=C5)C=C4)cc2)C1=O)=C\c1ccccc1
REMARK SMILES IDX 17 1 16 2 14 3 15 4 13 5 12 6 10 7 11 8 9 10 8 11 3 12 4 13
REMARK SMILES IDX 5 14 85 15 6 16 86 17 7 18 2 19 1 20 87 21 88 22 89 23 93 24
REMARK SMILES IDX 90 25 92 26 91 27 18 28 19 29 20 30 21 31 22 32 23 33 84 34
REMARK SMILES IDX 24 35 83 36 25 37 26 38 27 39 77 40 28 41 82 42 76 43 78 44
REMARK SMILES IDX 29 45 81 46 75 47 74 48 30 50 62 51 42 52 61 53 43 54 46 55
REMARK SMILES IDX 60 56 79 57 44 58 45 59 59 61 80 62 47 63 31 64 32 65 40 66
REMARK SMILES IDX 33 67 39 68 41 69 38 70 34 71 35 72 36 73 37 74 63 75 64 76
REMARK SMILES IDX 72 77 65 78 71 79 73 80 70 81 66 82 67 83 68 84 69 85 48 86
REMARK SMILES IDX 49 87 57 88 50 89 56 90 58 91 55 92 51 93 52 94 53 95 54 96
REMARK H PARENT 12 9 78 49 46 60
REMARK Flexibility Score: inf
ROOT
ATOM      1  C   UNL A   1      30.974  30.494  24.906  1.00  0.00     0.274 C 
ENDROOT
BRANCH   1   2
ATOM      2  O   UNL A   1      29.876  31.354  24.544  1.00  0.00    -0.461 OA
BRANCH   2   3
ATOM      3  C   UNL A   1      29.034  30.885  23.586  1.00  0.00     0.325 C 
ATOM      4  O   UNL A   1      27.933  31.361  23.334  1.00  0.00    -0.250 OA
BRANCH   3   5
ATOM      5  C   UNL A   1      29.633  29.733  22.779  1.00  0.00     0.238 C 
BRANCH   5   6
ATOM      6  N   UNL A   1      29.074  28.413  22.988  1.00  0.00    -0.344 N 
ATOM      7  C   UNL A   1      29.710  27.268  23.355  1.00  0.00     0.240 C 
ATOM      8  O   UNL A   1      29.033  26.346  23.818  1.00  0.00    -0.273 OA
ATOM      9  H   UNL A   1      28.103  28.335  22.845  1.00  0.00     0.164 HD
BRANCH   7  10
ATOM     10  C   UNL A   1      31.240  27.187  23.347  1.00  0.00     0.227 C 
BRANCH  10  11
ATOM     11  N   UNL A   1      31.753  25.949  23.939  1.00  0.00    -0.283 N 
ATOM     12  C   UNL A   1      32.711  22.537  23.230  1.00  0.00     0.024 C 
ATOM     13  C   UNL A   1      32.423  23.689  23.854  1.00  0.00     0.080 C 
ATOM     14  S   UNL A   1      32.551  24.086  25.518  1.00  0.00    -0.054 SA
ATOM     15  C   UNL A   1      31.936  24.869  23.093  1.00  0.00     0.266 C 
ATOM     16  C   UNL A   1      31.904  25.703  25.285  1.00  0.00     0.148 C 
ATOM     17  O   UNL A   1      31.696  24.844  21.894  1.00  0.00    -0.268 OA
ATOM     18  S   UNL A   1      31.532  26.694  26.572  1.00  0.00    -0.052 S 
BRANCH  12  19
ATOM     19  C   UNL A   1      33.137  21.260  23.801  1.00  0.00    -0.049 C 
ATOM     20  C   UNL A   1      34.341  21.262  24.713  1.00  0.00     0.044 C 
ATOM     21  C   UNL A   1      32.412  20.155  23.526  1.00  0.00     0.011 C 
BRANCH  21  22
ATOM     22  C   UNL A   1      32.737  18.793  23.968  1.00  0.00    -0.025 A 
ATOM     23  C   UNL A   1      33.224  17.872  23.032  1.00  0.00     0.008 A 
ATOM     24  C   UNL A   1      32.575  18.389  25.298  1.00  0.00     0.008 A 
ATOM     25  C   UNL A   1      33.588  16.585  23.431  1.00  0.00     0.001 A 
ATOM     26  C   UNL A   1      32.958  17.108  25.700  1.00  0.00     0.001 A 
ATOM     27  C   UNL A   1      33.469  16.208  24.767  1.00  0.00     0.000 A 
ENDBRANCH  21  22
ENDBRANCH  12  19
ENDBRANCH  10  11
ENDBRANCH   7  10
ENDBRANCH   5   6
ENDBRANCH   3   5
ENDBRANCH   2   3
ENDBRANCH   1   2
BRANCH   1  28
ATOM     28  C   UNL A   1      31.421  30.759  26.349  1.00  0.00     0.275 C 
BRANCH  28  29
ATOM     29  O   UNL A   1      32.856  30.752  26.480  1.00  0.00    -0.458 OA
BRANCH  29  30
ATOM     30  C   UNL A   1      33.374  31.807  27.151  1.00  0.00     0.338 C 
ATOM     31  O   UNL A   1      32.822  32.865  27.401  1.00  0.00    -0.246 OA
BRANCH  30  32
ATOM     32  C   UNL A   1      34.685  31.452  27.711  1.00  0.00     0.060 A 
ATOM     33  C   UNL A   1      34.869  30.140  28.148  1.00  0.00     0.016 A 
ATOM     34  C   UNL A   1      35.671  32.412  27.927  1.00  0.00     0.016 A 
ATOM     35  C   UNL A   1      36.000  29.794  28.869  1.00  0.00     0.010 A 
ATOM     36  C   UNL A   1      36.847  32.044  28.593  1.00  0.00     0.010 A 
ATOM     37  C   UNL A   1      37.009  30.736  29.086  1.00  0.00    -0.014 A 
BRANCH  37  38
ATOM     38  C   UNL A   1      38.221  30.327  29.840  1.00  0.00     0.031 A 
ATOM     39  C   UNL A   1      39.217  29.393  29.218  1.00  0.00     0.074 A 
ATOM     40  C   UNL A   1      38.442  30.846  31.064  1.00  0.00     0.049 A 
ATOM     41  N   UNL A   1      40.280  28.845  29.748  1.00  0.00    -0.248 NA
ATOM     42  C   UNL A   1      38.983  29.020  27.814  1.00  0.00     0.031 C 
ATOM     43  C   UNL A   1      37.570  31.812  31.739  1.00  0.00     0.029 A 
ATOM     44  N   UNL A   1      39.467  30.649  31.952  1.00  0.00    -0.354 N 
ATOM     45  C   UNL A   1      40.826  28.036  28.756  1.00  0.00     0.074 A 
ATOM     46  C   UNL A   1      39.963  28.154  27.599  1.00  0.00     0.031 C 
ATOM     47  C   UNL A   1      38.112  32.142  32.922  1.00  0.00     0.029 A 
ATOM     48  C   UNL A   1      39.320  31.352  33.125  1.00  0.00     0.049 A 
ATOM     49  H   UNL A   1      40.234  30.060  31.768  1.00  0.00     0.167 HD
ATOM     50  C   UNL A   1      41.942  27.267  28.815  1.00  0.00     0.034 A 
ATOM     51  C   UNL A   1      40.051  31.330  34.256  1.00  0.00     0.034 A 
ATOM     52  C   UNL A   1      42.793  27.181  29.979  1.00  0.00     0.049 A 
ATOM     53  C   UNL A   1      41.246  30.420  34.319  1.00  0.00     0.074 A 
ATOM     54  C   UNL A   1      43.947  26.437  30.152  1.00  0.00     0.029 A 
ATOM     55  N   UNL A   1      42.581  27.864  31.170  1.00  0.00    -0.354 N 
ATOM     56  N   UNL A   1      41.722  29.617  33.394  1.00  0.00    -0.248 NA
ATOM     57  C   UNL A   1      41.998  30.403  35.580  1.00  0.00     0.031 C 
ATOM     58  C   UNL A   1      44.399  26.625  31.464  1.00  0.00     0.029 A 
ATOM     59  C   UNL A   1      43.566  27.538  32.091  1.00  0.00     0.049 A 
ATOM     60  H   UNL A   1      41.840  28.491  31.337  1.00  0.00     0.167 HD
ATOM     61  C   UNL A   1      42.834  29.006  33.959  1.00  0.00     0.074 A 
ATOM     62  C   UNL A   1      42.973  29.551  35.296  1.00  0.00     0.031 C 
ATOM     63  C   UNL A   1      43.668  28.077  33.427  1.00  0.00     0.034 A 
BRANCH  50  64
ATOM     64  C   UNL A   1      42.256  26.411  27.612  1.00  0.00     0.023 A 
ATOM     65  C   UNL A   1      41.766  25.101  27.480  1.00  0.00     0.031 A 
ATOM     66  C   UNL A   1      43.095  26.906  26.597  1.00  0.00     0.131 A 
ATOM     67  C   UNL A   1      42.173  24.308  26.395  1.00  0.00     0.055 A 
ATOM     68  C   UNL A   1      43.438  26.138  25.483  1.00  0.00     0.041 A 
ATOM     69  F   UNL A   1      43.611  28.142  26.681  1.00  0.00    -0.206 F 
ATOM     70  C   UNL A   1      42.988  24.825  25.384  1.00  0.00     0.022 A 
BRANCH  67  71
ATOM     71  S   UNL A   1      41.738  22.546  26.393  1.00  0.00     0.124 S 
ATOM     72  O   UNL A   1      40.280  22.603  26.311  1.00  0.00    -0.237 OA
ATOM     73  O   UNL A   1      42.427  22.053  25.207  1.00  0.00    -0.237 OA
ATOM     74  O   UNL A   1      42.265  22.061  27.668  1.00  0.00    -0.744 OA
ENDBRANCH  67  71
ENDBRANCH  50  64
BRANCH  51  75
ATOM     75  C   UNL A   1      39.633  32.137  35.437  1.00  0.00     0.023 A 
ATOM     76  C   UNL A   1      38.817  31.593  36.440  1.00  0.00     0.031 A 
ATOM     77  C   UNL A   1      40.026  33.482  35.563  1.00  0.00     0.131 A 
ATOM     78  C   UNL A   1      38.396  32.398  37.509  1.00  0.00     0.055 A 
ATOM     79  C   UNL A   1      39.647  34.264  36.654  1.00  0.00     0.041 A 
ATOM     80  F   UNL A   1      40.806  34.052  34.631  1.00  0.00    -0.206 F 
ATOM     81  C   UNL A   1      38.817  33.725  37.631  1.00  0.00     0.022 A 
BRANCH  78  82
ATOM     82  S   UNL A   1      37.225  31.706  38.711  1.00  0.00     0.124 S 
ATOM     83  O   UNL A   1      37.968  31.835  39.958  1.00  0.00    -0.237 OA
ATOM     84  O   UNL A   1      36.075  32.590  38.555  1.00  0.00    -0.237 OA
ATOM     85  O   UNL A   1      37.025  30.337  38.241  1.00  0.00    -0.744 OA
ENDBRANCH  78  82
ENDBRANCH  51  75
BRANCH  63  86
ATOM     86  C   UNL A   1      44.812  27.624  34.297  1.00  0.00     0.023 A 
ATOM     87  C   UNL A   1      44.711  26.477  35.103  1.00  0.00     0.031 A 
ATOM     88  C   UNL A   1      46.005  28.366  34.340  1.00  0.00     0.131 A 
ATOM     89  C   UNL A   1      45.764  26.137  35.964  1.00  0.00     0.055 A 
ATOM     90  C   UNL A   1      47.071  27.992  35.160  1.00  0.00     0.041 A 
ATOM     91  F   UNL A   1      46.150  29.470  33.591  1.00  0.00    -0.206 F 
ATOM     92  C   UNL A   1      46.949  26.879  35.987  1.00  0.00     0.022 A 
BRANCH  89  93
ATOM     93  S   UNL A   1      45.532  24.761  37.122  1.00  0.00     0.124 S 
ATOM     94  O   UNL A   1      46.662  24.932  38.029  1.00  0.00    -0.237 OA
ATOM     95  O   UNL A   1      44.214  25.043  37.684  1.00  0.00    -0.237 OA
ATOM     96  O   UNL A   1      45.597  23.577  36.267  1.00  0.00    -0.744 OA
ENDBRANCH  89  93
ENDBRANCH  63  86
ENDBRANCH  37  38
ENDBRANCH  30  32
ENDBRANCH  29  30
ENDBRANCH  28  29
ENDBRANCH   1  28
TORSDOF 19
ENDMDL
MODEL 2
REMARK VINA RESULT:     -11.9      4.752     10.695
REMARK SMILES CC(/C=C1\SC(=S)N(CC(=O)NCC(=O)OCCOC(=O)c2ccc(-c3c4nc(c(-c5cc(S(=O)(=O)[O-])ccc5F)c5ccc([nH]5)c(-c5cc(S(=O)(=O)[O-])ccc5F)c5nc(c(-c6cc(S(=O)(=O)[O-])ccc6F)c6ccc3[nH]6)C=C5)C=C4)cc2)C1=O)=C\c1ccccc1
REMARK SMILES IDX 17 1 16 2 14 3 15 4 13 5 12 6 10 7 11 8 9 10 8 11 3 12 4 13
REMARK SMILES IDX 5 14 85 15 6 16 86 17 7 18 2 19 1 20 87 21 88 22 89 23 93 24
REMARK SMILES IDX 90 25 92 26 91 27 18 28 19 29 20 30 21 31 22 32 23 33 84 34
REMARK SMILES IDX 24 35 83 36 25 37 26 38 27 39 77 40 28 41 82 42 76 43 78 44
REMARK SMILES IDX 29 45 81 46 75 47 74 48 30 50 62 51 42 52 61 53 43 54 46 55
REMARK SMILES IDX 60 56 79 57 44 58 45 59 59 61 80 62 47 63 31 64 32 65 40 66
REMARK SMILES IDX 33 67 39 68 41 69 38 70 34 71 35 72 36 73 37 74 63 75 64 76
REMARK SMILES IDX 72 77 65 78 71 79 73 80 70 81 66 82 67 83 68 84 69 85 48 86
REMARK SMILES IDX 49 87 57 88 50 89 56 90 58 91 55 92 51 93 52 94 53 95 54 96
REMARK H PARENT 12 9 78 49 46 60
REMARK Flexibility Score: inf
ROOT
ATOM      1  C   UNL A   1      35.089  21.267  25.903  1.00  0.00     0.274 C 
ENDROOT
BRANCH   1   2
ATOM      2  O   UNL A   1      33.956  20.378  25.940  1.00  0.00    -0.461 OA
BRANCH   2   3
ATOM      3  C   UNL A   1      33.512  19.918  24.741  1.00  0.00     0.325 C 
ATOM      4  O   UNL A   1      33.829  18.840  24.249  1.00  0.00    -0.250 OA
BRANCH   3   5
ATOM      5  C   UNL A   1      32.496  20.852  24.083  1.00  0.00     0.238 C 
BRANCH   5   6
ATOM      6  N   UNL A   1      33.015  21.953  23.299  1.00  0.00    -0.344 N 
ATOM      7  C   UNL A   1      33.188  23.252  23.665  1.00  0.00     0.240 C 
ATOM      8  O   UNL A   1      33.954  23.951  22.997  1.00  0.00    -0.273 OA
ATOM      9  H   UNL A   1      33.279  21.731  22.377  1.00  0.00     0.164 HD
BRANCH   7  10
ATOM     10  C   UNL A   1      32.575  23.785  24.964  1.00  0.00     0.227 C 
BRANCH  10  11
ATOM     11  N   UNL A   1      31.949  25.098  24.807  1.00  0.00    -0.283 N 
ATOM     12  C   UNL A   1      29.124  26.849  23.386  1.00  0.00     0.024 C 
ATOM     13  C   UNL A   1      30.281  26.558  23.998  1.00  0.00     0.080 C 
ATOM     14  S   UNL A   1      31.393  27.607  24.777  1.00  0.00    -0.054 SA
ATOM     15  C   UNL A   1      30.762  25.156  24.096  1.00  0.00     0.266 C 
ATOM     16  C   UNL A   1      32.515  26.307  25.148  1.00  0.00     0.148 C 
ATOM     17  O   UNL A   1      30.192  24.211  23.570  1.00  0.00    -0.268 OA
ATOM     18  S   UNL A   1      34.027  26.605  25.782  1.00  0.00    -0.052 S 
BRANCH  12  19
ATOM     19  C   UNL A   1      28.516  28.155  23.134  1.00  0.00    -0.049 C 
ATOM     20  C   UNL A   1      27.062  28.339  23.498  1.00  0.00     0.044 C 
ATOM     21  C   UNL A   1      29.291  29.143  22.636  1.00  0.00     0.011 C 
BRANCH  21  22
ATOM     22  C   UNL A   1      28.825  30.487  22.271  1.00  0.00    -0.025 A 
ATOM     23  C   UNL A   1      28.848  31.500  23.237  1.00  0.00     0.008 A 
ATOM     24  C   UNL A   1      28.358  30.784  20.986  1.00  0.00     0.008 A 
ATOM     25  C   UNL A   1      28.459  32.799  22.909  1.00  0.00     0.001 A 
ATOM     26  C   UNL A   1      27.987  32.087  20.652  1.00  0.00     0.001 A 
ATOM     27  C   UNL A   1      28.041  33.096  21.612  1.00  0.00     0.000 A 
ENDBRANCH  21  22
ENDBRANCH  12  19
ENDBRANCH  10  11
ENDBRANCH   7  10
ENDBRANCH   5   6
ENDBRANCH   3   5
ENDBRANCH   2   3
ENDBRANCH   1   2
BRANCH   1  28
ATOM     28  C   UNL A   1      36.273  20.612  25.180  1.00  0.00     0.275 C 
BRANCH  28  29
ATOM     29  O   UNL A   1      37.384  21.517  25.032  1.00  0.00    -0.458 OA
BRANCH  29  30
ATOM     30  C   UNL A   1      38.515  21.145  25.676  1.00  0.00     0.338 C 
ATOM     31  O   UNL A   1      39.019  20.034  25.698  1.00  0.00    -0.246 OA
BRANCH  30  32
ATOM     32  C   UNL A   1      39.183  22.324  26.241  1.00  0.00     0.060 A 
ATOM     33  C   UNL A   1      38.646  23.577  25.945  1.00  0.00     0.016 A 
ATOM     34  C   UNL A   1      40.387  22.219  26.935  1.00  0.00     0.016 A 
ATOM     35  C   UNL A   1      39.339  24.731  26.271  1.00  0.00     0.010 A 
ATOM     36  C   UNL A   1      41.051  23.388  27.328  1.00  0.00     0.010 A 
ATOM     37  C   UNL A   1      40.541  24.652  26.980  1.00  0.00    -0.014 A 
BRANCH  37  38
ATOM     38  C   UNL A   1      41.247  25.908  27.336  1.00  0.00     0.031 A 
ATOM     39  C   UNL A   1      40.580  26.924  28.217  1.00  0.00     0.074 A 
ATOM     40  C   UNL A   1      42.510  26.099  26.907  1.00  0.00     0.049 A 
ATOM     41  N   UNL A   1      40.990  28.118  28.559  1.00  0.00    -0.248 NA
ATOM     42  C   UNL A   1      39.275  26.550  28.783  1.00  0.00     0.031 C 
ATOM     43  C   UNL A   1      43.277  25.148  26.097  1.00  0.00     0.029 A 
ATOM     44  N   UNL A   1      43.375  27.144  27.098  1.00  0.00    -0.354 N 
ATOM     45  C   UNL A   1      39.981  28.654  29.353  1.00  0.00     0.074 A 
ATOM     46  C   UNL A   1      38.933  27.658  29.425  1.00  0.00     0.031 C 
ATOM     47  C   UNL A   1      44.506  25.642  25.884  1.00  0.00     0.029 A 
ATOM     48  C   UNL A   1      44.587  26.975  26.469  1.00  0.00     0.049 A 
ATOM     49  H   UNL A   1      43.152  27.939  27.633  1.00  0.00     0.167 HD
ATOM     50  C   UNL A   1      39.941  29.867  29.959  1.00  0.00     0.034 A 
ATOM     51  C   UNL A   1      45.630  27.817  26.337  1.00  0.00     0.034 A 
ATOM     52  C   UNL A   1      41.009  30.836  29.883  1.00  0.00     0.049 A 
ATOM     53  C   UNL A   1      45.533  29.181  26.964  1.00  0.00     0.074 A 
ATOM     54  C   UNL A   1      41.078  32.094  30.455  1.00  0.00     0.029 A 
ATOM     55  N   UNL A   1      42.199  30.653  29.188  1.00  0.00    -0.354 N 
ATOM     56  N   UNL A   1      44.551  29.698  27.667  1.00  0.00    -0.248 NA
ATOM     57  C   UNL A   1      46.678  30.079  26.772  1.00  0.00     0.031 C 
ATOM     58  C   UNL A   1      42.281  32.692  30.061  1.00  0.00     0.029 A 
ATOM     59  C   UNL A   1      42.995  31.784  29.296  1.00  0.00     0.049 A 
ATOM     60  H   UNL A   1      42.443  29.838  28.693  1.00  0.00     0.167 HD
ATOM     61  C   UNL A   1      44.965  30.980  28.009  1.00  0.00     0.074 A 
ATOM     62  C   UNL A   1      46.294  31.147  27.456  1.00  0.00     0.031 C 
ATOM     63  C   UNL A   1      44.308  31.936  28.713  1.00  0.00     0.034 A 
BRANCH  50  64
ATOM     64  C   UNL A   1      38.672  30.231  30.692  1.00  0.00     0.023 A 
ATOM     65  C   UNL A   1      37.615  30.910  30.063  1.00  0.00     0.031 A 
ATOM     66  C   UNL A   1      38.539  29.925  32.059  1.00  0.00     0.131 A 
ATOM     67  C   UNL A   1      36.502  31.320  30.815  1.00  0.00     0.055 A 
ATOM     68  C   UNL A   1      37.397  30.272  32.784  1.00  0.00     0.041 A 
ATOM     69  F   UNL A   1      39.525  29.299  32.718  1.00  0.00    -0.206 F 
ATOM     70  C   UNL A   1      36.376  30.987  32.166  1.00  0.00     0.022 A 
BRANCH  67  71
ATOM     71  S   UNL A   1      35.285  32.418  30.037  1.00  0.00     0.124 S 
ATOM     72  O   UNL A   1      34.717  31.549  29.010  1.00  0.00    -0.237 OA
ATOM     73  O   UNL A   1      34.405  32.753  31.151  1.00  0.00    -0.237 OA
ATOM     74  O   UNL A   1      36.095  33.524  29.529  1.00  0.00    -0.744 OA
ENDBRANCH  67  71
ENDBRANCH  50  64
BRANCH  51  75
ATOM     75  C   UNL A   1      46.816  27.424  25.526  1.00  0.00     0.023 A 
ATOM     76  C   UNL A   1      46.956  27.836  24.192  1.00  0.00     0.031 A 
ATOM     77  C   UNL A   1      47.819  26.603  26.072  1.00  0.00     0.131 A 
ATOM     78  C   UNL A   1      48.058  27.400  23.440  1.00  0.00     0.055 A 
ATOM     79  C   UNL A   1      48.939  26.213  25.336  1.00  0.00     0.041 A 
ATOM     80  F   UNL A   1      47.734  26.180  27.344  1.00  0.00    -0.206 F 
ATOM     81  C   UNL A   1      49.057  26.604  24.007  1.00  0.00     0.022 A 
BRANCH  78  82
ATOM     82  S   UNL A   1      48.134  27.830  21.679  1.00  0.00     0.124 S 
ATOM     83  O   UNL A   1      48.376  26.531  21.065  1.00  0.00    -0.237 OA
ATOM     84  O   UNL A   1      46.814  28.411  21.453  1.00  0.00    -0.237 OA
ATOM     85  O   UNL A   1      49.248  28.774  21.607  1.00  0.00    -0.744 OA
ENDBRANCH  78  82
ENDBRANCH  51  75
BRANCH  63  86
ATOM     86  C   UNL A   1      45.045  33.231  28.938  1.00  0.00     0.023 A 
ATOM     87  C   UNL A   1      45.871  33.420  30.059  1.00  0.00     0.031 A 
ATOM     88  C   UNL A   1      44.893  34.297  28.034  1.00  0.00     0.131 A 
ATOM     89  C   UNL A   1      46.470  34.668  30.280  1.00  0.00     0.055 A 
ATOM     90  C   UNL A   1      45.536  35.520  28.231  1.00  0.00     0.041 A 
ATOM     91  F   UNL A   1      44.114  34.167  26.950  1.00  0.00    -0.206 F 
ATOM     92  C   UNL A   1      46.319  35.715  29.366  1.00  0.00     0.022 A 
BRANCH  89  93
ATOM     93  S   UNL A   1      47.379  34.936  31.826  1.00  0.00     0.124 S 
ATOM     94  O   UNL A   1      46.357  35.531  32.681  1.00  0.00    -0.237 OA
ATOM     95  O   UNL A   1      47.799  33.584  32.181  1.00  0.00    -0.237 OA
ATOM     96  O   UNL A   1      48.462  35.837  31.436  1.00  0.00    -0.744 OA
ENDBRANCH  89  93
ENDBRANCH  63  86
ENDBRANCH  37  38
ENDBRANCH  30  32
ENDBRANCH  29  30
ENDBRANCH  28  29
ENDBRANCH   1  28
TORSDOF 19
ENDMDL
MODEL 3
REMARK VINA RESULT:     -11.6      5.014     10.644
REMARK SMILES CC(/C=C1\SC(=S)N(CC(=O)NCC(=O)OCCOC(=O)c2ccc(-c3c4nc(c(-c5cc(S(=O)(=O)[O-])ccc5F)c5ccc([nH]5)c(-c5cc(S(=O)(=O)[O-])ccc5F)c5nc(c(-c6cc(S(=O)(=O)[O-])ccc6F)c6ccc3[nH]6)C=C5)C=C4)cc2)C1=O)=C\c1ccccc1
REMARK SMILES IDX 17 1 16 2 14 3 15 4 13 5 12 6 10 7 11 8 9 10 8 11 3 12 4 13
REMARK SMILES IDX 5 14 85 15 6 16 86 17 7 18 2 19 1 20 87 21 88 22 89 23 93 24
REMARK SMILES IDX 90 25 92 26 91 27 18 28 19 29 20 30 21 31 22 32 23 33 84 34
REMARK SMILES IDX 24 35 83 36 25 37 26 38 27 39 77 40 28 41 82 42 76 43 78 44
REMARK SMILES IDX 29 45 81 46 75 47 74 48 30 50 62 51 42 52 61 53 43 54 46 55
REMARK SMILES IDX 60 56 79 57 44 58 45 59 59 61 80 62 47 63 31 64 32 65 40 66
REMARK SMILES IDX 33 67 39 68 41 69 38 70 34 71 35 72 36 73 37 74 63 75 64 76
REMARK SMILES IDX 72 77 65 78 71 79 73 80 70 81 66 82 67 83 68 84 69 85 48 86
REMARK SMILES IDX 49 87 57 88 50 89 56 90 58 91 55 92 51 93 52 94 53 95 54 96
REMARK H PARENT 12 9 78 49 46 60
REMARK Flexibility Score: inf
ROOT
ATOM      1  C   UNL A   1      35.201  21.419  25.855  1.00  0.00     0.274 C 
ENDROOT
BRANCH   1   2
ATOM      2  O   UNL A   1      34.065  20.540  25.970  1.00  0.00    -0.461 OA
BRANCH   2   3
ATOM      3  C   UNL A   1      33.626  19.969  24.818  1.00  0.00     0.325 C 
ATOM      4  O   UNL A   1      33.967  18.863  24.415  1.00  0.00    -0.250 OA
BRANCH   3   5
ATOM      5  C   UNL A   1      32.582  20.819  24.093  1.00  0.00     0.238 C 
BRANCH   5   6
ATOM      6  N   UNL A   1      33.059  21.963  23.344  1.00  0.00    -0.344 N 
ATOM      7  C   UNL A   1      33.108  23.268  23.724  1.00  0.00     0.240 C 
ATOM      8  O   UNL A   1      33.855  24.030  23.105  1.00  0.00    -0.273 OA
ATOM      9  H   UNL A   1      33.393  21.770  22.438  1.00  0.00     0.164 HD
BRANCH   7  10
ATOM     10  C   UNL A   1      32.381  23.742  24.987  1.00  0.00     0.227 C 
BRANCH  10  11
ATOM     11  N   UNL A   1      31.782  25.070  24.840  1.00  0.00    -0.283 N 
ATOM     12  C   UNL A   1      29.068  26.912  23.322  1.00  0.00     0.024 C 
ATOM     13  C   UNL A   1      30.184  26.583  23.989  1.00  0.00     0.080 C 
ATOM     14  S   UNL A   1      31.263  27.586  24.868  1.00  0.00    -0.054 SA
ATOM     15  C   UNL A   1      30.639  25.170  24.065  1.00  0.00     0.266 C 
ATOM     16  C   UNL A   1      32.344  26.257  25.255  1.00  0.00     0.148 C 
ATOM     17  O   UNL A   1      30.088  24.253  23.474  1.00  0.00    -0.268 OA
ATOM     18  S   UNL A   1      33.820  26.509  25.986  1.00  0.00    -0.052 S 
BRANCH  12  19
ATOM     19  C   UNL A   1      28.493  28.236  23.083  1.00  0.00    -0.049 C 
ATOM     20  C   UNL A   1      27.021  28.427  23.360  1.00  0.00     0.044 C 
ATOM     21  C   UNL A   1      29.310  29.230  22.674  1.00  0.00     0.011 C 
BRANCH  21  22
ATOM     22  C   UNL A   1      28.885  30.593  22.332  1.00  0.00    -0.025 A 
ATOM     23  C   UNL A   1      28.460  30.866  21.026  1.00  0.00     0.008 A 
ATOM     24  C   UNL A   1      28.893  31.628  23.274  1.00  0.00     0.008 A 
ATOM     25  C   UNL A   1      28.003  32.139  20.683  1.00  0.00     0.001 A 
ATOM     26  C   UNL A   1      28.418  32.896  22.936  1.00  0.00     0.001 A 
ATOM     27  C   UNL A   1      27.969  33.151  21.641  1.00  0.00     0.000 A 
ENDBRANCH  21  22
ENDBRANCH  12  19
ENDBRANCH  10  11
ENDBRANCH   7  10
ENDBRANCH   5   6
ENDBRANCH   3   5
ENDBRANCH   2   3
ENDBRANCH   1   2
BRANCH   1  28
ATOM     28  C   UNL A   1      36.371  20.710  25.163  1.00  0.00     0.275 C 
BRANCH  28  29
ATOM     29  O   UNL A   1      37.529  21.561  25.053  1.00  0.00    -0.458 OA
BRANCH  29  30
ATOM     30  C   UNL A   1      38.603  21.160  25.772  1.00  0.00     0.338 C 
ATOM     31  O   UNL A   1      39.075  20.037  25.830  1.00  0.00    -0.246 OA
BRANCH  30  32
ATOM     32  C   UNL A   1      39.264  22.324  26.379  1.00  0.00     0.060 A 
ATOM     33  C   UNL A   1      38.819  23.591  26.002  1.00  0.00     0.016 A 
ATOM     34  C   UNL A   1      40.382  22.183  27.199  1.00  0.00     0.016 A 
ATOM     35  C   UNL A   1      39.528  24.721  26.374  1.00  0.00     0.010 A 
ATOM     36  C   UNL A   1      41.056  23.331  27.635  1.00  0.00     0.010 A 
ATOM     37  C   UNL A   1      40.644  24.608  27.208  1.00  0.00    -0.014 A 
BRANCH  37  38
ATOM     38  C   UNL A   1      41.367  25.840  27.610  1.00  0.00     0.031 A 
ATOM     39  C   UNL A   1      40.673  26.887  28.432  1.00  0.00     0.074 A 
ATOM     40  C   UNL A   1      42.665  25.981  27.278  1.00  0.00     0.049 A 
ATOM     41  N   UNL A   1      41.100  28.068  28.797  1.00  0.00    -0.248 NA
ATOM     42  C   UNL A   1      39.315  26.566  28.897  1.00  0.00     0.031 C 
ATOM     43  C   UNL A   1      43.456  24.996  26.535  1.00  0.00     0.029 A 
ATOM     44  N   UNL A   1      43.552  26.995  27.529  1.00  0.00    -0.354 N 
ATOM     45  C   UNL A   1      40.054  28.648  29.508  1.00  0.00     0.074 A 
ATOM     46  C   UNL A   1      38.966  27.691  29.506  1.00  0.00     0.031 C 
ATOM     47  C   UNL A   1      44.715  25.442  26.414  1.00  0.00     0.029 A 
ATOM     48  C   UNL A   1      44.801  26.777  26.995  1.00  0.00     0.049 A 
ATOM     49  H   UNL A   1      43.317  27.803  28.040  1.00  0.00     0.167 HD
ATOM     50  C   UNL A   1      40.011  29.866  30.102  1.00  0.00     0.034 A 
ATOM     51  C   UNL A   1      45.881  27.579  26.940  1.00  0.00     0.034 A 
ATOM     52  C   UNL A   1      41.118  30.795  30.103  1.00  0.00     0.049 A 
ATOM     53  C   UNL A   1      45.787  28.951  27.549  1.00  0.00     0.074 A 
ATOM     54  C   UNL A   1      41.189  32.054  30.672  1.00  0.00     0.029 A 
ATOM     55  N   UNL A   1      42.350  30.562  29.502  1.00  0.00    -0.354 N 
ATOM     56  N   UNL A   1      44.774  29.509  28.171  1.00  0.00    -0.248 NA
ATOM     57  C   UNL A   1      46.976  29.805  27.440  1.00  0.00     0.031 C 
ATOM     58  C   UNL A   1      42.440  32.605  30.367  1.00  0.00     0.029 A 
ATOM     59  C   UNL A   1      43.176  31.664  29.664  1.00  0.00     0.049 A 
ATOM     60  H   UNL A   1      42.600  29.735  29.032  1.00  0.00     0.167 HD
ATOM     61  C   UNL A   1      45.208  30.778  28.537  1.00  0.00     0.074 A 
ATOM     62  C   UNL A   1      46.581  30.892  28.086  1.00  0.00     0.031 C 
ATOM     63  C   UNL A   1      44.535  31.763  29.183  1.00  0.00     0.034 A 
BRANCH  50  64
ATOM     64  C   UNL A   1      38.705  30.283  30.734  1.00  0.00     0.023 A 
ATOM     65  C   UNL A   1      37.742  31.030  30.035  1.00  0.00     0.031 A 
ATOM     66  C   UNL A   1      38.438  29.956  32.076  1.00  0.00     0.131 A 
ATOM     67  C   UNL A   1      36.592  31.485  30.699  1.00  0.00     0.055 A 
ATOM     68  C   UNL A   1      37.257  30.348  32.710  1.00  0.00     0.041 A 
ATOM     69  F   UNL A   1      39.330  29.263  32.801  1.00  0.00    -0.206 F 
ATOM     70  C   UNL A   1      36.332  31.130  32.026  1.00  0.00     0.022 A 
BRANCH  67  71
ATOM     71  S   UNL A   1      35.505  32.663  29.849  1.00  0.00     0.124 S 
ATOM     72  O   UNL A   1      34.674  31.770  29.044  1.00  0.00    -0.237 OA
ATOM     73  O   UNL A   1      34.836  33.332  30.959  1.00  0.00    -0.237 OA
ATOM     74  O   UNL A   1      36.432  33.496  29.086  1.00  0.00    -0.744 OA
ENDBRANCH  67  71
ENDBRANCH  50  64
BRANCH  51  75
ATOM     75  C   UNL A   1      47.110  27.136  26.224  1.00  0.00     0.023 A 
ATOM     76  C   UNL A   1      48.136  26.450  26.891  1.00  0.00     0.031 A 
ATOM     77  C   UNL A   1      47.286  27.418  24.856  1.00  0.00     0.131 A 
ATOM     78  C   UNL A   1      49.304  26.096  26.199  1.00  0.00     0.055 A 
ATOM     79  C   UNL A   1      48.427  27.020  24.160  1.00  0.00     0.041 A 
ATOM     80  F   UNL A   1      46.335  28.073  24.170  1.00  0.00    -0.206 F 
ATOM     81  C   UNL A   1      49.450  26.364  24.835  1.00  0.00     0.022 A 
BRANCH  78  82
ATOM     82  S   UNL A   1      50.669  25.341  27.125  1.00  0.00     0.124 S 
ATOM     83  O   UNL A   1      51.121  26.454  27.950  1.00  0.00    -0.237 OA
ATOM     84  O   UNL A   1      49.993  24.254  27.827  1.00  0.00    -0.237 OA
ATOM     85  O   UNL A   1      51.599  24.921  26.078  1.00  0.00    -0.744 OA
ENDBRANCH  78  82
ENDBRANCH  51  75
BRANCH  63  86
ATOM     86  C   UNL A   1      45.300  33.032  29.457  1.00  0.00     0.023 A 
ATOM     87  C   UNL A   1      45.521  33.987  28.449  1.00  0.00     0.031 A 
ATOM     88  C   UNL A   1      45.840  33.272  30.732  1.00  0.00     0.131 A 
ATOM     89  C   UNL A   1      46.313  35.113  28.719  1.00  0.00     0.055 A 
ATOM     90  C   UNL A   1      46.581  34.422  31.009  1.00  0.00     0.041 A 
ATOM     91  F   UNL A   1      45.659  32.390  31.727  1.00  0.00    -0.206 F 
ATOM     92  C   UNL A   1      46.832  35.343  29.996  1.00  0.00     0.022 A 
BRANCH  89  93
ATOM     93  S   UNL A   1      46.730  36.230  27.353  1.00  0.00     0.124 S 
ATOM     94  O   UNL A   1      46.837  35.308  26.227  1.00  0.00    -0.237 OA
ATOM     95  O   UNL A   1      45.586  37.136  27.329  1.00  0.00    -0.237 OA
ATOM     96  O   UNL A   1      47.989  36.838  27.778  1.00  0.00    -0.744 OA
ENDBRANCH  89  93
ENDBRANCH  63  86
ENDBRANCH  37  38
ENDBRANCH  30  32
ENDBRANCH  29  30
ENDBRANCH  28  29
ENDBRANCH   1  28
TORSDOF 19
ENDMDL
