MODEL 1
REMARK VINA RESULT:     -11.7      0.000      0.000
REMARK SMILES CCOC(=O)C1=NN(c2ccc(C)cc2Cl)[C@@](C)(C(=O)OCCOC(=O)c2ccc(-c3c4nc(c(-c5cc(S(=O)(=O)[O-])ccc5F)c5ccc([nH]5)c(-c5cc(S(=O)(=O)[O-])ccc5F)c5nc(c(-c6cc(S(=O)(=O)[O-])ccc6F)c6ccc3[nH]6)C=C5)C=C4)cc2)C1
REMARK SMILES IDX 22 1 21 2 19 3 20 4 17 5 6 6 7 7 90 8 8 9 18 10 4 11 5 12
REMARK SMILES IDX 3 13 2 14 1 15 9 16 10 17 15 18 11 19 14 20 16 21 12 22
REMARK SMILES IDX 13 23 23 24 24 25 25 26 26 27 27 28 28 29 89 30 29 31 88 32
REMARK SMILES IDX 30 33 31 34 32 35 82 36 33 37 87 38 81 39 83 40 34 41 86 42
REMARK SMILES IDX 80 43 79 44 35 46 67 47 47 48 66 49 48 50 51 51 65 52 84 53
REMARK SMILES IDX 49 54 50 55 64 57 85 58 52 59 36 60 37 61 45 62 38 63 44 64
REMARK SMILES IDX 46 65 43 66 39 67 40 68 41 69 42 70 68 71 69 72 77 73 70 74
REMARK SMILES IDX 76 75 78 76 75 77 71 78 72 79 73 80 74 81 53 82 54 83 62 84
REMARK SMILES IDX 55 85 61 86 63 87 60 88 56 89 57 90 58 91 59 92
REMARK H PARENT 83 45 51 56
REMARK Flexibility Score: inf
ROOT
ATOM      1  C   UNL A   1      31.735  28.635  27.136  1.00  0.00     0.274 C 
ENDROOT
BRANCH   1   2
ATOM      2  O   UNL A   1      32.913  27.936  26.679  1.00  0.00    -0.460 OA
BRANCH   2   3
ATOM      3  C   UNL A   1      32.718  26.797  25.962  1.00  0.00     0.334 C 
ATOM      4  O   UNL A   1      32.317  25.743  26.452  1.00  0.00    -0.249 OA
BRANCH   3   5
ATOM      5  C   UNL A   1      33.122  26.910  24.479  1.00  0.00     0.163 C 
ATOM      6  C   UNL A   1      32.993  24.914  23.307  1.00  0.00     0.149 C 
ATOM      7  N   UNL A   1      31.908  25.536  22.975  1.00  0.00    -0.169 NA
ATOM      8  C   UNL A   1      33.994  25.697  24.083  1.00  0.00     0.108 C 
ATOM      9  N   UNL A   1      31.984  26.778  23.541  1.00  0.00    -0.246 N 
ATOM     10  C   UNL A   1      33.933  28.196  24.341  1.00  0.00     0.050 C 
BRANCH   6  11
ATOM     11  C   UNL A   1      33.281  23.498  22.889  1.00  0.00     0.354 C 
ATOM     12  O   UNL A   1      33.713  23.232  21.787  1.00  0.00    -0.245 OA
BRANCH  11  13
ATOM     13  O   UNL A   1      32.972  22.670  23.905  1.00  0.00    -0.461 OA
BRANCH  13  14
ATOM     14  C   UNL A   1      33.860  21.550  24.083  1.00  0.00     0.230 C 
ATOM     15  C   UNL A   1      33.050  20.315  24.427  1.00  0.00     0.049 C 
ENDBRANCH  13  14
ENDBRANCH  11  13
ENDBRANCH   6  11
BRANCH   9  16
ATOM     16  C   UNL A   1      31.003  27.705  23.208  1.00  0.00     0.079 A 
ATOM     17  C   UNL A   1      31.325  28.816  22.410  1.00  0.00     0.030 A 
ATOM     18  C   UNL A   1      29.640  27.536  23.533  1.00  0.00     0.066 A 
ATOM     19  C   UNL A   1      30.354  29.715  21.955  1.00  0.00     0.006 A 
ATOM     20  C   UNL A   1      28.662  28.436  23.077  1.00  0.00     0.026 A 
ATOM     21  Cl  UNL A   1      29.075  26.248  24.549  1.00  0.00    -0.082 Cl
ATOM     22  C   UNL A   1      29.012  29.529  22.280  1.00  0.00    -0.049 A 
ATOM     23  C   UNL A   1      27.952  30.444  21.747  1.00  0.00     0.044 C 
ENDBRANCH   9  16
ENDBRANCH   3   5
ENDBRANCH   2   3
ENDBRANCH   1   2
BRANCH   1  24
ATOM     24  C   UNL A   1      31.740  30.075  26.627  1.00  0.00     0.275 C 
BRANCH  24  25
ATOM     25  O   UNL A   1      33.103  30.491  26.482  1.00  0.00    -0.458 OA
BRANCH  25  26
ATOM     26  C   UNL A   1      33.501  31.523  27.264  1.00  0.00     0.338 C 
ATOM     27  O   UNL A   1      32.904  32.573  27.425  1.00  0.00    -0.246 OA
BRANCH  26  28
ATOM     28  C   UNL A   1      34.805  31.178  27.891  1.00  0.00     0.060 A 
ATOM     29  C   UNL A   1      35.053  29.895  28.394  1.00  0.00     0.016 A 
ATOM     30  C   UNL A   1      35.793  32.156  28.009  1.00  0.00     0.016 A 
ATOM     31  C   UNL A   1      36.239  29.610  29.068  1.00  0.00     0.010 A 
ATOM     32  C   UNL A   1      37.023  31.840  28.601  1.00  0.00     0.010 A 
ATOM     33  C   UNL A   1      37.255  30.568  29.154  1.00  0.00    -0.014 A 
BRANCH  33  34
ATOM     34  C   UNL A   1      38.552  30.253  29.821  1.00  0.00     0.031 A 
ATOM     35  C   UNL A   1      39.512  29.283  29.184  1.00  0.00     0.074 A 
ATOM     36  C   UNL A   1      38.871  30.821  31.002  1.00  0.00     0.049 A 
ATOM     37  N   UNL A   1      40.567  28.706  29.699  1.00  0.00    -0.248 NA
ATOM     38  C   UNL A   1      39.245  28.912  27.786  1.00  0.00     0.031 C 
ATOM     39  C   UNL A   1      38.071  31.825  31.709  1.00  0.00     0.029 A 
ATOM     40  N   UNL A   1      39.952  30.626  31.830  1.00  0.00    -0.354 N 
ATOM     41  C   UNL A   1      41.070  27.874  28.704  1.00  0.00     0.074 A 
ATOM     42  C   UNL A   1      40.197  28.018  27.557  1.00  0.00     0.031 C 
ATOM     43  C   UNL A   1      38.692  32.167  32.847  1.00  0.00     0.029 A 
ATOM     44  C   UNL A   1      39.876  31.333  33.009  1.00  0.00     0.049 A 
ATOM     45  H   UNL A   1      40.708  30.039  31.601  1.00  0.00     0.167 HD
ATOM     46  C   UNL A   1      42.157  27.065  28.746  1.00  0.00     0.034 A 
ATOM     47  C   UNL A   1      40.619  31.267  34.131  1.00  0.00     0.034 A 
ATOM     48  C   UNL A   1      43.028  26.939  29.889  1.00  0.00     0.049 A 
ATOM     49  C   UNL A   1      41.741  30.269  34.204  1.00  0.00     0.074 A 
ATOM     50  C   UNL A   1      44.168  26.165  30.026  1.00  0.00     0.029 A 
ATOM     51  N   UNL A   1      42.852  27.601  31.097  1.00  0.00    -0.354 N 
ATOM     52  N   UNL A   1      42.162  29.433  33.283  1.00  0.00    -0.248 NA
ATOM     53  C   UNL A   1      42.465  30.181  35.479  1.00  0.00     0.031 C 
ATOM     54  C   UNL A   1      44.648  26.316  31.333  1.00  0.00     0.029 A 
ATOM     55  C   UNL A   1      43.841  27.227  31.995  1.00  0.00     0.049 A 
ATOM     56  H   UNL A   1      42.130  28.243  31.288  1.00  0.00     0.167 HD
ATOM     57  C   UNL A   1      43.199  28.717  33.871  1.00  0.00     0.074 A 
ATOM     58  C   UNL A   1      43.354  29.234  35.216  1.00  0.00     0.031 C 
ATOM     59  C   UNL A   1      43.955  27.720  33.346  1.00  0.00     0.034 A 
BRANCH  46  60
ATOM     60  C   UNL A   1      42.429  26.212  27.534  1.00  0.00     0.023 A 
ATOM     61  C   UNL A   1      41.983  24.884  27.451  1.00  0.00     0.031 A 
ATOM     62  C   UNL A   1      43.166  26.733  26.455  1.00  0.00     0.131 A 
ATOM     63  C   UNL A   1      42.320  24.103  26.334  1.00  0.00     0.055 A 
ATOM     64  C   UNL A   1      43.450  25.970  25.322  1.00  0.00     0.041 A 
ATOM     65  F   UNL A   1      43.631  27.993  26.492  1.00  0.00    -0.206 F 
ATOM     66  C   UNL A   1      43.036  24.642  25.262  1.00  0.00     0.022 A 
BRANCH  63  67
ATOM     67  S   UNL A   1      41.913  22.335  26.360  1.00  0.00     0.124 S 
ATOM     68  O   UNL A   1      42.647  21.841  25.196  1.00  0.00    -0.237 OA
ATOM     69  O   UNL A   1      42.423  21.916  27.659  1.00  0.00    -0.237 OA
ATOM     70  O   UNL A   1      40.457  22.317  26.224  1.00  0.00    -0.744 OA
ENDBRANCH  63  67
ENDBRANCH  46  60
BRANCH  47  71
ATOM     71  C   UNL A   1      40.248  32.085  35.321  1.00  0.00     0.023 A 
ATOM     72  C   UNL A   1      39.257  31.659  36.218  1.00  0.00     0.031 A 
ATOM     73  C   UNL A   1      40.879  33.319  35.566  1.00  0.00     0.131 A 
ATOM     74  C   UNL A   1      38.916  32.470  37.313  1.00  0.00     0.055 A 
ATOM     75  C   UNL A   1      40.569  34.098  36.680  1.00  0.00     0.041 A 
ATOM     76  F   UNL A   1      41.830  33.771  34.734  1.00  0.00    -0.206 F 
ATOM     77  C   UNL A   1      39.577  33.678  37.558  1.00  0.00     0.022 A 
BRANCH  74  78
ATOM     78  S   UNL A   1      37.557  31.948  38.395  1.00  0.00     0.124 S 
ATOM     79  O   UNL A   1      36.533  32.940  38.087  1.00  0.00    -0.237 OA
ATOM     80  O   UNL A   1      37.298  30.591  37.924  1.00  0.00    -0.237 OA
ATOM     81  O   UNL A   1      38.133  32.040  39.734  1.00  0.00    -0.744 OA
ENDBRANCH  74  78
ENDBRANCH  47  71
BRANCH  59  82
ATOM     82  C   UNL A   1      45.019  27.140  34.238  1.00  0.00     0.023 A 
ATOM     83  C   UNL A   1      44.724  26.116  35.155  1.00  0.00     0.031 A 
ATOM     84  C   UNL A   1      46.332  27.640  34.197  1.00  0.00     0.131 A 
ATOM     85  C   UNL A   1      45.719  25.656  36.028  1.00  0.00     0.055 A 
ATOM     86  C   UNL A   1      47.330  27.144  35.036  1.00  0.00     0.041 A 
ATOM     87  F   UNL A   1      46.662  28.621  33.342  1.00  0.00    -0.206 F 
ATOM     88  C   UNL A   1      47.024  26.154  35.965  1.00  0.00     0.022 A 
BRANCH  85  89
ATOM     89  S   UNL A   1      45.270  24.445  37.303  1.00  0.00     0.124 S 
ATOM     90  O   UNL A   1      43.929  24.882  37.676  1.00  0.00    -0.237 OA
ATOM     91  O   UNL A   1      45.353  23.181  36.578  1.00  0.00    -0.237 OA
ATOM     92  O   UNL A   1      46.292  24.635  38.332  1.00  0.00    -0.744 OA
ENDBRANCH  85  89
ENDBRANCH  59  82
ENDBRANCH  33  34
ENDBRANCH  26  28
ENDBRANCH  25  26
ENDBRANCH  24  25
ENDBRANCH   1  24
TORSDOF 18
ENDMDL
MODEL 2
REMARK VINA RESULT:     -10.3      2.150      2.479
REMARK SMILES CCOC(=O)C1=NN(c2ccc(C)cc2Cl)[C@@](C)(C(=O)OCCOC(=O)c2ccc(-c3c4nc(c(-c5cc(S(=O)(=O)[O-])ccc5F)c5ccc([nH]5)c(-c5cc(S(=O)(=O)[O-])ccc5F)c5nc(c(-c6cc(S(=O)(=O)[O-])ccc6F)c6ccc3[nH]6)C=C5)C=C4)cc2)C1
REMARK SMILES IDX 22 1 21 2 19 3 20 4 17 5 6 6 7 7 90 8 8 9 18 10 4 11 5 12
REMARK SMILES IDX 3 13 2 14 1 15 9 16 10 17 15 18 11 19 14 20 16 21 12 22
REMARK SMILES IDX 13 23 23 24 24 25 25 26 26 27 27 28 28 29 89 30 29 31 88 32
REMARK SMILES IDX 30 33 31 34 32 35 82 36 33 37 87 38 81 39 83 40 34 41 86 42
REMARK SMILES IDX 80 43 79 44 35 46 67 47 47 48 66 49 48 50 51 51 65 52 84 53
REMARK SMILES IDX 49 54 50 55 64 57 85 58 52 59 36 60 37 61 45 62 38 63 44 64
REMARK SMILES IDX 46 65 43 66 39 67 40 68 41 69 42 70 68 71 69 72 77 73 70 74
REMARK SMILES IDX 76 75 78 76 75 77 71 78 72 79 73 80 74 81 53 82 54 83 62 84
REMARK SMILES IDX 55 85 61 86 63 87 60 88 56 89 57 90 58 91 59 92
REMARK H PARENT 83 45 51 56
REMARK Flexibility Score: inf
ROOT
ATOM      1  C   UNL A   1      33.399  28.569  27.205  1.00  0.00     0.274 C 
ENDROOT
BRANCH   1   2
ATOM      2  O   UNL A   1      33.896  27.773  26.109  1.00  0.00    -0.460 OA
BRANCH   2   3
ATOM      3  C   UNL A   1      32.994  27.001  25.445  1.00  0.00     0.334 C 
ATOM      4  O   UNL A   1      32.172  26.278  26.006  1.00  0.00    -0.249 OA
BRANCH   3   5
ATOM      5  C   UNL A   1      33.138  27.042  23.911  1.00  0.00     0.163 C 
ATOM      6  C   UNL A   1      32.759  25.006  22.869  1.00  0.00     0.149 C 
ATOM      7  N   UNL A   1      31.648  25.649  22.701  1.00  0.00    -0.169 NA
ATOM      8  C   UNL A   1      33.899  25.788  23.426  1.00  0.00     0.108 C 
ATOM      9  N   UNL A   1      31.851  26.909  23.190  1.00  0.00    -0.246 N 
ATOM     10  C   UNL A   1      33.943  28.296  23.578  1.00  0.00     0.050 C 
BRANCH   6  11
ATOM     11  C   UNL A   1      32.937  23.567  22.471  1.00  0.00     0.354 C 
ATOM     12  O   UNL A   1      33.769  23.227  21.657  1.00  0.00    -0.245 OA
BRANCH  11  13
ATOM     13  O   UNL A   1      32.047  22.813  23.144  1.00  0.00    -0.461 OA
BRANCH  13  14
ATOM     14  C   UNL A   1      32.607  21.729  23.910  1.00  0.00     0.230 C 
ATOM     15  C   UNL A   1      31.878  21.621  25.236  1.00  0.00     0.049 C 
ENDBRANCH  13  14
ENDBRANCH  11  13
ENDBRANCH   6  11
BRANCH   9  16
ATOM     16  C   UNL A   1      30.850  27.852  22.989  1.00  0.00     0.079 A 
ATOM     17  C   UNL A   1      31.100  28.989  22.202  1.00  0.00     0.030 A 
ATOM     18  C   UNL A   1      29.525  27.679  23.443  1.00  0.00     0.066 A 
ATOM     19  C   UNL A   1      30.096  29.909  21.879  1.00  0.00     0.006 A 
ATOM     20  C   UNL A   1      28.515  28.600  23.119  1.00  0.00     0.026 A 
ATOM     21  Cl  UNL A   1      29.053  26.359  24.466  1.00  0.00    -0.082 Cl
ATOM     22  C   UNL A   1      28.792  29.719  22.330  1.00  0.00    -0.049 A 
ATOM     23  C   UNL A   1      27.693  30.657  21.938  1.00  0.00     0.044 C 
ENDBRANCH   9  16
ENDBRANCH   3   5
ENDBRANCH   2   3
ENDBRANCH   1   2
BRANCH   1  24
ATOM     24  C   UNL A   1      33.547  30.057  26.893  1.00  0.00     0.275 C 
BRANCH  24  25
ATOM     25  O   UNL A   1      33.786  30.748  28.125  1.00  0.00    -0.458 OA
BRANCH  25  26
ATOM     26  C   UNL A   1      34.685  31.761  28.080  1.00  0.00     0.338 C 
ATOM     27  O   UNL A   1      34.478  32.884  27.656  1.00  0.00    -0.246 OA
BRANCH  26  28
ATOM     28  C   UNL A   1      35.985  31.277  28.619  1.00  0.00     0.060 A 
ATOM     29  C   UNL A   1      37.155  32.029  28.473  1.00  0.00     0.016 A 
ATOM     30  C   UNL A   1      36.047  30.038  29.257  1.00  0.00     0.016 A 
ATOM     31  C   UNL A   1      38.385  31.523  28.892  1.00  0.00     0.010 A 
ATOM     32  C   UNL A   1      37.268  29.575  29.764  1.00  0.00     0.010 A 
ATOM     33  C   UNL A   1      38.456  30.303  29.573  1.00  0.00    -0.014 A 
BRANCH  33  34
ATOM     34  C   UNL A   1      39.758  29.781  30.079  1.00  0.00     0.031 A 
ATOM     35  C   UNL A   1      40.426  28.621  29.389  1.00  0.00     0.074 A 
ATOM     36  C   UNL A   1      40.342  30.331  31.164  1.00  0.00     0.049 A 
ATOM     37  N   UNL A   1      41.425  27.880  29.796  1.00  0.00    -0.248 NA
ATOM     38  C   UNL A   1      39.897  28.246  28.068  1.00  0.00     0.031 C 
ATOM     39  C   UNL A   1      39.845  31.496  31.900  1.00  0.00     0.029 A 
ATOM     40  N   UNL A   1      41.479  29.974  31.850  1.00  0.00    -0.354 N 
ATOM     41  C   UNL A   1      41.621  26.926  28.803  1.00  0.00     0.074 A 
ATOM     42  C   UNL A   1      40.630  27.180  27.777  1.00  0.00     0.031 C 
ATOM     43  C   UNL A   1      40.676  31.766  32.917  1.00  0.00     0.029 A 
ATOM     44  C   UNL A   1      41.702  30.733  32.977  1.00  0.00     0.049 A 
ATOM     45  H   UNL A   1      42.076  29.246  31.563  1.00  0.00     0.167 HD
ATOM     46  C   UNL A   1      42.540  25.930  28.754  1.00  0.00     0.034 A 
ATOM     47  C   UNL A   1      42.577  30.579  33.990  1.00  0.00     0.034 A 
ATOM     48  C   UNL A   1      43.531  25.694  29.775  1.00  0.00     0.049 A 
ATOM     49  C   UNL A   1      43.501  29.393  33.981  1.00  0.00     0.074 A 
ATOM     50  C   UNL A   1      44.522  24.728  29.811  1.00  0.00     0.029 A 
ATOM     51  N   UNL A   1      43.654  26.430  30.947  1.00  0.00    -0.354 N 
ATOM     52  N   UNL A   1      43.628  28.453  33.073  1.00  0.00    -0.248 NA
ATOM     53  C   UNL A   1      44.375  29.228  35.149  1.00  0.00     0.031 C 
ATOM     54  C   UNL A   1      45.206  24.844  31.029  1.00  0.00     0.029 A 
ATOM     55  C   UNL A   1      44.680  25.918  31.727  1.00  0.00     0.049 A 
ATOM     56  H   UNL A   1      43.094  27.203  31.188  1.00  0.00     0.167 HD
ATOM     57  C   UNL A   1      44.594  27.582  33.564  1.00  0.00     0.074 A 
ATOM     58  C   UNL A   1      45.032  28.120  34.836  1.00  0.00     0.031 C 
ATOM     59  C   UNL A   1      45.075  26.440  33.013  1.00  0.00     0.034 A 
BRANCH  46  60
ATOM     60  C   UNL A   1      42.477  24.990  27.579  1.00  0.00     0.023 A 
ATOM     61  C   UNL A   1      41.618  23.879  27.569  1.00  0.00     0.031 A 
ATOM     62  C   UNL A   1      43.304  25.199  26.462  1.00  0.00     0.131 A 
ATOM     63  C   UNL A   1      41.643  22.988  26.485  1.00  0.00     0.055 A 
ATOM     64  C   UNL A   1      43.284  24.341  25.361  1.00  0.00     0.041 A 
ATOM     65  F   UNL A   1      44.156  26.237  26.429  1.00  0.00    -0.206 F 
ATOM     66  C   UNL A   1      42.458  23.221  25.373  1.00  0.00     0.022 A 
BRANCH  63  67
ATOM     67  S   UNL A   1      40.682  21.453  26.603  1.00  0.00     0.124 S 
ATOM     68  O   UNL A   1      41.468  20.542  25.773  1.00  0.00    -0.237 OA
ATOM     69  O   UNL A   1      40.699  21.184  28.035  1.00  0.00    -0.237 OA
ATOM     70  O   UNL A   1      39.380  21.822  26.051  1.00  0.00    -0.744 OA
ENDBRANCH  63  67
ENDBRANCH  46  60
BRANCH  47  71
ATOM     71  C   UNL A   1      42.535  31.503  35.159  1.00  0.00     0.023 A 
ATOM     72  C   UNL A   1      43.270  32.698  35.171  1.00  0.00     0.031 A 
ATOM     73  C   UNL A   1      41.761  31.189  36.292  1.00  0.00     0.131 A 
ATOM     74  C   UNL A   1      43.226  33.529  36.302  1.00  0.00     0.055 A 
ATOM     75  C   UNL A   1      41.686  32.040  37.394  1.00  0.00     0.041 A 
ATOM     76  F   UNL A   1      41.045  30.054  36.330  1.00  0.00    -0.206 F 
ATOM     77  C   UNL A   1      42.427  33.216  37.405  1.00  0.00     0.022 A 
BRANCH  74  78
ATOM     78  S   UNL A   1      44.270  35.012  36.335  1.00  0.00     0.124 S 
ATOM     79  O   UNL A   1      44.126  35.509  34.971  1.00  0.00    -0.237 OA
ATOM     80  O   UNL A   1      43.632  35.809  37.379  1.00  0.00    -0.237 OA
ATOM     81  O   UNL A   1      45.592  34.492  36.675  1.00  0.00    -0.744 OA
ENDBRANCH  74  78
ENDBRANCH  47  71
BRANCH  59  82
ATOM     82  C   UNL A   1      46.136  25.711  33.792  1.00  0.00     0.023 A 
ATOM     83  C   UNL A   1      45.807  24.658  34.663  1.00  0.00     0.031 A 
ATOM     84  C   UNL A   1      47.484  26.096  33.691  1.00  0.00     0.131 A 
ATOM     85  C   UNL A   1      46.810  24.054  35.436  1.00  0.00     0.055 A 
ATOM     86  C   UNL A   1      48.484  25.460  34.426  1.00  0.00     0.041 A 
ATOM     87  F   UNL A   1      47.847  27.100  32.876  1.00  0.00    -0.206 F 
ATOM     88  C   UNL A   1      48.148  24.441  35.313  1.00  0.00     0.022 A 
BRANCH  85  89
ATOM     89  S   UNL A   1      46.335  22.805  36.662  1.00  0.00     0.124 S 
ATOM     90  O   UNL A   1      45.141  22.225  36.056  1.00  0.00    -0.237 OA
ATOM     91  O   UNL A   1      47.513  21.945  36.706  1.00  0.00    -0.237 OA
ATOM     92  O   UNL A   1      46.096  23.588  37.874  1.00  0.00    -0.744 OA
ENDBRANCH  85  89
ENDBRANCH  59  82
ENDBRANCH  33  34
ENDBRANCH  26  28
ENDBRANCH  25  26
ENDBRANCH  24  25
ENDBRANCH   1  24
TORSDOF 18
ENDMDL
MODEL 3
REMARK VINA RESULT:     -10.0      4.723     15.529
REMARK SMILES CCOC(=O)C1=NN(c2ccc(C)cc2Cl)[C@@](C)(C(=O)OCCOC(=O)c2ccc(-c3c4nc(c(-c5cc(S(=O)(=O)[O-])ccc5F)c5ccc([nH]5)c(-c5cc(S(=O)(=O)[O-])ccc5F)c5nc(c(-c6cc(S(=O)(=O)[O-])ccc6F)c6ccc3[nH]6)C=C5)C=C4)cc2)C1
REMARK SMILES IDX 22 1 21 2 19 3 20 4 17 5 6 6 7 7 90 8 8 9 18 10 4 11 5 12
REMARK SMILES IDX 3 13 2 14 1 15 9 16 10 17 15 18 11 19 14 20 16 21 12 22
REMARK SMILES IDX 13 23 23 24 24 25 25 26 26 27 27 28 28 29 89 30 29 31 88 32
REMARK SMILES IDX 30 33 31 34 32 35 82 36 33 37 87 38 81 39 83 40 34 41 86 42
REMARK SMILES IDX 80 43 79 44 35 46 67 47 47 48 66 49 48 50 51 51 65 52 84 53
REMARK SMILES IDX 49 54 50 55 64 57 85 58 52 59 36 60 37 61 45 62 38 63 44 64
REMARK SMILES IDX 46 65 43 66 39 67 40 68 41 69 42 70 68 71 69 72 77 73 70 74
REMARK SMILES IDX 76 75 78 76 75 77 71 78 72 79 73 80 74 81 53 82 54 83 62 84
REMARK SMILES IDX 55 85 61 86 63 87 60 88 56 89 57 90 58 91 59 92
REMARK H PARENT 83 45 51 56
REMARK Flexibility Score: inf
ROOT
ATOM      1  C   UNL A   1      46.224  23.799  39.766  1.00  0.00     0.274 C 
ENDROOT
BRANCH   1   2
ATOM      2  O   UNL A   1      46.685  22.534  39.247  1.00  0.00    -0.460 OA
BRANCH   2   3
ATOM      3  C   UNL A   1      46.240  21.409  39.869  1.00  0.00     0.334 C 
ATOM      4  O   UNL A   1      45.289  21.393  40.649  1.00  0.00    -0.249 OA
BRANCH   3   5
ATOM      5  C   UNL A   1      47.085  20.153  39.580  1.00  0.00     0.163 C 
ATOM      6  C   UNL A   1      45.841  18.299  38.954  1.00  0.00     0.149 C 
ATOM      7  N   UNL A   1      46.291  18.761  37.831  1.00  0.00    -0.169 NA
ATOM      8  C   UNL A   1      46.398  18.912  40.192  1.00  0.00     0.108 C 
ATOM      9  N   UNL A   1      47.135  19.789  38.145  1.00  0.00    -0.246 N 
ATOM     10  C   UNL A   1      48.442  20.373  40.243  1.00  0.00     0.050 C 
BRANCH   6  11
ATOM     11  C   UNL A   1      44.860  17.163  39.034  1.00  0.00     0.354 C 
ATOM     12  O   UNL A   1      44.015  16.987  38.181  1.00  0.00    -0.245 OA
BRANCH  11  13
ATOM     13  O   UNL A   1      45.093  16.459  40.158  1.00  0.00    -0.461 OA
BRANCH  13  14
ATOM     14  C   UNL A   1      43.935  16.183  40.968  1.00  0.00     0.230 C 
ATOM     15  C   UNL A   1      44.075  16.890  42.303  1.00  0.00     0.049 C 
ENDBRANCH  13  14
ENDBRANCH  11  13
ENDBRANCH   6  11
BRANCH   9  16
ATOM     16  C   UNL A   1      47.873  20.361  37.115  1.00  0.00     0.079 A 
ATOM     17  C   UNL A   1      49.233  20.047  36.963  1.00  0.00     0.030 A 
ATOM     18  C   UNL A   1      47.297  21.172  36.112  1.00  0.00     0.066 A 
ATOM     19  C   UNL A   1      49.990  20.508  35.879  1.00  0.00     0.006 A 
ATOM     20  C   UNL A   1      48.053  21.634  35.023  1.00  0.00     0.026 A 
ATOM     21  Cl  UNL A   1      45.644  21.696  36.170  1.00  0.00    -0.082 Cl
ATOM     22  C   UNL A   1      49.404  21.301  34.896  1.00  0.00    -0.049 A 
ATOM     23  C   UNL A   1      50.181  21.747  33.696  1.00  0.00     0.044 C 
ENDBRANCH   9  16
ENDBRANCH   3   5
ENDBRANCH   2   3
ENDBRANCH   1   2
BRANCH   1  24
ATOM     24  C   UNL A   1      47.082  24.942  39.223  1.00  0.00     0.275 C 
BRANCH  24  25
ATOM     25  O   UNL A   1      46.335  25.612  38.202  1.00  0.00    -0.458 OA
BRANCH  25  26
ATOM     26  C   UNL A   1      46.698  25.349  36.923  1.00  0.00     0.338 C 
ATOM     27  O   UNL A   1      47.641  24.661  36.573  1.00  0.00    -0.246 OA
BRANCH  26  28
ATOM     28  C   UNL A   1      45.765  26.052  36.002  1.00  0.00     0.060 A 
ATOM     29  C   UNL A   1      46.170  27.180  35.280  1.00  0.00     0.016 A 
ATOM     30  C   UNL A   1      44.451  25.599  35.875  1.00  0.00     0.016 A 
ATOM     31  C   UNL A   1      45.261  27.890  34.497  1.00  0.00     0.010 A 
ATOM     32  C   UNL A   1      43.566  26.258  35.012  1.00  0.00     0.010 A 
ATOM     33  C   UNL A   1      43.954  27.422  34.325  1.00  0.00    -0.014 A 
BRANCH  33  34
ATOM     34  C   UNL A   1      42.991  28.141  33.442  1.00  0.00     0.031 A 
ATOM     35  C   UNL A   1      42.076  29.189  34.018  1.00  0.00     0.074 A 
ATOM     36  C   UNL A   1      42.921  27.852  32.126  1.00  0.00     0.049 A 
ATOM     37  N   UNL A   1      41.027  29.757  33.480  1.00  0.00    -0.248 NA
ATOM     38  C   UNL A   1      42.381  29.655  35.379  1.00  0.00     0.031 C 
ATOM     39  C   UNL A   1      43.785  26.906  31.414  1.00  0.00     0.029 A 
ATOM     40  N   UNL A   1      42.073  28.317  31.148  1.00  0.00    -0.354 N 
ATOM     41  C   UNL A   1      40.522  30.618  34.449  1.00  0.00     0.074 A 
ATOM     42  C   UNL A   1      41.378  30.492  35.610  1.00  0.00     0.031 C 
ATOM     43  C   UNL A   1      43.435  26.873  30.120  1.00  0.00     0.029 A 
ATOM     44  C   UNL A   1      42.256  27.708  29.927  1.00  0.00     0.049 A 
ATOM     45  H   UNL A   1      41.400  29.017  31.306  1.00  0.00     0.167 HD
ATOM     46  C   UNL A   1      39.443  31.436  34.374  1.00  0.00     0.034 A 
ATOM     47  C   UNL A   1      41.520  27.746  28.799  1.00  0.00     0.034 A 
ATOM     48  C   UNL A   1      38.604  31.566  33.208  1.00  0.00     0.049 A 
ATOM     49  C   UNL A   1      40.255  28.558  28.781  1.00  0.00     0.074 A 
ATOM     50  C   UNL A   1      37.502  32.382  33.022  1.00  0.00     0.029 A 
ATOM     51  N   UNL A   1      38.772  30.852  32.028  1.00  0.00    -0.354 N 
ATOM     52  N   UNL A   1      39.746  29.311  29.728  1.00  0.00    -0.248 NA
ATOM     53  C   UNL A   1      39.448  28.497  27.555  1.00  0.00     0.031 C 
ATOM     54  C   UNL A   1      36.970  32.122  31.752  1.00  0.00     0.029 A 
ATOM     55  C   UNL A   1      37.774  31.185  31.124  1.00  0.00     0.049 A 
ATOM     56  H   UNL A   1      39.494  30.206  31.858  1.00  0.00     0.167 HD
ATOM     57  C   UNL A   1      38.555  29.811  29.212  1.00  0.00     0.074 A 
ATOM     58  C   UNL A   1      38.434  29.292  27.864  1.00  0.00     0.031 C 
ATOM     59  C   UNL A   1      37.643  30.625  29.800  1.00  0.00     0.034 A 
BRANCH  46  60
ATOM     60  C   UNL A   1      39.081  32.214  35.613  1.00  0.00     0.023 A 
ATOM     61  C   UNL A   1      39.521  33.532  35.812  1.00  0.00     0.031 A 
ATOM     62  C   UNL A   1      38.299  31.617  36.618  1.00  0.00     0.131 A 
ATOM     63  C   UNL A   1      39.220  34.194  37.013  1.00  0.00     0.055 A 
ATOM     64  C   UNL A   1      37.954  32.300  37.785  1.00  0.00     0.041 A 
ATOM     65  F   UNL A   1      37.866  30.352  36.484  1.00  0.00    -0.206 F 
ATOM     66  C   UNL A   1      38.426  33.593  37.993  1.00  0.00     0.022 A 
BRANCH  63  67
ATOM     67  S   UNL A   1      39.986  35.809  37.325  1.00  0.00     0.124 S 
ATOM     68  O   UNL A   1      39.274  36.252  38.523  1.00  0.00    -0.237 OA
ATOM     69  O   UNL A   1      41.388  35.459  37.511  1.00  0.00    -0.237 OA
ATOM     70  O   UNL A   1      39.686  36.570  36.113  1.00  0.00    -0.744 OA
ENDBRANCH  63  67
ENDBRANCH  46  60
BRANCH  47  71
ATOM     71  C   UNL A   1      41.894  26.893  27.635  1.00  0.00     0.023 A 
ATOM     72  C   UNL A   1      41.688  25.505  27.652  1.00  0.00     0.031 A 
ATOM     73  C   UNL A   1      42.478  27.462  26.488  1.00  0.00     0.131 A 
ATOM     74  C   UNL A   1      42.079  24.731  26.547  1.00  0.00     0.055 A 
ATOM     75  C   UNL A   1      42.823  26.696  25.376  1.00  0.00     0.041 A 
ATOM     76  F   UNL A   1      42.700  28.785  26.427  1.00  0.00    -0.206 F 
ATOM     77  C   UNL A   1      42.629  25.319  25.404  1.00  0.00     0.022 A 
BRANCH  74  78
ATOM     78  S   UNL A   1      41.903  22.928  26.639  1.00  0.00     0.124 S 
ATOM     79  O   UNL A   1      42.849  22.483  25.621  1.00  0.00    -0.237 OA
ATOM     80  O   UNL A   1      42.277  22.657  28.024  1.00  0.00    -0.237 OA
ATOM     81  O   UNL A   1      40.494  22.707  26.323  1.00  0.00    -0.744 OA
ENDBRANCH  74  78
ENDBRANCH  47  71
BRANCH  59  82
ATOM     82  C   UNL A   1      36.444  31.003  28.972  1.00  0.00     0.023 A 
ATOM     83  C   UNL A   1      35.560  30.027  28.482  1.00  0.00     0.031 A 
ATOM     84  C   UNL A   1      36.204  32.347  28.641  1.00  0.00     0.131 A 
ATOM     85  C   UNL A   1      34.500  30.405  27.646  1.00  0.00     0.055 A 
ATOM     86  C   UNL A   1      35.120  32.723  27.847  1.00  0.00     0.041 A 
ATOM     87  F   UNL A   1      37.023  33.315  29.081  1.00  0.00    -0.206 F 
ATOM     88  C   UNL A   1      34.267  31.748  27.336  1.00  0.00     0.022 A 
BRANCH  85  89
ATOM     89  S   UNL A   1      33.469  29.110  26.904  1.00  0.00     0.124 S 
ATOM     90  O   UNL A   1      32.816  29.829  25.815  1.00  0.00    -0.237 OA
ATOM     91  O   UNL A   1      34.456  28.110  26.510  1.00  0.00    -0.237 OA
ATOM     92  O   UNL A   1      32.584  28.707  27.997  1.00  0.00    -0.744 OA
ENDBRANCH  85  89
ENDBRANCH  59  82
ENDBRANCH  33  34
ENDBRANCH  26  28
ENDBRANCH  25  26
ENDBRANCH  24  25
ENDBRANCH   1  24
TORSDOF 18
ENDMDL
