MODEL 1
REMARK VINA RESULT:     -11.8      0.000      0.000
REMARK SMILES CC(=O)Nc1sc(-c2ccccc2)cc1C(=O)OCCOC(=O)c1ccc(-c2c3nc(c(-c4cc(S(=O)(=O)[O-])ccc4F)c4ccc([nH]4)c(-c4cc(S(=O)(=O)[O-])ccc4F)c4nc(c(-c5cc(S(=O)(=O)[O-])ccc5F)c5ccc2[nH]5)C=C4)C=C3)cc1
REMARK SMILES IDX 20 1 19 2 18 3 16 4 17 5 15 6 5 7 6 8 7 9 14 10 4 11 1 12
REMARK SMILES IDX 2 13 3 14 8 16 9 17 13 18 10 19 12 20 11 21 21 22 22 23
REMARK SMILES IDX 23 24 24 25 25 26 86 27 26 28 85 29 27 30 28 31 29 32 79 33
REMARK SMILES IDX 30 34 84 35 78 36 80 37 31 38 83 39 77 40 76 41 32 43 64 44
REMARK SMILES IDX 44 45 63 46 45 47 48 48 62 49 81 50 46 51 47 52 61 54 82 55
REMARK SMILES IDX 49 56 33 57 34 58 42 59 35 60 41 61 43 62 40 63 36 64 37 65
REMARK SMILES IDX 38 66 39 67 65 68 66 69 74 70 67 71 73 72 75 73 72 74 68 75
REMARK SMILES IDX 69 76 70 77 71 78 50 79 51 80 59 81 52 82 58 83 60 84 57 85
REMARK SMILES IDX 53 86 54 87 55 88 56 89
REMARK H PARENT 4 15 80 42 48 53
REMARK Flexibility Score: inf
ROOT
ATOM      1  C   UNL A   1      31.835  30.135  26.650  1.00  0.00     0.275 C 
ENDROOT
BRANCH   1   2
ATOM      2  C   UNL A   1      31.672  28.728  27.226  1.00  0.00     0.275 C 
BRANCH   2   3
ATOM      3  O   UNL A   1      32.359  27.741  26.433  1.00  0.00    -0.458 OA
BRANCH   3   4
ATOM      4  C   UNL A   1      31.691  26.573  26.195  1.00  0.00     0.341 C 
ATOM      5  O   UNL A   1      30.632  26.261  26.718  1.00  0.00    -0.246 OA
BRANCH   4   6
ATOM      6  C   UNL A   1      32.343  25.742  25.189  1.00  0.00     0.095 A 
ATOM      7  C   UNL A   1      31.973  25.602  23.868  1.00  0.00     0.110 A 
ATOM      8  S   UNL A   1      32.720  24.259  23.115  1.00  0.00    -0.117 S 
ATOM      9  C   UNL A   1      33.779  24.038  24.434  1.00  0.00     0.037 A 
ATOM     10  C   UNL A   1      33.506  24.939  25.441  1.00  0.00     0.038 A 
BRANCH   7  11
ATOM     11  N   UNL A   1      31.125  26.295  23.037  1.00  0.00    -0.317 N 
ATOM     12  C   UNL A   1      32.580  28.305  22.720  1.00  0.00     0.114 C 
ATOM     13  C   UNL A   1      31.256  27.585  22.601  1.00  0.00     0.221 C 
ATOM     14  O   UNL A   1      30.307  28.132  22.033  1.00  0.00    -0.275 OA
ATOM     15  H   UNL A   1      30.332  25.806  22.720  1.00  0.00     0.170 HD
ENDBRANCH   7  11
BRANCH   9  16
ATOM     16  C   UNL A   1      34.821  23.015  24.448  1.00  0.00    -0.008 A 
ATOM     17  C   UNL A   1      36.160  23.375  24.255  1.00  0.00     0.009 A 
ATOM     18  C   UNL A   1      34.513  21.697  24.820  1.00  0.00     0.009 A 
ATOM     19  C   UNL A   1      37.178  22.439  24.452  1.00  0.00     0.001 A 
ATOM     20  C   UNL A   1      35.533  20.761  25.012  1.00  0.00     0.001 A 
ATOM     21  C   UNL A   1      36.865  21.136  24.837  1.00  0.00     0.000 A 
ENDBRANCH   9  16
ENDBRANCH   4   6
ENDBRANCH   3   4
ENDBRANCH   2   3
ENDBRANCH   1   2
BRANCH   1  22
ATOM     22  O   UNL A   1      33.227  30.459  26.496  1.00  0.00    -0.458 OA
BRANCH  22  23
ATOM     23  C   UNL A   1      33.652  31.539  27.195  1.00  0.00     0.338 C 
ATOM     24  O   UNL A   1      33.037  32.566  27.422  1.00  0.00    -0.246 OA
BRANCH  23  25
ATOM     25  C   UNL A   1      34.965  31.238  27.780  1.00  0.00     0.060 A 
ATOM     26  C   UNL A   1      35.177  29.941  28.232  1.00  0.00     0.016 A 
ATOM     27  C   UNL A   1      35.931  32.217  27.984  1.00  0.00     0.016 A 
ATOM     28  C   UNL A   1      36.326  29.607  28.932  1.00  0.00     0.010 A 
ATOM     29  C   UNL A   1      37.131  31.863  28.616  1.00  0.00     0.010 A 
ATOM     30  C   UNL A   1      37.335  30.556  29.103  1.00  0.00    -0.014 A 
BRANCH  30  31
ATOM     31  C   UNL A   1      38.591  30.176  29.801  1.00  0.00     0.031 A 
ATOM     32  C   UNL A   1      39.553  29.225  29.150  1.00  0.00     0.074 A 
ATOM     33  C   UNL A   1      38.875  30.701  31.009  1.00  0.00     0.049 A 
ATOM     34  N   UNL A   1      40.594  28.620  29.656  1.00  0.00    -0.248 NA
ATOM     35  C   UNL A   1      39.294  28.906  27.739  1.00  0.00     0.031 C 
ATOM     36  C   UNL A   1      38.070  31.706  31.706  1.00  0.00     0.029 A 
ATOM     37  N   UNL A   1      39.923  30.470  31.865  1.00  0.00    -0.354 N 
ATOM     38  C   UNL A   1      41.093  27.810  28.641  1.00  0.00     0.074 A 
ATOM     39  C   UNL A   1      40.220  27.991  27.499  1.00  0.00     0.031 C 
ATOM     40  C   UNL A   1      38.668  32.028  32.862  1.00  0.00     0.029 A 
ATOM     41  C   UNL A   1      39.835  31.173  33.043  1.00  0.00     0.049 A 
ATOM     42  H   UNL A   1      40.666  29.857  31.655  1.00  0.00     0.167 HD
ATOM     43  C   UNL A   1      42.176  26.993  28.671  1.00  0.00     0.034 A 
ATOM     44  C   UNL A   1      40.571  31.097  34.169  1.00  0.00     0.034 A 
ATOM     45  C   UNL A   1      43.030  26.845  29.826  1.00  0.00     0.049 A 
ATOM     46  C   UNL A   1      41.683  30.085  34.229  1.00  0.00     0.074 A 
ATOM     47  C   UNL A   1      44.157  26.055  29.974  1.00  0.00     0.029 A 
ATOM     48  N   UNL A   1      42.847  27.501  31.040  1.00  0.00    -0.354 N 
ATOM     49  N   UNL A   1      42.112  29.274  33.291  1.00  0.00    -0.248 NA
ATOM     50  C   UNL A   1      42.392  29.962  35.508  1.00  0.00     0.031 C 
ATOM     51  C   UNL A   1      44.603  26.171  31.297  1.00  0.00     0.029 A 
ATOM     52  C   UNL A   1      43.808  27.095  31.955  1.00  0.00     0.049 A 
ATOM     53  H   UNL A   1      42.136  28.157  31.224  1.00  0.00     0.167 HD
ATOM     54  C   UNL A   1      43.150  28.548  33.863  1.00  0.00     0.074 A 
ATOM     55  C   UNL A   1      43.295  29.035  35.222  1.00  0.00     0.031 C 
ATOM     56  C   UNL A   1      43.917  27.570  33.316  1.00  0.00     0.034 A 
BRANCH  43  57
ATOM     57  C   UNL A   1      42.433  26.147  27.444  1.00  0.00     0.023 A 
ATOM     58  C   UNL A   1      41.923  24.842  27.318  1.00  0.00     0.031 A 
ATOM     59  C   UNL A   1      43.269  26.624  26.418  1.00  0.00     0.131 A 
ATOM     60  C   UNL A   1      42.339  24.027  26.254  1.00  0.00     0.055 A 
ATOM     61  C   UNL A   1      43.600  25.840  25.310  1.00  0.00     0.041 A 
ATOM     62  F   UNL A   1      43.806  27.852  26.488  1.00  0.00    -0.206 F 
ATOM     63  C   UNL A   1      43.153  24.524  25.235  1.00  0.00     0.022 A 
BRANCH  60  64
ATOM     64  S   UNL A   1      41.962  22.254  26.330  1.00  0.00     0.124 S 
ATOM     65  O   UNL A   1      42.670  21.752  25.154  1.00  0.00    -0.237 OA
ATOM     66  O   UNL A   1      42.516  21.869  27.621  1.00  0.00    -0.237 OA
ATOM     67  O   UNL A   1      40.503  22.208  26.235  1.00  0.00    -0.744 OA
ENDBRANCH  60  64
ENDBRANCH  43  57
BRANCH  44  68
ATOM     68  C   UNL A   1      40.228  31.942  35.348  1.00  0.00     0.023 A 
ATOM     69  C   UNL A   1      39.231  31.549  36.252  1.00  0.00     0.031 A 
ATOM     70  C   UNL A   1      40.891  33.161  35.586  1.00  0.00     0.131 A 
ATOM     71  C   UNL A   1      38.913  32.372  37.343  1.00  0.00     0.055 A 
ATOM     72  C   UNL A   1      40.608  33.951  36.701  1.00  0.00     0.041 A 
ATOM     73  F   UNL A   1      41.849  33.590  34.748  1.00  0.00    -0.206 F 
ATOM     74  C   UNL A   1      39.608  33.560  37.584  1.00  0.00     0.022 A 
BRANCH  71  75
ATOM     75  S   UNL A   1      37.534  31.894  38.419  1.00  0.00     0.124 S 
ATOM     76  O   UNL A   1      36.546  32.920  38.108  1.00  0.00    -0.237 OA
ATOM     77  O   UNL A   1      37.233  30.546  37.947  1.00  0.00    -0.237 OA
ATOM     78  O   UNL A   1      38.109  31.967  39.760  1.00  0.00    -0.744 OA
ENDBRANCH  71  75
ENDBRANCH  44  68
BRANCH  56  79
ATOM     79  C   UNL A   1      44.995  26.983  34.192  1.00  0.00     0.023 A 
ATOM     80  C   UNL A   1      44.775  25.818  34.947  1.00  0.00     0.031 A 
ATOM     81  C   UNL A   1      46.252  27.605  34.283  1.00  0.00     0.131 A 
ATOM     82  C   UNL A   1      45.783  25.337  35.797  1.00  0.00     0.055 A 
ATOM     83  C   UNL A   1      47.271  27.087  35.082  1.00  0.00     0.041 A 
ATOM     84  F   UNL A   1      46.513  28.724  33.588  1.00  0.00    -0.206 F 
ATOM     85  C   UNL A   1      47.036  25.953  35.854  1.00  0.00     0.022 A 
BRANCH  82  86
ATOM     86  S   UNL A   1      45.407  23.941  36.892  1.00  0.00     0.124 S 
ATOM     87  O   UNL A   1      44.572  23.103  36.037  1.00  0.00    -0.237 OA
ATOM     88  O   UNL A   1      46.733  23.417  37.200  1.00  0.00    -0.237 OA
ATOM     89  O   UNL A   1      44.711  24.565  38.017  1.00  0.00    -0.744 OA
ENDBRANCH  82  86
ENDBRANCH  56  79
ENDBRANCH  30  31
ENDBRANCH  23  25
ENDBRANCH  22  23
ENDBRANCH   1  22
TORSDOF 16
ENDMDL
MODEL 2
REMARK VINA RESULT:     -11.7      5.201     10.030
REMARK SMILES CC(=O)Nc1sc(-c2ccccc2)cc1C(=O)OCCOC(=O)c1ccc(-c2c3nc(c(-c4cc(S(=O)(=O)[O-])ccc4F)c4ccc([nH]4)c(-c4cc(S(=O)(=O)[O-])ccc4F)c4nc(c(-c5cc(S(=O)(=O)[O-])ccc5F)c5ccc2[nH]5)C=C4)C=C3)cc1
REMARK SMILES IDX 20 1 19 2 18 3 16 4 17 5 15 6 5 7 6 8 7 9 14 10 4 11 1 12
REMARK SMILES IDX 2 13 3 14 8 16 9 17 13 18 10 19 12 20 11 21 21 22 22 23
REMARK SMILES IDX 23 24 24 25 25 26 86 27 26 28 85 29 27 30 28 31 29 32 79 33
REMARK SMILES IDX 30 34 84 35 78 36 80 37 31 38 83 39 77 40 76 41 32 43 64 44
REMARK SMILES IDX 44 45 63 46 45 47 48 48 62 49 81 50 46 51 47 52 61 54 82 55
REMARK SMILES IDX 49 56 33 57 34 58 42 59 35 60 41 61 43 62 40 63 36 64 37 65
REMARK SMILES IDX 38 66 39 67 65 68 66 69 74 70 67 71 73 72 75 73 72 74 68 75
REMARK SMILES IDX 69 76 70 77 71 78 50 79 51 80 59 81 52 82 58 83 60 84 57 85
REMARK SMILES IDX 53 86 54 87 55 88 56 89
REMARK H PARENT 4 15 80 42 48 53
REMARK Flexibility Score: inf
ROOT
ATOM      1  C   UNL A   1      37.062  21.802  24.307  1.00  0.00     0.275 C 
ENDROOT
BRANCH   1   2
ATOM      2  C   UNL A   1      36.693  23.125  23.636  1.00  0.00     0.275 C 
BRANCH   2   3
ATOM      3  O   UNL A   1      35.478  23.018  22.870  1.00  0.00    -0.458 OA
BRANCH   3   4
ATOM      4  C   UNL A   1      34.322  23.392  23.497  1.00  0.00     0.341 C 
ATOM      5  O   UNL A   1      33.793  24.487  23.377  1.00  0.00    -0.246 OA
BRANCH   4   6
ATOM      6  C   UNL A   1      33.736  22.320  24.293  1.00  0.00     0.095 A 
ATOM      7  C   UNL A   1      33.213  22.427  25.564  1.00  0.00     0.110 A 
ATOM      8  S   UNL A   1      32.987  20.904  26.312  1.00  0.00    -0.117 S 
ATOM      9  C   UNL A   1      33.281  20.080  24.847  1.00  0.00     0.037 A 
ATOM     10  C   UNL A   1      33.606  20.963  23.841  1.00  0.00     0.038 A 
BRANCH   7  11
ATOM     11  N   UNL A   1      32.854  23.488  26.361  1.00  0.00    -0.317 N 
ATOM     12  C   UNL A   1      30.694  24.015  25.214  1.00  0.00     0.114 C 
ATOM     13  C   UNL A   1      31.811  24.354  26.174  1.00  0.00     0.221 C 
ATOM     14  O   UNL A   1      31.745  25.379  26.857  1.00  0.00    -0.275 OA
ATOM     15  H   UNL A   1      33.411  23.642  27.157  1.00  0.00     0.170 HD
ENDBRANCH   7  11
BRANCH   9  16
ATOM     16  C   UNL A   1      33.189  18.627  24.726  1.00  0.00    -0.008 A 
ATOM     17  C   UNL A   1      33.772  17.975  23.633  1.00  0.00     0.009 A 
ATOM     18  C   UNL A   1      32.667  17.862  25.780  1.00  0.00     0.009 A 
ATOM     19  C   UNL A   1      33.852  16.582  23.603  1.00  0.00     0.001 A 
ATOM     20  C   UNL A   1      32.744  16.466  25.746  1.00  0.00     0.001 A 
ATOM     21  C   UNL A   1      33.345  15.829  24.661  1.00  0.00     0.000 A 
ENDBRANCH   9  16
ENDBRANCH   4   6
ENDBRANCH   3   4
ENDBRANCH   2   3
ENDBRANCH   1   2
BRANCH   1  22
ATOM     22  O   UNL A   1      37.421  22.016  25.682  1.00  0.00    -0.458 OA
BRANCH  22  23
ATOM     23  C   UNL A   1      38.688  21.669  26.012  1.00  0.00     0.338 C 
ATOM     24  O   UNL A   1      39.257  20.619  25.771  1.00  0.00    -0.246 OA
BRANCH  23  25
ATOM     25  C   UNL A   1      39.358  22.832  26.608  1.00  0.00     0.060 A 
ATOM     26  C   UNL A   1      39.002  24.086  26.127  1.00  0.00     0.016 A 
ATOM     27  C   UNL A   1      40.384  22.705  27.538  1.00  0.00     0.016 A 
ATOM     28  C   UNL A   1      39.687  25.224  26.523  1.00  0.00     0.010 A 
ATOM     29  C   UNL A   1      41.022  23.861  28.005  1.00  0.00     0.010 A 
ATOM     30  C   UNL A   1      40.684  25.131  27.495  1.00  0.00    -0.014 A 
BRANCH  30  31
ATOM     31  C   UNL A   1      41.373  26.362  27.962  1.00  0.00     0.031 A 
ATOM     32  C   UNL A   1      40.625  27.380  28.772  1.00  0.00     0.074 A 
ATOM     33  C   UNL A   1      42.677  26.554  27.674  1.00  0.00     0.049 A 
ATOM     34  N   UNL A   1      40.974  28.594  29.109  1.00  0.00    -0.248 NA
ATOM     35  C   UNL A   1      39.298  26.976  29.256  1.00  0.00     0.031 C 
ATOM     36  C   UNL A   1      43.539  25.598  26.976  1.00  0.00     0.029 A 
ATOM     37  N   UNL A   1      43.507  27.614  27.938  1.00  0.00    -0.354 N 
ATOM     38  C   UNL A   1      39.892  29.120  29.806  1.00  0.00     0.074 A 
ATOM     39  C   UNL A   1      38.869  28.093  29.821  1.00  0.00     0.031 C 
ATOM     40  C   UNL A   1      44.781  26.099  26.897  1.00  0.00     0.029 A 
ATOM     41  C   UNL A   1      44.778  27.455  27.434  1.00  0.00     0.049 A 
ATOM     42  H   UNL A   1      43.222  28.413  28.439  1.00  0.00     0.167 HD
ATOM     43  C   UNL A   1      39.771  30.346  30.375  1.00  0.00     0.034 A 
ATOM     44  C   UNL A   1      45.806  28.320  27.355  1.00  0.00     0.034 A 
ATOM     45  C   UNL A   1      40.817  31.342  30.348  1.00  0.00     0.049 A 
ATOM     46  C   UNL A   1      45.604  29.720  27.869  1.00  0.00     0.074 A 
ATOM     47  C   UNL A   1      40.814  32.614  30.893  1.00  0.00     0.029 A 
ATOM     48  N   UNL A   1      42.056  31.178  29.737  1.00  0.00    -0.354 N 
ATOM     49  N   UNL A   1      44.557  30.235  28.469  1.00  0.00    -0.248 NA
ATOM     50  C   UNL A   1      46.713  30.660  27.670  1.00  0.00     0.031 C 
ATOM     51  C   UNL A   1      42.014  33.245  30.540  1.00  0.00     0.029 A 
ATOM     52  C   UNL A   1      42.804  32.341  29.847  1.00  0.00     0.049 A 
ATOM     53  H   UNL A   1      42.358  30.355  29.288  1.00  0.00     0.167 HD
ATOM     54  C   UNL A   1      44.884  31.561  28.730  1.00  0.00     0.074 A 
ATOM     55  C   UNL A   1      46.235  31.758  28.239  1.00  0.00     0.031 C 
ATOM     56  C   UNL A   1      44.138  32.528  29.323  1.00  0.00     0.034 A 
BRANCH  43  57
ATOM     57  C   UNL A   1      38.433  30.690  30.991  1.00  0.00     0.023 A 
ATOM     58  C   UNL A   1      37.398  31.281  30.245  1.00  0.00     0.031 A 
ATOM     59  C   UNL A   1      38.218  30.496  32.367  1.00  0.00     0.131 A 
ATOM     60  C   UNL A   1      36.248  31.753  30.895  1.00  0.00     0.055 A 
ATOM     61  C   UNL A   1      37.030  30.880  32.991  1.00  0.00     0.041 A 
ATOM     62  F   UNL A   1      39.175  29.958  33.141  1.00  0.00    -0.206 F 
ATOM     63  C   UNL A   1      36.044  31.535  32.258  1.00  0.00     0.022 A 
BRANCH  60  64
ATOM     64  S   UNL A   1      35.118  32.832  29.970  1.00  0.00     0.124 S 
ATOM     65  O   UNL A   1      34.568  31.905  28.984  1.00  0.00    -0.237 OA
ATOM     66  O   UNL A   1      34.197  33.284  31.005  1.00  0.00    -0.237 OA
ATOM     67  O   UNL A   1      36.000  33.862  29.422  1.00  0.00    -0.744 OA
ENDBRANCH  60  64
ENDBRANCH  43  57
BRANCH  44  68
ATOM     68  C   UNL A   1      47.081  27.912  26.699  1.00  0.00     0.023 A 
ATOM     69  C   UNL A   1      47.218  27.950  25.304  1.00  0.00     0.031 A 
ATOM     70  C   UNL A   1      48.183  27.474  27.458  1.00  0.00     0.131 A 
ATOM     71  C   UNL A   1      48.421  27.542  24.708  1.00  0.00     0.055 A 
ATOM     72  C   UNL A   1      49.395  27.119  26.865  1.00  0.00     0.041 A 
ATOM     73  F   UNL A   1      48.104  27.411  28.798  1.00  0.00    -0.206 F 
ATOM     74  C   UNL A   1      49.516  27.146  25.480  1.00  0.00     0.022 A 
BRANCH  71  75
ATOM     75  S   UNL A   1      48.519  27.485  22.898  1.00  0.00     0.124 S 
ATOM     76  O   UNL A   1      47.334  28.242  22.514  1.00  0.00    -0.237 OA
ATOM     77  O   UNL A   1      49.804  28.128  22.643  1.00  0.00    -0.237 OA
ATOM     78  O   UNL A   1      48.471  26.055  22.600  1.00  0.00    -0.744 OA
ENDBRANCH  71  75
ENDBRANCH  44  68
BRANCH  56  79
ATOM     79  C   UNL A   1      44.787  33.880  29.489  1.00  0.00     0.023 A 
ATOM     80  C   UNL A   1      44.739  34.848  28.471  1.00  0.00     0.031 A 
ATOM     81  C   UNL A   1      45.473  34.197  30.675  1.00  0.00     0.131 A 
ATOM     82  C   UNL A   1      45.407  36.070  28.640  1.00  0.00     0.055 A 
ATOM     83  C   UNL A   1      46.082  35.437  30.861  1.00  0.00     0.041 A 
ATOM     84  F   UNL A   1      45.555  33.306  31.676  1.00  0.00    -0.206 F 
ATOM     85  C   UNL A   1      46.062  36.378  29.836  1.00  0.00     0.022 A 
BRANCH  82  86
ATOM     86  S   UNL A   1      45.481  37.223  27.242  1.00  0.00     0.124 S 
ATOM     87  O   UNL A   1      46.261  38.324  27.800  1.00  0.00    -0.237 OA
ATOM     88  O   UNL A   1      46.145  36.428  26.214  1.00  0.00    -0.237 OA
ATOM     89  O   UNL A   1      44.077  37.531  26.977  1.00  0.00    -0.744 OA
ENDBRANCH  82  86
ENDBRANCH  56  79
ENDBRANCH  30  31
ENDBRANCH  23  25
ENDBRANCH  22  23
ENDBRANCH   1  22
TORSDOF 16
ENDMDL
MODEL 3
REMARK VINA RESULT:     -11.7      1.699      2.130
REMARK SMILES CC(=O)Nc1sc(-c2ccccc2)cc1C(=O)OCCOC(=O)c1ccc(-c2c3nc(c(-c4cc(S(=O)(=O)[O-])ccc4F)c4ccc([nH]4)c(-c4cc(S(=O)(=O)[O-])ccc4F)c4nc(c(-c5cc(S(=O)(=O)[O-])ccc5F)c5ccc2[nH]5)C=C4)C=C3)cc1
REMARK SMILES IDX 20 1 19 2 18 3 16 4 17 5 15 6 5 7 6 8 7 9 14 10 4 11 1 12
REMARK SMILES IDX 2 13 3 14 8 16 9 17 13 18 10 19 12 20 11 21 21 22 22 23
REMARK SMILES IDX 23 24 24 25 25 26 86 27 26 28 85 29 27 30 28 31 29 32 79 33
REMARK SMILES IDX 30 34 84 35 78 36 80 37 31 38 83 39 77 40 76 41 32 43 64 44
REMARK SMILES IDX 44 45 63 46 45 47 48 48 62 49 81 50 46 51 47 52 61 54 82 55
REMARK SMILES IDX 49 56 33 57 34 58 42 59 35 60 41 61 43 62 40 63 36 64 37 65
REMARK SMILES IDX 38 66 39 67 65 68 66 69 74 70 67 71 73 72 75 73 72 74 68 75
REMARK SMILES IDX 69 76 70 77 71 78 50 79 51 80 59 81 52 82 58 83 60 84 57 85
REMARK SMILES IDX 53 86 54 87 55 88 56 89
REMARK H PARENT 4 15 80 42 48 53
REMARK Flexibility Score: inf
ROOT
ATOM      1  C   UNL A   1      31.913  29.007  26.474  1.00  0.00     0.275 C 
ENDROOT
BRANCH   1   2
ATOM      2  C   UNL A   1      31.814  27.831  25.502  1.00  0.00     0.275 C 
BRANCH   2   3
ATOM      3  O   UNL A   1      32.585  26.699  25.949  1.00  0.00    -0.458 OA
BRANCH   3   4
ATOM      4  C   UNL A   1      31.959  25.483  25.925  1.00  0.00     0.341 C 
ATOM      5  O   UNL A   1      30.909  25.234  26.497  1.00  0.00    -0.246 OA
BRANCH   4   6
ATOM      6  C   UNL A   1      32.646  24.509  25.085  1.00  0.00     0.095 A 
ATOM      7  C   UNL A   1      33.313  24.762  23.905  1.00  0.00     0.110 A 
ATOM      8  S   UNL A   1      33.641  23.337  23.016  1.00  0.00    -0.117 S 
ATOM      9  C   UNL A   1      33.185  22.348  24.329  1.00  0.00     0.037 A 
ATOM     10  C   UNL A   1      32.736  23.109  25.387  1.00  0.00     0.038 A 
BRANCH   7  11
ATOM     11  N   UNL A   1      33.753  25.908  23.285  1.00  0.00    -0.317 N 
ATOM     12  C   UNL A   1      31.793  26.203  21.758  1.00  0.00     0.114 C 
ATOM     13  C   UNL A   1      33.201  26.532  22.200  1.00  0.00     0.221 C 
ATOM     14  O   UNL A   1      33.831  27.428  21.631  1.00  0.00    -0.275 OA
ATOM     15  H   UNL A   1      34.558  26.326  23.665  1.00  0.00     0.170 HD
ENDBRANCH   7  11
BRANCH   9  16
ATOM     16  C   UNL A   1      33.277  20.890  24.291  1.00  0.00    -0.008 A 
ATOM     17  C   UNL A   1      32.332  20.145  23.576  1.00  0.00     0.009 A 
ATOM     18  C   UNL A   1      34.401  20.239  24.823  1.00  0.00     0.009 A 
ATOM     19  C   UNL A   1      32.516  18.776  23.377  1.00  0.00     0.001 A 
ATOM     20  C   UNL A   1      34.581  18.867  24.627  1.00  0.00     0.001 A 
ATOM     21  C   UNL A   1      33.643  18.139  23.896  1.00  0.00     0.000 A 
ENDBRANCH   9  16
ENDBRANCH   4   6
ENDBRANCH   3   4
ENDBRANCH   2   3
ENDBRANCH   1   2
BRANCH   1  22
ATOM     22  O   UNL A   1      32.930  29.930  26.048  1.00  0.00    -0.458 OA
BRANCH  22  23
ATOM     23  C   UNL A   1      33.142  30.981  26.875  1.00  0.00     0.338 C 
ATOM     24  O   UNL A   1      32.362  31.874  27.156  1.00  0.00    -0.246 OA
BRANCH  23  25
ATOM     25  C   UNL A   1      34.452  30.820  27.519  1.00  0.00     0.060 A 
ATOM     26  C   UNL A   1      34.786  29.549  27.971  1.00  0.00     0.016 A 
ATOM     27  C   UNL A   1      35.293  31.897  27.775  1.00  0.00     0.016 A 
ATOM     28  C   UNL A   1      35.931  29.336  28.722  1.00  0.00     0.010 A 
ATOM     29  C   UNL A   1      36.494  31.671  28.460  1.00  0.00     0.010 A 
ATOM     30  C   UNL A   1      36.820  30.389  28.947  1.00  0.00    -0.014 A 
BRANCH  30  31
ATOM     31  C   UNL A   1      38.077  30.142  29.700  1.00  0.00     0.031 A 
ATOM     32  C   UNL A   1      39.160  29.298  29.095  1.00  0.00     0.074 A 
ATOM     33  C   UNL A   1      38.252  30.694  30.917  1.00  0.00     0.049 A 
ATOM     34  N   UNL A   1      40.236  28.805  29.649  1.00  0.00    -0.248 NA
ATOM     35  C   UNL A   1      38.999  28.955  27.675  1.00  0.00     0.031 C 
ATOM     36  C   UNL A   1      37.316  31.609  31.575  1.00  0.00     0.029 A 
ATOM     37  N   UNL A   1      39.279  30.573  31.819  1.00  0.00    -0.354 N 
ATOM     38  C   UNL A   1      40.861  28.053  28.660  1.00  0.00     0.074 A 
ATOM     39  C   UNL A   1      40.025  28.142  27.480  1.00  0.00     0.031 C 
ATOM     40  C   UNL A   1      37.826  31.990  32.755  1.00  0.00     0.029 A 
ATOM     41  C   UNL A   1      39.067  31.262  32.990  1.00  0.00     0.049 A 
ATOM     42  H   UNL A   1      40.091  30.042  31.644  1.00  0.00     0.167 HD
ATOM     43  C   UNL A   1      42.022  27.354  28.739  1.00  0.00     0.034 A 
ATOM     44  C   UNL A   1      39.757  31.263  34.147  1.00  0.00     0.034 A 
ATOM     45  C   UNL A   1      42.835  27.295  29.932  1.00  0.00     0.049 A 
ATOM     46  C   UNL A   1      40.965  30.373  34.259  1.00  0.00     0.074 A 
ATOM     47  C   UNL A   1      44.031  26.628  30.131  1.00  0.00     0.029 A 
ATOM     48  N   UNL A   1      42.532  27.927  31.133  1.00  0.00    -0.354 N 
ATOM     49  N   UNL A   1      41.517  29.612  33.344  1.00  0.00    -0.248 NA
ATOM     50  C   UNL A   1      41.627  30.325  35.568  1.00  0.00     0.031 C 
ATOM     51  C   UNL A   1      44.404  26.788  31.472  1.00  0.00     0.029 A 
ATOM     52  C   UNL A   1      43.489  27.624  32.091  1.00  0.00     0.049 A 
ATOM     53  H   UNL A   1      41.748  28.505  31.284  1.00  0.00     0.167 HD
ATOM     54  C   UNL A   1      42.600  28.998  33.964  1.00  0.00     0.074 A 
ATOM     55  C   UNL A   1      42.633  29.497  35.325  1.00  0.00     0.031 C 
ATOM     56  C   UNL A   1      43.488  28.107  33.453  1.00  0.00     0.034 A 
BRANCH  43  57
ATOM     57  C   UNL A   1      42.419  26.540  27.529  1.00  0.00     0.023 A 
ATOM     58  C   UNL A   1      41.972  25.220  27.338  1.00  0.00     0.031 A 
ATOM     59  C   UNL A   1      43.325  27.065  26.589  1.00  0.00     0.131 A 
ATOM     60  C   UNL A   1      42.512  24.440  26.303  1.00  0.00     0.055 A 
ATOM     61  C   UNL A   1      43.783  26.315  25.504  1.00  0.00     0.041 A 
ATOM     62  F   UNL A   1      43.807  28.311  26.726  1.00  0.00    -0.206 F 
ATOM     63  C   UNL A   1      43.395  24.985  25.370  1.00  0.00     0.022 A 
BRANCH  60  64
ATOM     64  S   UNL A   1      42.197  22.653  26.319  1.00  0.00     0.124 S 
ATOM     65  O   UNL A   1      43.030  22.217  27.438  1.00  0.00    -0.237 OA
ATOM     66  O   UNL A   1      40.757  22.588  26.531  1.00  0.00    -0.237 OA
ATOM     67  O   UNL A   1      42.657  22.212  25.003  1.00  0.00    -0.744 OA
ENDBRANCH  60  64
ENDBRANCH  43  57
BRANCH  44  68
ATOM     68  C   UNL A   1      39.276  32.067  35.306  1.00  0.00     0.023 A 
ATOM     69  C   UNL A   1      39.737  33.375  35.516  1.00  0.00     0.031 A 
ATOM     70  C   UNL A   1      38.351  31.538  36.225  1.00  0.00     0.131 A 
ATOM     71  C   UNL A   1      39.285  34.105  36.626  1.00  0.00     0.055 A 
ATOM     72  C   UNL A   1      37.864  32.286  37.298  1.00  0.00     0.041 A 
ATOM     73  F   UNL A   1      37.882  30.288  36.076  1.00  0.00    -0.206 F 
ATOM     74  C   UNL A   1      38.337  33.576  37.507  1.00  0.00     0.022 A 
BRANCH  71  75
ATOM     75  S   UNL A   1      39.996  35.744  36.936  1.00  0.00     0.124 S 
ATOM     76  O   UNL A   1      39.648  36.454  35.711  1.00  0.00    -0.237 OA
ATOM     77  O   UNL A   1      39.289  36.159  38.143  1.00  0.00    -0.237 OA
ATOM     78  O   UNL A   1      41.420  35.468  37.115  1.00  0.00    -0.744 OA
ENDBRANCH  71  75
ENDBRANCH  44  68
BRANCH  56  79
ATOM     79  C   UNL A   1      44.582  27.635  34.379  1.00  0.00     0.023 A 
ATOM     80  C   UNL A   1      44.421  26.497  35.188  1.00  0.00     0.031 A 
ATOM     81  C   UNL A   1      45.795  28.341  34.460  1.00  0.00     0.131 A 
ATOM     82  C   UNL A   1      45.439  26.126  36.079  1.00  0.00     0.055 A 
ATOM     83  C   UNL A   1      46.828  27.931  35.303  1.00  0.00     0.041 A 
ATOM     84  F   UNL A   1      45.999  29.439  33.714  1.00  0.00    -0.206 F 
ATOM     85  C   UNL A   1      46.649  26.824  36.128  1.00  0.00     0.022 A 
BRANCH  82  86
ATOM     86  S   UNL A   1      45.130  24.765  37.238  1.00  0.00     0.124 S 
ATOM     87  O   UNL A   1      46.231  24.919  38.184  1.00  0.00    -0.237 OA
ATOM     88  O   UNL A   1      43.801  25.083  37.748  1.00  0.00    -0.237 OA
ATOM     89  O   UNL A   1      45.200  23.573  36.394  1.00  0.00    -0.744 OA
ENDBRANCH  82  86
ENDBRANCH  56  79
ENDBRANCH  30  31
ENDBRANCH  23  25
ENDBRANCH  22  23
ENDBRANCH   1  22
TORSDOF 16
ENDMDL
