MODEL 1
REMARK VINA RESULT:     -12.9      0.000      0.000
REMARK SMILES O=C(OCCOC(=O)[C@@H](Cc1cccc(F)c1)[C@H]1CCOC2(CCC2)C1)c1ccc(-c2c3nc(c(-c4cc(S(=O)(=O)[O-])ccc4F)c4ccc([nH]4)c(-c4cc(S(=O)(=O)[O-])ccc4F)c4nc(c(-c5cc(S(=O)(=O)[O-])ccc5F)c5ccc2[nH]5)C=C4)C=C3)cc1
REMARK SMILES IDX 4 1 3 2 2 3 1 4 27 5 28 6 89 7 29 8 88 9 30 10 31 11 32 12
REMARK SMILES IDX 82 13 33 14 87 15 81 16 83 17 34 18 86 19 80 20 79 21 35 23
REMARK SMILES IDX 67 24 47 25 66 26 48 27 51 28 65 29 84 30 49 31 50 32 64 34
REMARK SMILES IDX 85 35 52 36 36 37 37 38 45 39 38 40 44 41 46 42 43 43 39 44
REMARK SMILES IDX 40 45 41 46 42 47 68 48 69 49 77 50 70 51 76 52 78 53 75 54
REMARK SMILES IDX 71 55 72 56 73 57 74 58 53 59 54 60 62 61 55 62 61 63 63 64
REMARK SMILES IDX 60 65 56 66 57 67 58 68 59 69 5 70 6 71 7 72 8 73 9 74 10 75
REMARK SMILES IDX 11 76 12 77 17 78 13 79 15 80 14 81 16 82 18 83 19 84 26 85
REMARK SMILES IDX 20 86 22 87 21 88 23 89 25 90 24 91
REMARK H PARENT 83 22 51 33
REMARK Flexibility Score: inf
ROOT
ATOM      1  C   UNL A   1      37.510  21.319  24.871  1.00  0.00     0.275 C 
ENDROOT
BRANCH   1   2
ATOM      2  O   UNL A   1      38.447  21.300  25.988  1.00  0.00    -0.458 OA
BRANCH   2   3
ATOM      3  C   UNL A   1      39.665  21.886  26.160  1.00  0.00     0.338 C 
ATOM      4  O   UNL A   1      40.679  21.279  25.826  1.00  0.00    -0.246 OA
BRANCH   3   5
ATOM      5  C   UNL A   1      39.843  23.135  26.966  1.00  0.00     0.060 A 
ATOM      6  C   UNL A   1      40.880  23.337  27.867  1.00  0.00     0.016 A 
ATOM      7  C   UNL A   1      38.896  24.171  26.823  1.00  0.00     0.016 A 
ATOM      8  C   UNL A   1      41.064  24.618  28.451  1.00  0.00     0.010 A 
ATOM      9  C   UNL A   1      39.107  25.462  27.385  1.00  0.00     0.010 A 
ATOM     10  C   UNL A   1      40.261  25.747  28.130  1.00  0.00    -0.014 A 
BRANCH  10  11
ATOM     11  C   UNL A   1      40.631  27.156  28.622  1.00  0.00     0.031 A 
ATOM     12  C   UNL A   1      42.068  27.565  28.544  1.00  0.00     0.074 A 
ATOM     13  C   UNL A   1      39.798  28.194  28.935  1.00  0.00     0.049 A 
ATOM     14  N   UNL A   1      42.558  28.775  28.591  1.00  0.00    -0.248 NA
ATOM     15  C   UNL A   1      43.045  26.511  28.257  1.00  0.00     0.031 C 
ATOM     16  C   UNL A   1      38.374  28.201  28.747  1.00  0.00     0.029 A 
ATOM     17  N   UNL A   1      40.003  29.497  29.384  1.00  0.00    -0.354 N 
ATOM     18  C   UNL A   1      43.870  28.653  28.193  1.00  0.00     0.074 A 
ATOM     19  C   UNL A   1      44.112  27.238  27.966  1.00  0.00     0.031 C 
ATOM     20  C   UNL A   1      37.814  29.368  29.076  1.00  0.00     0.029 A 
ATOM     21  C   UNL A   1      38.840  30.240  29.564  1.00  0.00     0.049 A 
ATOM     22  H   UNL A   1      40.900  29.863  29.560  1.00  0.00     0.167 HD
ATOM     23  C   UNL A   1      44.789  29.626  28.016  1.00  0.00     0.034 A 
ATOM     24  C   UNL A   1      38.550  31.481  30.011  1.00  0.00     0.034 A 
ATOM     25  C   UNL A   1      44.645  31.005  28.403  1.00  0.00     0.049 A 
ATOM     26  C   UNL A   1      39.672  32.422  30.234  1.00  0.00     0.074 A 
ATOM     27  C   UNL A   1      45.621  31.985  28.407  1.00  0.00     0.029 A 
ATOM     28  N   UNL A   1      43.497  31.588  28.920  1.00  0.00    -0.354 N 
ATOM     29  N   UNL A   1      40.919  32.254  29.895  1.00  0.00    -0.248 NA
ATOM     30  C   UNL A   1      39.354  33.728  30.827  1.00  0.00     0.031 C 
ATOM     31  C   UNL A   1      45.101  33.126  29.030  1.00  0.00     0.029 A 
ATOM     32  C   UNL A   1      43.776  32.886  29.338  1.00  0.00     0.049 A 
ATOM     33  H   UNL A   1      42.618  31.151  28.981  1.00  0.00     0.167 HD
ATOM     34  C   UNL A   1      41.537  33.450  30.192  1.00  0.00     0.074 A 
ATOM     35  C   UNL A   1      40.532  34.329  30.755  1.00  0.00     0.031 C 
ATOM     36  C   UNL A   1      42.829  33.773  29.966  1.00  0.00     0.034 A 
BRANCH  23  37
ATOM     37  C   UNL A   1      46.105  29.142  27.505  1.00  0.00     0.023 A 
ATOM     38  C   UNL A   1      46.299  28.874  26.141  1.00  0.00     0.031 A 
ATOM     39  C   UNL A   1      47.112  28.804  28.422  1.00  0.00     0.131 A 
ATOM     40  C   UNL A   1      47.468  28.220  25.737  1.00  0.00     0.055 A 
ATOM     41  C   UNL A   1      48.296  28.209  28.003  1.00  0.00     0.041 A 
ATOM     42  F   UNL A   1      46.926  28.995  29.737  1.00  0.00    -0.206 F 
ATOM     43  C   UNL A   1      48.475  27.904  26.655  1.00  0.00     0.022 A 
BRANCH  40  44
ATOM     44  S   UNL A   1      47.598  27.656  24.019  1.00  0.00     0.124 S 
ATOM     45  O   UNL A   1      47.131  26.276  24.125  1.00  0.00    -0.237 OA
ATOM     46  O   UNL A   1      46.717  28.577  23.312  1.00  0.00    -0.237 OA
ATOM     47  O   UNL A   1      49.022  27.803  23.720  1.00  0.00    -0.744 OA
ENDBRANCH  40  44
ENDBRANCH  23  37
BRANCH  24  48
ATOM     48  C   UNL A   1      37.162  31.929  30.350  1.00  0.00     0.023 A 
ATOM     49  C   UNL A   1      36.317  32.583  29.435  1.00  0.00     0.031 A 
ATOM     50  C   UNL A   1      36.719  31.796  31.680  1.00  0.00     0.131 A 
ATOM     51  C   UNL A   1      35.069  33.079  29.871  1.00  0.00     0.055 A 
ATOM     52  C   UNL A   1      35.479  32.282  32.104  1.00  0.00     0.041 A 
ATOM     53  F   UNL A   1      37.491  31.180  32.590  1.00  0.00    -0.206 F 
ATOM     54  C   UNL A   1      34.644  32.926  31.196  1.00  0.00     0.022 A 
BRANCH  51  55
ATOM     55  S   UNL A   1      33.957  33.898  28.687  1.00  0.00     0.124 S 
ATOM     56  O   UNL A   1      33.569  32.787  27.826  1.00  0.00    -0.237 OA
ATOM     57  O   UNL A   1      32.913  34.436  29.553  1.00  0.00    -0.237 OA
ATOM     58  O   UNL A   1      34.813  34.904  28.063  1.00  0.00    -0.744 OA
ENDBRANCH  51  55
ENDBRANCH  24  48
BRANCH  36  59
ATOM     59  C   UNL A   1      43.254  35.149  30.371  1.00  0.00     0.023 A 
ATOM     60  C   UNL A   1      43.224  36.210  29.453  1.00  0.00     0.031 A 
ATOM     61  C   UNL A   1      43.699  35.402  31.678  1.00  0.00     0.131 A 
ATOM     62  C   UNL A   1      43.662  37.480  29.846  1.00  0.00     0.055 A 
ATOM     63  C   UNL A   1      44.082  36.680  32.080  1.00  0.00     0.041 A 
ATOM     64  F   UNL A   1      43.764  34.412  32.582  1.00  0.00    -0.206 F 
ATOM     65  C   UNL A   1      44.069  37.727  31.160  1.00  0.00     0.022 A 
BRANCH  62  66
ATOM     66  S   UNL A   1      43.722  38.800  28.608  1.00  0.00     0.124 S 
ATOM     67  O   UNL A   1      42.847  39.806  29.201  1.00  0.00    -0.237 OA
ATOM     68  O   UNL A   1      45.141  39.136  28.566  1.00  0.00    -0.237 OA
ATOM     69  O   UNL A   1      43.204  38.158  27.401  1.00  0.00    -0.744 OA
ENDBRANCH  62  66
ENDBRANCH  36  59
ENDBRANCH  10  11
ENDBRANCH   3   5
ENDBRANCH   2   3
ENDBRANCH   1   2
BRANCH   1  70
ATOM     70  C   UNL A   1      36.389  22.363  25.097  1.00  0.00     0.274 C 
BRANCH  70  71
ATOM     71  O   UNL A   1      35.094  21.786  24.895  1.00  0.00    -0.462 OA
BRANCH  71  72
ATOM     72  C   UNL A   1      34.290  22.412  23.999  1.00  0.00     0.309 C 
ATOM     73  O   UNL A   1      34.690  23.050  23.040  1.00  0.00    -0.252 OA
BRANCH  72  74
ATOM     74  C   UNL A   1      32.828  22.076  24.262  1.00  0.00     0.107 C 
BRANCH  74  75
ATOM     75  C   UNL A   1      32.743  20.618  24.795  1.00  0.00     0.051 C 
BRANCH  75  76
ATOM     76  C   UNL A   1      33.061  19.284  24.135  1.00  0.00    -0.044 A 
ATOM     77  C   UNL A   1      32.449  18.742  23.014  1.00  0.00     0.004 A 
ATOM     78  C   UNL A   1      34.087  18.504  24.719  1.00  0.00     0.043 A 
ATOM     79  C   UNL A   1      32.872  17.496  22.501  1.00  0.00     0.003 A 
ATOM     80  C   UNL A   1      34.514  17.286  24.212  1.00  0.00     0.123 A 
ATOM     81  C   UNL A   1      33.908  16.767  23.095  1.00  0.00     0.039 A 
ATOM     82  F   UNL A   1      35.512  16.630  24.820  1.00  0.00    -0.207 F 
ENDBRANCH  75  76
ENDBRANCH  74  75
BRANCH  74  83
ATOM     83  C   UNL A   1      32.003  23.150  24.993  1.00  0.00     0.009 C 
ATOM     84  C   UNL A   1      31.107  22.639  26.141  1.00  0.00     0.033 C 
ATOM     85  C   UNL A   1      32.839  24.263  25.667  1.00  0.00     0.040 C 
ATOM     86  C   UNL A   1      30.234  23.776  26.702  1.00  0.00     0.161 C 
ATOM     87  C   UNL A   1      31.882  25.413  25.971  1.00  0.00     0.069 C 
ATOM     88  O   UNL A   1      30.977  24.955  27.005  1.00  0.00    -0.375 OA
ATOM     89  C   UNL A   1      32.490  26.826  26.212  1.00  0.00     0.035 C 
ATOM     90  C   UNL A   1      31.235  25.994  24.680  1.00  0.00     0.035 C 
ATOM     91  C   UNL A   1      31.440  27.391  25.233  1.00  0.00     0.006 C 
ENDBRANCH  74  83
ENDBRANCH  72  74
ENDBRANCH  71  72
ENDBRANCH  70  71
ENDBRANCH   1  70
TORSDOF 17
ENDMDL
MODEL 2
REMARK VINA RESULT:     -12.8      5.086     10.532
REMARK SMILES O=C(OCCOC(=O)[C@@H](Cc1cccc(F)c1)[C@H]1CCOC2(CCC2)C1)c1ccc(-c2c3nc(c(-c4cc(S(=O)(=O)[O-])ccc4F)c4ccc([nH]4)c(-c4cc(S(=O)(=O)[O-])ccc4F)c4nc(c(-c5cc(S(=O)(=O)[O-])ccc5F)c5ccc2[nH]5)C=C4)C=C3)cc1
REMARK SMILES IDX 4 1 3 2 2 3 1 4 27 5 28 6 89 7 29 8 88 9 30 10 31 11 32 12
REMARK SMILES IDX 82 13 33 14 87 15 81 16 83 17 34 18 86 19 80 20 79 21 35 23
REMARK SMILES IDX 67 24 47 25 66 26 48 27 51 28 65 29 84 30 49 31 50 32 64 34
REMARK SMILES IDX 85 35 52 36 36 37 37 38 45 39 38 40 44 41 46 42 43 43 39 44
REMARK SMILES IDX 40 45 41 46 42 47 68 48 69 49 77 50 70 51 76 52 78 53 75 54
REMARK SMILES IDX 71 55 72 56 73 57 74 58 53 59 54 60 62 61 55 62 61 63 63 64
REMARK SMILES IDX 60 65 56 66 57 67 58 68 59 69 5 70 6 71 7 72 8 73 9 74 10 75
REMARK SMILES IDX 11 76 12 77 17 78 13 79 15 80 14 81 16 82 18 83 19 84 26 85
REMARK SMILES IDX 20 86 22 87 21 88 23 89 25 90 24 91
REMARK H PARENT 83 22 51 33
REMARK Flexibility Score: inf
ROOT
ATOM      1  C   UNL A   1      32.084  31.224  26.509  1.00  0.00     0.275 C 
ENDROOT
BRANCH   1   2
ATOM      2  O   UNL A   1      33.000  31.180  27.643  1.00  0.00    -0.458 OA
BRANCH   2   3
ATOM      3  C   UNL A   1      34.072  31.953  27.974  1.00  0.00     0.338 C 
ATOM      4  O   UNL A   1      33.958  33.175  27.973  1.00  0.00    -0.246 OA
BRANCH   3   5
ATOM      5  C   UNL A   1      35.453  31.389  28.098  1.00  0.00     0.060 A 
ATOM      6  C   UNL A   1      36.568  32.136  28.450  1.00  0.00     0.016 A 
ATOM      7  C   UNL A   1      35.649  30.018  27.827  1.00  0.00     0.016 A 
ATOM      8  C   UNL A   1      37.800  31.480  28.713  1.00  0.00     0.010 A 
ATOM      9  C   UNL A   1      36.877  29.363  28.127  1.00  0.00     0.010 A 
ATOM     10  C   UNL A   1      37.956  30.067  28.683  1.00  0.00    -0.014 A 
BRANCH  10  11
ATOM     11  C   UNL A   1      39.245  29.394  29.183  1.00  0.00     0.031 A 
ATOM     12  C   UNL A   1      39.854  29.911  30.447  1.00  0.00     0.074 A 
ATOM     13  C   UNL A   1      39.820  28.231  28.750  1.00  0.00     0.049 A 
ATOM     14  N   UNL A   1      40.727  29.316  31.216  1.00  0.00    -0.248 NA
ATOM     15  C   UNL A   1      39.333  31.179  30.967  1.00  0.00     0.031 C 
ATOM     16  C   UNL A   1      39.248  27.327  27.793  1.00  0.00     0.029 A 
ATOM     17  N   UNL A   1      40.967  27.526  29.114  1.00  0.00    -0.354 N 
ATOM     18  C   UNL A   1      40.752  30.053  32.378  1.00  0.00     0.074 A 
ATOM     19  C   UNL A   1      39.849  31.175  32.185  1.00  0.00     0.031 C 
ATOM     20  C   UNL A   1      39.991  26.235  27.602  1.00  0.00     0.029 A 
ATOM     21  C   UNL A   1      41.172  26.346  28.406  1.00  0.00     0.049 A 
ATOM     22  H   UNL A   1      41.582  27.838  29.817  1.00  0.00     0.167 HD
ATOM     23  C   UNL A   1      41.449  29.815  33.509  1.00  0.00     0.034 A 
ATOM     24  C   UNL A   1      42.131  25.396  28.377  1.00  0.00     0.034 A 
ATOM     25  C   UNL A   1      42.484  28.829  33.672  1.00  0.00     0.049 A 
ATOM     26  C   UNL A   1      43.177  25.428  29.425  1.00  0.00     0.074 A 
ATOM     27  C   UNL A   1      43.341  28.677  34.748  1.00  0.00     0.029 A 
ATOM     28  N   UNL A   1      42.862  27.884  32.730  1.00  0.00    -0.354 N 
ATOM     29  N   UNL A   1      43.202  26.180  30.489  1.00  0.00    -0.248 NA
ATOM     30  C   UNL A   1      44.276  24.459  29.317  1.00  0.00     0.031 C 
ATOM     31  C   UNL A   1      44.307  27.721  34.414  1.00  0.00     0.029 A 
ATOM     32  C   UNL A   1      44.004  27.216  33.163  1.00  0.00     0.049 A 
ATOM     33  H   UNL A   1      42.393  27.710  31.883  1.00  0.00     0.167 HD
ATOM     34  C   UNL A   1      44.296  25.750  31.209  1.00  0.00     0.074 A 
ATOM     35  C   UNL A   1      44.921  24.683  30.451  1.00  0.00     0.031 C 
ATOM     36  C   UNL A   1      44.700  26.199  32.416  1.00  0.00     0.034 A 
BRANCH  23  37
ATOM     37  C   UNL A   1      41.183  30.788  34.610  1.00  0.00     0.023 A 
ATOM     38  C   UNL A   1      40.039  30.678  35.415  1.00  0.00     0.031 A 
ATOM     39  C   UNL A   1      42.009  31.915  34.741  1.00  0.00     0.131 A 
ATOM     40  C   UNL A   1      39.716  31.725  36.284  1.00  0.00     0.055 A 
ATOM     41  C   UNL A   1      41.714  32.922  35.651  1.00  0.00     0.041 A 
ATOM     42  F   UNL A   1      43.076  32.072  33.942  1.00  0.00    -0.206 F 
ATOM     43  C   UNL A   1      40.555  32.836  36.421  1.00  0.00     0.022 A 
BRANCH  40  44
ATOM     44  S   UNL A   1      38.113  31.690  37.130  1.00  0.00     0.124 S 
ATOM     45  O   UNL A   1      38.466  32.202  38.453  1.00  0.00    -0.237 OA
ATOM     46  O   UNL A   1      37.295  32.567  36.302  1.00  0.00    -0.237 OA
ATOM     47  O   UNL A   1      37.742  30.276  37.096  1.00  0.00    -0.744 OA
ENDBRANCH  40  44
ENDBRANCH  23  37
BRANCH  24  48
ATOM     48  C   UNL A   1      42.223  24.352  27.306  1.00  0.00     0.023 A 
ATOM     49  C   UNL A   1      41.552  23.118  27.372  1.00  0.00     0.031 A 
ATOM     50  C   UNL A   1      43.113  24.565  26.235  1.00  0.00     0.131 A 
ATOM     51  C   UNL A   1      41.788  22.143  26.379  1.00  0.00     0.055 A 
ATOM     52  C   UNL A   1      43.336  23.599  25.250  1.00  0.00     0.041 A 
ATOM     53  F   UNL A   1      43.777  25.727  26.131  1.00  0.00    -0.206 F 
ATOM     54  C   UNL A   1      42.669  22.380  25.317  1.00  0.00     0.022 A 
BRANCH  51  55
ATOM     55  S   UNL A   1      40.901  20.556  26.439  1.00  0.00     0.124 S 
ATOM     56  O   UNL A   1      39.579  20.935  25.955  1.00  0.00    -0.237 OA
ATOM     57  O   UNL A   1      41.695  19.715  25.549  1.00  0.00    -0.237 OA
ATOM     58  O   UNL A   1      40.969  20.187  27.851  1.00  0.00    -0.744 OA
ENDBRANCH  51  55
ENDBRANCH  24  48
BRANCH  36  59
ATOM     59  C   UNL A   1      45.920  25.556  32.994  1.00  0.00     0.023 A 
ATOM     60  C   UNL A   1      45.814  24.433  33.830  1.00  0.00     0.031 A 
ATOM     61  C   UNL A   1      47.196  26.070  32.717  1.00  0.00     0.131 A 
ATOM     62  C   UNL A   1      46.968  23.872  34.389  1.00  0.00     0.055 A 
ATOM     63  C   UNL A   1      48.347  25.475  33.231  1.00  0.00     0.041 A 
ATOM     64  F   UNL A   1      47.343  27.155  31.941  1.00  0.00    -0.206 F 
ATOM     65  C   UNL A   1      48.236  24.371  34.076  1.00  0.00     0.022 A 
BRANCH  62  66
ATOM     66  S   UNL A   1      46.790  22.498  35.555  1.00  0.00     0.124 S 
ATOM     67  O   UNL A   1      45.382  22.602  35.925  1.00  0.00    -0.237 OA
ATOM     68  O   UNL A   1      47.150  21.340  34.744  1.00  0.00    -0.237 OA
ATOM     69  O   UNL A   1      47.739  22.828  36.616  1.00  0.00    -0.744 OA
ENDBRANCH  62  66
ENDBRANCH  36  59
ENDBRANCH  10  11
ENDBRANCH   3   5
ENDBRANCH   2   3
ENDBRANCH   1   2
BRANCH   1  70
ATOM     70  C   UNL A   1      31.977  29.841  25.821  1.00  0.00     0.274 C 
BRANCH  70  71
ATOM     71  O   UNL A   1      33.251  29.404  25.332  1.00  0.00    -0.462 OA
BRANCH  71  72
ATOM     72  C   UNL A   1      33.247  28.753  24.141  1.00  0.00     0.309 C 
ATOM     73  O   UNL A   1      34.079  28.912  23.264  1.00  0.00    -0.252 OA
BRANCH  72  74
ATOM     74  C   UNL A   1      32.161  27.686  24.116  1.00  0.00     0.107 C 
BRANCH  74  75
ATOM     75  C   UNL A   1      31.296  27.889  22.840  1.00  0.00     0.051 C 
BRANCH  75  76
ATOM     76  C   UNL A   1      30.056  28.734  22.587  1.00  0.00    -0.044 A 
ATOM     77  C   UNL A   1      29.977  29.890  21.823  1.00  0.00     0.004 A 
ATOM     78  C   UNL A   1      28.849  28.305  23.188  1.00  0.00     0.043 A 
ATOM     79  C   UNL A   1      28.741  30.555  21.658  1.00  0.00     0.003 A 
ATOM     80  C   UNL A   1      27.631  28.948  23.020  1.00  0.00     0.123 A 
ATOM     81  C   UNL A   1      27.566  30.083  22.252  1.00  0.00     0.039 A 
ATOM     82  F   UNL A   1      26.536  28.453  23.611  1.00  0.00    -0.207 F 
ENDBRANCH  75  76
ENDBRANCH  74  75
BRANCH  74  83
ATOM     83  C   UNL A   1      32.606  26.252  24.453  1.00  0.00     0.009 C 
ATOM     84  C   UNL A   1      32.855  25.962  25.948  1.00  0.00     0.033 C 
ATOM     85  C   UNL A   1      31.601  25.149  24.043  1.00  0.00     0.040 C 
ATOM     86  C   UNL A   1      33.422  24.544  26.143  1.00  0.00     0.161 C 
ATOM     87  C   UNL A   1      32.361  23.825  24.073  1.00  0.00     0.069 C 
ATOM     88  O   UNL A   1      32.674  23.542  25.458  1.00  0.00    -0.375 OA
ATOM     89  C   UNL A   1      31.770  22.625  23.277  1.00  0.00     0.035 C 
ATOM     90  C   UNL A   1      33.550  23.809  23.068  1.00  0.00     0.035 C 
ATOM     91  C   UNL A   1      33.173  22.392  22.681  1.00  0.00     0.006 C 
ENDBRANCH  74  83
ENDBRANCH  72  74
ENDBRANCH  71  72
ENDBRANCH  70  71
ENDBRANCH   1  70
TORSDOF 17
ENDMDL
MODEL 3
REMARK VINA RESULT:     -12.7      1.569      3.597
REMARK SMILES O=C(OCCOC(=O)[C@@H](Cc1cccc(F)c1)[C@H]1CCOC2(CCC2)C1)c1ccc(-c2c3nc(c(-c4cc(S(=O)(=O)[O-])ccc4F)c4ccc([nH]4)c(-c4cc(S(=O)(=O)[O-])ccc4F)c4nc(c(-c5cc(S(=O)(=O)[O-])ccc5F)c5ccc2[nH]5)C=C4)C=C3)cc1
REMARK SMILES IDX 4 1 3 2 2 3 1 4 27 5 28 6 89 7 29 8 88 9 30 10 31 11 32 12
REMARK SMILES IDX 82 13 33 14 87 15 81 16 83 17 34 18 86 19 80 20 79 21 35 23
REMARK SMILES IDX 67 24 47 25 66 26 48 27 51 28 65 29 84 30 49 31 50 32 64 34
REMARK SMILES IDX 85 35 52 36 36 37 37 38 45 39 38 40 44 41 46 42 43 43 39 44
REMARK SMILES IDX 40 45 41 46 42 47 68 48 69 49 77 50 70 51 76 52 78 53 75 54
REMARK SMILES IDX 71 55 72 56 73 57 74 58 53 59 54 60 62 61 55 62 61 63 63 64
REMARK SMILES IDX 60 65 56 66 57 67 58 68 59 69 5 70 6 71 7 72 8 73 9 74 10 75
REMARK SMILES IDX 11 76 12 77 17 78 13 79 15 80 14 81 16 82 18 83 19 84 26 85
REMARK SMILES IDX 20 86 22 87 21 88 23 89 25 90 24 91
REMARK H PARENT 83 22 51 33
REMARK Flexibility Score: inf
ROOT
ATOM      1  C   UNL A   1      37.587  21.314  24.901  1.00  0.00     0.275 C 
ENDROOT
BRANCH   1   2
ATOM      2  O   UNL A   1      38.570  21.177  25.968  1.00  0.00    -0.458 OA
BRANCH   2   3
ATOM      3  C   UNL A   1      39.797  21.744  26.150  1.00  0.00     0.338 C 
ATOM      4  O   UNL A   1      40.803  21.122  25.822  1.00  0.00    -0.246 OA
BRANCH   3   5
ATOM      5  C   UNL A   1      39.987  22.989  26.960  1.00  0.00     0.060 A 
ATOM      6  C   UNL A   1      41.057  23.200  27.818  1.00  0.00     0.016 A 
ATOM      7  C   UNL A   1      39.018  24.009  26.866  1.00  0.00     0.016 A 
ATOM      8  C   UNL A   1      41.244  24.479  28.407  1.00  0.00     0.010 A 
ATOM      9  C   UNL A   1      39.231  25.299  27.431  1.00  0.00     0.010 A 
ATOM     10  C   UNL A   1      40.410  25.597  28.130  1.00  0.00    -0.014 A 
BRANCH  10  11
ATOM     11  C   UNL A   1      40.777  27.008  28.620  1.00  0.00     0.031 A 
ATOM     12  C   UNL A   1      42.212  27.422  28.536  1.00  0.00     0.074 A 
ATOM     13  C   UNL A   1      39.941  28.043  28.935  1.00  0.00     0.049 A 
ATOM     14  N   UNL A   1      42.698  28.634  28.581  1.00  0.00    -0.248 NA
ATOM     15  C   UNL A   1      43.192  26.371  28.246  1.00  0.00     0.031 C 
ATOM     16  C   UNL A   1      38.517  28.045  28.753  1.00  0.00     0.029 A 
ATOM     17  N   UNL A   1      40.143  29.348  29.382  1.00  0.00    -0.354 N 
ATOM     18  C   UNL A   1      44.009  28.516  28.178  1.00  0.00     0.074 A 
ATOM     19  C   UNL A   1      44.255  27.102  27.951  1.00  0.00     0.031 C 
ATOM     20  C   UNL A   1      37.954  29.210  29.082  1.00  0.00     0.029 A 
ATOM     21  C   UNL A   1      38.979  30.087  29.566  1.00  0.00     0.049 A 
ATOM     22  H   UNL A   1      41.040  29.717  29.555  1.00  0.00     0.167 HD
ATOM     23  C   UNL A   1      44.924  29.492  27.997  1.00  0.00     0.034 A 
ATOM     24  C   UNL A   1      38.686  31.326  30.013  1.00  0.00     0.034 A 
ATOM     25  C   UNL A   1      44.776  30.870  28.383  1.00  0.00     0.049 A 
ATOM     26  C   UNL A   1      39.805  32.272  30.231  1.00  0.00     0.074 A 
ATOM     27  C   UNL A   1      45.749  31.855  28.383  1.00  0.00     0.029 A 
ATOM     28  N   UNL A   1      43.629  31.450  28.904  1.00  0.00    -0.354 N 
ATOM     29  N   UNL A   1      41.052  32.107  29.888  1.00  0.00    -0.248 NA
ATOM     30  C   UNL A   1      39.485  33.577  30.824  1.00  0.00     0.031 C 
ATOM     31  C   UNL A   1      45.227  32.993  29.007  1.00  0.00     0.029 A 
ATOM     32  C   UNL A   1      43.904  32.750  29.320  1.00  0.00     0.049 A 
ATOM     33  H   UNL A   1      42.751  31.010  28.969  1.00  0.00     0.167 HD
ATOM     34  C   UNL A   1      41.667  33.306  30.182  1.00  0.00     0.074 A 
ATOM     35  C   UNL A   1      40.660  34.182  30.748  1.00  0.00     0.031 C 
ATOM     36  C   UNL A   1      42.956  33.633  29.951  1.00  0.00     0.034 A 
BRANCH  23  37
ATOM     37  C   UNL A   1      46.240  29.013  27.481  1.00  0.00     0.023 A 
ATOM     38  C   UNL A   1      46.442  28.782  26.111  1.00  0.00     0.031 A 
ATOM     39  C   UNL A   1      47.238  28.641  28.395  1.00  0.00     0.131 A 
ATOM     40  C   UNL A   1      47.608  28.130  25.697  1.00  0.00     0.055 A 
ATOM     41  C   UNL A   1      48.420  28.049  27.968  1.00  0.00     0.041 A 
ATOM     42  F   UNL A   1      47.044  28.796  29.714  1.00  0.00    -0.206 F 
ATOM     43  C   UNL A   1      48.606  27.780  26.613  1.00  0.00     0.022 A 
BRANCH  40  44
ATOM     44  S   UNL A   1      47.746  27.614  23.965  1.00  0.00     0.124 S 
ATOM     45  O   UNL A   1      46.768  28.486  23.318  1.00  0.00    -0.237 OA
ATOM     46  O   UNL A   1      49.146  27.885  23.661  1.00  0.00    -0.237 OA
ATOM     47  O   UNL A   1      47.380  26.198  24.002  1.00  0.00    -0.744 OA
ENDBRANCH  40  44
ENDBRANCH  23  37
BRANCH  24  48
ATOM     48  C   UNL A   1      37.297  31.770  30.357  1.00  0.00     0.023 A 
ATOM     49  C   UNL A   1      36.449  32.428  29.447  1.00  0.00     0.031 A 
ATOM     50  C   UNL A   1      36.856  31.628  31.687  1.00  0.00     0.131 A 
ATOM     51  C   UNL A   1      35.201  32.919  29.887  1.00  0.00     0.055 A 
ATOM     52  C   UNL A   1      35.616  32.109  32.115  1.00  0.00     0.041 A 
ATOM     53  F   UNL A   1      37.631  31.008  32.592  1.00  0.00    -0.206 F 
ATOM     54  C   UNL A   1      34.779  32.757  31.212  1.00  0.00     0.022 A 
BRANCH  51  55
ATOM     55  S   UNL A   1      34.086  33.743  28.710  1.00  0.00     0.124 S 
ATOM     56  O   UNL A   1      33.094  34.331  29.603  1.00  0.00    -0.237 OA
ATOM     57  O   UNL A   1      34.976  34.678  28.031  1.00  0.00    -0.237 OA
ATOM     58  O   UNL A   1      33.605  32.642  27.878  1.00  0.00    -0.744 OA
ENDBRANCH  51  55
ENDBRANCH  24  48
BRANCH  36  59
ATOM     59  C   UNL A   1      43.377  35.011  30.353  1.00  0.00     0.023 A 
ATOM     60  C   UNL A   1      43.252  36.090  29.464  1.00  0.00     0.031 A 
ATOM     61  C   UNL A   1      43.915  35.248  31.628  1.00  0.00     0.131 A 
ATOM     62  C   UNL A   1      43.688  37.362  29.851  1.00  0.00     0.055 A 
ATOM     63  C   UNL A   1      44.298  36.527  32.028  1.00  0.00     0.041 A 
ATOM     64  F   UNL A   1      44.074  34.242  32.502  1.00  0.00    -0.206 F 
ATOM     65  C   UNL A   1      44.189  37.593  31.136  1.00  0.00     0.022 A 
BRANCH  62  66
ATOM     66  S   UNL A   1      43.621  38.708  28.642  1.00  0.00     0.124 S 
ATOM     67  O   UNL A   1      42.210  38.706  28.271  1.00  0.00    -0.237 OA
ATOM     68  O   UNL A   1      44.073  39.859  29.418  1.00  0.00    -0.237 OA
ATOM     69  O   UNL A   1      44.542  38.271  27.594  1.00  0.00    -0.744 OA
ENDBRANCH  62  66
ENDBRANCH  36  59
ENDBRANCH  10  11
ENDBRANCH   3   5
ENDBRANCH   2   3
ENDBRANCH   1   2
BRANCH   1  70
ATOM     70  C   UNL A   1      36.377  22.165  25.359  1.00  0.00     0.274 C 
BRANCH  70  71
ATOM     71  O   UNL A   1      35.197  21.830  24.619  1.00  0.00    -0.462 OA
BRANCH  71  72
ATOM     72  C   UNL A   1      34.158  21.334  25.337  1.00  0.00     0.309 C 
ATOM     73  O   UNL A   1      34.119  21.288  26.555  1.00  0.00    -0.252 OA
BRANCH  72  74
ATOM     74  C   UNL A   1      32.988  20.993  24.424  1.00  0.00     0.107 C 
BRANCH  74  75
ATOM     75  C   UNL A   1      32.948  22.026  23.263  1.00  0.00     0.051 C 
BRANCH  75  76
ATOM     76  C   UNL A   1      32.262  23.379  23.140  1.00  0.00    -0.044 A 
ATOM     77  C   UNL A   1      31.023  23.734  23.654  1.00  0.00     0.004 A 
ATOM     78  C   UNL A   1      32.950  24.389  22.427  1.00  0.00     0.043 A 
ATOM     79  C   UNL A   1      30.526  25.044  23.479  1.00  0.00     0.003 A 
ATOM     80  C   UNL A   1      32.471  25.680  22.262  1.00  0.00     0.123 A 
ATOM     81  C   UNL A   1      31.249  26.021  22.787  1.00  0.00     0.039 A 
ATOM     82  F   UNL A   1      33.206  26.577  21.591  1.00  0.00    -0.207 F 
ENDBRANCH  75  76
ENDBRANCH  74  75
BRANCH  74  83
ATOM     83  C   UNL A   1      32.817  19.508  24.061  1.00  0.00     0.009 C 
ATOM     84  C   UNL A   1      32.497  19.213  22.580  1.00  0.00     0.033 C 
ATOM     85  C   UNL A   1      34.060  18.626  24.334  1.00  0.00     0.040 C 
ATOM     86  C   UNL A   1      32.216  17.714  22.368  1.00  0.00     0.161 C 
ATOM     87  C   UNL A   1      33.587  17.175  24.307  1.00  0.00     0.069 C 
ATOM     88  O   UNL A   1      33.214  16.871  22.941  1.00  0.00    -0.375 OA
ATOM     89  C   UNL A   1      34.480  16.102  24.995  1.00  0.00     0.035 C 
ATOM     90  C   UNL A   1      32.523  16.885  25.405  1.00  0.00     0.035 C 
ATOM     91  C   UNL A   1      33.215  15.566  25.695  1.00  0.00     0.006 C 
ENDBRANCH  74  83
ENDBRANCH  72  74
ENDBRANCH  71  72
ENDBRANCH  70  71
ENDBRANCH   1  70
TORSDOF 17
ENDMDL
