MODEL 1
REMARK VINA RESULT:     -12.1      0.000      0.000
REMARK SMILES C[C@@H]1[C@H](C(=O)OCCOC(=O)c2ccc(-c3c4nc(c(-c5cc(S(=O)(=O)[O-])ccc5F)c5ccc([nH]5)c(-c5cc(S(=O)(=O)[O-])ccc5F)c5nc(c(-c6cc(S(=O)(=O)[O-])ccc6F)c6ccc3[nH]6)C=C5)C=C4)cc2)CCN1c1ccc(C(F)(F)F)cc1
REMARK SMILES IDX 8 1 7 2 6 3 4 4 5 5 3 6 1 7 2 8 77 9 75 10 76 11 78 12 79 13
REMARK SMILES IDX 87 14 80 15 86 16 81 17 82 18 83 19 84 20 85 21 9 22 10 23
REMARK SMILES IDX 11 24 12 25 13 26 74 27 14 28 73 29 15 30 16 31 17 32 67 33
REMARK SMILES IDX 18 34 72 35 66 36 68 37 19 38 71 39 65 40 64 41 20 43 52 44
REMARK SMILES IDX 32 45 51 46 33 47 36 48 50 49 69 50 34 51 35 52 49 54 70 55
REMARK SMILES IDX 37 56 21 57 22 58 30 59 23 60 29 61 31 62 28 63 24 64 25 65
REMARK SMILES IDX 26 66 27 67 53 68 54 69 62 70 55 71 61 72 63 73 60 74 56 75
REMARK SMILES IDX 57 76 58 77 59 78 38 79 39 80 47 81 40 82 46 83 48 84 45 85
REMARK SMILES IDX 41 86 42 87 43 88 44 89
REMARK H PARENT 68 42 36 53
REMARK Flexibility Score: inf
ROOT
ATOM      1  C   UNL A   1      31.594  30.036  25.694  1.00  0.00     0.275 C 
ENDROOT
BRANCH   1   2
ATOM      2  C   UNL A   1      31.374  28.714  24.949  1.00  0.00     0.274 C 
BRANCH   2   3
ATOM      3  O   UNL A   1      32.278  27.694  25.421  1.00  0.00    -0.462 OA
BRANCH   3   4
ATOM      4  C   UNL A   1      31.721  26.604  25.994  1.00  0.00     0.311 C 
ATOM      5  O   UNL A   1      30.637  26.615  26.568  1.00  0.00    -0.252 OA
BRANCH   4   6
ATOM      6  C   UNL A   1      32.556  25.348  25.917  1.00  0.00     0.123 C 
ATOM      7  C   UNL A   1      31.247  24.200  23.965  1.00  0.00     0.032 C 
ATOM      8  C   UNL A   1      32.078  24.042  25.234  1.00  0.00     0.093 C 
ATOM      9  N   UNL A   1      33.371  23.369  24.921  1.00  0.00    -0.368 N 
ATOM     10  C   UNL A   1      33.923  25.609  25.302  1.00  0.00     0.039 C 
ATOM     11  C   UNL A   1      34.514  24.207  25.283  1.00  0.00     0.118 C 
BRANCH   9  12
ATOM     12  C   UNL A   1      33.500  21.997  24.863  1.00  0.00     0.037 A 
ATOM     13  C   UNL A   1      34.708  21.342  25.131  1.00  0.00     0.026 A 
ATOM     14  C   UNL A   1      32.419  21.200  24.469  1.00  0.00     0.026 A 
ATOM     15  C   UNL A   1      34.839  19.953  24.987  1.00  0.00     0.015 A 
ATOM     16  C   UNL A   1      32.536  19.814  24.322  1.00  0.00     0.015 A 
ATOM     17  C   UNL A   1      33.754  19.174  24.566  1.00  0.00     0.056 A 
BRANCH  17  18
ATOM     18  C   UNL A   1      33.914  17.693  24.344  1.00  0.00     0.416 C 
ATOM     19  F   UNL A   1      33.593  17.324  23.070  1.00  0.00    -0.166 F 
ATOM     20  F   UNL A   1      35.184  17.250  24.551  1.00  0.00    -0.166 F 
ATOM     21  F   UNL A   1      33.118  16.932  25.151  1.00  0.00    -0.166 F 
ENDBRANCH  17  18
ENDBRANCH   9  12
ENDBRANCH   4   6
ENDBRANCH   3   4
ENDBRANCH   2   3
ENDBRANCH   1   2
BRANCH   1  22
ATOM     22  O   UNL A   1      32.988  30.291  25.953  1.00  0.00    -0.458 OA
BRANCH  22  23
ATOM     23  C   UNL A   1      33.235  31.236  26.892  1.00  0.00     0.338 C 
ATOM     24  O   UNL A   1      32.480  32.122  27.254  1.00  0.00    -0.246 OA
BRANCH  23  25
ATOM     25  C   UNL A   1      34.516  30.957  27.561  1.00  0.00     0.060 A 
ATOM     26  C   UNL A   1      34.762  29.645  27.971  1.00  0.00     0.016 A 
ATOM     27  C   UNL A   1      35.430  31.971  27.851  1.00  0.00     0.016 A 
ATOM     28  C   UNL A   1      35.919  29.334  28.674  1.00  0.00     0.010 A 
ATOM     29  C   UNL A   1      36.597  31.658  28.558  1.00  0.00     0.010 A 
ATOM     30  C   UNL A   1      36.844  30.339  28.980  1.00  0.00    -0.014 A 
BRANCH  30  31
ATOM     31  C   UNL A   1      38.042  30.002  29.785  1.00  0.00     0.031 A 
ATOM     32  C   UNL A   1      39.076  29.070  29.224  1.00  0.00     0.074 A 
ATOM     33  C   UNL A   1      38.218  30.571  30.992  1.00  0.00     0.049 A 
ATOM     34  N   UNL A   1      40.150  28.586  29.791  1.00  0.00    -0.248 NA
ATOM     35  C   UNL A   1      38.870  28.623  27.838  1.00  0.00     0.031 C 
ATOM     36  C   UNL A   1      37.312  31.547  31.603  1.00  0.00     0.029 A 
ATOM     37  N   UNL A   1      39.218  30.419  31.918  1.00  0.00    -0.354 N 
ATOM     38  C   UNL A   1      40.747  27.768  28.837  1.00  0.00     0.074 A 
ATOM     39  C   UNL A   1      39.896  27.802  27.665  1.00  0.00     0.031 C 
ATOM     40  C   UNL A   1      37.802  31.908  32.799  1.00  0.00     0.029 A 
ATOM     41  C   UNL A   1      39.021  31.150  33.066  1.00  0.00     0.049 A 
ATOM     42  H   UNL A   1      40.001  29.841  31.774  1.00  0.00     0.167 HD
ATOM     43  C   UNL A   1      41.898  27.059  28.935  1.00  0.00     0.034 A 
ATOM     44  C   UNL A   1      39.725  31.177  34.215  1.00  0.00     0.034 A 
ATOM     45  C   UNL A   1      42.728  27.034  30.116  1.00  0.00     0.049 A 
ATOM     46  C   UNL A   1      40.950  30.305  34.332  1.00  0.00     0.074 A 
ATOM     47  C   UNL A   1      43.903  26.336  30.333  1.00  0.00     0.029 A 
ATOM     48  N   UNL A   1      42.468  27.742  31.284  1.00  0.00    -0.354 N 
ATOM     49  N   UNL A   1      41.480  29.499  33.441  1.00  0.00    -0.248 NA
ATOM     50  C   UNL A   1      41.669  30.343  35.612  1.00  0.00     0.031 C 
ATOM     51  C   UNL A   1      44.320  26.575  31.649  1.00  0.00     0.029 A 
ATOM     52  C   UNL A   1      43.444  27.476  32.231  1.00  0.00     0.049 A 
ATOM     53  H   UNL A   1      41.699  28.343  31.419  1.00  0.00     0.167 HD
ATOM     54  C   UNL A   1      42.608  28.953  34.046  1.00  0.00     0.074 A 
ATOM     55  C   UNL A   1      42.690  29.534  35.371  1.00  0.00     0.031 C 
ATOM     56  C   UNL A   1      43.500  28.057  33.552  1.00  0.00     0.034 A 
BRANCH  43  57
ATOM     57  C   UNL A   1      42.286  26.207  27.751  1.00  0.00     0.023 A 
ATOM     58  C   UNL A   1      41.866  24.871  27.629  1.00  0.00     0.031 A 
ATOM     59  C   UNL A   1      43.119  26.730  26.746  1.00  0.00     0.131 A 
ATOM     60  C   UNL A   1      42.333  24.085  26.564  1.00  0.00     0.055 A 
ATOM     61  C   UNL A   1      43.521  25.965  25.650  1.00  0.00     0.041 A 
ATOM     62  F   UNL A   1      43.570  27.992  26.821  1.00  0.00    -0.206 F 
ATOM     63  C   UNL A   1      43.139  24.629  25.561  1.00  0.00     0.022 A 
BRANCH  60  64
ATOM     64  S   UNL A   1      41.983  22.305  26.578  1.00  0.00     0.124 S 
ATOM     65  O   UNL A   1      42.606  21.893  27.834  1.00  0.00    -0.237 OA
ATOM     66  O   UNL A   1      40.526  22.270  26.545  1.00  0.00    -0.237 OA
ATOM     67  O   UNL A   1      42.647  21.816  25.372  1.00  0.00    -0.744 OA
ENDBRANCH  60  64
ENDBRANCH  43  57
BRANCH  44  68
ATOM     68  C   UNL A   1      39.268  32.006  35.365  1.00  0.00     0.023 A 
ATOM     69  C   UNL A   1      38.591  31.432  36.453  1.00  0.00     0.031 A 
ATOM     70  C   UNL A   1      39.454  33.401  35.367  1.00  0.00     0.131 A 
ATOM     71  C   UNL A   1      38.089  32.252  37.475  1.00  0.00     0.055 A 
ATOM     72  C   UNL A   1      38.999  34.205  36.412  1.00  0.00     0.041 A 
ATOM     73  F   UNL A   1      40.091  34.002  34.349  1.00  0.00    -0.206 F 
ATOM     74  C   UNL A   1      38.299  33.633  37.468  1.00  0.00     0.022 A 
BRANCH  71  75
ATOM     75  S   UNL A   1      37.075  31.496  38.776  1.00  0.00     0.124 S 
ATOM     76  O   UNL A   1      35.877  32.328  38.740  1.00  0.00    -0.237 OA
ATOM     77  O   UNL A   1      36.922  30.130  38.284  1.00  0.00    -0.237 OA
ATOM     78  O   UNL A   1      37.898  31.638  39.974  1.00  0.00    -0.744 OA
ENDBRANCH  71  75
ENDBRANCH  44  68
BRANCH  56  79
ATOM     79  C   UNL A   1      44.660  27.692  34.443  1.00  0.00     0.023 A 
ATOM     80  C   UNL A   1      44.600  26.596  35.322  1.00  0.00     0.031 A 
ATOM     81  C   UNL A   1      45.832  28.468  34.428  1.00  0.00     0.131 A 
ATOM     82  C   UNL A   1      45.673  26.339  36.189  1.00  0.00     0.055 A 
ATOM     83  C   UNL A   1      46.918  28.174  35.254  1.00  0.00     0.041 A 
ATOM     84  F   UNL A   1      45.939  29.526  33.609  1.00  0.00    -0.206 F 
ATOM     85  C   UNL A   1      46.837  27.112  36.150  1.00  0.00     0.022 A 
BRANCH  82  86
ATOM     86  S   UNL A   1      45.497  25.026  37.429  1.00  0.00     0.124 S 
ATOM     87  O   UNL A   1      45.958  23.852  36.695  1.00  0.00    -0.237 OA
ATOM     88  O   UNL A   1      46.370  25.490  38.502  1.00  0.00    -0.237 OA
ATOM     89  O   UNL A   1      44.070  25.040  37.744  1.00  0.00    -0.744 OA
ENDBRANCH  82  86
ENDBRANCH  56  79
ENDBRANCH  30  31
ENDBRANCH  23  25
ENDBRANCH  22  23
ENDBRANCH   1  22
TORSDOF 16
ENDMDL
MODEL 2
REMARK VINA RESULT:     -12.0      1.354      1.636
REMARK SMILES C[C@@H]1[C@H](C(=O)OCCOC(=O)c2ccc(-c3c4nc(c(-c5cc(S(=O)(=O)[O-])ccc5F)c5ccc([nH]5)c(-c5cc(S(=O)(=O)[O-])ccc5F)c5nc(c(-c6cc(S(=O)(=O)[O-])ccc6F)c6ccc3[nH]6)C=C5)C=C4)cc2)CCN1c1ccc(C(F)(F)F)cc1
REMARK SMILES IDX 8 1 7 2 6 3 4 4 5 5 3 6 1 7 2 8 77 9 75 10 76 11 78 12 79 13
REMARK SMILES IDX 87 14 80 15 86 16 81 17 82 18 83 19 84 20 85 21 9 22 10 23
REMARK SMILES IDX 11 24 12 25 13 26 74 27 14 28 73 29 15 30 16 31 17 32 67 33
REMARK SMILES IDX 18 34 72 35 66 36 68 37 19 38 71 39 65 40 64 41 20 43 52 44
REMARK SMILES IDX 32 45 51 46 33 47 36 48 50 49 69 50 34 51 35 52 49 54 70 55
REMARK SMILES IDX 37 56 21 57 22 58 30 59 23 60 29 61 31 62 28 63 24 64 25 65
REMARK SMILES IDX 26 66 27 67 53 68 54 69 62 70 55 71 61 72 63 73 60 74 56 75
REMARK SMILES IDX 57 76 58 77 59 78 38 79 39 80 47 81 40 82 46 83 48 84 45 85
REMARK SMILES IDX 41 86 42 87 43 88 44 89
REMARK H PARENT 68 42 36 53
REMARK Flexibility Score: inf
ROOT
ATOM      1  C   UNL A   1      31.632  30.059  25.626  1.00  0.00     0.275 C 
ENDROOT
BRANCH   1   2
ATOM      2  C   UNL A   1      31.389  28.701  24.957  1.00  0.00     0.274 C 
BRANCH   2   3
ATOM      3  O   UNL A   1      32.411  27.751  25.320  1.00  0.00    -0.462 OA
BRANCH   3   4
ATOM      4  C   UNL A   1      32.018  26.678  26.041  1.00  0.00     0.311 C 
ATOM      5  O   UNL A   1      31.131  26.714  26.888  1.00  0.00    -0.252 OA
BRANCH   4   6
ATOM      6  C   UNL A   1      32.783  25.407  25.759  1.00  0.00     0.123 C 
ATOM      7  C   UNL A   1      31.125  24.403  24.003  1.00  0.00     0.032 C 
ATOM      8  C   UNL A   1      32.153  24.154  25.102  1.00  0.00     0.093 C 
ATOM      9  N   UNL A   1      33.350  23.467  24.540  1.00  0.00    -0.368 N 
ATOM     10  C   UNL A   1      34.036  25.667  24.935  1.00  0.00     0.039 C 
ATOM     11  C   UNL A   1      34.566  24.254  24.744  1.00  0.00     0.118 C 
BRANCH   9  12
ATOM     12  C   UNL A   1      33.419  22.097  24.391  1.00  0.00     0.037 A 
ATOM     13  C   UNL A   1      32.487  21.373  23.639  1.00  0.00     0.026 A 
ATOM     14  C   UNL A   1      34.412  21.363  25.049  1.00  0.00     0.026 A 
ATOM     15  C   UNL A   1      32.528  19.972  23.568  1.00  0.00     0.015 A 
ATOM     16  C   UNL A   1      34.465  19.966  24.985  1.00  0.00     0.015 A 
ATOM     17  C   UNL A   1      33.513  19.252  24.254  1.00  0.00     0.056 A 
BRANCH  17  18
ATOM     18  C   UNL A   1      33.514  17.745  24.234  1.00  0.00     0.416 C 
ATOM     19  F   UNL A   1      33.476  17.246  22.965  1.00  0.00    -0.166 F 
ATOM     20  F   UNL A   1      34.615  17.199  24.816  1.00  0.00    -0.166 F 
ATOM     21  F   UNL A   1      32.442  17.192  24.872  1.00  0.00    -0.166 F 
ENDBRANCH  17  18
ENDBRANCH   9  12
ENDBRANCH   4   6
ENDBRANCH   3   4
ENDBRANCH   2   3
ENDBRANCH   1   2
BRANCH   1  22
ATOM     22  O   UNL A   1      33.015  30.254  25.979  1.00  0.00    -0.458 OA
BRANCH  22  23
ATOM     23  C   UNL A   1      33.242  31.209  26.912  1.00  0.00     0.338 C 
ATOM     24  O   UNL A   1      32.476  32.094  27.253  1.00  0.00    -0.246 OA
BRANCH  23  25
ATOM     25  C   UNL A   1      34.515  30.946  27.603  1.00  0.00     0.060 A 
ATOM     26  C   UNL A   1      34.788  29.630  27.979  1.00  0.00     0.016 A 
ATOM     27  C   UNL A   1      35.393  31.976  27.945  1.00  0.00     0.016 A 
ATOM     28  C   UNL A   1      35.937  29.329  28.700  1.00  0.00     0.010 A 
ATOM     29  C   UNL A   1      36.551  31.674  28.670  1.00  0.00     0.010 A 
ATOM     30  C   UNL A   1      36.826  30.349  29.058  1.00  0.00    -0.014 A 
BRANCH  30  31
ATOM     31  C   UNL A   1      38.014  30.021  29.881  1.00  0.00     0.031 A 
ATOM     32  C   UNL A   1      39.059  29.090  29.339  1.00  0.00     0.074 A 
ATOM     33  C   UNL A   1      38.171  30.597  31.087  1.00  0.00     0.049 A 
ATOM     34  N   UNL A   1      40.127  28.614  29.923  1.00  0.00    -0.248 NA
ATOM     35  C   UNL A   1      38.874  28.637  27.953  1.00  0.00     0.031 C 
ATOM     36  C   UNL A   1      37.253  31.572  31.681  1.00  0.00     0.029 A 
ATOM     37  N   UNL A   1      39.159  30.454  32.028  1.00  0.00    -0.354 N 
ATOM     38  C   UNL A   1      40.741  27.794  28.982  1.00  0.00     0.074 A 
ATOM     39  C   UNL A   1      39.906  27.818  27.798  1.00  0.00     0.031 C 
ATOM     40  C   UNL A   1      37.726  31.941  32.882  1.00  0.00     0.029 A 
ATOM     41  C   UNL A   1      38.944  31.189  33.169  1.00  0.00     0.049 A 
ATOM     42  H   UNL A   1      39.946  29.878  31.897  1.00  0.00     0.167 HD
ATOM     43  C   UNL A   1      41.894  27.090  29.098  1.00  0.00     0.034 A 
ATOM     44  C   UNL A   1      39.632  31.224  34.328  1.00  0.00     0.034 A 
ATOM     45  C   UNL A   1      42.707  27.074  30.291  1.00  0.00     0.049 A 
ATOM     46  C   UNL A   1      40.858  30.358  34.466  1.00  0.00     0.074 A 
ATOM     47  C   UNL A   1      43.882  26.382  30.528  1.00  0.00     0.029 A 
ATOM     48  N   UNL A   1      42.428  27.786  31.452  1.00  0.00    -0.354 N 
ATOM     49  N   UNL A   1      41.404  29.550  33.586  1.00  0.00    -0.248 NA
ATOM     50  C   UNL A   1      41.559  30.406  35.756  1.00  0.00     0.031 C 
ATOM     51  C   UNL A   1      44.279  26.629  31.848  1.00  0.00     0.029 A 
ATOM     52  C   UNL A   1      43.392  27.530  32.414  1.00  0.00     0.049 A 
ATOM     53  H   UNL A   1      41.655  28.385  31.574  1.00  0.00     0.167 HD
ATOM     54  C   UNL A   1      42.525  29.012  34.209  1.00  0.00     0.074 A 
ATOM     55  C   UNL A   1      42.587  29.600  35.533  1.00  0.00     0.031 C 
ATOM     56  C   UNL A   1      43.427  28.117  33.732  1.00  0.00     0.034 A 
BRANCH  43  57
ATOM     57  C   UNL A   1      42.300  26.234  27.925  1.00  0.00     0.023 A 
ATOM     58  C   UNL A   1      41.796  24.934  27.743  1.00  0.00     0.031 A 
ATOM     59  C   UNL A   1      43.237  26.713  26.990  1.00  0.00     0.131 A 
ATOM     60  C   UNL A   1      42.279  24.136  26.695  1.00  0.00     0.055 A 
ATOM     61  C   UNL A   1      43.659  25.941  25.907  1.00  0.00     0.041 A 
ATOM     62  F   UNL A   1      43.770  27.938  27.126  1.00  0.00    -0.206 F 
ATOM     63  C   UNL A   1      43.190  24.638  25.762  1.00  0.00     0.022 A 
BRANCH  60  64
ATOM     64  S   UNL A   1      41.803  22.386  26.644  1.00  0.00     0.124 S 
ATOM     65  O   UNL A   1      42.469  21.866  27.836  1.00  0.00    -0.237 OA
ATOM     66  O   UNL A   1      40.348  22.454  26.702  1.00  0.00    -0.237 OA
ATOM     67  O   UNL A   1      42.356  21.917  25.375  1.00  0.00    -0.744 OA
ENDBRANCH  60  64
ENDBRANCH  43  57
BRANCH  44  68
ATOM     68  C   UNL A   1      39.155  32.058  35.467  1.00  0.00     0.023 A 
ATOM     69  C   UNL A   1      39.619  33.370  35.653  1.00  0.00     0.031 A 
ATOM     70  C   UNL A   1      38.264  31.532  36.421  1.00  0.00     0.131 A 
ATOM     71  C   UNL A   1      39.225  34.096  36.788  1.00  0.00     0.055 A 
ATOM     72  C   UNL A   1      37.834  32.278  37.520  1.00  0.00     0.041 A 
ATOM     73  F   UNL A   1      37.792  30.282  36.294  1.00  0.00    -0.206 F 
ATOM     74  C   UNL A   1      38.326  33.564  37.716  1.00  0.00     0.022 A 
BRANCH  71  75
ATOM     75  S   UNL A   1      39.976  35.721  37.084  1.00  0.00     0.124 S 
ATOM     76  O   UNL A   1      39.278  36.156  38.289  1.00  0.00    -0.237 OA
ATOM     77  O   UNL A   1      41.385  35.378  37.246  1.00  0.00    -0.237 OA
ATOM     78  O   UNL A   1      39.653  36.469  35.871  1.00  0.00    -0.744 OA
ENDBRANCH  71  75
ENDBRANCH  44  68
BRANCH  56  79
ATOM     79  C   UNL A   1      44.576  27.761  34.642  1.00  0.00     0.023 A 
ATOM     80  C   UNL A   1      44.500  26.684  35.542  1.00  0.00     0.031 A 
ATOM     81  C   UNL A   1      45.755  28.527  34.621  1.00  0.00     0.131 A 
ATOM     82  C   UNL A   1      45.563  26.436  36.423  1.00  0.00     0.055 A 
ATOM     83  C   UNL A   1      46.831  28.242  35.463  1.00  0.00     0.041 A 
ATOM     84  F   UNL A   1      45.878  29.568  33.781  1.00  0.00    -0.206 F 
ATOM     85  C   UNL A   1      46.734  27.199  36.379  1.00  0.00     0.022 A 
BRANCH  82  86
ATOM     86  S   UNL A   1      45.365  25.150  37.688  1.00  0.00     0.124 S 
ATOM     87  O   UNL A   1      46.688  25.124  38.303  1.00  0.00    -0.237 OA
ATOM     88  O   UNL A   1      44.289  25.687  38.514  1.00  0.00    -0.237 OA
ATOM     89  O   UNL A   1      45.017  23.959  36.916  1.00  0.00    -0.744 OA
ENDBRANCH  82  86
ENDBRANCH  56  79
ENDBRANCH  30  31
ENDBRANCH  23  25
ENDBRANCH  22  23
ENDBRANCH   1  22
TORSDOF 16
ENDMDL
MODEL 3
REMARK VINA RESULT:     -12.0      5.819     10.593
REMARK SMILES C[C@@H]1[C@H](C(=O)OCCOC(=O)c2ccc(-c3c4nc(c(-c5cc(S(=O)(=O)[O-])ccc5F)c5ccc([nH]5)c(-c5cc(S(=O)(=O)[O-])ccc5F)c5nc(c(-c6cc(S(=O)(=O)[O-])ccc6F)c6ccc3[nH]6)C=C5)C=C4)cc2)CCN1c1ccc(C(F)(F)F)cc1
REMARK SMILES IDX 8 1 7 2 6 3 4 4 5 5 3 6 1 7 2 8 77 9 75 10 76 11 78 12 79 13
REMARK SMILES IDX 87 14 80 15 86 16 81 17 82 18 83 19 84 20 85 21 9 22 10 23
REMARK SMILES IDX 11 24 12 25 13 26 74 27 14 28 73 29 15 30 16 31 17 32 67 33
REMARK SMILES IDX 18 34 72 35 66 36 68 37 19 38 71 39 65 40 64 41 20 43 52 44
REMARK SMILES IDX 32 45 51 46 33 47 36 48 50 49 69 50 34 51 35 52 49 54 70 55
REMARK SMILES IDX 37 56 21 57 22 58 30 59 23 60 29 61 31 62 28 63 24 64 25 65
REMARK SMILES IDX 26 66 27 67 53 68 54 69 62 70 55 71 61 72 63 73 60 74 56 75
REMARK SMILES IDX 57 76 58 77 59 78 38 79 39 80 47 81 40 82 46 83 48 84 45 85
REMARK SMILES IDX 41 86 42 87 43 88 44 89
REMARK H PARENT 68 42 36 53
REMARK Flexibility Score: inf
ROOT
ATOM      1  C   UNL A   1      36.716  20.600  24.788  1.00  0.00     0.275 C 
ENDROOT
BRANCH   1   2
ATOM      2  C   UNL A   1      35.201  20.504  25.001  1.00  0.00     0.274 C 
BRANCH   2   3
ATOM      3  O   UNL A   1      34.566  21.785  24.816  1.00  0.00    -0.462 OA
BRANCH   3   4
ATOM      4  C   UNL A   1      33.215  21.800  24.795  1.00  0.00     0.311 C 
ATOM      5  O   UNL A   1      32.516  20.948  25.336  1.00  0.00    -0.252 OA
BRANCH   4   6
ATOM      6  C   UNL A   1      32.603  22.937  24.013  1.00  0.00     0.123 C 
ATOM      7  C   UNL A   1      32.916  24.794  25.828  1.00  0.00     0.032 C 
ATOM      8  C   UNL A   1      32.097  24.249  24.662  1.00  0.00     0.093 C 
ATOM      9  N   UNL A   1      32.145  25.198  23.513  1.00  0.00    -0.368 N 
ATOM     10  C   UNL A   1      33.510  23.406  22.885  1.00  0.00     0.039 C 
ATOM     11  C   UNL A   1      32.705  24.566  22.319  1.00  0.00     0.118 C 
BRANCH   9  12
ATOM     12  C   UNL A   1      31.286  26.272  23.399  1.00  0.00     0.037 A 
ATOM     13  C   UNL A   1      29.922  26.181  23.701  1.00  0.00     0.026 A 
ATOM     14  C   UNL A   1      31.748  27.499  22.913  1.00  0.00     0.026 A 
ATOM     15  C   UNL A   1      29.051  27.262  23.501  1.00  0.00     0.015 A 
ATOM     16  C   UNL A   1      30.890  28.586  22.709  1.00  0.00     0.015 A 
ATOM     17  C   UNL A   1      29.526  28.475  22.989  1.00  0.00     0.056 A 
BRANCH  17  18
ATOM     18  C   UNL A   1      28.578  29.612  22.708  1.00  0.00     0.416 C 
ATOM     19  F   UNL A   1      27.272  29.221  22.764  1.00  0.00    -0.166 F 
ATOM     20  F   UNL A   1      28.696  30.643  23.588  1.00  0.00    -0.166 F 
ATOM     21  F   UNL A   1      28.737  30.160  21.468  1.00  0.00    -0.166 F 
ENDBRANCH  17  18
ENDBRANCH   9  12
ENDBRANCH   4   6
ENDBRANCH   3   4
ENDBRANCH   2   3
ENDBRANCH   1   2
BRANCH   1  22
ATOM     22  O   UNL A   1      37.349  21.464  25.753  1.00  0.00    -0.458 OA
BRANCH  22  23
ATOM     23  C   UNL A   1      38.652  21.191  26.002  1.00  0.00     0.338 C 
ATOM     24  O   UNL A   1      39.246  20.159  25.739  1.00  0.00    -0.246 OA
BRANCH  23  25
ATOM     25  C   UNL A   1      39.331  22.395  26.508  1.00  0.00     0.060 A 
ATOM     26  C   UNL A   1      38.850  23.636  26.085  1.00  0.00     0.016 A 
ATOM     27  C   UNL A   1      40.462  22.315  27.321  1.00  0.00     0.016 A 
ATOM     28  C   UNL A   1      39.494  24.806  26.467  1.00  0.00     0.010 A 
ATOM     29  C   UNL A   1      41.111  23.494  27.707  1.00  0.00     0.010 A 
ATOM     30  C   UNL A   1      40.634  24.745  27.276  1.00  0.00    -0.014 A 
BRANCH  30  31
ATOM     31  C   UNL A   1      41.346  25.998  27.623  1.00  0.00     0.031 A 
ATOM     32  C   UNL A   1      40.646  27.051  28.432  1.00  0.00     0.074 A 
ATOM     33  C   UNL A   1      42.629  26.163  27.252  1.00  0.00     0.049 A 
ATOM     34  N   UNL A   1      41.058  28.244  28.773  1.00  0.00    -0.248 NA
ATOM     35  C   UNL A   1      39.301  26.712  28.920  1.00  0.00     0.031 C 
ATOM     36  C   UNL A   1      43.429  25.173  26.526  1.00  0.00     0.029 A 
ATOM     37  N   UNL A   1      43.489  27.215  27.438  1.00  0.00    -0.354 N 
ATOM     38  C   UNL A   1      40.020  28.808  29.509  1.00  0.00     0.074 A 
ATOM     39  C   UNL A   1      38.950  27.832  29.538  1.00  0.00     0.031 C 
ATOM     40  C   UNL A   1      44.663  25.666  26.334  1.00  0.00     0.029 A 
ATOM     41  C   UNL A   1      44.726  27.023  26.868  1.00  0.00     0.049 A 
ATOM     42  H   UNL A   1      43.243  28.030  27.932  1.00  0.00     0.167 HD
ATOM     43  C   UNL A   1      39.971  30.025  30.104  1.00  0.00     0.034 A 
ATOM     44  C   UNL A   1      45.776  27.861  26.760  1.00  0.00     0.034 A 
ATOM     45  C   UNL A   1      41.048  30.985  30.056  1.00  0.00     0.049 A 
ATOM     46  C   UNL A   1      45.660  29.245  27.347  1.00  0.00     0.074 A 
ATOM     47  C   UNL A   1      41.100  32.255  30.604  1.00  0.00     0.029 A 
ATOM     48  N   UNL A   1      42.267  30.781  29.419  1.00  0.00    -0.354 N 
ATOM     49  N   UNL A   1      44.657  29.784  28.001  1.00  0.00    -0.248 NA
ATOM     50  C   UNL A   1      46.817  30.133  27.179  1.00  0.00     0.031 C 
ATOM     51  C   UNL A   1      42.323  32.838  30.249  1.00  0.00     0.029 A 
ATOM     52  C   UNL A   1      43.064  31.908  29.538  1.00  0.00     0.049 A 
ATOM     53  H   UNL A   1      42.526  29.954  28.949  1.00  0.00     0.167 HD
ATOM     54  C   UNL A   1      45.073  31.068  28.341  1.00  0.00     0.074 A 
ATOM     55  C   UNL A   1      46.423  31.214  27.836  1.00  0.00     0.031 C 
ATOM     56  C   UNL A   1      44.404  32.038  29.015  1.00  0.00     0.034 A 
BRANCH  43  57
ATOM     57  C   UNL A   1      38.687  30.401  30.800  1.00  0.00     0.023 A 
ATOM     58  C   UNL A   1      37.642  31.057  30.126  1.00  0.00     0.031 A 
ATOM     59  C   UNL A   1      38.520  30.131  32.171  1.00  0.00     0.131 A 
ATOM     60  C   UNL A   1      36.507  31.479  30.836  1.00  0.00     0.055 A 
ATOM     61  C   UNL A   1      37.357  30.488  32.855  1.00  0.00     0.041 A 
ATOM     62  F   UNL A   1      39.493  29.527  32.871  1.00  0.00    -0.206 F 
ATOM     63  C   UNL A   1      36.347  31.178  32.192  1.00  0.00     0.022 A 
BRANCH  60  64
ATOM     64  S   UNL A   1      35.302  32.544  29.997  1.00  0.00     0.124 S 
ATOM     65  O   UNL A   1      36.136  33.678  29.605  1.00  0.00    -0.237 OA
ATOM     66  O   UNL A   1      34.830  31.692  28.913  1.00  0.00    -0.237 OA
ATOM     67  O   UNL A   1      34.318  32.834  31.037  1.00  0.00    -0.744 OA
ENDBRANCH  60  64
ENDBRANCH  43  57
BRANCH  44  68
ATOM     68  C   UNL A   1      47.002  27.446  26.022  1.00  0.00     0.023 A 
ATOM     69  C   UNL A   1      47.194  27.795  24.675  1.00  0.00     0.031 A 
ATOM     70  C   UNL A   1      47.980  26.647  26.641  1.00  0.00     0.131 A 
ATOM     71  C   UNL A   1      48.313  27.309  23.981  1.00  0.00     0.055 A 
ATOM     72  C   UNL A   1      49.118  26.211  25.961  1.00  0.00     0.041 A 
ATOM     73  F   UNL A   1      47.845  26.282  27.926  1.00  0.00    -0.206 F 
ATOM     74  C   UNL A   1      49.283  26.531  24.617  1.00  0.00     0.022 A 
BRANCH  71  75
ATOM     75  S   UNL A   1      48.440  27.638  22.201  1.00  0.00     0.124 S 
ATOM     76  O   UNL A   1      47.142  28.240  21.916  1.00  0.00    -0.237 OA
ATOM     77  O   UNL A   1      49.590  28.534  22.140  1.00  0.00    -0.237 OA
ATOM     78  O   UNL A   1      48.653  26.312  21.625  1.00  0.00    -0.744 OA
ENDBRANCH  71  75
ENDBRANCH  44  68
BRANCH  56  79
ATOM     79  C   UNL A   1      45.150  33.322  29.275  1.00  0.00     0.023 A 
ATOM     80  C   UNL A   1      45.040  34.428  28.414  1.00  0.00     0.031 A 
ATOM     81  C   UNL A   1      46.002  33.430  30.389  1.00  0.00     0.131 A 
ATOM     82  C   UNL A   1      45.811  35.576  28.651  1.00  0.00     0.055 A 
ATOM     83  C   UNL A   1      46.725  34.594  30.649  1.00  0.00     0.041 A 
ATOM     84  F   UNL A   1      46.144  32.402  31.240  1.00  0.00    -0.206 F 
ATOM     85  C   UNL A   1      46.641  35.671  29.772  1.00  0.00     0.022 A 
BRANCH  82  86
ATOM     86  S   UNL A   1      45.777  36.917  27.430  1.00  0.00     0.124 S 
ATOM     87  O   UNL A   1      45.458  38.075  28.260  1.00  0.00    -0.237 OA
ATOM     88  O   UNL A   1      47.129  36.877  26.884  1.00  0.00    -0.237 OA
ATOM     89  O   UNL A   1      44.723  36.511  26.503  1.00  0.00    -0.744 OA
ENDBRANCH  82  86
ENDBRANCH  56  79
ENDBRANCH  30  31
ENDBRANCH  23  25
ENDBRANCH  22  23
ENDBRANCH   1  22
TORSDOF 16
ENDMDL
