MODEL 1
REMARK VINA RESULT:     -11.5      0.000      0.000
REMARK SMILES CN(C)Nc1ncnc(Nc2ccc(C(=O)OCCOC(=O)c3ccc(-c4c5nc(c(-c6cc(S(=O)(=O)[O-])ccc6F)c6ccc([nH]6)c(-c6cc(S(=O)(=O)[O-])ccc6F)c6nc(c(-c7cc(S(=O)(=O)[O-])ccc7F)c7ccc4[nH]7)C=C6)C=C5)cc3)cc2)c1[N+](=O)[O-]
REMARK SMILES IDX 18 1 17 2 15 3 16 4 14 5 11 6 12 7 87 8 13 9 86 10 10 11
REMARK SMILES IDX 9 13 5 14 6 15 88 16 7 17 8 18 4 19 2 21 1 22 3 23 89 24
REMARK SMILES IDX 90 25 91 26 19 27 20 28 21 29 22 30 23 31 24 32 85 33 25 34
REMARK SMILES IDX 84 35 26 36 27 37 28 38 78 39 29 40 83 41 77 42 79 43 30 44
REMARK SMILES IDX 82 45 76 46 75 47 31 49 63 50 43 51 62 52 44 53 47 54 61 55
REMARK SMILES IDX 80 56 45 57 46 58 60 60 81 61 48 62 32 63 33 64 41 65 34 66
REMARK SMILES IDX 40 67 42 68 39 69 35 70 36 71 37 72 38 73 64 74 65 75 73 76
REMARK SMILES IDX 66 77 72 78 74 79 71 80 67 81 68 82 69 83 70 84 49 85 50 86
REMARK SMILES IDX 58 87 51 88 57 89 59 90 56 91 52 92 53 93 54 94 55 95
REMARK H PARENT 10 12 4 20 79 48 47 59
REMARK Flexibility Score: inf
ROOT
ATOM      1  C   UNL A   1      31.524  30.040  24.657  1.00  0.00     0.275 C 
ENDROOT
BRANCH   1   2
ATOM      2  O   UNL A   1      30.308  29.521  24.084  1.00  0.00    -0.458 OA
BRANCH   2   3
ATOM      3  C   UNL A   1      30.501  28.543  23.166  1.00  0.00     0.338 C 
ATOM      4  O   UNL A   1      30.182  28.568  21.990  1.00  0.00    -0.246 OA
BRANCH   3   5
ATOM      5  C   UNL A   1      31.201  27.394  23.764  1.00  0.00     0.060 A 
ATOM      6  C   UNL A   1      32.778  25.589  25.213  1.00  0.00     0.040 A 
ATOM      7  C   UNL A   1      31.549  26.011  25.721  1.00  0.00     0.027 A 
ATOM      8  C   UNL A   1      33.161  26.015  23.930  1.00  0.00     0.027 A 
ATOM      9  C   UNL A   1      30.777  26.922  25.008  1.00  0.00     0.018 A 
ATOM     10  C   UNL A   1      32.375  26.907  23.195  1.00  0.00     0.018 A 
BRANCH   6  11
ATOM     11  N   UNL A   1      33.654  24.909  26.078  1.00  0.00    -0.334 N 
ATOM     12  H   UNL A   1      33.940  25.396  26.885  1.00  0.00     0.168 HD
BRANCH  11  13
ATOM     13  C   UNL A   1      34.163  23.608  25.917  1.00  0.00     0.215 A 
ATOM     14  C   UNL A   1      33.985  21.246  26.037  1.00  0.00     0.225 A 
ATOM     15  N   UNL A   1      35.105  21.104  25.297  1.00  0.00    -0.212 NA
ATOM     16  C   UNL A   1      33.549  22.489  26.450  1.00  0.00     0.354 A 
ATOM     17  C   UNL A   1      35.707  22.227  24.904  1.00  0.00     0.227 A 
ATOM     18  N   UNL A   1      35.258  23.459  25.135  1.00  0.00    -0.212 NA
BRANCH  14  19
ATOM     19  N   UNL A   1      33.284  20.044  26.169  1.00  0.00    -0.298 N 
ATOM     20  H   UNL A   1      32.739  19.924  26.980  1.00  0.00     0.184 HD
BRANCH  19  21
ATOM     21  N   UNL A   1      33.297  18.981  25.227  1.00  0.00    -0.228 NA
ATOM     22  C   UNL A   1      32.663  17.758  25.750  1.00  0.00     0.130 C 
ATOM     23  C   UNL A   1      32.517  19.433  24.062  1.00  0.00     0.130 C 
ENDBRANCH  19  21
ENDBRANCH  14  19
BRANCH  16  24
ATOM     24  N   UNL A   1      32.572  22.611  27.495  1.00  0.00     0.070 N 
ATOM     25  O   UNL A   1      32.890  22.205  28.624  1.00  0.00    -0.258 OA
ATOM     26  O   UNL A   1      31.446  23.017  27.181  1.00  0.00    -0.258 OA
ENDBRANCH  16  24
ENDBRANCH  11  13
ENDBRANCH   6  11
ENDBRANCH   3   5
ENDBRANCH   2   3
ENDBRANCH   1   2
BRANCH   1  27
ATOM     27  C   UNL A   1      31.218  31.033  25.779  1.00  0.00     0.275 C 
BRANCH  27  28
ATOM     28  O   UNL A   1      32.061  30.772  26.915  1.00  0.00    -0.458 OA
BRANCH  28  29
ATOM     29  C   UNL A   1      32.890  31.780  27.272  1.00  0.00     0.338 C 
ATOM     30  O   UNL A   1      32.625  32.972  27.257  1.00  0.00    -0.246 OA
BRANCH  29  31
ATOM     31  C   UNL A   1      34.211  31.260  27.698  1.00  0.00     0.060 A 
ATOM     32  C   UNL A   1      34.509  29.900  27.649  1.00  0.00     0.016 A 
ATOM     33  C   UNL A   1      35.125  32.136  28.283  1.00  0.00     0.016 A 
ATOM     34  C   UNL A   1      35.628  29.399  28.322  1.00  0.00     0.010 A 
ATOM     35  C   UNL A   1      36.314  31.644  28.837  1.00  0.00     0.010 A 
ATOM     36  C   UNL A   1      36.556  30.260  28.926  1.00  0.00    -0.014 A 
BRANCH  36  37
ATOM     37  C   UNL A   1      37.728  29.740  29.705  1.00  0.00     0.031 A 
ATOM     38  C   UNL A   1      37.883  30.099  31.169  1.00  0.00     0.074 A 
ATOM     39  C   UNL A   1      38.660  28.945  29.137  1.00  0.00     0.049 A 
ATOM     40  N   UNL A   1      38.927  29.977  31.953  1.00  0.00    -0.248 NA
ATOM     41  C   UNL A   1      36.716  30.708  31.827  1.00  0.00     0.031 C 
ATOM     42  C   UNL A   1      38.646  28.466  27.754  1.00  0.00     0.029 A 
ATOM     43  N   UNL A   1      39.805  28.389  29.661  1.00  0.00    -0.354 N 
ATOM     44  C   UNL A   1      38.574  30.579  33.159  1.00  0.00     0.074 A 
ATOM     45  C   UNL A   1      37.217  31.057  33.003  1.00  0.00     0.031 C 
ATOM     46  C   UNL A   1      39.687  27.643  27.560  1.00  0.00     0.029 A 
ATOM     47  C   UNL A   1      40.508  27.616  28.764  1.00  0.00     0.049 A 
ATOM     48  H   UNL A   1      40.094  28.530  30.592  1.00  0.00     0.167 HD
ATOM     49  C   UNL A   1      39.316  30.728  34.287  1.00  0.00     0.034 A 
ATOM     50  C   UNL A   1      41.698  26.993  28.874  1.00  0.00     0.034 A 
ATOM     51  C   UNL A   1      40.633  30.164  34.469  1.00  0.00     0.049 A 
ATOM     52  C   UNL A   1      42.490  27.136  30.147  1.00  0.00     0.074 A 
ATOM     53  C   UNL A   1      41.461  30.240  35.576  1.00  0.00     0.029 A 
ATOM     54  N   UNL A   1      41.301  29.389  33.531  1.00  0.00    -0.354 N 
ATOM     55  N   UNL A   1      42.191  27.809  31.233  1.00  0.00    -0.248 NA
ATOM     56  C   UNL A   1      43.790  26.454  30.197  1.00  0.00     0.031 C 
ATOM     57  C   UNL A   1      42.644  29.544  35.294  1.00  0.00     0.029 A 
ATOM     58  C   UNL A   1      42.531  28.986  34.033  1.00  0.00     0.049 A 
ATOM     59  H   UNL A   1      40.955  29.159  32.639  1.00  0.00     0.167 HD
ATOM     60  C   UNL A   1      43.266  27.624  32.098  1.00  0.00     0.074 A 
ATOM     61  C   UNL A   1      44.205  26.757  31.417  1.00  0.00     0.031 C 
ATOM     62  C   UNL A   1      43.464  28.133  33.339  1.00  0.00     0.034 A 
BRANCH  49  63
ATOM     63  C   UNL A   1      38.746  31.592  35.387  1.00  0.00     0.023 A 
ATOM     64  C   UNL A   1      38.261  31.059  36.593  1.00  0.00     0.031 A 
ATOM     65  C   UNL A   1      38.664  32.985  35.205  1.00  0.00     0.131 A 
ATOM     66  C   UNL A   1      37.654  31.904  37.537  1.00  0.00     0.055 A 
ATOM     67  C   UNL A   1      38.130  33.829  36.179  1.00  0.00     0.041 A 
ATOM     68  F   UNL A   1      39.096  33.551  34.065  1.00  0.00    -0.206 F 
ATOM     69  C   UNL A   1      37.607  33.289  37.348  1.00  0.00     0.022 A 
BRANCH  66  70
ATOM     70  S   UNL A   1      36.805  31.157  38.954  1.00  0.00     0.124 S 
ATOM     71  O   UNL A   1      36.623  29.781  38.498  1.00  0.00    -0.237 OA
ATOM     72  O   UNL A   1      37.765  31.351  40.035  1.00  0.00    -0.237 OA
ATOM     73  O   UNL A   1      35.573  31.935  39.067  1.00  0.00    -0.744 OA
ENDBRANCH  66  70
ENDBRANCH  49  63
BRANCH  50  74
ATOM     74  C   UNL A   1      42.257  26.227  27.723  1.00  0.00     0.023 A 
ATOM     75  C   UNL A   1      41.887  24.892  27.495  1.00  0.00     0.031 A 
ATOM     76  C   UNL A   1      43.198  26.809  26.855  1.00  0.00     0.131 A 
ATOM     77  C   UNL A   1      42.480  24.172  26.446  1.00  0.00     0.055 A 
ATOM     78  C   UNL A   1      43.746  26.106  25.782  1.00  0.00     0.041 A 
ATOM     79  F   UNL A   1      43.586  28.082  27.030  1.00  0.00    -0.206 F 
ATOM     80  C   UNL A   1      43.395  24.775  25.580  1.00  0.00     0.022 A 
BRANCH  77  81
ATOM     81  S   UNL A   1      42.093  22.408  26.272  1.00  0.00     0.124 S 
ATOM     82  O   UNL A   1      42.731  22.087  24.999  1.00  0.00    -0.237 OA
ATOM     83  O   UNL A   1      42.717  21.842  27.463  1.00  0.00    -0.237 OA
ATOM     84  O   UNL A   1      40.633  22.379  26.262  1.00  0.00    -0.744 OA
ENDBRANCH  77  81
ENDBRANCH  50  74
BRANCH  62  85
ATOM     85  C   UNL A   1      44.730  27.723  34.044  1.00  0.00     0.023 A 
ATOM     86  C   UNL A   1      44.785  26.569  34.846  1.00  0.00     0.031 A 
ATOM     87  C   UNL A   1      45.883  28.521  33.946  1.00  0.00     0.131 A 
ATOM     88  C   UNL A   1      45.954  26.275  35.564  1.00  0.00     0.055 A 
ATOM     89  C   UNL A   1      47.058  28.198  34.627  1.00  0.00     0.041 A 
ATOM     90  F   UNL A   1      45.880  29.634  33.195  1.00  0.00    -0.206 F 
ATOM     91  C   UNL A   1      47.094  27.078  35.453  1.00  0.00     0.022 A 
BRANCH  88  92
ATOM     92  S   UNL A   1      45.937  24.880  36.725  1.00  0.00     0.124 S 
ATOM     93  O   UNL A   1      46.499  25.479  37.931  1.00  0.00    -0.237 OA
ATOM     94  O   UNL A   1      44.519  24.540  36.781  1.00  0.00    -0.237 OA
ATOM     95  O   UNL A   1      46.787  23.883  36.076  1.00  0.00    -0.744 OA
ENDBRANCH  88  92
ENDBRANCH  62  85
ENDBRANCH  36  37
ENDBRANCH  29  31
ENDBRANCH  28  29
ENDBRANCH  27  28
ENDBRANCH   1  27
TORSDOF 19
ENDMDL
MODEL 2
REMARK VINA RESULT:     -11.4      2.457      7.942
REMARK SMILES CN(C)Nc1ncnc(Nc2ccc(C(=O)OCCOC(=O)c3ccc(-c4c5nc(c(-c6cc(S(=O)(=O)[O-])ccc6F)c6ccc([nH]6)c(-c6cc(S(=O)(=O)[O-])ccc6F)c6nc(c(-c7cc(S(=O)(=O)[O-])ccc7F)c7ccc4[nH]7)C=C6)C=C5)cc3)cc2)c1[N+](=O)[O-]
REMARK SMILES IDX 18 1 17 2 15 3 16 4 14 5 11 6 12 7 87 8 13 9 86 10 10 11
REMARK SMILES IDX 9 13 5 14 6 15 88 16 7 17 8 18 4 19 2 21 1 22 3 23 89 24
REMARK SMILES IDX 90 25 91 26 19 27 20 28 21 29 22 30 23 31 24 32 85 33 25 34
REMARK SMILES IDX 84 35 26 36 27 37 28 38 78 39 29 40 83 41 77 42 79 43 30 44
REMARK SMILES IDX 82 45 76 46 75 47 31 49 63 50 43 51 62 52 44 53 47 54 61 55
REMARK SMILES IDX 80 56 45 57 46 58 60 60 81 61 48 62 32 63 33 64 41 65 34 66
REMARK SMILES IDX 40 67 42 68 39 69 35 70 36 71 37 72 38 73 64 74 65 75 73 76
REMARK SMILES IDX 66 77 72 78 74 79 71 80 67 81 68 82 69 83 70 84 49 85 50 86
REMARK SMILES IDX 58 87 51 88 57 89 59 90 56 91 52 92 53 93 54 94 55 95
REMARK H PARENT 10 12 4 20 79 48 47 59
REMARK Flexibility Score: inf
ROOT
ATOM      1  C   UNL A   1      31.783  29.597  24.515  1.00  0.00     0.275 C 
ENDROOT
BRANCH   1   2
ATOM      2  O   UNL A   1      30.456  29.727  23.968  1.00  0.00    -0.458 OA
BRANCH   2   3
ATOM      3  C   UNL A   1      30.310  29.187  22.734  1.00  0.00     0.338 C 
ATOM      4  O   UNL A   1      30.258  29.786  21.673  1.00  0.00    -0.246 OA
BRANCH   3   5
ATOM      5  C   UNL A   1      30.244  27.719  22.808  1.00  0.00     0.060 A 
ATOM      6  C   UNL A   1      30.418  24.988  23.408  1.00  0.00     0.040 A 
ATOM      7  C   UNL A   1      29.419  25.771  23.987  1.00  0.00     0.027 A 
ATOM      8  C   UNL A   1      31.270  25.574  22.456  1.00  0.00     0.027 A 
ATOM      9  C   UNL A   1      29.348  27.130  23.702  1.00  0.00     0.018 A 
ATOM     10  C   UNL A   1      31.183  26.934  22.143  1.00  0.00     0.018 A 
BRANCH   6  11
ATOM     11  N   UNL A   1      30.642  23.703  23.935  1.00  0.00    -0.334 N 
ATOM     12  H   UNL A   1      30.056  22.985  23.604  1.00  0.00     0.168 HD
BRANCH  11  13
ATOM     13  C   UNL A   1      31.614  23.335  24.883  1.00  0.00     0.215 A 
ATOM     14  C   UNL A   1      33.854  22.966  25.568  1.00  0.00     0.225 A 
ATOM     15  N   UNL A   1      33.468  22.897  26.860  1.00  0.00    -0.212 NA
ATOM     16  C   UNL A   1      32.932  23.081  24.548  1.00  0.00     0.354 A 
ATOM     17  C   UNL A   1      32.166  23.046  27.103  1.00  0.00     0.227 A 
ATOM     18  N   UNL A   1      31.240  23.313  26.184  1.00  0.00    -0.212 NA
BRANCH  14  19
ATOM     19  N   UNL A   1      35.242  23.071  25.437  1.00  0.00    -0.298 N 
ATOM     20  H   UNL A   1      35.632  23.973  25.461  1.00  0.00     0.184 HD
BRANCH  19  21
ATOM     21  N   UNL A   1      36.133  21.977  25.272  1.00  0.00    -0.228 NA
ATOM     22  C   UNL A   1      35.425  20.701  25.067  1.00  0.00     0.130 C 
ATOM     23  C   UNL A   1      36.928  22.253  24.062  1.00  0.00     0.130 C 
ENDBRANCH  19  21
ENDBRANCH  14  19
BRANCH  16  24
ATOM     24  N   UNL A   1      33.310  22.820  23.188  1.00  0.00     0.070 N 
ATOM     25  O   UNL A   1      34.169  23.559  22.682  1.00  0.00    -0.258 OA
ATOM     26  O   UNL A   1      32.683  21.944  22.578  1.00  0.00    -0.258 OA
ENDBRANCH  16  24
ENDBRANCH  11  13
ENDBRANCH   6  11
ENDBRANCH   3   5
ENDBRANCH   2   3
ENDBRANCH   1   2
BRANCH   1  27
ATOM     27  C   UNL A   1      31.873  30.258  25.891  1.00  0.00     0.275 C 
BRANCH  27  28
ATOM     28  O   UNL A   1      33.192  30.084  26.439  1.00  0.00    -0.458 OA
BRANCH  28  29
ATOM     29  C   UNL A   1      33.669  31.129  27.156  1.00  0.00     0.338 C 
ATOM     30  O   UNL A   1      33.111  32.200  27.329  1.00  0.00    -0.246 OA
BRANCH  29  31
ATOM     31  C   UNL A   1      35.000  30.819  27.728  1.00  0.00     0.060 A 
ATOM     32  C   UNL A   1      35.341  29.528  28.126  1.00  0.00     0.016 A 
ATOM     33  C   UNL A   1      35.881  31.867  27.996  1.00  0.00     0.016 A 
ATOM     34  C   UNL A   1      36.467  29.310  28.926  1.00  0.00     0.010 A 
ATOM     35  C   UNL A   1      37.079  31.622  28.680  1.00  0.00     0.010 A 
ATOM     36  C   UNL A   1      37.362  30.351  29.216  1.00  0.00    -0.014 A 
BRANCH  36  37
ATOM     37  C   UNL A   1      38.541  30.152  30.122  1.00  0.00     0.031 A 
ATOM     38  C   UNL A   1      39.706  29.296  29.670  1.00  0.00     0.074 A 
ATOM     39  C   UNL A   1      38.601  30.724  31.344  1.00  0.00     0.049 A 
ATOM     40  N   UNL A   1      40.691  28.788  30.371  1.00  0.00    -0.248 NA
ATOM     41  C   UNL A   1      39.748  28.937  28.244  1.00  0.00     0.031 C 
ATOM     42  C   UNL A   1      37.590  31.611  31.922  1.00  0.00     0.029 A 
ATOM     43  N   UNL A   1      39.566  30.650  32.323  1.00  0.00    -0.354 N 
ATOM     44  C   UNL A   1      41.408  27.975  29.494  1.00  0.00     0.074 A 
ATOM     45  C   UNL A   1      40.747  28.068  28.209  1.00  0.00     0.031 C 
ATOM     46  C   UNL A   1      38.015  32.047  33.118  1.00  0.00     0.029 A 
ATOM     47  C   UNL A   1      39.274  31.390  33.447  1.00  0.00     0.049 A 
ATOM     48  H   UNL A   1      40.389  30.118  32.227  1.00  0.00     0.167 HD
ATOM     49  C   UNL A   1      42.508  27.217  29.740  1.00  0.00     0.034 A 
ATOM     50  C   UNL A   1      39.916  31.498  34.627  1.00  0.00     0.034 A 
ATOM     51  C   UNL A   1      43.217  27.206  30.998  1.00  0.00     0.049 A 
ATOM     52  C   UNL A   1      41.156  30.679  34.869  1.00  0.00     0.074 A 
ATOM     53  C   UNL A   1      44.349  26.489  31.345  1.00  0.00     0.029 A 
ATOM     54  N   UNL A   1      42.882  27.973  32.105  1.00  0.00    -0.354 N 
ATOM     55  N   UNL A   1      41.751  29.827  34.068  1.00  0.00    -0.248 NA
ATOM     56  C   UNL A   1      41.796  30.821  36.183  1.00  0.00     0.031 C 
ATOM     57  C   UNL A   1      44.678  26.794  32.672  1.00  0.00     0.029 A 
ATOM     58  C   UNL A   1      43.783  27.744  33.135  1.00  0.00     0.049 A 
ATOM     59  H   UNL A   1      42.117  28.590  32.154  1.00  0.00     0.167 HD
ATOM     60  C   UNL A   1      42.841  29.337  34.783  1.00  0.00     0.074 A 
ATOM     61  C   UNL A   1      42.834  30.007  36.066  1.00  0.00     0.031 C 
ATOM     62  C   UNL A   1      43.758  28.408  34.415  1.00  0.00     0.034 A 
BRANCH  49  63
ATOM     63  C   UNL A   1      42.969  26.284  28.646  1.00  0.00     0.023 A 
ATOM     64  C   UNL A   1      44.154  26.496  27.921  1.00  0.00     0.031 A 
ATOM     65  C   UNL A   1      42.182  25.168  28.306  1.00  0.00     0.131 A 
ATOM     66  C   UNL A   1      44.480  25.647  26.850  1.00  0.00     0.055 A 
ATOM     67  C   UNL A   1      42.551  24.283  27.292  1.00  0.00     0.041 A 
ATOM     68  F   UNL A   1      41.030  24.923  28.952  1.00  0.00    -0.206 F 
ATOM     69  C   UNL A   1      43.699  24.529  26.546  1.00  0.00     0.022 A 
BRANCH  66  70
ATOM     70  S   UNL A   1      45.866  26.100  25.772  1.00  0.00     0.124 S 
ATOM     71  O   UNL A   1      45.514  25.411  24.533  1.00  0.00    -0.237 OA
ATOM     72  O   UNL A   1      45.780  27.556  25.742  1.00  0.00    -0.237 OA
ATOM     73  O   UNL A   1      47.033  25.559  26.467  1.00  0.00    -0.744 OA
ENDBRANCH  66  70
ENDBRANCH  49  63
BRANCH  50  74
ATOM     74  C   UNL A   1      39.365  32.366  35.709  1.00  0.00     0.023 A 
ATOM     75  C   UNL A   1      39.793  33.695  35.857  1.00  0.00     0.031 A 
ATOM     76  C   UNL A   1      38.429  31.865  36.631  1.00  0.00     0.131 A 
ATOM     77  C   UNL A   1      39.311  34.468  36.924  1.00  0.00     0.055 A 
ATOM     78  C   UNL A   1      37.914  32.654  37.660  1.00  0.00     0.041 A 
ATOM     79  F   UNL A   1      37.990  30.601  36.535  1.00  0.00    -0.206 F 
ATOM     80  C   UNL A   1      38.363  33.961  37.817  1.00  0.00     0.022 A 
BRANCH  77  81
ATOM     81  S   UNL A   1      39.995  36.129  37.175  1.00  0.00     0.124 S 
ATOM     82  O   UNL A   1      39.860  36.712  35.844  1.00  0.00    -0.237 OA
ATOM     83  O   UNL A   1      39.113  36.668  38.204  1.00  0.00    -0.237 OA
ATOM     84  O   UNL A   1      41.367  35.871  37.606  1.00  0.00    -0.744 OA
ENDBRANCH  77  81
ENDBRANCH  50  74
BRANCH  62  85
ATOM     85  C   UNL A   1      44.849  28.104  35.409  1.00  0.00     0.023 A 
ATOM     86  C   UNL A   1      44.725  27.059  36.341  1.00  0.00     0.031 A 
ATOM     87  C   UNL A   1      46.007  28.900  35.451  1.00  0.00     0.131 A 
ATOM     88  C   UNL A   1      45.718  26.871  37.313  1.00  0.00     0.055 A 
ATOM     89  C   UNL A   1      47.014  28.678  36.391  1.00  0.00     0.041 A 
ATOM     90  F   UNL A   1      46.172  29.911  34.583  1.00  0.00    -0.206 F 
ATOM     91  C   UNL A   1      46.867  27.668  37.338  1.00  0.00     0.022 A 
BRANCH  88  92
ATOM     92  S   UNL A   1      45.448  25.629  38.609  1.00  0.00     0.124 S 
ATOM     93  O   UNL A   1      44.372  24.823  38.039  1.00  0.00    -0.237 OA
ATOM     94  O   UNL A   1      46.753  24.982  38.696  1.00  0.00    -0.237 OA
ATOM     95  O   UNL A   1      45.073  26.425  39.775  1.00  0.00    -0.744 OA
ENDBRANCH  88  92
ENDBRANCH  62  85
ENDBRANCH  36  37
ENDBRANCH  29  31
ENDBRANCH  28  29
ENDBRANCH  27  28
ENDBRANCH   1  27
TORSDOF 19
ENDMDL
MODEL 3
REMARK VINA RESULT:     -11.3      5.005     10.409
REMARK SMILES CN(C)Nc1ncnc(Nc2ccc(C(=O)OCCOC(=O)c3ccc(-c4c5nc(c(-c6cc(S(=O)(=O)[O-])ccc6F)c6ccc([nH]6)c(-c6cc(S(=O)(=O)[O-])ccc6F)c6nc(c(-c7cc(S(=O)(=O)[O-])ccc7F)c7ccc4[nH]7)C=C6)C=C5)cc3)cc2)c1[N+](=O)[O-]
REMARK SMILES IDX 18 1 17 2 15 3 16 4 14 5 11 6 12 7 87 8 13 9 86 10 10 11
REMARK SMILES IDX 9 13 5 14 6 15 88 16 7 17 8 18 4 19 2 21 1 22 3 23 89 24
REMARK SMILES IDX 90 25 91 26 19 27 20 28 21 29 22 30 23 31 24 32 85 33 25 34
REMARK SMILES IDX 84 35 26 36 27 37 28 38 78 39 29 40 83 41 77 42 79 43 30 44
REMARK SMILES IDX 82 45 76 46 75 47 31 49 63 50 43 51 62 52 44 53 47 54 61 55
REMARK SMILES IDX 80 56 45 57 46 58 60 60 81 61 48 62 32 63 33 64 41 65 34 66
REMARK SMILES IDX 40 67 42 68 39 69 35 70 36 71 37 72 38 73 64 74 65 75 73 76
REMARK SMILES IDX 66 77 72 78 74 79 71 80 67 81 68 82 69 83 70 84 49 85 50 86
REMARK SMILES IDX 58 87 51 88 57 89 59 90 56 91 52 92 53 93 54 94 55 95
REMARK H PARENT 10 12 4 20 79 48 47 59
REMARK Flexibility Score: inf
ROOT
ATOM      1  C   UNL A   1      36.989  19.585  24.687  1.00  0.00     0.275 C 
ENDROOT
BRANCH   1   2
ATOM      2  O   UNL A   1      36.647  20.816  25.353  1.00  0.00    -0.458 OA
BRANCH   2   3
ATOM      3  C   UNL A   1      36.467  21.867  24.518  1.00  0.00     0.338 C 
ATOM      4  O   UNL A   1      37.182  22.195  23.586  1.00  0.00    -0.246 OA
BRANCH   3   5
ATOM      5  C   UNL A   1      35.234  22.598  24.853  1.00  0.00     0.060 A 
ATOM      6  C   UNL A   1      33.136  24.413  25.245  1.00  0.00     0.040 A 
ATOM      7  C   UNL A   1      33.236  23.705  24.048  1.00  0.00     0.027 A 
ATOM      8  C   UNL A   1      34.050  24.130  26.275  1.00  0.00     0.027 A 
ATOM      9  C   UNL A   1      34.290  22.819  23.848  1.00  0.00     0.018 A 
ATOM     10  C   UNL A   1      35.093  23.218  26.092  1.00  0.00     0.018 A 
BRANCH   6  11
ATOM     11  N   UNL A   1      32.245  25.499  25.301  1.00  0.00    -0.334 N 
ATOM     12  H   UNL A   1      31.403  25.352  25.788  1.00  0.00     0.168 HD
BRANCH  11  13
ATOM     13  C   UNL A   1      32.429  26.775  24.736  1.00  0.00     0.215 A 
ATOM     14  C   UNL A   1      31.845  28.520  23.241  1.00  0.00     0.225 A 
ATOM     15  N   UNL A   1      32.658  29.378  23.894  1.00  0.00    -0.212 NA
ATOM     16  C   UNL A   1      31.792  27.183  23.578  1.00  0.00     0.354 A 
ATOM     17  C   UNL A   1      33.325  28.890  24.939  1.00  0.00     0.227 A 
ATOM     18  N   UNL A   1      33.205  27.652  25.416  1.00  0.00    -0.212 NA
BRANCH  14  19
ATOM     19  N   UNL A   1      30.996  29.177  22.345  1.00  0.00    -0.298 N 
ATOM     20  H   UNL A   1      31.252  29.175  21.395  1.00  0.00     0.184 HD
BRANCH  19  21
ATOM     21  N   UNL A   1      29.794  29.845  22.697  1.00  0.00    -0.228 NA
ATOM     22  C   UNL A   1      29.314  30.740  21.630  1.00  0.00     0.130 C 
ATOM     23  C   UNL A   1      28.773  28.805  22.909  1.00  0.00     0.130 C 
ENDBRANCH  19  21
ENDBRANCH  14  19
BRANCH  16  24
ATOM     24  N   UNL A   1      31.198  26.227  22.687  1.00  0.00     0.070 N 
ATOM     25  O   UNL A   1      31.509  26.294  21.488  1.00  0.00    -0.258 OA
ATOM     26  O   UNL A   1      30.339  25.467  23.153  1.00  0.00    -0.258 OA
ENDBRANCH  16  24
ENDBRANCH  11  13
ENDBRANCH   6  11
ENDBRANCH   3   5
ENDBRANCH   2   3
ENDBRANCH   1   2
BRANCH   1  27
ATOM     27  C   UNL A   1      38.456  19.226  24.924  1.00  0.00     0.275 C 
BRANCH  27  28
ATOM     28  O   UNL A   1      38.880  19.705  26.213  1.00  0.00    -0.458 OA
BRANCH  28  29
ATOM     29  C   UNL A   1      40.195  20.012  26.319  1.00  0.00     0.338 C 
ATOM     30  O   UNL A   1      41.131  19.273  26.058  1.00  0.00    -0.246 OA
BRANCH  29  31
ATOM     31  C   UNL A   1      40.381  21.398  26.808  1.00  0.00     0.060 A 
ATOM     32  C   UNL A   1      39.607  22.451  26.328  1.00  0.00     0.016 A 
ATOM     33  C   UNL A   1      41.444  21.673  27.669  1.00  0.00     0.016 A 
ATOM     34  C   UNL A   1      39.988  23.775  26.571  1.00  0.00     0.010 A 
ATOM     35  C   UNL A   1      41.738  22.996  28.022  1.00  0.00     0.010 A 
ATOM     36  C   UNL A   1      41.058  24.075  27.426  1.00  0.00    -0.014 A 
BRANCH  36  37
ATOM     37  C   UNL A   1      41.520  25.485  27.651  1.00  0.00     0.031 A 
ATOM     38  C   UNL A   1      42.869  25.932  27.124  1.00  0.00     0.074 A 
ATOM     39  C   UNL A   1      40.760  26.383  28.312  1.00  0.00     0.049 A 
ATOM     40  N   UNL A   1      43.566  27.002  27.416  1.00  0.00    -0.248 NA
ATOM     41  C   UNL A   1      43.533  25.035  26.165  1.00  0.00     0.031 C 
ATOM     42  C   UNL A   1      39.420  26.138  28.849  1.00  0.00     0.029 A 
ATOM     43  N   UNL A   1      41.004  27.698  28.639  1.00  0.00    -0.354 N 
ATOM     44  C   UNL A   1      44.786  26.859  26.757  1.00  0.00     0.074 A 
ATOM     45  C   UNL A   1      44.726  25.601  26.043  1.00  0.00     0.031 C 
ATOM     46  C   UNL A   1      38.939  27.274  29.377  1.00  0.00     0.029 A 
ATOM     47  C   UNL A   1      39.970  28.303  29.319  1.00  0.00     0.049 A 
ATOM     48  H   UNL A   1      41.841  28.163  28.407  1.00  0.00     0.167 HD
ATOM     49  C   UNL A   1      45.858  27.693  26.754  1.00  0.00     0.034 A 
ATOM     50  C   UNL A   1      39.872  29.527  29.874  1.00  0.00     0.034 A 
ATOM     51  C   UNL A   1      45.874  28.990  27.389  1.00  0.00     0.049 A 
ATOM     52  C   UNL A   1      41.058  30.454  29.828  1.00  0.00     0.074 A 
ATOM     53  C   UNL A   1      46.900  29.919  27.431  1.00  0.00     0.029 A 
ATOM     54  N   UNL A   1      44.802  29.557  28.064  1.00  0.00    -0.354 N 
ATOM     55  N   UNL A   1      42.242  30.253  29.302  1.00  0.00    -0.248 NA
ATOM     56  C   UNL A   1      40.897  31.764  30.473  1.00  0.00     0.031 C 
ATOM     57  C   UNL A   1      46.462  31.031  28.162  1.00  0.00     0.029 A 
ATOM     58  C   UNL A   1      45.144  30.819  28.528  1.00  0.00     0.049 A 
ATOM     59  H   UNL A   1      43.927  29.127  28.196  1.00  0.00     0.167 HD
ATOM     60  C   UNL A   1      42.966  31.416  29.548  1.00  0.00     0.074 A 
ATOM     61  C   UNL A   1      42.077  32.322  30.245  1.00  0.00     0.031 C 
ATOM     62  C   UNL A   1      44.253  31.707  29.234  1.00  0.00     0.034 A 
BRANCH  49  63
ATOM     63  C   UNL A   1      47.125  27.196  26.101  1.00  0.00     0.023 A 
ATOM     64  C   UNL A   1      48.093  26.451  26.796  1.00  0.00     0.031 A 
ATOM     65  C   UNL A   1      47.379  27.506  24.751  1.00  0.00     0.131 A 
ATOM     66  C   UNL A   1      49.296  26.101  26.160  1.00  0.00     0.055 A 
ATOM     67  C   UNL A   1      48.542  27.089  24.102  1.00  0.00     0.041 A 
ATOM     68  F   UNL A   1      46.500  28.231  24.040  1.00  0.00    -0.206 F 
ATOM     69  C   UNL A   1      49.517  26.394  24.811  1.00  0.00     0.022 A 
BRANCH  66  70
ATOM     70  S   UNL A   1      50.626  25.375  27.155  1.00  0.00     0.124 S 
ATOM     71  O   UNL A   1      51.094  26.533  27.913  1.00  0.00    -0.237 OA
ATOM     72  O   UNL A   1      49.925  24.350  27.920  1.00  0.00    -0.237 OA
ATOM     73  O   UNL A   1      51.568  24.873  26.156  1.00  0.00    -0.744 OA
ENDBRANCH  66  70
ENDBRANCH  49  63
BRANCH  50  74
ATOM     74  C   UNL A   1      38.627  29.933  30.588  1.00  0.00     0.023 A 
ATOM     75  C   UNL A   1      37.640  30.696  29.943  1.00  0.00     0.031 A 
ATOM     76  C   UNL A   1      38.424  29.594  31.938  1.00  0.00     0.131 A 
ATOM     77  C   UNL A   1      36.510  31.123  30.658  1.00  0.00     0.055 A 
ATOM     78  C   UNL A   1      37.274  29.977  32.630  1.00  0.00     0.041 A 
ATOM     79  F   UNL A   1      39.338  28.868  32.601  1.00  0.00    -0.206 F 
ATOM     80  C   UNL A   1      36.314  30.756  31.991  1.00  0.00     0.022 A 
BRANCH  77  81
ATOM     81  S   UNL A   1      35.330  32.231  29.839  1.00  0.00     0.124 S 
ATOM     82  O   UNL A   1      34.444  32.590  30.942  1.00  0.00    -0.237 OA
ATOM     83  O   UNL A   1      36.202  33.291  29.346  1.00  0.00    -0.237 OA
ATOM     84  O   UNL A   1      34.731  31.388  28.808  1.00  0.00    -0.744 OA
ENDBRANCH  77  81
ENDBRANCH  50  74
BRANCH  62  85
ATOM     85  C   UNL A   1      44.749  33.078  29.613  1.00  0.00     0.023 A 
ATOM     86  C   UNL A   1      44.534  34.193  28.784  1.00  0.00     0.031 A 
ATOM     87  C   UNL A   1      45.482  33.261  30.798  1.00  0.00     0.131 A 
ATOM     88  C   UNL A   1      45.096  35.432  29.124  1.00  0.00     0.055 A 
ATOM     89  C   UNL A   1      45.999  34.507  31.155  1.00  0.00     0.041 A 
ATOM     90  F   UNL A   1      45.715  32.227  31.623  1.00  0.00    -0.206 F 
ATOM     91  C   UNL A   1      45.820  35.599  30.309  1.00  0.00     0.022 A 
BRANCH  88  92
ATOM     92  S   UNL A   1      44.951  36.809  27.949  1.00  0.00     0.124 S 
ATOM     93  O   UNL A   1      46.318  36.928  27.449  1.00  0.00    -0.237 OA
ATOM     94  O   UNL A   1      43.966  36.303  26.999  1.00  0.00    -0.237 OA
ATOM     95  O   UNL A   1      44.496  37.922  28.779  1.00  0.00    -0.744 OA
ENDBRANCH  88  92
ENDBRANCH  62  85
ENDBRANCH  36  37
ENDBRANCH  29  31
ENDBRANCH  28  29
ENDBRANCH  27  28
ENDBRANCH   1  27
TORSDOF 19
ENDMDL
