MODEL 1
REMARK VINA RESULT:     -12.0      0.000      0.000
REMARK SMILES NC(=O)C[C@@H](NC(=O)Cn1cnc2ccccc21)C(=O)OCCOC(=O)c1ccc(-c2c3nc(c(-c4cc(S(=O)(=O)[O-])ccc4F)c4ccc([nH]4)c(-c4cc(S(=O)(=O)[O-])ccc4F)c4nc(c(-c5cc(S(=O)(=O)[O-])ccc5F)c5ccc2[nH]5)C=C4)C=C3)cc1
REMARK SMILES IDX 22 1 21 2 19 3 20 4 5 5 4 6 2 7 1 8 3 11 6 12 7 13 8 15 9 16
REMARK SMILES IDX 10 17 11 18 18 19 12 20 13 21 17 22 14 23 16 24 15 25 23 26
REMARK SMILES IDX 24 27 25 28 26 29 27 30 28 31 89 32 29 33 88 34 30 35 31 36
REMARK SMILES IDX 32 37 82 38 33 39 87 40 81 41 83 42 34 43 86 44 80 45 79 46
REMARK SMILES IDX 35 48 67 49 47 50 66 51 48 52 51 53 65 54 84 55 49 56 50 57
REMARK SMILES IDX 64 59 85 60 52 61 36 62 37 63 45 64 38 65 44 66 46 67 43 68
REMARK SMILES IDX 39 69 40 70 41 71 42 72 68 73 69 74 77 75 70 76 76 77 78 78
REMARK SMILES IDX 75 79 71 80 72 81 73 82 74 83 53 84 54 85 62 86 55 87 61 88
REMARK SMILES IDX 63 89 60 90 56 91 57 92 58 93 59 94
REMARK H PARENT 1 9 1 10 6 14 83 47 51 58
REMARK Flexibility Score: inf
ROOT
ATOM      1  C   UNL A   1      34.097  21.438  24.653  1.00  0.00     0.274 C 
ENDROOT
BRANCH   1   2
ATOM      2  O   UNL A   1      34.552  22.800  24.815  1.00  0.00    -0.461 OA
BRANCH   2   3
ATOM      3  C   UNL A   1      34.597  23.568  23.694  1.00  0.00     0.329 C 
ATOM      4  O   UNL A   1      35.369  23.377  22.759  1.00  0.00    -0.250 OA
BRANCH   3   5
ATOM      5  C   UNL A   1      33.667  24.791  23.756  1.00  0.00     0.201 C 
BRANCH   5   6
ATOM      6  C   UNL A   1      34.047  25.919  24.721  1.00  0.00     0.136 C 
BRANCH   6   7
ATOM      7  C   UNL A   1      33.119  25.956  25.920  1.00  0.00     0.220 C 
ATOM      8  N   UNL A   1      32.413  24.819  26.170  1.00  0.00    -0.370 N 
ATOM      9  H   UNL A   1      31.794  24.783  26.935  1.00  0.00     0.159 HD
ATOM     10  H   UNL A   1      32.521  24.034  25.586  1.00  0.00     0.159 HD
ATOM     11  O   UNL A   1      33.001  26.945  26.633  1.00  0.00    -0.275 OA
ENDBRANCH   6   7
ENDBRANCH   5   6
BRANCH   5  12
ATOM     12  N   UNL A   1      33.129  25.243  22.456  1.00  0.00    -0.341 N 
ATOM     13  C   UNL A   1      31.936  25.754  22.054  1.00  0.00     0.240 C 
ATOM     14  H   UNL A   1      33.776  25.155  21.721  1.00  0.00     0.164 HD
ATOM     15  O   UNL A   1      31.796  25.963  20.847  1.00  0.00    -0.273 OA
BRANCH  13  16
ATOM     16  C   UNL A   1      30.826  26.097  23.017  1.00  0.00     0.223 C 
BRANCH  16  17
ATOM     17  N   UNL A   1      30.684  27.512  23.296  1.00  0.00    -0.321 N 
ATOM     18  C   UNL A   1      31.673  28.401  23.603  1.00  0.00     0.201 A 
ATOM     19  C   UNL A   1      29.497  28.207  23.271  1.00  0.00     0.068 A 
ATOM     20  N   UNL A   1      31.241  29.640  23.578  1.00  0.00    -0.237 NA
ATOM     21  C   UNL A   1      29.887  29.537  23.396  1.00  0.00     0.088 A 
ATOM     22  C   UNL A   1      28.161  27.815  23.144  1.00  0.00     0.028 A 
ATOM     23  C   UNL A   1      28.919  30.548  23.344  1.00  0.00     0.030 A 
ATOM     24  C   UNL A   1      27.203  28.835  23.150  1.00  0.00     0.002 A 
ATOM     25  C   UNL A   1      27.572  30.180  23.233  1.00  0.00     0.002 A 
ENDBRANCH  16  17
ENDBRANCH  13  16
ENDBRANCH   5  12
ENDBRANCH   3   5
ENDBRANCH   2   3
ENDBRANCH   1   2
BRANCH   1  26
ATOM     26  C   UNL A   1      35.159  20.447  25.135  1.00  0.00     0.275 C 
BRANCH  26  27
ATOM     27  O   UNL A   1      36.274  21.185  25.651  1.00  0.00    -0.458 OA
BRANCH  27  28
ATOM     28  C   UNL A   1      37.491  20.665  25.328  1.00  0.00     0.338 C 
ATOM     29  O   UNL A   1      37.698  19.763  24.553  1.00  0.00    -0.246 OA
BRANCH  28  30
ATOM     30  C   UNL A   1      38.523  21.622  25.813  1.00  0.00     0.060 A 
ATOM     31  C   UNL A   1      39.692  21.184  26.447  1.00  0.00     0.016 A 
ATOM     32  C   UNL A   1      38.176  22.976  25.839  1.00  0.00     0.016 A 
ATOM     33  C   UNL A   1      40.433  22.078  27.215  1.00  0.00     0.010 A 
ATOM     34  C   UNL A   1      38.924  23.869  26.603  1.00  0.00     0.010 A 
ATOM     35  C   UNL A   1      40.017  23.411  27.345  1.00  0.00    -0.014 A 
BRANCH  35  36
ATOM     36  C   UNL A   1      40.929  24.351  28.000  1.00  0.00     0.031 A 
ATOM     37  C   UNL A   1      40.278  25.663  28.204  1.00  0.00     0.074 A 
ATOM     38  C   UNL A   1      42.178  24.174  28.477  1.00  0.00     0.049 A 
ATOM     39  N   UNL A   1      40.501  26.742  27.533  1.00  0.00    -0.248 NA
ATOM     40  C   UNL A   1      39.126  25.725  29.110  1.00  0.00     0.031 C 
ATOM     41  C   UNL A   1      42.946  22.949  28.632  1.00  0.00     0.029 A 
ATOM     42  N   UNL A   1      43.013  25.113  29.015  1.00  0.00    -0.354 N 
ATOM     43  C   UNL A   1      39.616  27.682  28.041  1.00  0.00     0.074 A 
ATOM     44  C   UNL A   1      38.679  26.952  28.858  1.00  0.00     0.031 C 
ATOM     45  C   UNL A   1      44.008  23.170  29.446  1.00  0.00     0.029 A 
ATOM     46  C   UNL A   1      44.098  24.597  29.711  1.00  0.00     0.049 A 
ATOM     47  H   UNL A   1      42.857  26.080  28.916  1.00  0.00     0.167 HD
ATOM     48  C   UNL A   1      39.836  29.018  27.908  1.00  0.00     0.034 A 
ATOM     49  C   UNL A   1      44.991  25.292  30.464  1.00  0.00     0.034 A 
ATOM     50  C   UNL A   1      40.866  29.291  26.941  1.00  0.00     0.049 A 
ATOM     51  C   UNL A   1      44.952  26.710  30.039  1.00  0.00     0.074 A 
ATOM     52  C   UNL A   1      41.013  29.048  25.590  1.00  0.00     0.029 A 
ATOM     53  N   UNL A   1      42.125  29.579  27.411  1.00  0.00    -0.354 N 
ATOM     54  N   UNL A   1      45.425  27.146  28.907  1.00  0.00    -0.248 NA
ATOM     55  C   UNL A   1      44.004  27.590  30.703  1.00  0.00     0.031 C 
ATOM     56  C   UNL A   1      42.392  28.743  25.415  1.00  0.00     0.029 A 
ATOM     57  C   UNL A   1      43.020  28.863  26.657  1.00  0.00     0.049 A 
ATOM     58  H   UNL A   1      42.345  30.188  28.153  1.00  0.00     0.167 HD
ATOM     59  C   UNL A   1      44.496  28.086  28.491  1.00  0.00     0.074 A 
ATOM     60  C   UNL A   1      43.712  28.400  29.684  1.00  0.00     0.031 C 
ATOM     61  C   UNL A   1      44.258  28.309  27.165  1.00  0.00     0.034 A 
BRANCH  48  62
ATOM     62  C   UNL A   1      39.327  30.042  28.885  1.00  0.00     0.023 A 
ATOM     63  C   UNL A   1      38.159  30.797  28.662  1.00  0.00     0.031 A 
ATOM     64  C   UNL A   1      39.891  30.149  30.170  1.00  0.00     0.131 A 
ATOM     65  C   UNL A   1      37.621  31.631  29.643  1.00  0.00     0.055 A 
ATOM     66  C   UNL A   1      39.309  30.924  31.179  1.00  0.00     0.041 A 
ATOM     67  F   UNL A   1      40.993  29.458  30.500  1.00  0.00    -0.206 F 
ATOM     68  C   UNL A   1      38.170  31.676  30.918  1.00  0.00     0.022 A 
BRANCH  65  69
ATOM     69  S   UNL A   1      36.185  32.672  29.264  1.00  0.00     0.124 S 
ATOM     70  O   UNL A   1      35.219  32.225  30.261  1.00  0.00    -0.237 OA
ATOM     71  O   UNL A   1      36.729  34.012  29.462  1.00  0.00    -0.237 OA
ATOM     72  O   UNL A   1      35.873  32.332  27.878  1.00  0.00    -0.744 OA
ENDBRANCH  65  69
ENDBRANCH  48  62
BRANCH  49  73
ATOM     73  C   UNL A   1      45.549  24.913  31.783  1.00  0.00     0.023 A 
ATOM     74  C   UNL A   1      44.718  24.283  32.725  1.00  0.00     0.031 A 
ATOM     75  C   UNL A   1      46.755  25.467  32.254  1.00  0.00     0.131 A 
ATOM     76  C   UNL A   1      45.056  24.282  34.085  1.00  0.00     0.055 A 
ATOM     77  C   UNL A   1      47.103  25.446  33.611  1.00  0.00     0.041 A 
ATOM     78  F   UNL A   1      47.581  26.114  31.417  1.00  0.00    -0.206 F 
ATOM     79  C   UNL A   1      46.241  24.866  34.538  1.00  0.00     0.022 A 
BRANCH  76  80
ATOM     80  S   UNL A   1      43.901  23.602  35.306  1.00  0.00     0.124 S 
ATOM     81  O   UNL A   1      44.579  23.886  36.567  1.00  0.00    -0.237 OA
ATOM     82  O   UNL A   1      42.700  24.387  35.045  1.00  0.00    -0.237 OA
ATOM     83  O   UNL A   1      43.825  22.186  34.952  1.00  0.00    -0.744 OA
ENDBRANCH  76  80
ENDBRANCH  49  73
BRANCH  61  84
ATOM     84  C   UNL A   1      45.197  27.717  26.133  1.00  0.00     0.023 A 
ATOM     85  C   UNL A   1      45.062  26.344  25.861  1.00  0.00     0.031 A 
ATOM     86  C   UNL A   1      46.327  28.374  25.604  1.00  0.00     0.131 A 
ATOM     87  C   UNL A   1      46.048  25.661  25.138  1.00  0.00     0.055 A 
ATOM     88  C   UNL A   1      47.268  27.704  24.814  1.00  0.00     0.041 A 
ATOM     89  F   UNL A   1      46.606  29.650  25.904  1.00  0.00    -0.206 F 
ATOM     90  C   UNL A   1      47.142  26.337  24.595  1.00  0.00     0.022 A 
BRANCH  87  91
ATOM     91  S   UNL A   1      46.017  23.852  25.037  1.00  0.00     0.124 S 
ATOM     92  O   UNL A   1      46.596  23.462  26.320  1.00  0.00    -0.237 OA
ATOM     93  O   UNL A   1      44.591  23.576  24.884  1.00  0.00    -0.237 OA
ATOM     94  O   UNL A   1      46.833  23.549  23.866  1.00  0.00    -0.744 OA
ENDBRANCH  87  91
ENDBRANCH  61  84
ENDBRANCH  35  36
ENDBRANCH  28  30
ENDBRANCH  27  28
ENDBRANCH  26  27
ENDBRANCH   1  26
TORSDOF 19
ENDMDL
MODEL 2
REMARK VINA RESULT:     -11.9      1.516      2.228
REMARK SMILES NC(=O)C[C@@H](NC(=O)Cn1cnc2ccccc21)C(=O)OCCOC(=O)c1ccc(-c2c3nc(c(-c4cc(S(=O)(=O)[O-])ccc4F)c4ccc([nH]4)c(-c4cc(S(=O)(=O)[O-])ccc4F)c4nc(c(-c5cc(S(=O)(=O)[O-])ccc5F)c5ccc2[nH]5)C=C4)C=C3)cc1
REMARK SMILES IDX 22 1 21 2 19 3 20 4 5 5 4 6 2 7 1 8 3 11 6 12 7 13 8 15 9 16
REMARK SMILES IDX 10 17 11 18 18 19 12 20 13 21 17 22 14 23 16 24 15 25 23 26
REMARK SMILES IDX 24 27 25 28 26 29 27 30 28 31 89 32 29 33 88 34 30 35 31 36
REMARK SMILES IDX 32 37 82 38 33 39 87 40 81 41 83 42 34 43 86 44 80 45 79 46
REMARK SMILES IDX 35 48 67 49 47 50 66 51 48 52 51 53 65 54 84 55 49 56 50 57
REMARK SMILES IDX 64 59 85 60 52 61 36 62 37 63 45 64 38 65 44 66 46 67 43 68
REMARK SMILES IDX 39 69 40 70 41 71 42 72 68 73 69 74 77 75 70 76 76 77 78 78
REMARK SMILES IDX 75 79 71 80 72 81 73 82 74 83 53 84 54 85 62 86 55 87 61 88
REMARK SMILES IDX 63 89 60 90 56 91 57 92 58 93 59 94
REMARK H PARENT 1 9 1 10 6 14 83 47 51 58
REMARK Flexibility Score: inf
ROOT
ATOM      1  C   UNL A   1      34.358  21.201  24.737  1.00  0.00     0.274 C 
ENDROOT
BRANCH   1   2
ATOM      2  O   UNL A   1      34.725  22.599  24.782  1.00  0.00    -0.461 OA
BRANCH   2   3
ATOM      3  C   UNL A   1      34.524  23.322  23.648  1.00  0.00     0.329 C 
ATOM      4  O   UNL A   1      35.287  23.320  22.687  1.00  0.00    -0.250 OA
BRANCH   3   5
ATOM      5  C   UNL A   1      33.303  24.253  23.728  1.00  0.00     0.201 C 
BRANCH   5   6
ATOM      6  C   UNL A   1      32.392  24.328  22.499  1.00  0.00     0.136 C 
BRANCH   6   7
ATOM      7  C   UNL A   1      32.695  25.555  21.661  1.00  0.00     0.220 C 
ATOM      8  N   UNL A   1      31.688  26.003  20.861  1.00  0.00    -0.370 N 
ATOM      9  H   UNL A   1      31.825  26.795  20.294  1.00  0.00     0.159 HD
ATOM     10  H   UNL A   1      30.823  25.532  20.849  1.00  0.00     0.159 HD
ATOM     11  O   UNL A   1      33.779  26.125  21.692  1.00  0.00    -0.275 OA
ENDBRANCH   6   7
ENDBRANCH   5   6
BRANCH   5  12
ATOM     12  N   UNL A   1      32.595  24.258  25.025  1.00  0.00    -0.341 N 
ATOM     13  C   UNL A   1      31.974  25.218  25.758  1.00  0.00     0.240 C 
ATOM     14  H   UNL A   1      32.567  23.371  25.451  1.00  0.00     0.164 HD
ATOM     15  O   UNL A   1      31.537  24.883  26.862  1.00  0.00    -0.273 OA
BRANCH  13  16
ATOM     16  C   UNL A   1      31.778  26.629  25.261  1.00  0.00     0.223 C 
BRANCH  16  17
ATOM     17  N   UNL A   1      30.556  26.841  24.512  1.00  0.00    -0.321 N 
ATOM     18  C   UNL A   1      29.414  26.094  24.556  1.00  0.00     0.201 A 
ATOM     19  C   UNL A   1      30.340  27.873  23.628  1.00  0.00     0.068 A 
ATOM     20  N   UNL A   1      28.423  26.679  23.928  1.00  0.00    -0.237 NA
ATOM     21  C   UNL A   1      28.985  27.775  23.326  1.00  0.00     0.088 A 
ATOM     22  C   UNL A   1      31.169  28.861  23.088  1.00  0.00     0.028 A 
ATOM     23  C   UNL A   1      28.395  28.727  22.486  1.00  0.00     0.030 A 
ATOM     24  C   UNL A   1      30.574  29.771  22.208  1.00  0.00     0.002 A 
ATOM     25  C   UNL A   1      29.208  29.717  21.921  1.00  0.00     0.002 A 
ENDBRANCH  16  17
ENDBRANCH  13  16
ENDBRANCH   5  12
ENDBRANCH   3   5
ENDBRANCH   2   3
ENDBRANCH   1   2
BRANCH   1  26
ATOM     26  C   UNL A   1      35.597  20.309  24.833  1.00  0.00     0.275 C 
BRANCH  26  27
ATOM     27  O   UNL A   1      36.643  21.044  25.481  1.00  0.00    -0.458 OA
BRANCH  27  28
ATOM     28  C   UNL A   1      37.883  20.497  25.344  1.00  0.00     0.338 C 
ATOM     29  O   UNL A   1      38.165  19.523  24.690  1.00  0.00    -0.246 OA
BRANCH  28  30
ATOM     30  C   UNL A   1      38.865  21.499  25.842  1.00  0.00     0.060 A 
ATOM     31  C   UNL A   1      40.081  21.114  26.419  1.00  0.00     0.016 A 
ATOM     32  C   UNL A   1      38.430  22.824  25.941  1.00  0.00     0.016 A 
ATOM     33  C   UNL A   1      40.787  22.021  27.204  1.00  0.00     0.010 A 
ATOM     34  C   UNL A   1      39.143  23.731  26.724  1.00  0.00     0.010 A 
ATOM     35  C   UNL A   1      40.287  23.315  27.410  1.00  0.00    -0.014 A 
BRANCH  35  36
ATOM     36  C   UNL A   1      41.157  24.285  28.079  1.00  0.00     0.031 A 
ATOM     37  C   UNL A   1      40.470  25.585  28.242  1.00  0.00     0.074 A 
ATOM     38  C   UNL A   1      42.393  24.143  28.600  1.00  0.00     0.049 A 
ATOM     39  N   UNL A   1      40.691  26.659  27.563  1.00  0.00    -0.248 NA
ATOM     40  C   UNL A   1      39.288  25.634  29.109  1.00  0.00     0.031 C 
ATOM     41  C   UNL A   1      43.182  22.938  28.798  1.00  0.00     0.029 A 
ATOM     42  N   UNL A   1      43.188  25.109  29.150  1.00  0.00    -0.354 N 
ATOM     43  C   UNL A   1      39.770  27.586  28.027  1.00  0.00     0.074 A 
ATOM     44  C   UNL A   1      38.822  26.847  28.824  1.00  0.00     0.031 C 
ATOM     45  C   UNL A   1      44.211  23.195  29.642  1.00  0.00     0.029 A 
ATOM     46  C   UNL A   1      44.261  24.628  29.889  1.00  0.00     0.049 A 
ATOM     47  H   UNL A   1      43.014  26.071  29.031  1.00  0.00     0.167 HD
ATOM     48  C   UNL A   1      39.964  28.925  27.881  1.00  0.00     0.034 A 
ATOM     49  C   UNL A   1      45.113  25.353  30.660  1.00  0.00     0.034 A 
ATOM     50  C   UNL A   1      41.019  29.207  26.944  1.00  0.00     0.049 A 
ATOM     51  C   UNL A   1      45.057  26.764  30.212  1.00  0.00     0.074 A 
ATOM     52  C   UNL A   1      41.216  28.947  25.603  1.00  0.00     0.029 A 
ATOM     53  N   UNL A   1      42.256  29.530  27.450  1.00  0.00    -0.354 N 
ATOM     54  N   UNL A   1      45.558  27.194  29.089  1.00  0.00    -0.248 NA
ATOM     55  C   UNL A   1      44.069  27.631  30.832  1.00  0.00     0.031 C 
ATOM     56  C   UNL A   1      42.607  28.671  25.477  1.00  0.00     0.029 A 
ATOM     57  C   UNL A   1      43.190  28.824  26.736  1.00  0.00     0.049 A 
ATOM     58  H   UNL A   1      42.437  30.154  28.189  1.00  0.00     0.167 HD
ATOM     59  C   UNL A   1      44.623  28.106  28.629  1.00  0.00     0.074 A 
ATOM     60  C   UNL A   1      43.792  28.420  29.791  1.00  0.00     0.031 C 
ATOM     61  C   UNL A   1      44.424  28.305  27.293  1.00  0.00     0.034 A 
BRANCH  48  62
ATOM     62  C   UNL A   1      39.401  29.951  28.825  1.00  0.00     0.023 A 
ATOM     63  C   UNL A   1      40.138  30.484  29.901  1.00  0.00     0.031 A 
ATOM     64  C   UNL A   1      38.171  30.576  28.554  1.00  0.00     0.131 A 
ATOM     65  C   UNL A   1      39.654  31.542  30.674  1.00  0.00     0.055 A 
ATOM     66  C   UNL A   1      37.720  31.686  29.278  1.00  0.00     0.041 A 
ATOM     67  F   UNL A   1      37.395  30.163  27.539  1.00  0.00    -0.206 F 
ATOM     68  C   UNL A   1      38.460  32.172  30.349  1.00  0.00     0.022 A 
BRANCH  65  69
ATOM     69  S   UNL A   1      40.588  32.111  32.120  1.00  0.00     0.124 S 
ATOM     70  O   UNL A   1      40.859  33.502  31.772  1.00  0.00    -0.237 OA
ATOM     71  O   UNL A   1      39.625  31.901  33.197  1.00  0.00    -0.237 OA
ATOM     72  O   UNL A   1      41.748  31.224  32.149  1.00  0.00    -0.744 OA
ENDBRANCH  65  69
ENDBRANCH  48  62
BRANCH  49  73
ATOM     73  C   UNL A   1      45.636  25.006  32.002  1.00  0.00     0.023 A 
ATOM     74  C   UNL A   1      44.755  24.499  32.972  1.00  0.00     0.031 A 
ATOM     75  C   UNL A   1      46.882  25.487  32.449  1.00  0.00     0.131 A 
ATOM     76  C   UNL A   1      45.089  24.548  34.333  1.00  0.00     0.055 A 
ATOM     77  C   UNL A   1      47.224  25.515  33.808  1.00  0.00     0.041 A 
ATOM     78  F   UNL A   1      47.760  26.017  31.583  1.00  0.00    -0.206 F 
ATOM     79  C   UNL A   1      46.316  25.060  34.759  1.00  0.00     0.022 A 
BRANCH  76  80
ATOM     80  S   UNL A   1      43.879  24.034  35.582  1.00  0.00     0.124 S 
ATOM     81  O   UNL A   1      43.195  25.287  35.886  1.00  0.00    -0.237 OA
ATOM     82  O   UNL A   1      43.095  23.049  34.846  1.00  0.00    -0.237 OA
ATOM     83  O   UNL A   1      44.710  23.506  36.663  1.00  0.00    -0.744 OA
ENDBRANCH  76  80
ENDBRANCH  49  73
BRANCH  61  84
ATOM     84  C   UNL A   1      45.408  27.720  26.302  1.00  0.00     0.023 A 
ATOM     85  C   UNL A   1      45.198  26.386  25.905  1.00  0.00     0.031 A 
ATOM     86  C   UNL A   1      46.628  28.321  25.929  1.00  0.00     0.131 A 
ATOM     87  C   UNL A   1      46.195  25.684  25.217  1.00  0.00     0.055 A 
ATOM     88  C   UNL A   1      47.587  27.639  25.172  1.00  0.00     0.041 A 
ATOM     89  F   UNL A   1      46.971  29.544  26.358  1.00  0.00    -0.206 F 
ATOM     90  C   UNL A   1      47.382  26.308  24.829  1.00  0.00     0.022 A 
BRANCH  87  91
ATOM     91  S   UNL A   1      46.041  23.896  24.963  1.00  0.00     0.124 S 
ATOM     92  O   UNL A   1      46.962  23.662  23.854  1.00  0.00    -0.237 OA
ATOM     93  O   UNL A   1      46.469  23.363  26.254  1.00  0.00    -0.237 OA
ATOM     94  O   UNL A   1      44.628  23.701  24.654  1.00  0.00    -0.744 OA
ENDBRANCH  87  91
ENDBRANCH  61  84
ENDBRANCH  35  36
ENDBRANCH  28  30
ENDBRANCH  27  28
ENDBRANCH  26  27
ENDBRANCH   1  26
TORSDOF 19
ENDMDL
MODEL 3
REMARK VINA RESULT:     -11.7      5.115      9.670
REMARK SMILES NC(=O)C[C@@H](NC(=O)Cn1cnc2ccccc21)C(=O)OCCOC(=O)c1ccc(-c2c3nc(c(-c4cc(S(=O)(=O)[O-])ccc4F)c4ccc([nH]4)c(-c4cc(S(=O)(=O)[O-])ccc4F)c4nc(c(-c5cc(S(=O)(=O)[O-])ccc5F)c5ccc2[nH]5)C=C4)C=C3)cc1
REMARK SMILES IDX 22 1 21 2 19 3 20 4 5 5 4 6 2 7 1 8 3 11 6 12 7 13 8 15 9 16
REMARK SMILES IDX 10 17 11 18 18 19 12 20 13 21 17 22 14 23 16 24 15 25 23 26
REMARK SMILES IDX 24 27 25 28 26 29 27 30 28 31 89 32 29 33 88 34 30 35 31 36
REMARK SMILES IDX 32 37 82 38 33 39 87 40 81 41 83 42 34 43 86 44 80 45 79 46
REMARK SMILES IDX 35 48 67 49 47 50 66 51 48 52 51 53 65 54 84 55 49 56 50 57
REMARK SMILES IDX 64 59 85 60 52 61 36 62 37 63 45 64 38 65 44 66 46 67 43 68
REMARK SMILES IDX 39 69 40 70 41 71 42 72 68 73 69 74 77 75 70 76 76 77 78 78
REMARK SMILES IDX 75 79 71 80 72 81 73 82 74 83 53 84 54 85 62 86 55 87 61 88
REMARK SMILES IDX 63 89 60 90 56 91 57 92 58 93 59 94
REMARK H PARENT 1 9 1 10 6 14 83 47 51 58
REMARK Flexibility Score: inf
ROOT
ATOM      1  C   UNL A   1      34.461  34.787  29.008  1.00  0.00     0.274 C 
ENDROOT
BRANCH   1   2
ATOM      2  O   UNL A   1      33.544  34.340  30.032  1.00  0.00    -0.461 OA
BRANCH   2   3
ATOM      3  C   UNL A   1      34.092  33.810  31.157  1.00  0.00     0.329 C 
ATOM      4  O   UNL A   1      34.443  32.639  31.265  1.00  0.00    -0.250 OA
BRANCH   3   5
ATOM      5  C   UNL A   1      34.120  34.790  32.342  1.00  0.00     0.201 C 
BRANCH   5   6
ATOM      6  C   UNL A   1      32.990  35.821  32.432  1.00  0.00     0.136 C 
BRANCH   6   7
ATOM      7  C   UNL A   1      33.391  37.137  31.793  1.00  0.00     0.220 C 
ATOM      8  N   UNL A   1      34.330  37.867  32.457  1.00  0.00    -0.370 N 
ATOM      9  H   UNL A   1      34.630  38.730  32.092  1.00  0.00     0.159 HD
ATOM     10  H   UNL A   1      34.707  37.532  33.302  1.00  0.00     0.159 HD
ATOM     11  O   UNL A   1      32.909  37.534  30.740  1.00  0.00    -0.275 OA
ENDBRANCH   6   7
ENDBRANCH   5   6
BRANCH   5  12
ATOM     12  N   UNL A   1      34.532  34.207  33.636  1.00  0.00    -0.341 N 
ATOM     13  C   UNL A   1      35.698  34.180  34.331  1.00  0.00     0.240 C 
ATOM     14  H   UNL A   1      33.800  33.736  34.094  1.00  0.00     0.164 HD
ATOM     15  O   UNL A   1      35.711  33.524  35.375  1.00  0.00    -0.273 OA
BRANCH  13  16
ATOM     16  C   UNL A   1      36.930  34.935  33.894  1.00  0.00     0.223 C 
BRANCH  16  17
ATOM     17  N   UNL A   1      38.079  34.100  33.606  1.00  0.00    -0.321 N 
ATOM     18  C   UNL A   1      38.691  33.212  34.442  1.00  0.00     0.201 A 
ATOM     19  C   UNL A   1      38.739  34.054  32.400  1.00  0.00     0.068 A 
ATOM     20  N   UNL A   1      39.557  32.460  33.806  1.00  0.00    -0.237 NA
ATOM     21  C   UNL A   1      39.617  32.984  32.541  1.00  0.00     0.088 A 
ATOM     22  C   UNL A   1      38.649  34.814  31.229  1.00  0.00     0.028 A 
ATOM     23  C   UNL A   1      40.419  32.602  31.459  1.00  0.00     0.030 A 
ATOM     24  C   UNL A   1      39.498  34.452  30.177  1.00  0.00     0.002 A 
ATOM     25  C   UNL A   1      40.359  33.357  30.281  1.00  0.00     0.002 A 
ENDBRANCH  16  17
ENDBRANCH  13  16
ENDBRANCH   5  12
ENDBRANCH   3   5
ENDBRANCH   2   3
ENDBRANCH   1   2
BRANCH   1  26
ATOM     26  C   UNL A   1      34.314  33.942  27.740  1.00  0.00     0.275 C 
BRANCH  26  27
ATOM     27  O   UNL A   1      35.412  33.023  27.671  1.00  0.00    -0.458 OA
BRANCH  27  28
ATOM     28  C   UNL A   1      35.107  31.753  28.059  1.00  0.00     0.338 C 
ATOM     29  O   UNL A   1      34.004  31.264  28.096  1.00  0.00    -0.246 OA
BRANCH  28  30
ATOM     30  C   UNL A   1      36.380  30.982  28.082  1.00  0.00     0.060 A 
ATOM     31  C   UNL A   1      36.432  29.636  27.699  1.00  0.00     0.016 A 
ATOM     32  C   UNL A   1      37.470  31.569  28.733  1.00  0.00     0.016 A 
ATOM     33  C   UNL A   1      37.515  28.853  28.086  1.00  0.00     0.010 A 
ATOM     34  C   UNL A   1      38.556  30.782  29.114  1.00  0.00     0.010 A 
ATOM     35  C   UNL A   1      38.552  29.409  28.848  1.00  0.00    -0.014 A 
BRANCH  35  36
ATOM     36  C   UNL A   1      39.753  28.599  29.064  1.00  0.00     0.031 A 
ATOM     37  C   UNL A   1      40.154  28.617  30.487  1.00  0.00     0.074 A 
ATOM     38  C   UNL A   1      40.457  27.829  28.209  1.00  0.00     0.049 A 
ATOM     39  N   UNL A   1      41.148  29.264  30.996  1.00  0.00    -0.248 NA
ATOM     40  C   UNL A   1      39.241  28.017  31.466  1.00  0.00     0.031 C 
ATOM     41  C   UNL A   1      40.148  27.439  26.843  1.00  0.00     0.029 A 
ATOM     42  N   UNL A   1      41.619  27.151  28.451  1.00  0.00    -0.354 N 
ATOM     43  C   UNL A   1      41.083  29.026  32.361  1.00  0.00     0.074 A 
ATOM     44  C   UNL A   1      39.796  28.424  32.604  1.00  0.00     0.031 C 
ATOM     45  C   UNL A   1      40.942  26.407  26.467  1.00  0.00     0.029 A 
ATOM     46  C   UNL A   1      41.943  26.193  27.500  1.00  0.00     0.049 A 
ATOM     47  H   UNL A   1      42.183  27.329  29.239  1.00  0.00     0.167 HD
ATOM     48  C   UNL A   1      42.173  29.164  33.164  1.00  0.00     0.034 A 
ATOM     49  C   UNL A   1      42.948  25.281  27.568  1.00  0.00     0.034 A 
ATOM     50  C   UNL A   1      43.236  29.868  32.498  1.00  0.00     0.049 A 
ATOM     51  C   UNL A   1      43.950  25.767  28.544  1.00  0.00     0.074 A 
ATOM     52  C   UNL A   1      43.370  31.131  31.958  1.00  0.00     0.029 A 
ATOM     53  N   UNL A   1      44.267  29.124  31.973  1.00  0.00    -0.354 N 
ATOM     54  N   UNL A   1      44.751  26.772  28.329  1.00  0.00    -0.248 NA
ATOM     55  C   UNL A   1      43.777  25.390  29.937  1.00  0.00     0.031 C 
ATOM     56  C   UNL A   1      44.175  30.958  30.797  1.00  0.00     0.029 A 
ATOM     57  C   UNL A   1      44.527  29.609  30.717  1.00  0.00     0.049 A 
ATOM     58  H   UNL A   1      44.733  28.380  32.418  1.00  0.00     0.167 HD
ATOM     59  C   UNL A   1      44.788  27.441  29.541  1.00  0.00     0.074 A 
ATOM     60  C   UNL A   1      44.269  26.486  30.519  1.00  0.00     0.031 C 
ATOM     61  C   UNL A   1      44.961  28.794  29.600  1.00  0.00     0.034 A 
BRANCH  48  62
ATOM     62  C   UNL A   1      42.367  28.384  34.436  1.00  0.00     0.023 A 
ATOM     63  C   UNL A   1      42.619  26.999  34.451  1.00  0.00     0.031 A 
ATOM     64  C   UNL A   1      42.506  29.048  35.669  1.00  0.00     0.131 A 
ATOM     65  C   UNL A   1      42.946  26.321  35.628  1.00  0.00     0.055 A 
ATOM     66  C   UNL A   1      42.908  28.384  36.833  1.00  0.00     0.041 A 
ATOM     67  F   UNL A   1      42.309  30.371  35.767  1.00  0.00    -0.206 F 
ATOM     68  C   UNL A   1      43.125  27.011  36.820  1.00  0.00     0.022 A 
BRANCH  65  69
ATOM     69  S   UNL A   1      43.143  24.519  35.613  1.00  0.00     0.124 S 
ATOM     70  O   UNL A   1      44.097  24.313  36.697  1.00  0.00    -0.237 OA
ATOM     71  O   UNL A   1      41.779  24.069  35.872  1.00  0.00    -0.237 OA
ATOM     72  O   UNL A   1      43.639  24.240  34.268  1.00  0.00    -0.744 OA
ENDBRANCH  65  69
ENDBRANCH  48  62
BRANCH  49  73
ATOM     73  C   UNL A   1      42.898  23.850  27.185  1.00  0.00     0.023 A 
ATOM     74  C   UNL A   1      43.887  23.333  26.331  1.00  0.00     0.031 A 
ATOM     75  C   UNL A   1      41.724  23.089  27.350  1.00  0.00     0.131 A 
ATOM     76  C   UNL A   1      43.665  22.143  25.624  1.00  0.00     0.055 A 
ATOM     77  C   UNL A   1      41.513  21.889  26.659  1.00  0.00     0.041 A 
ATOM     78  F   UNL A   1      40.723  23.538  28.124  1.00  0.00    -0.206 F 
ATOM     79  C   UNL A   1      42.481  21.420  25.776  1.00  0.00     0.022 A 
BRANCH  76  80
ATOM     80  S   UNL A   1      44.885  21.570  24.410  1.00  0.00     0.124 S 
ATOM     81  O   UNL A   1      46.149  21.892  25.065  1.00  0.00    -0.237 OA
ATOM     82  O   UNL A   1      44.566  20.151  24.318  1.00  0.00    -0.237 OA
ATOM     83  O   UNL A   1      44.585  22.369  23.223  1.00  0.00    -0.744 OA
ENDBRANCH  76  80
ENDBRANCH  49  73
BRANCH  61  84
ATOM     84  C   UNL A   1      45.378  29.543  28.351  1.00  0.00     0.023 A 
ATOM     85  C   UNL A   1      46.752  29.800  28.189  1.00  0.00     0.031 A 
ATOM     86  C   UNL A   1      44.490  30.191  27.468  1.00  0.00     0.131 A 
ATOM     87  C   UNL A   1      47.196  30.709  27.221  1.00  0.00     0.055 A 
ATOM     88  C   UNL A   1      44.946  31.037  26.450  1.00  0.00     0.041 A 
ATOM     89  F   UNL A   1      43.161  30.104  27.614  1.00  0.00    -0.206 F 
ATOM     90  C   UNL A   1      46.303  31.315  26.336  1.00  0.00     0.022 A 
BRANCH  87  91
ATOM     91  S   UNL A   1      48.925  31.254  27.207  1.00  0.00     0.124 S 
ATOM     92  O   UNL A   1      48.839  32.532  26.505  1.00  0.00    -0.237 OA
ATOM     93  O   UNL A   1      49.232  31.342  28.633  1.00  0.00    -0.237 OA
ATOM     94  O   UNL A   1      49.625  30.193  26.490  1.00  0.00    -0.744 OA
ENDBRANCH  87  91
ENDBRANCH  61  84
ENDBRANCH  35  36
ENDBRANCH  28  30
ENDBRANCH  27  28
ENDBRANCH  26  27
ENDBRANCH   1  26
TORSDOF 19
ENDMDL
