MODEL 1
REMARK VINA RESULT:     -13.5      0.000      0.000
REMARK SMILES O=C(NC(=S)Nc1ccccc1C(=O)OCCOC(=O)c1ccc(-c2c3nc(c(-c4cc(S(=O)(=O)[O-])ccc4F)c4ccc([nH]4)c(-c4cc(S(=O)(=O)[O-])ccc4F)c4nc(c(-c5cc(S(=O)(=O)[O-])ccc5F)c5ccc2[nH]5)C=C4)C=C3)cc1)c1ccc2ccccc2c1
REMARK SMILES IDX 16 1 15 2 13 3 14 4 12 5 7 6 8 7 9 8 11 9 10 10 6 11 4 13
REMARK SMILES IDX 5 14 3 15 1 16 2 17 84 19 85 20 93 21 86 22 92 23 87 24
REMARK SMILES IDX 91 25 88 26 90 27 89 28 17 29 18 30 19 31 20 32 21 33 22 34
REMARK SMILES IDX 83 35 23 36 82 37 24 38 25 39 26 40 76 41 27 42 81 43 75 44
REMARK SMILES IDX 77 45 28 46 80 47 74 48 73 49 29 51 61 52 41 53 60 54 42 55
REMARK SMILES IDX 45 56 59 57 78 58 43 59 44 60 58 62 79 63 46 64 30 65 31 66
REMARK SMILES IDX 39 67 32 68 38 69 40 70 37 71 33 72 34 73 35 74 36 75 62 76
REMARK SMILES IDX 63 77 71 78 64 79 70 80 72 81 69 82 65 83 66 84 67 85 68 86
REMARK SMILES IDX 47 87 48 88 56 89 49 90 55 91 57 92 54 93 50 94 51 95 52 96
REMARK SMILES IDX 53 97
REMARK H PARENT 6 12 3 18 77 50 45 61
REMARK Flexibility Score: inf
ROOT
ATOM      1  C   UNL A   1      31.511  29.280  24.963  1.00  0.00     0.275 C 
ENDROOT
BRANCH   1   2
ATOM      2  O   UNL A   1      32.521  29.339  23.923  1.00  0.00    -0.458 OA
BRANCH   2   3
ATOM      3  C   UNL A   1      32.334  28.395  22.978  1.00  0.00     0.340 C 
ATOM      4  O   UNL A   1      33.241  27.855  22.356  1.00  0.00    -0.246 OA
BRANCH   3   5
ATOM      5  C   UNL A   1      30.939  28.127  22.536  1.00  0.00     0.083 A 
ATOM      6  C   UNL A   1      30.009  26.676  23.493  1.00  0.00     0.055 A 
ATOM      7  C   UNL A   1      28.037  26.846  23.864  1.00  0.00     0.027 A 
ATOM      8  C   UNL A   1      27.280  28.537  23.167  1.00  0.00     0.002 A 
ATOM      9  C   UNL A   1      30.175  29.831  21.886  1.00  0.00     0.018 A 
ATOM     10  C   UNL A   1      28.204  29.993  22.219  1.00  0.00     0.001 A 
BRANCH   6  11
ATOM     11  N   UNL A   1      30.734  25.962  24.464  1.00  0.00    -0.332 N 
ATOM     12  H   UNL A   1      31.259  26.486  25.111  1.00  0.00     0.169 HD
BRANCH  11  13
ATOM     13  C   UNL A   1      30.769  24.613  24.583  1.00  0.00     0.177 C 
ATOM     14  S   UNL A   1      31.369  23.719  23.299  1.00  0.00    -0.040 S 
BRANCH  13  15
ATOM     15  N   UNL A   1      30.265  23.926  25.685  1.00  0.00    -0.299 N 
ATOM     16  O   UNL A   1      29.682  22.962  27.667  1.00  0.00    -0.269 OA
ATOM     17  C   UNL A   1      30.602  23.241  26.895  1.00  0.00     0.257 C 
ATOM     18  H   UNL A   1      29.285  23.903  25.595  1.00  0.00     0.172 HD
BRANCH  17  19
ATOM     19  C   UNL A   1      31.979  22.905  27.376  1.00  0.00     0.040 A 
ATOM     20  C   UNL A   1      32.935  23.459  26.737  1.00  0.00     0.014 A 
ATOM     21  C   UNL A   1      33.068  22.430  26.790  1.00  0.00     0.022 A 
ATOM     22  C   UNL A   1      34.714  23.452  25.741  1.00  0.00     0.009 A 
ATOM     23  C   UNL A   1      34.862  22.136  25.786  1.00  0.00    -0.018 A 
ATOM     24  C   UNL A   1      35.772  22.888  25.341  1.00  0.00    -0.018 A 
ATOM     25  C   UNL A   1      35.803  20.912  25.234  1.00  0.00     0.009 A 
ATOM     26  C   UNL A   1      37.177  23.011  25.653  1.00  0.00     0.009 A 
ATOM     27  C   UNL A   1      37.206  20.847  24.924  1.00  0.00     0.001 A 
ATOM     28  C   UNL A   1      37.938  21.945  25.282  1.00  0.00     0.001 A 
ENDBRANCH  17  19
ENDBRANCH  13  15
ENDBRANCH  11  13
ENDBRANCH   6  11
ENDBRANCH   3   5
ENDBRANCH   2   3
ENDBRANCH   1   2
BRANCH   1  29
ATOM     29  C   UNL A   1      31.507  30.489  25.907  1.00  0.00     0.275 C 
BRANCH  29  30
ATOM     30  O   UNL A   1      32.420  30.336  27.009  1.00  0.00    -0.458 OA
BRANCH  30  31
ATOM     31  C   UNL A   1      33.106  31.459  27.319  1.00  0.00     0.338 C 
ATOM     32  O   UNL A   1      32.653  32.591  27.400  1.00  0.00    -0.246 OA
BRANCH  31  33
ATOM     33  C   UNL A   1      34.520  31.175  27.609  1.00  0.00     0.060 A 
ATOM     34  C   UNL A   1      34.893  29.891  27.978  1.00  0.00     0.016 A 
ATOM     35  C   UNL A   1      35.415  32.226  27.786  1.00  0.00     0.016 A 
ATOM     36  C   UNL A   1      36.054  29.686  28.710  1.00  0.00     0.010 A 
ATOM     37  C   UNL A   1      36.669  31.977  28.356  1.00  0.00     0.010 A 
ATOM     38  C   UNL A   1      36.983  30.712  28.885  1.00  0.00    -0.014 A 
BRANCH  38  39
ATOM     39  C   UNL A   1      38.243  30.465  29.645  1.00  0.00     0.031 A 
ATOM     40  C   UNL A   1      39.306  29.568  29.064  1.00  0.00     0.074 A 
ATOM     41  C   UNL A   1      38.447  31.044  30.848  1.00  0.00     0.049 A 
ATOM     42  N   UNL A   1      40.316  28.988  29.657  1.00  0.00    -0.248 NA
ATOM     43  C   UNL A   1      39.197  29.259  27.629  1.00  0.00     0.031 C 
ATOM     44  C   UNL A   1      37.552  32.008  31.496  1.00  0.00     0.029 A 
ATOM     45  N   UNL A   1      39.475  30.906  31.749  1.00  0.00    -0.354 N 
ATOM     46  C   UNL A   1      40.912  28.179  28.693  1.00  0.00     0.074 A 
ATOM     47  C   UNL A   1      40.144  28.345  27.477  1.00  0.00     0.031 C 
ATOM     48  C   UNL A   1      38.088  32.409  32.654  1.00  0.00     0.029 A 
ATOM     49  C   UNL A   1      39.273  31.610  32.917  1.00  0.00     0.049 A 
ATOM     50  H   UNL A   1      40.275  30.360  31.578  1.00  0.00     0.167 HD
ATOM     51  C   UNL A   1      41.990  27.368  28.827  1.00  0.00     0.034 A 
ATOM     52  C   UNL A   1      39.902  31.554  34.105  1.00  0.00     0.034 A 
ATOM     53  C   UNL A   1      42.757  27.265  30.048  1.00  0.00     0.049 A 
ATOM     54  C   UNL A   1      41.039  30.586  34.263  1.00  0.00     0.074 A 
ATOM     55  C   UNL A   1      43.877  26.494  30.300  1.00  0.00     0.029 A 
ATOM     56  N   UNL A   1      42.481  27.958  31.222  1.00  0.00    -0.354 N 
ATOM     57  N   UNL A   1      41.545  29.758  33.377  1.00  0.00    -0.248 NA
ATOM     58  C   UNL A   1      41.681  30.532  35.579  1.00  0.00     0.031 C 
ATOM     59  C   UNL A   1      44.221  26.649  31.648  1.00  0.00     0.029 A 
ATOM     60  C   UNL A   1      43.385  27.600  32.211  1.00  0.00     0.049 A 
ATOM     61  H   UNL A   1      41.750  28.608  31.334  1.00  0.00     0.167 HD
ATOM     62  C   UNL A   1      42.585  29.102  34.025  1.00  0.00     0.074 A 
ATOM     63  C   UNL A   1      42.641  29.644  35.369  1.00  0.00     0.031 C 
ATOM     64  C   UNL A   1      43.420  28.143  33.551  1.00  0.00     0.034 A 
BRANCH  51  65
ATOM     65  C   UNL A   1      42.345  26.468  27.663  1.00  0.00     0.023 A 
ATOM     66  C   UNL A   1      41.924  25.129  27.585  1.00  0.00     0.031 A 
ATOM     67  C   UNL A   1      43.161  26.956  26.625  1.00  0.00     0.131 A 
ATOM     68  C   UNL A   1      42.390  24.307  26.547  1.00  0.00     0.055 A 
ATOM     69  C   UNL A   1      43.543  26.160  25.543  1.00  0.00     0.041 A 
ATOM     70  F   UNL A   1      43.621  28.218  26.651  1.00  0.00    -0.206 F 
ATOM     71  C   UNL A   1      43.172  24.820  25.510  1.00  0.00     0.022 A 
BRANCH  68  72
ATOM     72  S   UNL A   1      42.106  22.519  26.665  1.00  0.00     0.124 S 
ATOM     73  O   UNL A   1      43.172  22.111  27.578  1.00  0.00    -0.237 OA
ATOM     74  O   UNL A   1      40.751  22.448  27.196  1.00  0.00    -0.237 OA
ATOM     75  O   UNL A   1      42.264  22.054  25.289  1.00  0.00    -0.744 OA
ENDBRANCH  68  72
ENDBRANCH  51  65
BRANCH  52  76
ATOM     76  C   UNL A   1      39.401  32.362  35.257  1.00  0.00     0.023 A 
ATOM     77  C   UNL A   1      39.891  33.651  35.507  1.00  0.00     0.031 A 
ATOM     78  C   UNL A   1      38.425  31.849  36.133  1.00  0.00     0.131 A 
ATOM     79  C   UNL A   1      39.428  34.371  36.619  1.00  0.00     0.055 A 
ATOM     80  C   UNL A   1      37.916  32.596  37.196  1.00  0.00     0.041 A 
ATOM     81  F   UNL A   1      37.925  30.616  35.949  1.00  0.00    -0.206 F 
ATOM     82  C   UNL A   1      38.428  33.863  37.450  1.00  0.00     0.022 A 
BRANCH  79  83
ATOM     83  S   UNL A   1      40.222  35.951  37.019  1.00  0.00     0.124 S 
ATOM     84  O   UNL A   1      39.759  36.799  35.926  1.00  0.00    -0.237 OA
ATOM     85  O   UNL A   1      39.669  36.243  38.337  1.00  0.00    -0.237 OA
ATOM     86  O   UNL A   1      41.648  35.630  37.000  1.00  0.00    -0.744 OA
ENDBRANCH  79  83
ENDBRANCH  52  76
BRANCH  64  87
ATOM     87  C   UNL A   1      44.510  27.669  34.480  1.00  0.00     0.023 A 
ATOM     88  C   UNL A   1      44.251  26.785  35.540  1.00  0.00     0.031 A 
ATOM     89  C   UNL A   1      45.828  28.129  34.308  1.00  0.00     0.131 A 
ATOM     90  C   UNL A   1      45.282  26.440  36.426  1.00  0.00     0.055 A 
ATOM     91  C   UNL A   1      46.865  27.719  35.144  1.00  0.00     0.041 A 
ATOM     92  F   UNL A   1      46.130  28.985  33.317  1.00  0.00    -0.206 F 
ATOM     93  C   UNL A   1      46.591  26.881  36.221  1.00  0.00     0.022 A 
BRANCH  90  94
ATOM     94  S   UNL A   1      44.865  25.504  37.923  1.00  0.00     0.124 S 
ATOM     95  O   UNL A   1      43.839  26.346  38.528  1.00  0.00    -0.237 OA
ATOM     96  O   UNL A   1      44.405  24.231  37.376  1.00  0.00    -0.237 OA
ATOM     97  O   UNL A   1      46.130  25.443  38.653  1.00  0.00    -0.744 OA
ENDBRANCH  90  94
ENDBRANCH  64  87
ENDBRANCH  38  39
ENDBRANCH  31  33
ENDBRANCH  30  31
ENDBRANCH  29  30
ENDBRANCH   1  29
TORSDOF 18
ENDMDL
MODEL 2
REMARK VINA RESULT:     -12.9      2.109      3.115
REMARK SMILES O=C(NC(=S)Nc1ccccc1C(=O)OCCOC(=O)c1ccc(-c2c3nc(c(-c4cc(S(=O)(=O)[O-])ccc4F)c4ccc([nH]4)c(-c4cc(S(=O)(=O)[O-])ccc4F)c4nc(c(-c5cc(S(=O)(=O)[O-])ccc5F)c5ccc2[nH]5)C=C4)C=C3)cc1)c1ccc2ccccc2c1
REMARK SMILES IDX 16 1 15 2 13 3 14 4 12 5 7 6 8 7 9 8 11 9 10 10 6 11 4 13
REMARK SMILES IDX 5 14 3 15 1 16 2 17 84 19 85 20 93 21 86 22 92 23 87 24
REMARK SMILES IDX 91 25 88 26 90 27 89 28 17 29 18 30 19 31 20 32 21 33 22 34
REMARK SMILES IDX 83 35 23 36 82 37 24 38 25 39 26 40 76 41 27 42 81 43 75 44
REMARK SMILES IDX 77 45 28 46 80 47 74 48 73 49 29 51 61 52 41 53 60 54 42 55
REMARK SMILES IDX 45 56 59 57 78 58 43 59 44 60 58 62 79 63 46 64 30 65 31 66
REMARK SMILES IDX 39 67 32 68 38 69 40 70 37 71 33 72 34 73 35 74 36 75 62 76
REMARK SMILES IDX 63 77 71 78 64 79 70 80 72 81 69 82 65 83 66 84 67 85 68 86
REMARK SMILES IDX 47 87 48 88 56 89 49 90 55 91 57 92 54 93 50 94 51 95 52 96
REMARK SMILES IDX 53 97
REMARK H PARENT 6 12 3 18 77 50 45 61
REMARK Flexibility Score: inf
ROOT
ATOM      1  C   UNL A   1      31.545  29.412  25.632  1.00  0.00     0.275 C 
ENDROOT
BRANCH   1   2
ATOM      2  O   UNL A   1      31.904  28.282  26.469  1.00  0.00    -0.458 OA
BRANCH   2   3
ATOM      3  C   UNL A   1      31.589  27.104  25.894  1.00  0.00     0.340 C 
ATOM      4  O   UNL A   1      30.766  26.316  26.345  1.00  0.00    -0.246 OA
BRANCH   3   5
ATOM      5  C   UNL A   1      32.421  26.650  24.747  1.00  0.00     0.083 A 
ATOM      6  C   UNL A   1      33.392  24.957  25.019  1.00  0.00     0.055 A 
ATOM      7  C   UNL A   1      33.620  23.692  23.469  1.00  0.00     0.027 A 
ATOM      8  C   UNL A   1      32.796  24.379  21.805  1.00  0.00     0.002 A 
ATOM      9  C   UNL A   1      31.565  27.301  23.088  1.00  0.00     0.018 A 
ATOM     10  C   UNL A   1      31.818  26.064  21.529  1.00  0.00     0.001 A 
BRANCH   6  11
ATOM     11  N   UNL A   1      33.288  24.337  26.278  1.00  0.00    -0.332 N 
ATOM     12  H   UNL A   1      32.526  24.593  26.845  1.00  0.00     0.169 HD
BRANCH  11  13
ATOM     13  C   UNL A   1      34.150  23.417  26.773  1.00  0.00     0.177 C 
ATOM     14  S   UNL A   1      33.538  22.203  27.752  1.00  0.00    -0.040 S 
BRANCH  13  15
ATOM     15  N   UNL A   1      35.527  23.469  26.572  1.00  0.00    -0.299 N 
ATOM     16  O   UNL A   1      37.709  23.530  25.912  1.00  0.00    -0.269 OA
ATOM     17  C   UNL A   1      36.621  22.960  25.803  1.00  0.00     0.257 C 
ATOM     18  H   UNL A   1      35.896  24.115  27.217  1.00  0.00     0.172 HD
BRANCH  17  19
ATOM     19  C   UNL A   1      36.565  21.852  24.797  1.00  0.00     0.040 A 
ATOM     20  C   UNL A   1      35.418  21.317  24.632  1.00  0.00     0.014 A 
ATOM     21  C   UNL A   1      36.140  20.598  24.832  1.00  0.00     0.022 A 
ATOM     22  C   UNL A   1      34.144  19.732  24.488  1.00  0.00     0.009 A 
ATOM     23  C   UNL A   1      35.065  18.822  24.772  1.00  0.00    -0.018 A 
ATOM     24  C   UNL A   1      33.899  18.493  24.418  1.00  0.00    -0.018 A 
ATOM     25  C   UNL A   1      35.265  17.224  25.085  1.00  0.00     0.009 A 
ATOM     26  C   UNL A   1      33.405  17.605  23.392  1.00  0.00     0.009 A 
ATOM     27  C   UNL A   1      34.566  16.062  24.610  1.00  0.00     0.001 A 
ATOM     28  C   UNL A   1      33.663  16.286  23.608  1.00  0.00     0.001 A 
ENDBRANCH  17  19
ENDBRANCH  13  15
ENDBRANCH  11  13
ENDBRANCH   6  11
ENDBRANCH   3   5
ENDBRANCH   2   3
ENDBRANCH   1   2
BRANCH   1  29
ATOM     29  C   UNL A   1      31.909  30.777  26.228  1.00  0.00     0.275 C 
BRANCH  29  30
ATOM     30  O   UNL A   1      32.734  30.669  27.402  1.00  0.00    -0.458 OA
BRANCH  30  31
ATOM     31  C   UNL A   1      33.524  31.744  27.624  1.00  0.00     0.338 C 
ATOM     32  O   UNL A   1      33.167  32.911  27.683  1.00  0.00    -0.246 OA
BRANCH  31  33
ATOM     33  C   UNL A   1      34.926  31.357  27.846  1.00  0.00     0.060 A 
ATOM     34  C   UNL A   1      35.221  30.051  28.211  1.00  0.00     0.016 A 
ATOM     35  C   UNL A   1      35.904  32.340  27.968  1.00  0.00     0.016 A 
ATOM     36  C   UNL A   1      36.400  29.766  28.886  1.00  0.00     0.010 A 
ATOM     37  C   UNL A   1      37.164  32.002  28.477  1.00  0.00     0.010 A 
ATOM     38  C   UNL A   1      37.409  30.722  29.003  1.00  0.00    -0.014 A 
BRANCH  38  39
ATOM     39  C   UNL A   1      38.685  30.387  29.701  1.00  0.00     0.031 A 
ATOM     40  C   UNL A   1      39.663  29.435  29.062  1.00  0.00     0.074 A 
ATOM     41  C   UNL A   1      38.978  30.935  30.900  1.00  0.00     0.049 A 
ATOM     42  N   UNL A   1      40.661  28.785  29.602  1.00  0.00    -0.248 NA
ATOM     43  C   UNL A   1      39.471  29.154  27.630  1.00  0.00     0.031 C 
ATOM     44  C   UNL A   1      38.174  31.943  31.600  1.00  0.00     0.029 A 
ATOM     45  N   UNL A   1      40.035  30.722  31.752  1.00  0.00    -0.354 N 
ATOM     46  C   UNL A   1      41.161  27.955  28.602  1.00  0.00     0.074 A 
ATOM     47  C   UNL A   1      40.352  28.185  27.425  1.00  0.00     0.031 C 
ATOM     48  C   UNL A   1      38.786  32.293  32.737  1.00  0.00     0.029 A 
ATOM     49  C   UNL A   1      39.930  31.419  32.935  1.00  0.00     0.049 A 
ATOM     50  H   UNL A   1      40.792  30.130  31.538  1.00  0.00     0.167 HD
ATOM     51  C   UNL A   1      42.193  27.078  28.678  1.00  0.00     0.034 A 
ATOM     52  C   UNL A   1      40.607  31.309  34.093  1.00  0.00     0.034 A 
ATOM     53  C   UNL A   1      43.005  26.910  29.861  1.00  0.00     0.049 A 
ATOM     54  C   UNL A   1      41.688  30.270  34.188  1.00  0.00     0.074 A 
ATOM     55  C   UNL A   1      44.086  26.069  30.053  1.00  0.00     0.029 A 
ATOM     56  N   UNL A   1      42.826  27.603  31.054  1.00  0.00    -0.354 N 
ATOM     57  N   UNL A   1      42.101  29.426  33.270  1.00  0.00    -0.248 NA
ATOM     58  C   UNL A   1      42.384  30.158  35.473  1.00  0.00     0.031 C 
ATOM     59  C   UNL A   1      44.499  26.183  31.385  1.00  0.00     0.029 A 
ATOM     60  C   UNL A   1      43.749  27.175  31.996  1.00  0.00     0.049 A 
ATOM     61  H   UNL A   1      42.142  28.294  31.207  1.00  0.00     0.167 HD
ATOM     62  C   UNL A   1      43.127  28.698  33.862  1.00  0.00     0.074 A 
ATOM     63  C   UNL A   1      43.276  29.216  35.208  1.00  0.00     0.031 C 
ATOM     64  C   UNL A   1      43.879  27.696  33.340  1.00  0.00     0.034 A 
BRANCH  51  65
ATOM     65  C   UNL A   1      42.438  26.174  27.489  1.00  0.00     0.023 A 
ATOM     66  C   UNL A   1      41.966  24.851  27.432  1.00  0.00     0.031 A 
ATOM     67  C   UNL A   1      43.200  26.641  26.401  1.00  0.00     0.131 A 
ATOM     68  C   UNL A   1      42.334  24.021  26.361  1.00  0.00     0.055 A 
ATOM     69  C   UNL A   1      43.482  25.840  25.293  1.00  0.00     0.041 A 
ATOM     70  F   UNL A   1      43.704  27.886  26.403  1.00  0.00    -0.206 F 
ATOM     71  C   UNL A   1      43.063  24.514  25.278  1.00  0.00     0.022 A 
BRANCH  68  72
ATOM     72  S   UNL A   1      41.996  22.242  26.490  1.00  0.00     0.124 S 
ATOM     73  O   UNL A   1      40.539  22.227  26.610  1.00  0.00    -0.237 OA
ATOM     74  O   UNL A   1      42.538  21.726  25.239  1.00  0.00    -0.237 OA
ATOM     75  O   UNL A   1      42.717  21.843  27.697  1.00  0.00    -0.744 OA
ENDBRANCH  68  72
ENDBRANCH  51  65
BRANCH  52  76
ATOM     76  C   UNL A   1      40.209  32.129  35.276  1.00  0.00     0.023 A 
ATOM     77  C   UNL A   1      39.263  31.662  36.198  1.00  0.00     0.031 A 
ATOM     78  C   UNL A   1      40.769  33.403  35.496  1.00  0.00     0.131 A 
ATOM     79  C   UNL A   1      38.882  32.472  37.278  1.00  0.00     0.055 A 
ATOM     80  C   UNL A   1      40.439  34.175  36.611  1.00  0.00     0.041 A 
ATOM     81  F   UNL A   1      41.674  33.907  34.642  1.00  0.00    -0.206 F 
ATOM     82  C   UNL A   1      39.480  33.713  37.505  1.00  0.00     0.022 A 
BRANCH  79  83
ATOM     83  S   UNL A   1      37.520  31.917  38.338  1.00  0.00     0.124 S 
ATOM     84  O   UNL A   1      38.122  32.003  39.663  1.00  0.00    -0.237 OA
ATOM     85  O   UNL A   1      36.483  32.898  38.039  1.00  0.00    -0.237 OA
ATOM     86  O   UNL A   1      37.248  30.562  37.862  1.00  0.00    -0.744 OA
ENDBRANCH  79  83
ENDBRANCH  52  76
BRANCH  64  87
ATOM     87  C   UNL A   1      44.978  27.143  34.213  1.00  0.00     0.023 A 
ATOM     88  C   UNL A   1      44.756  26.080  35.103  1.00  0.00     0.031 A 
ATOM     89  C   UNL A   1      46.265  27.707  34.161  1.00  0.00     0.131 A 
ATOM     90  C   UNL A   1      45.789  25.657  35.953  1.00  0.00     0.055 A 
ATOM     91  C   UNL A   1      47.309  27.229  34.951  1.00  0.00     0.041 A 
ATOM     92  F   UNL A   1      46.531  28.733  33.335  1.00  0.00    -0.206 F 
ATOM     93  C   UNL A   1      47.070  26.208  35.866  1.00  0.00     0.022 A 
BRANCH  90  94
ATOM     94  S   UNL A   1      45.403  24.460  37.260  1.00  0.00     0.124 S 
ATOM     95  O   UNL A   1      45.489  23.193  36.542  1.00  0.00    -0.237 OA
ATOM     96  O   UNL A   1      46.459  24.714  38.236  1.00  0.00    -0.237 OA
ATOM     97  O   UNL A   1      44.059  24.842  37.688  1.00  0.00    -0.744 OA
ENDBRANCH  90  94
ENDBRANCH  64  87
ENDBRANCH  38  39
ENDBRANCH  31  33
ENDBRANCH  30  31
ENDBRANCH  29  30
ENDBRANCH   1  29
TORSDOF 18
ENDMDL
MODEL 3
REMARK VINA RESULT:     -12.3      2.599      3.340
REMARK SMILES O=C(NC(=S)Nc1ccccc1C(=O)OCCOC(=O)c1ccc(-c2c3nc(c(-c4cc(S(=O)(=O)[O-])ccc4F)c4ccc([nH]4)c(-c4cc(S(=O)(=O)[O-])ccc4F)c4nc(c(-c5cc(S(=O)(=O)[O-])ccc5F)c5ccc2[nH]5)C=C4)C=C3)cc1)c1ccc2ccccc2c1
REMARK SMILES IDX 16 1 15 2 13 3 14 4 12 5 7 6 8 7 9 8 11 9 10 10 6 11 4 13
REMARK SMILES IDX 5 14 3 15 1 16 2 17 84 19 85 20 93 21 86 22 92 23 87 24
REMARK SMILES IDX 91 25 88 26 90 27 89 28 17 29 18 30 19 31 20 32 21 33 22 34
REMARK SMILES IDX 83 35 23 36 82 37 24 38 25 39 26 40 76 41 27 42 81 43 75 44
REMARK SMILES IDX 77 45 28 46 80 47 74 48 73 49 29 51 61 52 41 53 60 54 42 55
REMARK SMILES IDX 45 56 59 57 78 58 43 59 44 60 58 62 79 63 46 64 30 65 31 66
REMARK SMILES IDX 39 67 32 68 38 69 40 70 37 71 33 72 34 73 35 74 36 75 62 76
REMARK SMILES IDX 63 77 71 78 64 79 70 80 72 81 69 82 65 83 66 84 67 85 68 86
REMARK SMILES IDX 47 87 48 88 56 89 49 90 55 91 57 92 54 93 50 94 51 95 52 96
REMARK SMILES IDX 53 97
REMARK H PARENT 6 12 3 18 77 50 45 61
REMARK Flexibility Score: inf
ROOT
ATOM      1  C   UNL A   1      33.344  30.796  27.170  1.00  0.00     0.275 C 
ENDROOT
BRANCH   1   2
ATOM      2  O   UNL A   1      33.048  30.077  25.944  1.00  0.00    -0.458 OA
BRANCH   2   3
ATOM      3  C   UNL A   1      31.849  29.462  25.993  1.00  0.00     0.340 C 
ATOM      4  O   UNL A   1      31.422  28.861  26.972  1.00  0.00    -0.246 OA
BRANCH   3   5
ATOM      5  C   UNL A   1      31.078  29.349  24.725  1.00  0.00     0.083 A 
ATOM      6  C   UNL A   1      30.416  27.544  24.291  1.00  0.00     0.055 A 
ATOM      7  C   UNL A   1      28.625  27.341  23.393  1.00  0.00     0.027 A 
ATOM      8  C   UNL A   1      27.749  29.083  23.051  1.00  0.00     0.002 A 
ATOM      9  C   UNL A   1      30.169  31.078  24.417  1.00  0.00     0.018 A 
ATOM     10  C   UNL A   1      28.401  30.887  23.489  1.00  0.00     0.001 A 
BRANCH   6  11
ATOM     11  N   UNL A   1      30.765  26.492  25.158  1.00  0.00    -0.332 N 
ATOM     12  H   UNL A   1      30.769  26.685  26.123  1.00  0.00     0.169 HD
BRANCH  11  13
ATOM     13  C   UNL A   1      31.096  25.236  24.774  1.00  0.00     0.177 C 
ATOM     14  S   UNL A   1      32.161  25.052  23.493  1.00  0.00    -0.040 S 
BRANCH  13  15
ATOM     15  N   UNL A   1      30.542  24.090  25.339  1.00  0.00    -0.299 N 
ATOM     16  O   UNL A   1      29.932  22.179  26.425  1.00  0.00    -0.269 OA
ATOM     17  C   UNL A   1      30.797  22.743  25.751  1.00  0.00     0.257 C 
ATOM     18  H   UNL A   1      29.596  24.283  25.533  1.00  0.00     0.172 HD
BRANCH  17  19
ATOM     19  C   UNL A   1      32.056  21.965  25.527  1.00  0.00     0.040 A 
ATOM     20  C   UNL A   1      32.026  21.138  24.555  1.00  0.00     0.014 A 
ATOM     21  C   UNL A   1      32.335  20.674  25.432  1.00  0.00     0.022 A 
ATOM     22  C   UNL A   1      32.311  19.308  23.703  1.00  0.00     0.009 A 
ATOM     23  C   UNL A   1      32.676  18.715  24.830  1.00  0.00    -0.018 A 
ATOM     24  C   UNL A   1      32.733  18.117  23.721  1.00  0.00    -0.018 A 
ATOM     25  C   UNL A   1      33.032  17.250  25.476  1.00  0.00     0.009 A 
ATOM     26  C   UNL A   1      33.793  17.398  23.053  1.00  0.00     0.009 A 
ATOM     27  C   UNL A   1      33.639  16.076  24.909  1.00  0.00     0.001 A 
ATOM     28  C   UNL A   1      34.153  16.229  23.651  1.00  0.00     0.001 A 
ENDBRANCH  17  19
ENDBRANCH  13  15
ENDBRANCH  11  13
ENDBRANCH   6  11
ENDBRANCH   3   5
ENDBRANCH   2   3
ENDBRANCH   1   2
BRANCH   1  29
ATOM     29  C   UNL A   1      32.648  32.158  27.284  1.00  0.00     0.275 C 
BRANCH  29  30
ATOM     30  O   UNL A   1      33.577  33.256  27.317  1.00  0.00    -0.458 OA
BRANCH  30  31
ATOM     31  C   UNL A   1      33.447  34.060  28.396  1.00  0.00     0.338 C 
ATOM     32  O   UNL A   1      32.525  34.828  28.625  1.00  0.00    -0.246 OA
BRANCH  31  33
ATOM     33  C   UNL A   1      34.556  33.885  29.347  1.00  0.00     0.060 A 
ATOM     34  C   UNL A   1      35.793  34.443  29.057  1.00  0.00     0.016 A 
ATOM     35  C   UNL A   1      34.450  32.947  30.369  1.00  0.00     0.016 A 
ATOM     36  C   UNL A   1      36.945  33.920  29.630  1.00  0.00     0.010 A 
ATOM     37  C   UNL A   1      35.596  32.563  31.076  1.00  0.00     0.010 A 
ATOM     38  C   UNL A   1      36.871  32.998  30.674  1.00  0.00    -0.014 A 
BRANCH  38  39
ATOM     39  C   UNL A   1      38.118  32.472  31.302  1.00  0.00     0.031 A 
ATOM     40  C   UNL A   1      38.874  31.348  30.643  1.00  0.00     0.074 A 
ATOM     41  C   UNL A   1      38.583  32.998  32.456  1.00  0.00     0.049 A 
ATOM     42  N   UNL A   1      39.785  30.554  31.143  1.00  0.00    -0.248 NA
ATOM     43  C   UNL A   1      38.538  31.060  29.239  1.00  0.00     0.031 C 
ATOM     44  C   UNL A   1      38.012  34.150  33.162  1.00  0.00     0.029 A 
ATOM     45  N   UNL A   1      39.647  32.634  33.246  1.00  0.00    -0.354 N 
ATOM     46  C   UNL A   1      40.067  29.621  30.150  1.00  0.00     0.074 A 
ATOM     47  C   UNL A   1      39.226  29.949  29.019  1.00  0.00     0.031 C 
ATOM     48  C   UNL A   1      38.752  34.425  34.242  1.00  0.00     0.029 A 
ATOM     49  C   UNL A   1      39.744  33.376  34.403  1.00  0.00     0.049 A 
ATOM     50  H   UNL A   1      40.276  31.916  33.009  1.00  0.00     0.167 HD
ATOM     51  C   UNL A   1      40.939  28.583  30.196  1.00  0.00     0.034 A 
ATOM     52  C   UNL A   1      40.473  33.186  35.519  1.00  0.00     0.034 A 
ATOM     53  C   UNL A   1      41.793  28.316  31.330  1.00  0.00     0.049 A 
ATOM     54  C   UNL A   1      41.368  31.982  35.587  1.00  0.00     0.074 A 
ATOM     55  C   UNL A   1      42.727  27.309  31.488  1.00  0.00     0.029 A 
ATOM     56  N   UNL A   1      41.817  29.065  32.502  1.00  0.00    -0.354 N 
ATOM     57  N   UNL A   1      41.568  31.052  34.681  1.00  0.00    -0.248 NA
ATOM     58  C   UNL A   1      42.124  31.793  36.828  1.00  0.00     0.031 C 
ATOM     59  C   UNL A   1      43.247  27.392  32.784  1.00  0.00     0.029 A 
ATOM     60  C   UNL A   1      42.720  28.516  33.400  1.00  0.00     0.049 A 
ATOM     61  H   UNL A   1      41.272  29.867  32.670  1.00  0.00     0.167 HD
ATOM     62  C   UNL A   1      42.495  30.178  35.237  1.00  0.00     0.074 A 
ATOM     63  C   UNL A   1      42.824  30.704  36.547  1.00  0.00     0.031 C 
ATOM     64  C   UNL A   1      43.029  29.047  34.709  1.00  0.00     0.034 A 
BRANCH  51  65
ATOM     65  C   UNL A   1      40.944  27.615  29.033  1.00  0.00     0.023 A 
ATOM     66  C   UNL A   1      41.899  27.674  28.003  1.00  0.00     0.031 A 
ATOM     67  C   UNL A   1      39.939  26.634  28.934  1.00  0.00     0.131 A 
ATOM     68  C   UNL A   1      41.779  26.832  26.885  1.00  0.00     0.055 A 
ATOM     69  C   UNL A   1      39.880  25.736  27.866  1.00  0.00     0.041 A 
ATOM     70  F   UNL A   1      38.980  26.541  29.869  1.00  0.00    -0.206 F 
ATOM     71  C   UNL A   1      40.793  25.845  26.823  1.00  0.00     0.022 A 
BRANCH  68  72
ATOM     72  S   UNL A   1      42.817  27.166  25.435  1.00  0.00     0.124 S 
ATOM     73  O   UNL A   1      42.133  28.313  24.840  1.00  0.00    -0.237 OA
ATOM     74  O   UNL A   1      44.117  27.438  26.033  1.00  0.00    -0.237 OA
ATOM     75  O   UNL A   1      42.731  25.930  24.659  1.00  0.00    -0.744 OA
ENDBRANCH  68  72
ENDBRANCH  51  65
BRANCH  52  76
ATOM     76  C   UNL A   1      40.303  34.099  36.689  1.00  0.00     0.023 A 
ATOM     77  C   UNL A   1      41.281  35.048  37.016  1.00  0.00     0.031 A 
ATOM     78  C   UNL A   1      39.157  34.027  37.505  1.00  0.00     0.131 A 
ATOM     79  C   UNL A   1      41.110  35.866  38.144  1.00  0.00     0.055 A 
ATOM     80  C   UNL A   1      38.959  34.890  38.583  1.00  0.00     0.041 A 
ATOM     81  F   UNL A   1      38.191  33.130  37.246  1.00  0.00    -0.206 F 
ATOM     82  C   UNL A   1      39.947  35.810  38.915  1.00  0.00     0.022 A 
BRANCH  79  83
ATOM     83  S   UNL A   1      42.478  36.945  38.645  1.00  0.00     0.124 S 
ATOM     84  O   UNL A   1      42.764  37.656  37.405  1.00  0.00    -0.237 OA
ATOM     85  O   UNL A   1      41.868  37.732  39.712  1.00  0.00    -0.237 OA
ATOM     86  O   UNL A   1      43.511  36.006  39.079  1.00  0.00    -0.744 OA
ENDBRANCH  79  83
ENDBRANCH  52  76
BRANCH  64  87
ATOM     87  C   UNL A   1      44.079  28.342  35.532  1.00  0.00     0.023 A 
ATOM     88  C   UNL A   1      45.450  28.597  35.365  1.00  0.00     0.031 A 
ATOM     89  C   UNL A   1      43.694  27.385  36.489  1.00  0.00     0.131 A 
ATOM     90  C   UNL A   1      46.389  27.855  36.097  1.00  0.00     0.055 A 
ATOM     91  C   UNL A   1      44.629  26.709  37.269  1.00  0.00     0.041 A 
ATOM     92  F   UNL A   1      42.396  27.095  36.682  1.00  0.00    -0.206 F 
ATOM     93  C   UNL A   1      45.988  26.931  37.064  1.00  0.00     0.022 A 
BRANCH  90  94
ATOM     94  S   UNL A   1      48.146  28.026  35.680  1.00  0.00     0.124 S 
ATOM     95  O   UNL A   1      48.386  29.438  35.958  1.00  0.00    -0.237 OA
ATOM     96  O   UNL A   1      48.777  27.078  36.594  1.00  0.00    -0.237 OA
ATOM     97  O   UNL A   1      48.200  27.654  34.267  1.00  0.00    -0.744 OA
ENDBRANCH  90  94
ENDBRANCH  64  87
ENDBRANCH  38  39
ENDBRANCH  31  33
ENDBRANCH  30  31
ENDBRANCH  29  30
ENDBRANCH   1  29
TORSDOF 18
ENDMDL
