MODEL 1
REMARK VINA RESULT:     -12.4      0.000      0.000
REMARK SMILES CC(C)CN(C)c1cc2c(cc1Cl)C=C(C(=O)OCCOC(=O)c1ccc(-c3c4nc(c(-c5cc(S(=O)(=O)[O-])ccc5F)c5ccc([nH]5)c(-c5cc(S(=O)(=O)[O-])ccc5F)c5nc(c(-c6cc(S(=O)(=O)[O-])ccc6F)c6ccc3[nH]6)C=C5)C=C4)cc1)[C@@H](C(F)(F)F)O2
REMARK SMILES IDX 19 1 18 2 16 3 17 4 15 5 7 6 8 7 12 8 9 9 11 10 13 11 10 12
REMARK SMILES IDX 92 13 14 14 87 15 5 16 6 17 4 18 2 19 1 20 3 21 88 22 89 23
REMARK SMILES IDX 90 24 91 25 20 26 21 27 22 28 23 29 24 30 25 31 86 32 26 33
REMARK SMILES IDX 85 34 27 35 28 36 29 37 79 38 30 39 84 40 78 41 80 42 31 43
REMARK SMILES IDX 83 44 77 45 76 46 32 48 64 49 44 50 63 51 45 52 48 53 62 54
REMARK SMILES IDX 81 55 46 56 47 57 61 59 82 60 49 61 33 62 34 63 42 64 35 65
REMARK SMILES IDX 41 66 43 67 40 68 36 69 37 70 38 71 39 72 65 73 66 74 74 75
REMARK SMILES IDX 67 76 73 77 75 78 72 79 68 80 69 81 70 82 71 83 50 84 51 85
REMARK SMILES IDX 59 86 52 87 58 88 60 89 57 90 53 91 54 92 55 93 56 94
REMARK H PARENT 80 47 48 58
REMARK Flexibility Score: inf
ROOT
ATOM      1  C   UNL A   1      31.391  29.368  24.955  1.00  0.00     0.275 C 
ENDROOT
BRANCH   1   2
ATOM      2  O   UNL A   1      31.388  27.941  25.185  1.00  0.00    -0.459 OA
BRANCH   2   3
ATOM      3  C   UNL A   1      30.544  27.255  24.382  1.00  0.00     0.338 C 
ATOM      4  O   UNL A   1      29.510  27.689  23.894  1.00  0.00    -0.246 OA
BRANCH   3   5
ATOM      5  C   UNL A   1      31.010  25.885  24.118  1.00  0.00     0.087 C 
ATOM      6  C   UNL A   1      33.314  21.512  25.035  1.00  0.00     0.059 A 
ATOM      7  C   UNL A   1      32.924  22.174  23.845  1.00  0.00     0.074 A 
ATOM      8  C   UNL A   1      33.045  22.162  26.258  1.00  0.00     0.065 A 
ATOM      9  C   UNL A   1      32.239  23.393  23.887  1.00  0.00     0.130 A 
ATOM     10  C   UNL A   1      32.237  23.290  26.302  1.00  0.00     0.034 A 
ATOM     11  Cl  UNL A   1      33.777  21.700  27.755  1.00  0.00    -0.082 Cl
ATOM     12  C   UNL A   1      31.824  23.885  25.116  1.00  0.00     0.019 A 
ATOM     13  O   UNL A   1      31.979  24.065  22.717  1.00  0.00    -0.475 OA
ATOM     14  C   UNL A   1      31.030  25.084  25.184  1.00  0.00     0.027 C 
ATOM     15  C   UNL A   1      31.694  25.506  22.838  1.00  0.00     0.316 C 
BRANCH   6  16
ATOM     16  N   UNL A   1      33.939  20.260  24.998  1.00  0.00    -0.373 N 
ATOM     17  C   UNL A   1      35.394  20.254  25.003  1.00  0.00     0.143 C 
BRANCH  16  18
ATOM     18  C   UNL A   1      33.254  19.181  24.248  1.00  0.00     0.119 C 
BRANCH  18  19
ATOM     19  C   UNL A   1      33.860  17.780  24.486  1.00  0.00     0.002 C 
ATOM     20  C   UNL A   1      33.012  16.945  25.453  1.00  0.00     0.009 C 
ATOM     21  C   UNL A   1      34.022  16.999  23.179  1.00  0.00     0.009 C 
ENDBRANCH  18  19
ENDBRANCH  16  18
ENDBRANCH   6  16
BRANCH  15  22
ATOM     22  C   UNL A   1      32.974  26.332  22.635  1.00  0.00     0.430 C 
ATOM     23  F   UNL A   1      33.756  26.318  23.742  1.00  0.00    -0.167 F 
ATOM     24  F   UNL A   1      33.730  25.824  21.628  1.00  0.00    -0.167 F 
ATOM     25  F   UNL A   1      32.721  27.626  22.334  1.00  0.00    -0.167 F 
ENDBRANCH  15  22
ENDBRANCH   3   5
ENDBRANCH   2   3
ENDBRANCH   1   2
BRANCH   1  26
ATOM     26  C   UNL A   1      32.640  30.045  25.525  1.00  0.00     0.275 C 
BRANCH  26  27
ATOM     27  O   UNL A   1      32.434  30.472  26.885  1.00  0.00    -0.458 OA
BRANCH  27  28
ATOM     28  C   UNL A   1      33.107  31.590  27.243  1.00  0.00     0.338 C 
ATOM     29  O   UNL A   1      32.674  32.728  27.278  1.00  0.00    -0.246 OA
BRANCH  28  30
ATOM     30  C   UNL A   1      34.479  31.251  27.658  1.00  0.00     0.060 A 
ATOM     31  C   UNL A   1      35.401  32.245  27.963  1.00  0.00     0.016 A 
ATOM     32  C   UNL A   1      34.785  29.921  27.923  1.00  0.00     0.016 A 
ATOM     33  C   UNL A   1      36.631  31.886  28.534  1.00  0.00     0.010 A 
ATOM     34  C   UNL A   1      35.922  29.591  28.655  1.00  0.00     0.010 A 
ATOM     35  C   UNL A   1      36.891  30.559  28.937  1.00  0.00    -0.014 A 
BRANCH  35  36
ATOM     36  C   UNL A   1      38.167  30.185  29.627  1.00  0.00     0.031 A 
ATOM     37  C   UNL A   1      38.471  30.680  31.027  1.00  0.00     0.074 A 
ATOM     38  C   UNL A   1      39.075  29.414  28.989  1.00  0.00     0.049 A 
ATOM     39  N   UNL A   1      39.509  30.422  31.784  1.00  0.00    -0.248 NA
ATOM     40  C   UNL A   1      37.515  31.614  31.647  1.00  0.00     0.031 C 
ATOM     41  C   UNL A   1      38.966  28.954  27.603  1.00  0.00     0.029 A 
ATOM     42  N   UNL A   1      40.257  28.856  29.423  1.00  0.00    -0.354 N 
ATOM     43  C   UNL A   1      39.342  31.184  32.939  1.00  0.00     0.074 A 
ATOM     44  C   UNL A   1      38.150  31.973  32.753  1.00  0.00     0.031 C 
ATOM     45  C   UNL A   1      39.974  28.112  27.334  1.00  0.00     0.029 A 
ATOM     46  C   UNL A   1      40.838  28.006  28.506  1.00  0.00     0.049 A 
ATOM     47  H   UNL A   1      40.650  29.047  30.305  1.00  0.00     0.167 HD
ATOM     48  C   UNL A   1      40.080  31.187  34.075  1.00  0.00     0.034 A 
ATOM     49  C   UNL A   1      41.923  27.208  28.604  1.00  0.00     0.034 A 
ATOM     50  C   UNL A   1      41.215  30.332  34.289  1.00  0.00     0.049 A 
ATOM     51  C   UNL A   1      42.687  27.173  29.905  1.00  0.00     0.074 A 
ATOM     52  C   UNL A   1      41.970  30.187  35.440  1.00  0.00     0.029 A 
ATOM     53  N   UNL A   1      41.744  29.461  33.350  1.00  0.00    -0.354 N 
ATOM     54  N   UNL A   1      42.441  27.815  31.024  1.00  0.00    -0.248 NA
ATOM     55  C   UNL A   1      43.869  26.301  29.966  1.00  0.00     0.031 C 
ATOM     56  C   UNL A   1      42.982  29.264  35.183  1.00  0.00     0.029 A 
ATOM     57  C   UNL A   1      42.822  28.783  33.893  1.00  0.00     0.049 A 
ATOM     58  H   UNL A   1      41.404  29.341  32.434  1.00  0.00     0.167 HD
ATOM     59  C   UNL A   1      43.415  27.397  31.927  1.00  0.00     0.074 A 
ATOM     60  C   UNL A   1      44.239  26.430  31.235  1.00  0.00     0.031 C 
ATOM     61  C   UNL A   1      43.612  27.788  33.211  1.00  0.00     0.034 A 
BRANCH  48  62
ATOM     62  C   UNL A   1      39.659  32.080  35.221  1.00  0.00     0.023 A 
ATOM     63  C   UNL A   1      38.922  31.550  36.298  1.00  0.00     0.031 A 
ATOM     64  C   UNL A   1      39.850  33.473  35.169  1.00  0.00     0.131 A 
ATOM     65  C   UNL A   1      38.371  32.413  37.254  1.00  0.00     0.055 A 
ATOM     66  C   UNL A   1      39.342  34.322  36.153  1.00  0.00     0.041 A 
ATOM     67  F   UNL A   1      40.539  34.030  34.160  1.00  0.00    -0.206 F 
ATOM     68  C   UNL A   1      38.585  33.794  37.193  1.00  0.00     0.022 A 
BRANCH  65  69
ATOM     69  S   UNL A   1      37.294  31.789  38.573  1.00  0.00     0.124 S 
ATOM     70  O   UNL A   1      38.139  31.951  39.755  1.00  0.00    -0.237 OA
ATOM     71  O   UNL A   1      36.156  32.701  38.492  1.00  0.00    -0.237 OA
ATOM     72  O   UNL A   1      37.028  30.408  38.188  1.00  0.00    -0.744 OA
ENDBRANCH  65  69
ENDBRANCH  48  62
BRANCH  49  73
ATOM     73  C   UNL A   1      42.272  26.291  27.475  1.00  0.00     0.023 A 
ATOM     74  C   UNL A   1      41.810  24.965  27.426  1.00  0.00     0.031 A 
ATOM     75  C   UNL A   1      43.154  26.719  26.463  1.00  0.00     0.131 A 
ATOM     76  C   UNL A   1      42.271  24.101  26.421  1.00  0.00     0.055 A 
ATOM     77  C   UNL A   1      43.557  25.875  25.427  1.00  0.00     0.041 A 
ATOM     78  F   UNL A   1      43.638  27.971  26.474  1.00  0.00    -0.206 F 
ATOM     79  C   UNL A   1      43.129  24.553  25.412  1.00  0.00     0.022 A 
BRANCH  76  80
ATOM     80  S   UNL A   1      41.883  22.329  26.464  1.00  0.00     0.124 S 
ATOM     81  O   UNL A   1      40.424  22.338  26.495  1.00  0.00    -0.237 OA
ATOM     82  O   UNL A   1      42.484  21.858  25.218  1.00  0.00    -0.237 OA
ATOM     83  O   UNL A   1      42.540  21.863  27.680  1.00  0.00    -0.744 OA
ENDBRANCH  76  80
ENDBRANCH  49  73
BRANCH  61  84
ATOM     84  C   UNL A   1      44.742  27.174  33.998  1.00  0.00     0.023 A 
ATOM     85  C   UNL A   1      44.550  25.942  34.654  1.00  0.00     0.031 A 
ATOM     86  C   UNL A   1      45.928  27.884  34.248  1.00  0.00     0.131 A 
ATOM     87  C   UNL A   1      45.506  25.483  35.567  1.00  0.00     0.055 A 
ATOM     88  C   UNL A   1      46.901  27.398  35.122  1.00  0.00     0.041 A 
ATOM     89  F   UNL A   1      46.151  29.069  33.658  1.00  0.00    -0.206 F 
ATOM     90  C   UNL A   1      46.683  26.200  35.799  1.00  0.00     0.022 A 
BRANCH  87  91
ATOM     91  S   UNL A   1      45.211  23.995  36.563  1.00  0.00     0.124 S 
ATOM     92  O   UNL A   1      46.501  23.315  36.480  1.00  0.00    -0.237 OA
ATOM     93  O   UNL A   1      44.887  24.559  37.871  1.00  0.00    -0.237 OA
ATOM     94  O   UNL A   1      44.111  23.324  35.879  1.00  0.00    -0.744 OA
ENDBRANCH  87  91
ENDBRANCH  61  84
ENDBRANCH  35  36
ENDBRANCH  28  30
ENDBRANCH  27  28
ENDBRANCH  26  27
ENDBRANCH   1  26
TORSDOF 18
ENDMDL
MODEL 2
REMARK VINA RESULT:     -12.4      5.131     10.280
REMARK SMILES CC(C)CN(C)c1cc2c(cc1Cl)C=C(C(=O)OCCOC(=O)c1ccc(-c3c4nc(c(-c5cc(S(=O)(=O)[O-])ccc5F)c5ccc([nH]5)c(-c5cc(S(=O)(=O)[O-])ccc5F)c5nc(c(-c6cc(S(=O)(=O)[O-])ccc6F)c6ccc3[nH]6)C=C5)C=C4)cc1)[C@@H](C(F)(F)F)O2
REMARK SMILES IDX 19 1 18 2 16 3 17 4 15 5 7 6 8 7 12 8 9 9 11 10 13 11 10 12
REMARK SMILES IDX 92 13 14 14 87 15 5 16 6 17 4 18 2 19 1 20 3 21 88 22 89 23
REMARK SMILES IDX 90 24 91 25 20 26 21 27 22 28 23 29 24 30 25 31 86 32 26 33
REMARK SMILES IDX 85 34 27 35 28 36 29 37 79 38 30 39 84 40 78 41 80 42 31 43
REMARK SMILES IDX 83 44 77 45 76 46 32 48 64 49 44 50 63 51 45 52 48 53 62 54
REMARK SMILES IDX 81 55 46 56 47 57 61 59 82 60 49 61 33 62 34 63 42 64 35 65
REMARK SMILES IDX 41 66 43 67 40 68 36 69 37 70 38 71 39 72 65 73 66 74 74 75
REMARK SMILES IDX 67 76 73 77 75 78 72 79 68 80 69 81 70 82 71 83 50 84 51 85
REMARK SMILES IDX 59 86 52 87 58 88 60 89 57 90 53 91 54 92 55 93 56 94
REMARK H PARENT 80 47 48 58
REMARK Flexibility Score: inf
ROOT
ATOM      1  C   UNL A   1      35.543  20.792  24.758  1.00  0.00     0.275 C 
ENDROOT
BRANCH   1   2
ATOM      2  O   UNL A   1      34.743  21.848  24.179  1.00  0.00    -0.459 OA
BRANCH   2   3
ATOM      3  C   UNL A   1      33.425  21.561  24.102  1.00  0.00     0.338 C 
ATOM      4  O   UNL A   1      32.932  20.442  24.150  1.00  0.00    -0.246 OA
BRANCH   3   5
ATOM      5  C   UNL A   1      32.595  22.769  23.970  1.00  0.00     0.087 C 
ATOM      6  C   UNL A   1      31.578  27.659  23.405  1.00  0.00     0.059 A 
ATOM      7  C   UNL A   1      30.840  26.567  23.924  1.00  0.00     0.074 A 
ATOM      8  C   UNL A   1      32.886  27.399  22.944  1.00  0.00     0.065 A 
ATOM      9  C   UNL A   1      31.366  25.271  23.916  1.00  0.00     0.130 A 
ATOM     10  C   UNL A   1      33.344  26.097  22.800  1.00  0.00     0.034 A 
ATOM     11  Cl  UNL A   1      34.048  28.644  22.644  1.00  0.00    -0.082 Cl
ATOM     12  C   UNL A   1      32.571  25.041  23.268  1.00  0.00     0.019 A 
ATOM     13  O   UNL A   1      30.674  24.255  24.531  1.00  0.00    -0.475 OA
ATOM     14  C   UNL A   1      33.088  23.702  23.155  1.00  0.00     0.027 C 
ATOM     15  C   UNL A   1      31.454  23.060  24.899  1.00  0.00     0.316 C 
BRANCH   6  16
ATOM     16  N   UNL A   1      31.028  28.945  23.348  1.00  0.00    -0.373 N 
ATOM     17  C   UNL A   1      30.994  29.698  24.593  1.00  0.00     0.143 C 
BRANCH  16  18
ATOM     18  C   UNL A   1      29.927  29.172  22.383  1.00  0.00     0.119 C 
BRANCH  18  19
ATOM     19  C   UNL A   1      28.663  29.791  23.021  1.00  0.00     0.002 C 
ATOM     20  C   UNL A   1      28.203  31.049  22.276  1.00  0.00     0.009 C 
ATOM     21  C   UNL A   1      27.500  28.795  23.061  1.00  0.00     0.009 C 
ENDBRANCH  18  19
ENDBRANCH  16  18
ENDBRANCH   6  16
BRANCH  15  22
ATOM     22  C   UNL A   1      31.943  23.156  26.354  1.00  0.00     0.430 C 
ATOM     23  F   UNL A   1      32.617  22.040  26.725  1.00  0.00    -0.167 F 
ATOM     24  F   UNL A   1      32.804  24.193  26.514  1.00  0.00    -0.167 F 
ATOM     25  F   UNL A   1      30.933  23.332  27.235  1.00  0.00    -0.167 F 
ENDBRANCH  15  22
ENDBRANCH   3   5
ENDBRANCH   2   3
ENDBRANCH   1   2
BRANCH   1  26
ATOM     26  C   UNL A   1      36.485  21.309  25.848  1.00  0.00     0.275 C 
BRANCH  26  27
ATOM     27  O   UNL A   1      37.671  21.900  25.284  1.00  0.00    -0.458 OA
BRANCH  27  28
ATOM     28  C   UNL A   1      38.819  21.623  25.945  1.00  0.00     0.338 C 
ATOM     29  O   UNL A   1      39.426  20.566  25.950  1.00  0.00    -0.246 OA
BRANCH  28  30
ATOM     30  C   UNL A   1      39.306  22.820  26.651  1.00  0.00     0.060 A 
ATOM     31  C   UNL A   1      40.378  22.745  27.532  1.00  0.00     0.016 A 
ATOM     32  C   UNL A   1      38.802  24.061  26.281  1.00  0.00     0.016 A 
ATOM     33  C   UNL A   1      40.933  23.929  28.038  1.00  0.00     0.010 A 
ATOM     34  C   UNL A   1      39.472  25.229  26.638  1.00  0.00     0.010 A 
ATOM     35  C   UNL A   1      40.523  25.192  27.559  1.00  0.00    -0.014 A 
BRANCH  35  36
ATOM     36  C   UNL A   1      41.171  26.458  28.030  1.00  0.00     0.031 A 
ATOM     37  C   UNL A   1      42.603  26.786  27.657  1.00  0.00     0.074 A 
ATOM     38  C   UNL A   1      40.483  27.313  28.818  1.00  0.00     0.049 A 
ATOM     39  N   UNL A   1      43.306  27.853  27.948  1.00  0.00    -0.248 NA
ATOM     40  C   UNL A   1      43.363  25.777  26.898  1.00  0.00     0.031 C 
ATOM     41  C   UNL A   1      39.137  27.077  29.344  1.00  0.00     0.029 A 
ATOM     42  N   UNL A   1      40.803  28.563  29.296  1.00  0.00    -0.354 N 
ATOM     43  C   UNL A   1      44.583  27.624  27.439  1.00  0.00     0.074 A 
ATOM     44  C   UNL A   1      44.585  26.289  26.893  1.00  0.00     0.031 C 
ATOM     45  C   UNL A   1      38.711  28.178  29.982  1.00  0.00     0.029 A 
ATOM     46  C   UNL A   1      39.767  29.185  29.962  1.00  0.00     0.049 A 
ATOM     47  H   UNL A   1      41.690  28.976  29.175  1.00  0.00     0.167 HD
ATOM     48  C   UNL A   1      45.643  28.465  27.379  1.00  0.00     0.034 A 
ATOM     49  C   UNL A   1      39.664  30.432  30.471  1.00  0.00     0.034 A 
ATOM     50  C   UNL A   1      45.606  29.825  27.843  1.00  0.00     0.049 A 
ATOM     51  C   UNL A   1      40.833  31.376  30.326  1.00  0.00     0.074 A 
ATOM     52  C   UNL A   1      46.594  30.790  27.738  1.00  0.00     0.029 A 
ATOM     53  N   UNL A   1      44.527  30.423  28.473  1.00  0.00    -0.354 N 
ATOM     54  N   UNL A   1      41.988  31.175  29.737  1.00  0.00    -0.248 NA
ATOM     55  C   UNL A   1      40.685  32.720  30.905  1.00  0.00     0.031 C 
ATOM     56  C   UNL A   1      46.129  31.955  28.344  1.00  0.00     0.029 A 
ATOM     57  C   UNL A   1      44.828  31.741  28.772  1.00  0.00     0.049 A 
ATOM     58  H   UNL A   1      43.673  29.978  28.678  1.00  0.00     0.167 HD
ATOM     59  C   UNL A   1      42.687  32.375  29.844  1.00  0.00     0.074 A 
ATOM     60  C   UNL A   1      41.817  33.304  30.533  1.00  0.00     0.031 C 
ATOM     61  C   UNL A   1      43.940  32.674  29.419  1.00  0.00     0.034 A 
BRANCH  48  62
ATOM     62  C   UNL A   1      46.921  27.990  26.725  1.00  0.00     0.023 A 
ATOM     63  C   UNL A   1      47.093  28.117  25.333  1.00  0.00     0.031 A 
ATOM     64  C   UNL A   1      47.890  27.276  27.451  1.00  0.00     0.131 A 
ATOM     65  C   UNL A   1      48.187  27.503  24.709  1.00  0.00     0.055 A 
ATOM     66  C   UNL A   1      49.006  26.711  26.831  1.00  0.00     0.041 A 
ATOM     67  F   UNL A   1      47.770  27.119  28.779  1.00  0.00    -0.206 F 
ATOM     68  C   UNL A   1      49.149  26.810  25.451  1.00  0.00     0.022 A 
BRANCH  65  69
ATOM     69  S   UNL A   1      48.370  27.515  22.904  1.00  0.00     0.124 S 
ATOM     70  O   UNL A   1      47.200  28.286  22.487  1.00  0.00    -0.237 OA
ATOM     71  O   UNL A   1      49.654  28.191  22.734  1.00  0.00    -0.237 OA
ATOM     72  O   UNL A   1      48.344  26.104  22.539  1.00  0.00    -0.744 OA
ENDBRANCH  65  69
ENDBRANCH  48  62
BRANCH  49  73
ATOM     73  C   UNL A   1      38.365  30.888  31.053  1.00  0.00     0.023 A 
ATOM     74  C   UNL A   1      37.364  31.478  30.262  1.00  0.00     0.031 A 
ATOM     75  C   UNL A   1      38.146  30.813  32.442  1.00  0.00     0.131 A 
ATOM     76  C   UNL A   1      36.218  32.014  30.869  1.00  0.00     0.055 A 
ATOM     77  C   UNL A   1      36.975  31.288  33.034  1.00  0.00     0.041 A 
ATOM     78  F   UNL A   1      39.079  30.275  33.244  1.00  0.00    -0.206 F 
ATOM     79  C   UNL A   1      36.011  31.908  32.249  1.00  0.00     0.022 A 
BRANCH  76  80
ATOM     80  S   UNL A   1      35.023  32.987  29.911  1.00  0.00     0.124 S 
ATOM     81  O   UNL A   1      35.884  33.967  29.255  1.00  0.00    -0.237 OA
ATOM     82  O   UNL A   1      34.441  31.973  29.035  1.00  0.00    -0.237 OA
ATOM     83  O   UNL A   1      34.119  33.517  30.927  1.00  0.00    -0.744 OA
ENDBRANCH  76  80
ENDBRANCH  49  73
BRANCH  61  84
ATOM     84  C   UNL A   1      44.477  34.065  29.645  1.00  0.00     0.023 A 
ATOM     85  C   UNL A   1      44.320  35.047  28.645  1.00  0.00     0.031 A 
ATOM     86  C   UNL A   1      45.292  34.363  30.750  1.00  0.00     0.131 A 
ATOM     87  C   UNL A   1      45.010  36.260  28.748  1.00  0.00     0.055 A 
ATOM     88  C   UNL A   1      45.938  35.593  30.870  1.00  0.00     0.041 A 
ATOM     89  F   UNL A   1      45.484  33.455  31.720  1.00  0.00    -0.206 F 
ATOM     90  C   UNL A   1      45.813  36.541  29.857  1.00  0.00     0.022 A 
BRANCH  87  91
ATOM     91  S   UNL A   1      44.976  37.473  27.398  1.00  0.00     0.124 S 
ATOM     92  O   UNL A   1      46.067  37.007  26.546  1.00  0.00    -0.237 OA
ATOM     93  O   UNL A   1      43.635  37.286  26.850  1.00  0.00    -0.237 OA
ATOM     94  O   UNL A   1      45.210  38.750  28.064  1.00  0.00    -0.744 OA
ENDBRANCH  87  91
ENDBRANCH  61  84
ENDBRANCH  35  36
ENDBRANCH  28  30
ENDBRANCH  27  28
ENDBRANCH  26  27
ENDBRANCH   1  26
TORSDOF 18
ENDMDL
MODEL 3
REMARK VINA RESULT:     -12.3      5.087     10.123
REMARK SMILES CC(C)CN(C)c1cc2c(cc1Cl)C=C(C(=O)OCCOC(=O)c1ccc(-c3c4nc(c(-c5cc(S(=O)(=O)[O-])ccc5F)c5ccc([nH]5)c(-c5cc(S(=O)(=O)[O-])ccc5F)c5nc(c(-c6cc(S(=O)(=O)[O-])ccc6F)c6ccc3[nH]6)C=C5)C=C4)cc1)[C@@H](C(F)(F)F)O2
REMARK SMILES IDX 19 1 18 2 16 3 17 4 15 5 7 6 8 7 12 8 9 9 11 10 13 11 10 12
REMARK SMILES IDX 92 13 14 14 87 15 5 16 6 17 4 18 2 19 1 20 3 21 88 22 89 23
REMARK SMILES IDX 90 24 91 25 20 26 21 27 22 28 23 29 24 30 25 31 86 32 26 33
REMARK SMILES IDX 85 34 27 35 28 36 29 37 79 38 30 39 84 40 78 41 80 42 31 43
REMARK SMILES IDX 83 44 77 45 76 46 32 48 64 49 44 50 63 51 45 52 48 53 62 54
REMARK SMILES IDX 81 55 46 56 47 57 61 59 82 60 49 61 33 62 34 63 42 64 35 65
REMARK SMILES IDX 41 66 43 67 40 68 36 69 37 70 38 71 39 72 65 73 66 74 74 75
REMARK SMILES IDX 67 76 73 77 75 78 72 79 68 80 69 81 70 82 71 83 50 84 51 85
REMARK SMILES IDX 59 86 52 87 58 88 60 89 57 90 53 91 54 92 55 93 56 94
REMARK H PARENT 80 47 48 58
REMARK Flexibility Score: inf
ROOT
ATOM      1  C   UNL A   1      35.089  20.038  24.944  1.00  0.00     0.275 C 
ENDROOT
BRANCH   1   2
ATOM      2  O   UNL A   1      33.925  20.381  24.159  1.00  0.00    -0.459 OA
BRANCH   2   3
ATOM      3  C   UNL A   1      32.757  20.274  24.830  1.00  0.00     0.338 C 
ATOM      4  O   UNL A   1      32.262  19.234  25.245  1.00  0.00    -0.246 OA
BRANCH   3   5
ATOM      5  C   UNL A   1      32.112  21.578  25.045  1.00  0.00     0.087 C 
ATOM      6  C   UNL A   1      31.245  26.487  24.397  1.00  0.00     0.059 A 
ATOM      7  C   UNL A   1      30.968  25.583  25.452  1.00  0.00     0.074 A 
ATOM      8  C   UNL A   1      31.914  25.979  23.264  1.00  0.00     0.065 A 
ATOM      9  C   UNL A   1      31.288  24.226  25.342  1.00  0.00     0.130 A 
ATOM     10  C   UNL A   1      32.093  24.613  23.096  1.00  0.00     0.034 A 
ATOM     11  Cl  UNL A   1      32.661  26.988  22.075  1.00  0.00    -0.082 Cl
ATOM     12  C   UNL A   1      31.759  23.745  24.129  1.00  0.00     0.019 A 
ATOM     13  O   UNL A   1      31.114  23.399  26.426  1.00  0.00    -0.475 OA
ATOM     14  C   UNL A   1      32.001  22.336  23.953  1.00  0.00     0.027 C 
ATOM     15  C   UNL A   1      31.877  22.138  26.417  1.00  0.00     0.316 C 
BRANCH   6  16
ATOM     16  N   UNL A   1      30.865  27.832  24.476  1.00  0.00    -0.373 N 
ATOM     17  C   UNL A   1      29.890  28.296  23.500  1.00  0.00     0.143 C 
BRANCH  16  18
ATOM     18  C   UNL A   1      31.887  28.802  24.933  1.00  0.00     0.119 C 
BRANCH  18  19
ATOM     19  C   UNL A   1      31.811  29.115  26.444  1.00  0.00     0.002 C 
ATOM     20  C   UNL A   1      32.876  28.355  27.242  1.00  0.00     0.009 C 
ATOM     21  C   UNL A   1      31.968  30.613  26.724  1.00  0.00     0.009 C 
ENDBRANCH  18  19
ENDBRANCH  16  18
ENDBRANCH   6  16
BRANCH  15  22
ATOM     22  C   UNL A   1      33.203  22.299  27.177  1.00  0.00     0.430 C 
ATOM     23  F   UNL A   1      33.691  21.101  27.583  1.00  0.00    -0.167 F 
ATOM     24  F   UNL A   1      34.158  22.850  26.385  1.00  0.00    -0.167 F 
ATOM     25  F   UNL A   1      33.088  23.082  28.273  1.00  0.00    -0.167 F 
ENDBRANCH  15  22
ENDBRANCH   3   5
ENDBRANCH   2   3
ENDBRANCH   1   2
BRANCH   1  26
ATOM     26  C   UNL A   1      36.318  20.861  24.552  1.00  0.00     0.275 C 
BRANCH  26  27
ATOM     27  O   UNL A   1      36.950  21.448  25.705  1.00  0.00    -0.458 OA
BRANCH  27  28
ATOM     28  C   UNL A   1      38.293  21.291  25.764  1.00  0.00     0.338 C 
ATOM     29  O   UNL A   1      38.948  20.385  25.281  1.00  0.00    -0.246 OA
BRANCH  28  30
ATOM     30  C   UNL A   1      38.911  22.427  26.469  1.00  0.00     0.060 A 
ATOM     31  C   UNL A   1      40.071  22.260  27.216  1.00  0.00     0.016 A 
ATOM     32  C   UNL A   1      38.425  23.706  26.224  1.00  0.00     0.016 A 
ATOM     33  C   UNL A   1      40.733  23.392  27.714  1.00  0.00     0.010 A 
ATOM     34  C   UNL A   1      39.183  24.825  26.561  1.00  0.00     0.010 A 
ATOM     35  C   UNL A   1      40.329  24.695  27.351  1.00  0.00    -0.014 A 
BRANCH  35  36
ATOM     36  C   UNL A   1      41.083  25.906  27.808  1.00  0.00     0.031 A 
ATOM     37  C   UNL A   1      42.504  26.160  27.346  1.00  0.00     0.074 A 
ATOM     38  C   UNL A   1      40.503  26.777  28.662  1.00  0.00     0.049 A 
ATOM     39  N   UNL A   1      43.289  27.174  27.614  1.00  0.00    -0.248 NA
ATOM     40  C   UNL A   1      43.148  25.130  26.511  1.00  0.00     0.031 C 
ATOM     41  C   UNL A   1      39.183  26.606  29.273  1.00  0.00     0.029 A 
ATOM     42  N   UNL A   1      40.930  27.992  29.149  1.00  0.00    -0.354 N 
ATOM     43  C   UNL A   1      44.512  26.885  27.013  1.00  0.00     0.074 A 
ATOM     44  C   UNL A   1      44.396  25.569  26.435  1.00  0.00     0.031 C 
ATOM     45  C   UNL A   1      38.869  27.711  29.966  1.00  0.00     0.029 A 
ATOM     46  C   UNL A   1      39.981  28.654  29.899  1.00  0.00     0.049 A 
ATOM     47  H   UNL A   1      41.830  28.354  28.978  1.00  0.00     0.167 HD
ATOM     48  C   UNL A   1      45.615  27.663  26.902  1.00  0.00     0.034 A 
ATOM     49  C   UNL A   1      39.988  29.889  30.445  1.00  0.00     0.034 A 
ATOM     50  C   UNL A   1      45.693  29.009  27.401  1.00  0.00     0.049 A 
ATOM     51  C   UNL A   1      41.200  30.767  30.244  1.00  0.00     0.074 A 
ATOM     52  C   UNL A   1      46.728  29.916  27.253  1.00  0.00     0.029 A 
ATOM     53  N   UNL A   1      44.696  29.651  28.119  1.00  0.00    -0.354 N 
ATOM     54  N   UNL A   1      42.299  30.515  29.572  1.00  0.00    -0.248 NA
ATOM     55  C   UNL A   1      41.173  32.099  30.865  1.00  0.00     0.031 C 
ATOM     56  C   UNL A   1      46.377  31.089  27.919  1.00  0.00     0.029 A 
ATOM     57  C   UNL A   1      45.097  30.940  28.429  1.00  0.00     0.049 A 
ATOM     58  H   UNL A   1      43.832  29.252  28.371  1.00  0.00     0.167 HD
ATOM     59  C   UNL A   1      43.075  31.668  29.662  1.00  0.00     0.074 A 
ATOM     60  C   UNL A   1      42.312  32.626  30.431  1.00  0.00     0.031 C 
ATOM     61  C   UNL A   1      44.313  31.904  29.159  1.00  0.00     0.034 A 
BRANCH  48  62
ATOM     62  C   UNL A   1      46.815  27.133  26.150  1.00  0.00     0.023 A 
ATOM     63  C   UNL A   1      47.866  26.505  26.846  1.00  0.00     0.031 A 
ATOM     64  C   UNL A   1      46.988  27.389  24.778  1.00  0.00     0.131 A 
ATOM     65  C   UNL A   1      49.056  26.193  26.175  1.00  0.00     0.055 A 
ATOM     66  C   UNL A   1      48.155  27.028  24.103  1.00  0.00     0.041 A 
ATOM     67  F   UNL A   1      46.020  27.992  24.069  1.00  0.00    -0.206 F 
ATOM     68  C   UNL A   1      49.202  26.441  24.806  1.00  0.00     0.022 A 
BRANCH  65  69
ATOM     69  S   UNL A   1      50.488  25.520  27.062  1.00  0.00     0.124 S 
ATOM     70  O   UNL A   1      49.932  24.305  27.656  1.00  0.00    -0.237 OA
ATOM     71  O   UNL A   1      51.442  25.302  25.978  1.00  0.00    -0.237 OA
ATOM     72  O   UNL A   1      50.837  26.568  28.013  1.00  0.00    -0.744 OA
ENDBRANCH  65  69
ENDBRANCH  48  62
BRANCH  49  73
ATOM     73  C   UNL A   1      38.761  30.404  31.126  1.00  0.00     0.023 A 
ATOM     74  C   UNL A   1      37.714  31.010  30.410  1.00  0.00     0.031 A 
ATOM     75  C   UNL A   1      38.664  30.370  32.530  1.00  0.00     0.131 A 
ATOM     76  C   UNL A   1      36.645  31.600  31.101  1.00  0.00     0.055 A 
ATOM     77  C   UNL A   1      37.566  30.899  33.210  1.00  0.00     0.041 A 
ATOM     78  F   UNL A   1      39.645  29.818  33.262  1.00  0.00    -0.206 F 
ATOM     79  C   UNL A   1      36.556  31.534  32.496  1.00  0.00     0.022 A 
BRANCH  76  80
ATOM     80  S   UNL A   1      35.402  32.591  30.226  1.00  0.00     0.124 S 
ATOM     81  O   UNL A   1      35.074  31.735  29.091  1.00  0.00    -0.237 OA
ATOM     82  O   UNL A   1      34.356  32.726  31.237  1.00  0.00    -0.237 OA
ATOM     83  O   UNL A   1      36.111  33.825  29.904  1.00  0.00    -0.744 OA
ENDBRANCH  76  80
ENDBRANCH  49  73
BRANCH  61  84
ATOM     84  C   UNL A   1      44.947  33.254  29.382  1.00  0.00     0.023 A 
ATOM     85  C   UNL A   1      44.707  34.300  28.468  1.00  0.00     0.031 A 
ATOM     86  C   UNL A   1      45.919  33.448  30.378  1.00  0.00     0.131 A 
ATOM     87  C   UNL A   1      45.468  35.473  28.538  1.00  0.00     0.055 A 
ATOM     88  C   UNL A   1      46.640  34.639  30.473  1.00  0.00     0.041 A 
ATOM     89  F   UNL A   1      46.193  32.476  31.262  1.00  0.00    -0.206 F 
ATOM     90  C   UNL A   1      46.427  35.651  29.540  1.00  0.00     0.022 A 
BRANCH  87  91
ATOM     91  S   UNL A   1      45.314  36.765  27.273  1.00  0.00     0.124 S 
ATOM     92  O   UNL A   1      46.356  36.383  26.324  1.00  0.00    -0.237 OA
ATOM     93  O   UNL A   1      43.943  36.576  26.805  1.00  0.00    -0.237 OA
ATOM     94  O   UNL A   1      45.562  38.005  28.002  1.00  0.00    -0.744 OA
ENDBRANCH  87  91
ENDBRANCH  61  84
ENDBRANCH  35  36
ENDBRANCH  28  30
ENDBRANCH  27  28
ENDBRANCH  26  27
ENDBRANCH   1  26
TORSDOF 18
ENDMDL
