MODEL 1
REMARK VINA RESULT:     -12.7      0.000      0.000
REMARK SMILES O=C(OCCOC(=O)[C@@H](Cc1c[nH]c2ccccc12)Nc1ncnc2ccccc12)c1ccc(-c2c3nc(c(-c4cc(S(=O)(=O)[O-])ccc4F)c4ccc([nH]4)c(-c4cc(S(=O)(=O)[O-])ccc4F)c4nc(c(-c5cc(S(=O)(=O)[O-])ccc5F)c5ccc2[nH]5)C=C4)C=C3)cc1
REMARK SMILES IDX 4 1 3 2 2 3 1 4 31 5 32 6 93 7 33 8 92 9 34 10 35 11 36 12
REMARK SMILES IDX 86 13 37 14 91 15 85 16 87 17 38 18 90 19 84 20 83 21 39 23
REMARK SMILES IDX 71 24 51 25 70 26 52 27 55 28 69 29 88 30 53 31 54 32 68 34
REMARK SMILES IDX 89 35 56 36 40 37 41 38 49 39 42 40 48 41 50 42 47 43 43 44
REMARK SMILES IDX 44 45 45 46 46 47 72 48 73 49 81 50 74 51 80 52 82 53 79 54
REMARK SMILES IDX 75 55 76 56 77 57 78 58 57 59 58 60 66 61 59 62 65 63 67 64
REMARK SMILES IDX 64 65 60 66 61 67 62 68 63 69 5 70 6 71 7 72 8 73 9 74 10 75
REMARK SMILES IDX 11 76 12 77 19 78 13 79 14 80 18 81 15 83 17 84 16 85 20 86
REMARK SMILES IDX 21 88 22 89 30 90 23 91 25 92 29 93 24 94 26 95 28 96 27 97
REMARK H PARENT 87 22 55 33 13 82 20 87
REMARK Flexibility Score: inf
ROOT
ATOM      1  C   UNL A   1      31.290  29.617  24.729  1.00  0.00     0.275 C 
ENDROOT
BRANCH   1   2
ATOM      2  O   UNL A   1      31.612  29.773  26.112  1.00  0.00    -0.458 OA
BRANCH   2   3
ATOM      3  C   UNL A   1      32.042  30.982  26.520  1.00  0.00     0.338 C 
ATOM      4  O   UNL A   1      31.317  31.972  26.459  1.00  0.00    -0.246 OA
BRANCH   3   5
ATOM      5  C   UNL A   1      33.395  31.162  27.120  1.00  0.00     0.060 A 
ATOM      6  C   UNL A   1      34.115  32.634  27.978  1.00  0.00     0.016 A 
ATOM      7  C   UNL A   1      33.974  29.534  27.563  1.00  0.00     0.016 A 
ATOM      8  C   UNL A   1      35.467  32.385  29.245  1.00  0.00     0.010 A 
ATOM      9  C   UNL A   1      35.215  29.334  28.818  1.00  0.00     0.010 A 
ATOM     10  C   UNL A   1      36.082  30.701  29.565  1.00  0.00    -0.014 A 
BRANCH  10  11
ATOM     11  C   UNL A   1      37.401  30.395  30.225  1.00  0.00     0.031 A 
ATOM     12  C   UNL A   1      38.544  29.666  29.489  1.00  0.00     0.074 A 
ATOM     13  C   UNL A   1      37.609  30.857  31.472  1.00  0.00     0.049 A 
ATOM     14  N   UNL A   1      39.802  29.494  29.848  1.00  0.00    -0.248 NA
ATOM     15  C   UNL A   1      38.276  29.041  28.189  1.00  0.00     0.031 C 
ATOM     16  C   UNL A   1      36.606  31.533  32.288  1.00  0.00     0.029 A 
ATOM     17  N   UNL A   1      38.726  30.857  32.267  1.00  0.00    -0.354 N 
ATOM     18  C   UNL A   1      40.425  28.796  28.803  1.00  0.00     0.074 A 
ATOM     19  C   UNL A   1      39.430  28.537  27.815  1.00  0.00     0.031 C 
ATOM     20  C   UNL A   1      37.175  31.998  33.405  1.00  0.00     0.029 A 
ATOM     21  C   UNL A   1      38.539  31.497  33.471  1.00  0.00     0.049 A 
ATOM     22  H   UNL A   1      39.577  30.439  32.002  1.00  0.00     0.167 HD
ATOM     23  C   UNL A   1      41.694  28.338  28.668  1.00  0.00     0.034 A 
ATOM     24  C   UNL A   1      39.343  31.606  34.546  1.00  0.00     0.034 A 
ATOM     25  C   UNL A   1      42.625  28.385  29.754  1.00  0.00     0.049 A 
ATOM     26  C   UNL A   1      40.693  30.954  34.463  1.00  0.00     0.074 A 
ATOM     27  C   UNL A   1      43.881  27.820  29.848  1.00  0.00     0.029 A 
ATOM     28  N   UNL A   1      42.342  28.970  30.981  1.00  0.00    -0.354 N 
ATOM     29  N   UNL A   1      41.237  30.315  33.449  1.00  0.00    -0.248 NA
ATOM     30  C   UNL A   1      41.530  31.007  35.664  1.00  0.00     0.031 C 
ATOM     31  C   UNL A   1      44.301  27.952  31.175  1.00  0.00     0.029 A 
ATOM     32  C   UNL A   1      43.371  28.720  31.865  1.00  0.00     0.049 A 
ATOM     33  H   UNL A   1      41.530  29.485  31.190  1.00  0.00     0.167 HD
ATOM     34  C   UNL A   1      42.487  29.900  33.886  1.00  0.00     0.074 A 
ATOM     35  C   UNL A   1      42.617  30.367  35.254  1.00  0.00     0.031 C 
ATOM     36  C   UNL A   1      43.444  29.204  33.222  1.00  0.00     0.034 A 
BRANCH  23  37
ATOM     37  C   UNL A   1      42.025  27.588  27.384  1.00  0.00     0.023 A 
ATOM     38  C   UNL A   1      42.232  26.192  27.371  1.00  0.00     0.031 A 
ATOM     39  C   UNL A   1      42.315  28.297  26.204  1.00  0.00     0.131 A 
ATOM     40  C   UNL A   1      42.816  25.577  26.247  1.00  0.00     0.055 A 
ATOM     41  C   UNL A   1      42.806  27.664  25.059  1.00  0.00     0.041 A 
ATOM     42  F   UNL A   1      42.191  29.633  26.161  1.00  0.00    -0.206 F 
ATOM     43  C   UNL A   1      43.082  26.300  25.083  1.00  0.00     0.022 A 
BRANCH  40  44
ATOM     44  S   UNL A   1      43.438  23.875  26.410  1.00  0.00     0.124 S 
ATOM     45  O   UNL A   1      42.670  23.181  25.378  1.00  0.00    -0.237 OA
ATOM     46  O   UNL A   1      44.863  24.032  26.143  1.00  0.00    -0.237 OA
ATOM     47  O   UNL A   1      43.095  23.512  27.783  1.00  0.00    -0.744 OA
ENDBRANCH  40  44
ENDBRANCH  23  37
BRANCH  24  48
ATOM     48  C   UNL A   1      38.825  32.256  35.787  1.00  0.00     0.023 A 
ATOM     49  C   UNL A   1      38.177  31.532  36.799  1.00  0.00     0.031 A 
ATOM     50  C   UNL A   1      39.043  33.634  36.007  1.00  0.00     0.131 A 
ATOM     51  C   UNL A   1      37.786  32.184  37.983  1.00  0.00     0.055 A 
ATOM     52  C   UNL A   1      38.715  34.259  37.209  1.00  0.00     0.041 A 
ATOM     53  F   UNL A   1      39.644  34.384  35.067  1.00  0.00    -0.206 F 
ATOM     54  C   UNL A   1      38.077  33.533  38.205  1.00  0.00     0.022 A 
BRANCH  51  55
ATOM     55  S   UNL A   1      36.834  31.261  39.223  1.00  0.00     0.124 S 
ATOM     56  O   UNL A   1      36.736  29.944  38.605  1.00  0.00    -0.237 OA
ATOM     57  O   UNL A   1      37.691  31.357  40.400  1.00  0.00    -0.237 OA
ATOM     58  O   UNL A   1      35.578  32.002  39.309  1.00  0.00    -0.744 OA
ENDBRANCH  51  55
ENDBRANCH  24  48
BRANCH  36  59
ATOM     59  C   UNL A   1      44.738  28.961  33.942  1.00  0.00     0.023 A 
ATOM     60  C   UNL A   1      44.964  27.794  34.683  1.00  0.00     0.031 A 
ATOM     61  C   UNL A   1      45.780  29.895  33.813  1.00  0.00     0.131 A 
ATOM     62  C   UNL A   1      46.203  27.607  35.306  1.00  0.00     0.055 A 
ATOM     63  C   UNL A   1      47.032  29.671  34.376  1.00  0.00     0.041 A 
ATOM     64  F   UNL A   1      45.603  31.024  33.107  1.00  0.00    -0.206 F 
ATOM     65  C   UNL A   1      47.245  28.525  35.136  1.00  0.00     0.022 A 
BRANCH  62  66
ATOM     66  S   UNL A   1      46.411  26.185  36.406  1.00  0.00     0.124 S 
ATOM     67  O   UNL A   1      46.280  26.802  37.722  1.00  0.00    -0.237 OA
ATOM     68  O   UNL A   1      45.316  25.311  35.999  1.00  0.00    -0.237 OA
ATOM     69  O   UNL A   1      47.750  25.696  36.081  1.00  0.00    -0.744 OA
ENDBRANCH  62  66
ENDBRANCH  36  59
ENDBRANCH  10  11
ENDBRANCH   3   5
ENDBRANCH   2   3
ENDBRANCH   1   2
BRANCH   1  70
ATOM     70  C   UNL A   1      32.481  28.979  23.973  1.00  0.00     0.274 C 
BRANCH  70  71
ATOM     71  O   UNL A   1      32.491  27.580  24.364  1.00  0.00    -0.461 OA
BRANCH  71  72
ATOM     72  C   UNL A   1      31.736  26.476  24.358  1.00  0.00     0.329 C 
ATOM     73  O   UNL A   1      30.526  26.500  24.537  1.00  0.00    -0.250 OA
BRANCH  72  74
ATOM     74  C   UNL A   1      32.673  25.103  24.286  1.00  0.00     0.195 C 
BRANCH  74  75
ATOM     75  C   UNL A   1      34.504  24.995  23.939  1.00  0.00     0.074 C 
BRANCH  75  76
ATOM     76  C   UNL A   1      36.000  23.471  24.350  1.00  0.00    -0.020 A 
ATOM     77  C   UNL A   1      36.332  22.141  23.882  1.00  0.00     0.087 A 
ATOM     78  C   UNL A   1      37.343  23.479  25.486  1.00  0.00     0.003 A 
ATOM     79  N   UNL A   1      37.248  21.450  24.658  1.00  0.00    -0.361 N 
ATOM     80  C   UNL A   1      37.984  22.252  25.475  1.00  0.00     0.046 A 
ATOM     81  C   UNL A   1      37.930  24.425  26.438  1.00  0.00     0.010 A 
ATOM     82  H   UNL A   1      37.357  20.472  24.622  1.00  0.00     0.166 HD
ATOM     83  C   UNL A   1      39.130  21.963  26.249  1.00  0.00     0.026 A 
ATOM     84  C   UNL A   1      39.112  24.196  27.140  1.00  0.00     0.001 A 
ATOM     85  C   UNL A   1      39.712  22.964  27.038  1.00  0.00     0.002 A 
ENDBRANCH  75  76
ENDBRANCH  74  75
BRANCH  74  86
ATOM     86  N   UNL A   1      32.324  24.256  25.451  1.00  0.00    -0.356 N 
ATOM     87  H   UNL A   1      31.651  24.655  26.049  1.00  0.00     0.163 HD
BRANCH  86  88
ATOM     88  C   UNL A   1      32.762  23.026  25.848  1.00  0.00     0.137 A 
ATOM     89  N   UNL A   1      33.348  23.119  27.057  1.00  0.00    -0.219 NA
ATOM     90  C   UNL A   1      32.715  21.810  25.142  1.00  0.00     0.043 A 
ATOM     91  C   UNL A   1      33.821  21.993  27.596  1.00  0.00     0.224 A 
ATOM     92  C   UNL A   1      33.209  20.695  25.845  1.00  0.00     0.076 A 
ATOM     93  C   UNL A   1      32.285  21.608  23.803  1.00  0.00     0.014 A 
ATOM     94  N   UNL A   1      33.738  20.773  27.067  1.00  0.00    -0.236 NA
ATOM     95  C   UNL A   1      33.180  19.441  25.247  1.00  0.00     0.029 A 
ATOM     96  C   UNL A   1      32.305  20.347  23.206  1.00  0.00     0.001 A 
ATOM     97  C   UNL A   1      32.733  19.254  23.940  1.00  0.00     0.002 A 
ENDBRANCH  86  88
ENDBRANCH  74  86
ENDBRANCH  72  74
ENDBRANCH  71  72
ENDBRANCH  70  71
ENDBRANCH   1  70
TORSDOF 18
ENDMDL
MODEL 2
REMARK VINA RESULT:     -12.7      5.409      9.996
REMARK SMILES O=C(OCCOC(=O)[C@@H](Cc1c[nH]c2ccccc12)Nc1ncnc2ccccc12)c1ccc(-c2c3nc(c(-c4cc(S(=O)(=O)[O-])ccc4F)c4ccc([nH]4)c(-c4cc(S(=O)(=O)[O-])ccc4F)c4nc(c(-c5cc(S(=O)(=O)[O-])ccc5F)c5ccc2[nH]5)C=C4)C=C3)cc1
REMARK SMILES IDX 4 1 3 2 2 3 1 4 31 5 32 6 93 7 33 8 92 9 34 10 35 11 36 12
REMARK SMILES IDX 86 13 37 14 91 15 85 16 87 17 38 18 90 19 84 20 83 21 39 23
REMARK SMILES IDX 71 24 51 25 70 26 52 27 55 28 69 29 88 30 53 31 54 32 68 34
REMARK SMILES IDX 89 35 56 36 40 37 41 38 49 39 42 40 48 41 50 42 47 43 43 44
REMARK SMILES IDX 44 45 45 46 46 47 72 48 73 49 81 50 74 51 80 52 82 53 79 54
REMARK SMILES IDX 75 55 76 56 77 57 78 58 57 59 58 60 66 61 59 62 65 63 67 64
REMARK SMILES IDX 64 65 60 66 61 67 62 68 63 69 5 70 6 71 7 72 8 73 9 74 10 75
REMARK SMILES IDX 11 76 12 77 19 78 13 79 14 80 18 81 15 83 17 84 16 85 20 86
REMARK SMILES IDX 21 88 22 89 30 90 23 91 25 92 29 93 24 94 26 95 28 96 27 97
REMARK H PARENT 87 22 55 33 13 82 20 87
REMARK Flexibility Score: inf
ROOT
ATOM      1  C   UNL A   1      41.180  21.038  26.517  1.00  0.00     0.275 C 
ENDROOT
BRANCH   1   2
ATOM      2  O   UNL A   1      42.059  21.469  25.477  1.00  0.00    -0.458 OA
BRANCH   2   3
ATOM      3  C   UNL A   1      43.162  22.154  25.834  1.00  0.00     0.338 C 
ATOM      4  O   UNL A   1      44.278  21.813  25.449  1.00  0.00    -0.246 OA
BRANCH   3   5
ATOM      5  C   UNL A   1      43.073  23.390  26.662  1.00  0.00     0.060 A 
ATOM      6  C   UNL A   1      43.657  23.692  28.391  1.00  0.00     0.016 A 
ATOM      7  C   UNL A   1      43.001  24.760  25.523  1.00  0.00     0.016 A 
ATOM      8  C   UNL A   1      44.103  25.429  28.917  1.00  0.00     0.010 A 
ATOM      9  C   UNL A   1      43.494  26.385  26.042  1.00  0.00     0.010 A 
ATOM     10  C   UNL A   1      43.900  26.794  27.729  1.00  0.00    -0.014 A 
BRANCH  10  11
ATOM     11  C   UNL A   1      43.824  28.248  28.117  1.00  0.00     0.031 A 
ATOM     12  C   UNL A   1      42.519  28.904  28.611  1.00  0.00     0.074 A 
ATOM     13  C   UNL A   1      44.962  28.966  28.112  1.00  0.00     0.049 A 
ATOM     14  N   UNL A   1      42.328  30.088  29.162  1.00  0.00    -0.248 NA
ATOM     15  C   UNL A   1      41.255  28.170  28.486  1.00  0.00     0.031 C 
ATOM     16  C   UNL A   1      46.254  28.477  27.640  1.00  0.00     0.029 A 
ATOM     17  N   UNL A   1      45.234  30.243  28.531  1.00  0.00    -0.354 N 
ATOM     18  C   UNL A   1      40.960  30.175  29.460  1.00  0.00     0.074 A 
ATOM     19  C   UNL A   1      40.351  28.966  29.011  1.00  0.00     0.031 C 
ATOM     20  C   UNL A   1      47.202  29.379  27.913  1.00  0.00     0.029 A 
ATOM     21  C   UNL A   1      46.561  30.586  28.412  1.00  0.00     0.049 A 
ATOM     22  H   UNL A   1      44.546  30.853  28.882  1.00  0.00     0.167 HD
ATOM     23  C   UNL A   1      40.227  31.179  30.001  1.00  0.00     0.034 A 
ATOM     24  C   UNL A   1      47.189  31.762  28.607  1.00  0.00     0.034 A 
ATOM     25  C   UNL A   1      40.788  32.476  30.230  1.00  0.00     0.049 A 
ATOM     26  C   UNL A   1      46.347  32.924  29.048  1.00  0.00     0.074 A 
ATOM     27  C   UNL A   1      40.157  33.643  30.606  1.00  0.00     0.029 A 
ATOM     28  N   UNL A   1      42.124  32.783  30.003  1.00  0.00    -0.354 N 
ATOM     29  N   UNL A   1      45.062  32.951  29.325  1.00  0.00    -0.248 NA
ATOM     30  C   UNL A   1      47.022  34.218  29.179  1.00  0.00     0.031 C 
ATOM     31  C   UNL A   1      41.085  34.681  30.481  1.00  0.00     0.029 A 
ATOM     32  C   UNL A   1      42.324  34.137  30.164  1.00  0.00     0.049 A 
ATOM     33  H   UNL A   1      42.822  32.132  29.764  1.00  0.00     0.167 HD
ATOM     34  C   UNL A   1      44.774  34.263  29.676  1.00  0.00     0.074 A 
ATOM     35  C   UNL A   1      46.024  34.994  29.581  1.00  0.00     0.031 C 
ATOM     36  C   UNL A   1      43.592  34.815  30.049  1.00  0.00     0.034 A 
BRANCH  23  37
ATOM     37  C   UNL A   1      38.733  30.932  30.165  1.00  0.00     0.023 A 
ATOM     38  C   UNL A   1      37.785  31.494  29.282  1.00  0.00     0.031 A 
ATOM     39  C   UNL A   1      38.243  30.285  31.315  1.00  0.00     0.131 A 
ATOM     40  C   UNL A   1      36.419  31.494  29.622  1.00  0.00     0.055 A 
ATOM     41  C   UNL A   1      36.876  30.206  31.597  1.00  0.00     0.041 A 
ATOM     42  F   UNL A   1      39.088  29.773  32.223  1.00  0.00    -0.206 F 
ATOM     43  C   UNL A   1      35.957  30.833  30.762  1.00  0.00     0.022 A 
BRANCH  40  44
ATOM     44  S   UNL A   1      35.287  32.565  28.684  1.00  0.00     0.124 S 
ATOM     45  O   UNL A   1      36.166  33.071  27.631  1.00  0.00    -0.237 OA
ATOM     46  O   UNL A   1      34.253  31.632  28.253  1.00  0.00    -0.237 OA
ATOM     47  O   UNL A   1      34.862  33.562  29.665  1.00  0.00    -0.744 OA
ENDBRANCH  40  44
ENDBRANCH  23  37
BRANCH  24  48
ATOM     48  C   UNL A   1      48.640  31.883  28.271  1.00  0.00     0.023 A 
ATOM     49  C   UNL A   1      49.091  32.566  27.132  1.00  0.00     0.031 A 
ATOM     50  C   UNL A   1      49.614  31.361  29.150  1.00  0.00     0.131 A 
ATOM     51  C   UNL A   1      50.473  32.721  26.913  1.00  0.00     0.055 A 
ATOM     52  C   UNL A   1      50.979  31.576  28.964  1.00  0.00     0.041 A 
ATOM     53  F   UNL A   1      49.242  30.683  30.249  1.00  0.00    -0.206 F 
ATOM     54  C   UNL A   1      51.415  32.257  27.835  1.00  0.00     0.022 A 
BRANCH  51  55
ATOM     55  S   UNL A   1      51.039  33.492  25.371  1.00  0.00     0.124 S 
ATOM     56  O   UNL A   1      51.294  32.328  24.530  1.00  0.00    -0.237 OA
ATOM     57  O   UNL A   1      49.891  34.313  24.999  1.00  0.00    -0.237 OA
ATOM     58  O   UNL A   1      52.228  34.238  25.778  1.00  0.00    -0.744 OA
ENDBRANCH  51  55
ENDBRANCH  24  48
BRANCH  36  59
ATOM     59  C   UNL A   1      43.607  36.262  30.442  1.00  0.00     0.023 A 
ATOM     60  C   UNL A   1      43.762  36.665  31.776  1.00  0.00     0.031 A 
ATOM     61  C   UNL A   1      43.535  37.247  29.442  1.00  0.00     0.131 A 
ATOM     62  C   UNL A   1      43.802  38.030  32.079  1.00  0.00     0.055 A 
ATOM     63  C   UNL A   1      43.645  38.600  29.743  1.00  0.00     0.041 A 
ATOM     64  F   UNL A   1      43.390  36.901  28.152  1.00  0.00    -0.206 F 
ATOM     65  C   UNL A   1      43.770  38.998  31.071  1.00  0.00     0.022 A 
BRANCH  62  66
ATOM     66  S   UNL A   1      43.819  38.527  33.820  1.00  0.00     0.124 S 
ATOM     67  O   UNL A   1      45.102  37.997  34.271  1.00  0.00    -0.237 OA
ATOM     68  O   UNL A   1      43.726  39.981  33.732  1.00  0.00    -0.237 OA
ATOM     69  O   UNL A   1      42.642  37.862  34.376  1.00  0.00    -0.744 OA
ENDBRANCH  62  66
ENDBRANCH  36  59
ENDBRANCH  10  11
ENDBRANCH   3   5
ENDBRANCH   2   3
ENDBRANCH   1   2
BRANCH   1  70
ATOM     70  C   UNL A   1      39.827  21.784  26.415  1.00  0.00     0.274 C 
BRANCH  70  71
ATOM     71  O   UNL A   1      38.981  20.952  25.577  1.00  0.00    -0.461 OA
BRANCH  71  72
ATOM     72  C   UNL A   1      37.700  20.705  25.282  1.00  0.00     0.329 C 
ATOM     73  O   UNL A   1      37.325  19.650  24.790  1.00  0.00    -0.250 OA
BRANCH  72  74
ATOM     74  C   UNL A   1      36.762  22.064  25.480  1.00  0.00     0.195 C 
BRANCH  74  75
ATOM     75  C   UNL A   1      36.304  23.326  24.182  1.00  0.00     0.074 C 
BRANCH  75  76
ATOM     76  C   UNL A   1      34.427  23.827  23.203  1.00  0.00    -0.020 A 
ATOM     77  C   UNL A   1      33.456  23.175  22.350  1.00  0.00     0.087 A 
ATOM     78  C   UNL A   1      33.511  25.328  23.213  1.00  0.00     0.003 A 
ATOM     79  N   UNL A   1      32.528  24.015  21.757  1.00  0.00    -0.361 N 
ATOM     80  C   UNL A   1      32.416  25.224  22.373  1.00  0.00     0.046 A 
ATOM     81  C   UNL A   1      33.620  26.642  23.851  1.00  0.00     0.010 A 
ATOM     82  H   UNL A   1      32.000  23.763  20.965  1.00  0.00     0.166 HD
ATOM     83  C   UNL A   1      31.461  26.252  22.202  1.00  0.00     0.026 A 
ATOM     84  C   UNL A   1      32.645  27.634  23.772  1.00  0.00     0.001 A 
ATOM     85  C   UNL A   1      31.564  27.432  22.950  1.00  0.00     0.002 A 
ENDBRANCH  75  76
ENDBRANCH  74  75
BRANCH  74  86
ATOM     86  N   UNL A   1      35.563  21.676  26.259  1.00  0.00    -0.356 N 
ATOM     87  H   UNL A   1      35.740  21.519  27.215  1.00  0.00     0.163 HD
BRANCH  86  88
ATOM     88  C   UNL A   1      34.259  21.499  25.898  1.00  0.00     0.137 A 
ATOM     89  N   UNL A   1      34.113  20.307  25.288  1.00  0.00    -0.219 NA
ATOM     90  C   UNL A   1      33.181  22.393  26.038  1.00  0.00     0.043 A 
ATOM     91  C   UNL A   1      32.886  19.973  24.882  1.00  0.00     0.224 A 
ATOM     92  C   UNL A   1      31.937  21.896  25.608  1.00  0.00     0.076 A 
ATOM     93  C   UNL A   1      33.231  23.735  26.502  1.00  0.00     0.014 A 
ATOM     94  N   UNL A   1      31.778  20.692  25.056  1.00  0.00    -0.236 NA
ATOM     95  C   UNL A   1      30.803  22.690  25.731  1.00  0.00     0.029 A 
ATOM     96  C   UNL A   1      32.088  24.531  26.575  1.00  0.00     0.001 A 
ATOM     97  C   UNL A   1      30.864  23.998  26.210  1.00  0.00     0.002 A 
ENDBRANCH  86  88
ENDBRANCH  74  86
ENDBRANCH  72  74
ENDBRANCH  71  72
ENDBRANCH  70  71
ENDBRANCH   1  70
TORSDOF 18
ENDMDL
MODEL 3
REMARK VINA RESULT:     -12.6      1.181      2.905
REMARK SMILES O=C(OCCOC(=O)[C@@H](Cc1c[nH]c2ccccc12)Nc1ncnc2ccccc12)c1ccc(-c2c3nc(c(-c4cc(S(=O)(=O)[O-])ccc4F)c4ccc([nH]4)c(-c4cc(S(=O)(=O)[O-])ccc4F)c4nc(c(-c5cc(S(=O)(=O)[O-])ccc5F)c5ccc2[nH]5)C=C4)C=C3)cc1
REMARK SMILES IDX 4 1 3 2 2 3 1 4 31 5 32 6 93 7 33 8 92 9 34 10 35 11 36 12
REMARK SMILES IDX 86 13 37 14 91 15 85 16 87 17 38 18 90 19 84 20 83 21 39 23
REMARK SMILES IDX 71 24 51 25 70 26 52 27 55 28 69 29 88 30 53 31 54 32 68 34
REMARK SMILES IDX 89 35 56 36 40 37 41 38 49 39 42 40 48 41 50 42 47 43 43 44
REMARK SMILES IDX 44 45 45 46 46 47 72 48 73 49 81 50 74 51 80 52 82 53 79 54
REMARK SMILES IDX 75 55 76 56 77 57 78 58 57 59 58 60 66 61 59 62 65 63 67 64
REMARK SMILES IDX 64 65 60 66 61 67 62 68 63 69 5 70 6 71 7 72 8 73 9 74 10 75
REMARK SMILES IDX 11 76 12 77 19 78 13 79 14 80 18 81 15 83 17 84 16 85 20 86
REMARK SMILES IDX 21 88 22 89 30 90 23 91 25 92 29 93 24 94 26 95 28 96 27 97
REMARK H PARENT 87 22 55 33 13 82 20 87
REMARK Flexibility Score: inf
ROOT
ATOM      1  C   UNL A   1      31.032  29.494  24.954  1.00  0.00     0.275 C 
ENDROOT
BRANCH   1   2
ATOM      2  O   UNL A   1      32.214  30.281  25.104  1.00  0.00    -0.458 OA
BRANCH   2   3
ATOM      3  C   UNL A   1      32.395  30.920  26.275  1.00  0.00     0.338 C 
ATOM      4  O   UNL A   1      31.453  31.430  26.877  1.00  0.00    -0.246 OA
BRANCH   3   5
ATOM      5  C   UNL A   1      33.735  30.985  26.925  1.00  0.00     0.060 A 
ATOM      6  C   UNL A   1      34.563  32.403  27.776  1.00  0.00     0.016 A 
ATOM      7  C   UNL A   1      34.137  29.322  27.428  1.00  0.00     0.016 A 
ATOM      8  C   UNL A   1      35.835  32.060  29.102  1.00  0.00     0.010 A 
ATOM      9  C   UNL A   1      35.304  29.037  28.736  1.00  0.00     0.010 A 
ATOM     10  C   UNL A   1      36.271  30.334  29.485  1.00  0.00    -0.014 A 
BRANCH  10  11
ATOM     11  C   UNL A   1      37.528  29.919  30.205  1.00  0.00     0.031 A 
ATOM     12  C   UNL A   1      38.629  29.079  29.527  1.00  0.00     0.074 A 
ATOM     13  C   UNL A   1      37.725  30.380  31.454  1.00  0.00     0.049 A 
ATOM     14  N   UNL A   1      39.851  28.800  29.941  1.00  0.00    -0.248 NA
ATOM     15  C   UNL A   1      38.360  28.461  28.224  1.00  0.00     0.031 C 
ATOM     16  C   UNL A   1      36.755  31.156  32.218  1.00  0.00     0.029 A 
ATOM     17  N   UNL A   1      38.803  30.291  32.296  1.00  0.00    -0.354 N 
ATOM     18  C   UNL A   1      40.451  28.032  28.932  1.00  0.00     0.074 A 
ATOM     19  C   UNL A   1      39.478  27.849  27.905  1.00  0.00     0.031 C 
ATOM     20  C   UNL A   1      37.317  31.585  33.353  1.00  0.00     0.029 A 
ATOM     21  C   UNL A   1      38.626  30.964  33.483  1.00  0.00     0.049 A 
ATOM     22  H   UNL A   1      39.623  29.794  32.072  1.00  0.00     0.167 HD
ATOM     23  C   UNL A   1      41.678  27.460  28.856  1.00  0.00     0.034 A 
ATOM     24  C   UNL A   1      39.391  31.016  34.590  1.00  0.00     0.034 A 
ATOM     25  C   UNL A   1      42.563  27.439  29.980  1.00  0.00     0.049 A 
ATOM     26  C   UNL A   1      40.678  30.244  34.572  1.00  0.00     0.074 A 
ATOM     27  C   UNL A   1      43.757  26.765  30.135  1.00  0.00     0.029 A 
ATOM     28  N   UNL A   1      42.283  28.066  31.188  1.00  0.00    -0.354 N 
ATOM     29  N   UNL A   1      41.204  29.543  33.590  1.00  0.00    -0.248 NA
ATOM     30  C   UNL A   1      41.466  30.239  35.807  1.00  0.00     0.031 C 
ATOM     31  C   UNL A   1      44.132  26.879  31.477  1.00  0.00     0.029 A 
ATOM     32  C   UNL A   1      43.248  27.738  32.117  1.00  0.00     0.049 A 
ATOM     33  H   UNL A   1      41.514  28.655  31.356  1.00  0.00     0.167 HD
ATOM     34  C   UNL A   1      42.392  29.024  34.085  1.00  0.00     0.074 A 
ATOM     35  C   UNL A   1      42.507  29.498  35.452  1.00  0.00     0.031 C 
ATOM     36  C   UNL A   1      43.308  28.234  33.471  1.00  0.00     0.034 A 
BRANCH  23  37
ATOM     37  C   UNL A   1      41.992  26.664  27.597  1.00  0.00     0.023 A 
ATOM     38  C   UNL A   1      41.869  25.258  27.555  1.00  0.00     0.031 A 
ATOM     39  C   UNL A   1      42.592  27.294  26.491  1.00  0.00     0.131 A 
ATOM     40  C   UNL A   1      42.437  24.532  26.491  1.00  0.00     0.055 A 
ATOM     41  C   UNL A   1      43.070  26.572  25.393  1.00  0.00     0.041 A 
ATOM     42  F   UNL A   1      42.788  28.622  26.484  1.00  0.00    -0.206 F 
ATOM     43  C   UNL A   1      43.015  25.182  25.399  1.00  0.00     0.022 A 
BRANCH  40  44
ATOM     44  S   UNL A   1      42.619  22.731  26.665  1.00  0.00     0.124 S 
ATOM     45  O   UNL A   1      44.056  22.602  26.904  1.00  0.00    -0.237 OA
ATOM     46  O   UNL A   1      41.757  22.434  27.802  1.00  0.00    -0.237 OA
ATOM     47  O   UNL A   1      42.160  22.212  25.378  1.00  0.00    -0.744 OA
ENDBRANCH  40  44
ENDBRANCH  23  37
BRANCH  24  48
ATOM     48  C   UNL A   1      38.883  31.730  35.801  1.00  0.00     0.023 A 
ATOM     49  C   UNL A   1      38.122  31.085  36.787  1.00  0.00     0.031 A 
ATOM     50  C   UNL A   1      39.224  33.082  36.019  1.00  0.00     0.131 A 
ATOM     51  C   UNL A   1      37.744  31.786  37.947  1.00  0.00     0.055 A 
ATOM     52  C   UNL A   1      38.905  33.752  37.199  1.00  0.00     0.041 A 
ATOM     53  F   UNL A   1      39.937  33.758  35.102  1.00  0.00    -0.206 F 
ATOM     54  C   UNL A   1      38.155  33.103  38.170  1.00  0.00     0.022 A 
BRANCH  51  55
ATOM     55  S   UNL A   1      36.651  30.977  39.148  1.00  0.00     0.124 S 
ATOM     56  O   UNL A   1      37.519  30.866  40.315  1.00  0.00    -0.237 OA
ATOM     57  O   UNL A   1      35.551  31.930  39.254  1.00  0.00    -0.237 OA
ATOM     58  O   UNL A   1      36.313  29.710  38.503  1.00  0.00    -0.744 OA
ENDBRANCH  51  55
ENDBRANCH  24  48
BRANCH  36  59
ATOM     59  C   UNL A   1      44.543  27.886  34.248  1.00  0.00     0.023 A 
ATOM     60  C   UNL A   1      44.626  26.723  35.025  1.00  0.00     0.031 A 
ATOM     61  C   UNL A   1      45.677  28.711  34.139  1.00  0.00     0.131 A 
ATOM     62  C   UNL A   1      45.816  26.434  35.701  1.00  0.00     0.055 A 
ATOM     63  C   UNL A   1      46.878  28.382  34.758  1.00  0.00     0.041 A 
ATOM     64  F   UNL A   1      45.638  29.832  33.400  1.00  0.00    -0.206 F 
ATOM     65  C   UNL A   1      46.949  27.241  35.553  1.00  0.00     0.022 A 
BRANCH  62  66
ATOM     66  S   UNL A   1      45.841  25.029  36.842  1.00  0.00     0.124 S 
ATOM     67  O   UNL A   1      46.877  25.430  37.790  1.00  0.00    -0.237 OA
ATOM     68  O   UNL A   1      44.476  25.017  37.357  1.00  0.00    -0.237 OA
ATOM     69  O   UNL A   1      46.191  23.899  35.983  1.00  0.00    -0.744 OA
ENDBRANCH  62  66
ENDBRANCH  36  59
ENDBRANCH  10  11
ENDBRANCH   3   5
ENDBRANCH   2   3
ENDBRANCH   1   2
BRANCH   1  70
ATOM     70  C   UNL A   1      31.264  28.071  25.519  1.00  0.00     0.274 C 
BRANCH  70  71
ATOM     71  O   UNL A   1      30.715  27.161  24.528  1.00  0.00    -0.461 OA
BRANCH  71  72
ATOM     72  C   UNL A   1      30.252  25.915  24.378  1.00  0.00     0.329 C 
ATOM     73  O   UNL A   1      29.140  25.672  23.929  1.00  0.00    -0.250 OA
BRANCH  72  74
ATOM     74  C   UNL A   1      31.282  24.801  25.059  1.00  0.00     0.195 C 
BRANCH  74  75
ATOM     75  C   UNL A   1      31.081  22.945  25.102  1.00  0.00     0.074 C 
BRANCH  75  76
ATOM     76  C   UNL A   1      32.498  21.308  25.313  1.00  0.00    -0.020 A 
ATOM     77  C   UNL A   1      33.539  20.904  26.235  1.00  0.00     0.087 A 
ATOM     78  C   UNL A   1      32.757  19.897  24.296  1.00  0.00     0.003 A 
ATOM     79  N   UNL A   1      34.364  19.886  25.789  1.00  0.00    -0.361 N 
ATOM     80  C   UNL A   1      33.832  19.163  24.765  1.00  0.00     0.046 A 
ATOM     81  C   UNL A   1      32.153  19.324  23.091  1.00  0.00     0.010 A 
ATOM     82  H   UNL A   1      35.251  19.702  26.174  1.00  0.00     0.166 HD
ATOM     83  C   UNL A   1      34.260  17.948  24.185  1.00  0.00     0.026 A 
ATOM     84  C   UNL A   1      32.496  18.083  22.558  1.00  0.00     0.001 A 
ATOM     85  C   UNL A   1      33.548  17.396  23.113  1.00  0.00     0.002 A 
ENDBRANCH  75  76
ENDBRANCH  74  75
BRANCH  74  86
ATOM     86  N   UNL A   1      32.663  25.155  24.653  1.00  0.00    -0.356 N 
ATOM     87  H   UNL A   1      32.923  26.077  24.879  1.00  0.00     0.163 HD
BRANCH  86  88
ATOM     88  C   UNL A   1      33.640  24.439  24.025  1.00  0.00     0.137 A 
ATOM     89  N   UNL A   1      33.227  24.088  22.791  1.00  0.00    -0.219 NA
ATOM     90  C   UNL A   1      34.886  24.025  24.532  1.00  0.00     0.043 A 
ATOM     91  C   UNL A   1      34.078  23.390  22.036  1.00  0.00     0.224 A 
ATOM     92  C   UNL A   1      35.700  23.335  23.615  1.00  0.00     0.076 A 
ATOM     93  C   UNL A   1      35.368  24.178  25.859  1.00  0.00     0.014 A 
ATOM     94  N   UNL A   1      35.318  23.036  22.372  1.00  0.00    -0.236 NA
ATOM     95  C   UNL A   1      36.963  22.908  24.007  1.00  0.00     0.029 A 
ATOM     96  C   UNL A   1      36.622  23.702  26.245  1.00  0.00     0.001 A 
ATOM     97  C   UNL A   1      37.433  23.085  25.308  1.00  0.00     0.002 A 
ENDBRANCH  86  88
ENDBRANCH  74  86
ENDBRANCH  72  74
ENDBRANCH  71  72
ENDBRANCH  70  71
ENDBRANCH   1  70
TORSDOF 18
ENDMDL
