MODEL 1
REMARK VINA RESULT:     -12.6      0.000      0.000
REMARK SMILES COc1ccc(-c2cc(Cl)cc3c2O[C@@H](C(F)(F)F)C(C(=O)OCCOC(=O)c2ccc(-c4c5nc(c(-c6cc(S(=O)(=O)[O-])ccc6F)c6ccc([nH]6)c(-c6cc(S(=O)(=O)[O-])ccc6F)c6nc(c(-c7cc(S(=O)(=O)[O-])ccc7F)c7ccc4[nH]7)C=C6)C=C5)cc2)=C3)cc1C
REMARK SMILES IDX 25 1 24 2 23 3 21 4 22 5 20 6 7 7 8 8 13 9 9 10 12 11 14 12
REMARK SMILES IDX 10 13 11 14 92 15 15 16 6 17 3 18 4 19 94 20 5 21 93 22
REMARK SMILES IDX 95 23 2 24 1 25 16 26 17 27 18 28 19 29 26 30 27 31 28 32
REMARK SMILES IDX 29 33 30 34 91 35 31 36 90 37 32 38 33 39 34 40 84 41 35 42
REMARK SMILES IDX 89 43 83 44 85 45 36 46 88 47 82 48 81 49 37 51 69 52 49 53
REMARK SMILES IDX 68 54 50 55 53 56 67 57 86 58 51 59 52 60 66 62 87 63 54 64
REMARK SMILES IDX 38 65 39 66 47 67 40 68 46 69 48 70 45 71 41 72 42 73 43 74
REMARK SMILES IDX 44 75 70 76 71 77 79 78 72 79 78 80 80 81 77 82 73 83 74 84
REMARK SMILES IDX 75 85 76 86 55 87 56 88 64 89 57 90 63 91 65 92 62 93 58 94
REMARK SMILES IDX 59 95 60 96 61 97
REMARK H PARENT 85 50 53 61
REMARK Flexibility Score: inf
ROOT
ATOM      1  C   UNL A   1      37.910  22.993  25.771  1.00  0.00     0.275 C 
ENDROOT
BRANCH   1   2
ATOM      2  C   UNL A   1      36.487  22.398  25.509  1.00  0.00     0.275 C 
BRANCH   2   3
ATOM      3  O   UNL A   1      35.843  23.030  24.370  1.00  0.00    -0.459 OA
BRANCH   3   4
ATOM      4  C   UNL A   1      34.485  23.126  24.257  1.00  0.00     0.338 C 
ATOM      5  O   UNL A   1      33.764  22.355  23.650  1.00  0.00    -0.246 OA
BRANCH   4   6
ATOM      6  C   UNL A   1      34.014  24.261  25.140  1.00  0.00     0.087 C 
ATOM      7  C   UNL A   1      31.467  27.712  25.153  1.00  0.00     0.026 A 
ATOM      8  C   UNL A   1      31.944  28.758  25.972  1.00  0.00     0.033 A 
ATOM      9  C   UNL A   1      32.287  26.494  25.251  1.00  0.00     0.135 A 
ATOM     10  C   UNL A   1      33.217  28.737  26.562  1.00  0.00     0.042 A 
ATOM     11  C   UNL A   1      33.670  26.562  25.668  1.00  0.00     0.019 A 
ATOM     12  O   UNL A   1      31.740  25.164  25.351  1.00  0.00    -0.475 OA
ATOM     13  Cl  UNL A   1      33.732  30.116  27.458  1.00  0.00    -0.084 Cl
ATOM     14  C   UNL A   1      34.113  27.692  26.341  1.00  0.00     0.032 A 
ATOM     15  C   UNL A   1      34.610  25.458  25.285  1.00  0.00     0.027 C 
ATOM     16  C   UNL A   1      32.716  24.165  25.893  1.00  0.00     0.316 C 
BRANCH   7  17
ATOM     17  C   UNL A   1      30.628  28.319  23.932  1.00  0.00    -0.014 A 
ATOM     18  C   UNL A   1      28.764  29.578  21.994  1.00  0.00     0.121 A 
ATOM     19  C   UNL A   1      30.164  29.738  21.936  1.00  0.00     0.047 A 
ATOM     20  C   UNL A   1      28.259  28.719  22.962  1.00  0.00    -0.008 A 
ATOM     21  C   UNL A   1      31.079  29.145  22.892  1.00  0.00     0.013 A 
ATOM     22  C   UNL A   1      29.191  28.070  23.857  1.00  0.00     0.016 A 
ATOM     23  C   UNL A   1      26.768  28.605  23.172  1.00  0.00     0.048 C 
BRANCH  18  24
ATOM     24  O   UNL A   1      27.984  30.163  21.020  1.00  0.00    -0.496 OA
ATOM     25  C   UNL A   1      28.120  31.581  20.822  1.00  0.00     0.278 C 
ENDBRANCH  18  24
ENDBRANCH   7  17
BRANCH  16  26
ATOM     26  C   UNL A   1      32.426  22.687  26.320  1.00  0.00     0.430 C 
ATOM     27  F   UNL A   1      31.646  22.692  27.457  1.00  0.00    -0.167 F 
ATOM     28  F   UNL A   1      31.648  22.048  25.407  1.00  0.00    -0.167 F 
ATOM     29  F   UNL A   1      33.473  21.892  26.585  1.00  0.00    -0.167 F 
ENDBRANCH  16  26
ENDBRANCH   4   6
ENDBRANCH   3   4
ENDBRANCH   2   3
ENDBRANCH   1   2
BRANCH   1  30
ATOM     30  O   UNL A   1      38.085  24.206  26.527  1.00  0.00    -0.458 OA
BRANCH  30  31
ATOM     31  C   UNL A   1      39.257  24.379  27.188  1.00  0.00     0.338 C 
ATOM     32  O   UNL A   1      40.205  23.667  27.036  1.00  0.00    -0.246 OA
BRANCH  31  33
ATOM     33  C   UNL A   1      39.241  25.687  27.887  1.00  0.00     0.060 A 
ATOM     34  C   UNL A   1      38.811  25.725  29.218  1.00  0.00     0.016 A 
ATOM     35  C   UNL A   1      39.802  26.800  27.281  1.00  0.00     0.016 A 
ATOM     36  C   UNL A   1      38.964  26.857  29.982  1.00  0.00     0.010 A 
ATOM     37  C   UNL A   1      39.994  27.926  28.031  1.00  0.00     0.010 A 
ATOM     38  C   UNL A   1      39.549  27.943  29.353  1.00  0.00    -0.014 A 
BRANCH  38  39
ATOM     39  C   UNL A   1      39.648  29.217  30.024  1.00  0.00     0.031 A 
ATOM     40  C   UNL A   1      38.805  30.245  29.399  1.00  0.00     0.074 A 
ATOM     41  C   UNL A   1      40.539  29.206  31.039  1.00  0.00     0.049 A 
ATOM     42  N   UNL A   1      39.182  31.339  28.827  1.00  0.00    -0.248 NA
ATOM     43  C   UNL A   1      37.380  29.952  29.128  1.00  0.00     0.031 C 
ATOM     44  C   UNL A   1      41.014  30.170  32.007  1.00  0.00     0.029 A 
ATOM     45  N   UNL A   1      41.449  28.181  31.225  1.00  0.00    -0.354 N 
ATOM     46  C   UNL A   1      38.014  32.082  28.834  1.00  0.00     0.074 A 
ATOM     47  C   UNL A   1      36.961  31.120  28.636  1.00  0.00     0.031 C 
ATOM     48  C   UNL A   1      42.297  29.868  32.328  1.00  0.00     0.029 A 
ATOM     49  C   UNL A   1      42.687  28.702  31.550  1.00  0.00     0.049 A 
ATOM     50  H   UNL A   1      41.245  27.222  31.139  1.00  0.00     0.167 HD
ATOM     51  C   UNL A   1      37.980  33.201  29.623  1.00  0.00     0.034 A 
ATOM     52  C   UNL A   1      43.660  28.654  30.591  1.00  0.00     0.034 A 
ATOM     53  C   UNL A   1      39.287  33.423  30.248  1.00  0.00     0.049 A 
ATOM     54  C   UNL A   1      43.893  30.047  30.008  1.00  0.00     0.074 A 
ATOM     55  C   UNL A   1      39.745  33.249  31.545  1.00  0.00     0.029 A 
ATOM     56  N   UNL A   1      40.422  33.494  29.451  1.00  0.00    -0.354 N 
ATOM     57  N   UNL A   1      42.967  30.963  29.889  1.00  0.00    -0.248 NA
ATOM     58  C   UNL A   1      45.195  30.511  29.543  1.00  0.00     0.031 C 
ATOM     59  C   UNL A   1      41.161  33.231  31.521  1.00  0.00     0.029 A 
ATOM     60  C   UNL A   1      41.559  33.292  30.203  1.00  0.00     0.049 A 
ATOM     61  H   UNL A   1      40.416  33.665  28.481  1.00  0.00     0.167 HD
ATOM     62  C   UNL A   1      43.550  32.160  29.535  1.00  0.00     0.074 A 
ATOM     63  C   UNL A   1      44.933  31.800  29.260  1.00  0.00     0.031 C 
ATOM     64  C   UNL A   1      42.862  33.349  29.575  1.00  0.00     0.034 A 
BRANCH  51  65
ATOM     65  C   UNL A   1      36.689  33.746  30.192  1.00  0.00     0.023 A 
ATOM     66  C   UNL A   1      36.594  33.973  31.577  1.00  0.00     0.031 A 
ATOM     67  C   UNL A   1      35.530  34.040  29.450  1.00  0.00     0.131 A 
ATOM     68  C   UNL A   1      35.400  34.369  32.190  1.00  0.00     0.055 A 
ATOM     69  C   UNL A   1      34.327  34.433  30.059  1.00  0.00     0.041 A 
ATOM     70  F   UNL A   1      35.528  33.980  28.109  1.00  0.00    -0.206 F 
ATOM     71  C   UNL A   1      34.254  34.591  31.440  1.00  0.00     0.022 A 
BRANCH  68  72
ATOM     72  S   UNL A   1      35.405  34.600  33.988  1.00  0.00     0.124 S 
ATOM     73  O   UNL A   1      34.600  35.808  34.142  1.00  0.00    -0.237 OA
ATOM     74  O   UNL A   1      34.799  33.362  34.466  1.00  0.00    -0.237 OA
ATOM     75  O   UNL A   1      36.825  34.754  34.303  1.00  0.00    -0.744 OA
ENDBRANCH  68  72
ENDBRANCH  51  65
BRANCH  52  76
ATOM     76  C   UNL A   1      43.582  27.410  29.746  1.00  0.00     0.023 A 
ATOM     77  C   UNL A   1      43.334  27.512  28.330  1.00  0.00     0.031 A 
ATOM     78  C   UNL A   1      44.033  26.195  30.243  1.00  0.00     0.131 A 
ATOM     79  C   UNL A   1      43.700  26.497  27.441  1.00  0.00     0.055 A 
ATOM     80  C   UNL A   1      44.393  25.194  29.367  1.00  0.00     0.041 A 
ATOM     81  F   UNL A   1      44.207  25.963  31.551  1.00  0.00    -0.206 F 
ATOM     82  C   UNL A   1      44.254  25.352  27.976  1.00  0.00     0.022 A 
BRANCH  79  83
ATOM     83  S   UNL A   1      43.708  26.764  25.613  1.00  0.00     0.124 S 
ATOM     84  O   UNL A   1      42.377  26.393  25.158  1.00  0.00    -0.237 OA
ATOM     85  O   UNL A   1      44.000  28.192  25.525  1.00  0.00    -0.237 OA
ATOM     86  O   UNL A   1      44.764  25.887  25.124  1.00  0.00    -0.744 OA
ENDBRANCH  79  83
ENDBRANCH  52  76
BRANCH  64  87
ATOM     87  C   UNL A   1      43.335  34.739  29.194  1.00  0.00     0.023 A 
ATOM     88  C   UNL A   1      43.684  35.715  30.122  1.00  0.00     0.031 A 
ATOM     89  C   UNL A   1      43.456  35.134  27.828  1.00  0.00     0.131 A 
ATOM     90  C   UNL A   1      44.041  37.010  29.712  1.00  0.00     0.055 A 
ATOM     91  C   UNL A   1      43.893  36.391  27.421  1.00  0.00     0.041 A 
ATOM     92  F   UNL A   1      43.148  34.324  26.805  1.00  0.00    -0.206 F 
ATOM     93  C   UNL A   1      44.172  37.353  28.370  1.00  0.00     0.022 A 
BRANCH  90  94
ATOM     94  S   UNL A   1      44.238  38.262  30.998  1.00  0.00     0.124 S 
ATOM     95  O   UNL A   1      43.428  39.359  30.473  1.00  0.00    -0.237 OA
ATOM     96  O   UNL A   1      43.699  37.585  32.173  1.00  0.00    -0.237 OA
ATOM     97  O   UNL A   1      45.678  38.506  31.023  1.00  0.00    -0.744 OA
ENDBRANCH  90  94
ENDBRANCH  64  87
ENDBRANCH  38  39
ENDBRANCH  31  33
ENDBRANCH  30  31
ENDBRANCH   1  30
TORSDOF 17
ENDMDL
MODEL 2
REMARK VINA RESULT:     -12.2      4.772     10.700
REMARK SMILES COc1ccc(-c2cc(Cl)cc3c2O[C@@H](C(F)(F)F)C(C(=O)OCCOC(=O)c2ccc(-c4c5nc(c(-c6cc(S(=O)(=O)[O-])ccc6F)c6ccc([nH]6)c(-c6cc(S(=O)(=O)[O-])ccc6F)c6nc(c(-c7cc(S(=O)(=O)[O-])ccc7F)c7ccc4[nH]7)C=C6)C=C5)cc2)=C3)cc1C
REMARK SMILES IDX 25 1 24 2 23 3 21 4 22 5 20 6 7 7 8 8 13 9 9 10 12 11 14 12
REMARK SMILES IDX 10 13 11 14 92 15 15 16 6 17 3 18 4 19 94 20 5 21 93 22
REMARK SMILES IDX 95 23 2 24 1 25 16 26 17 27 18 28 19 29 26 30 27 31 28 32
REMARK SMILES IDX 29 33 30 34 91 35 31 36 90 37 32 38 33 39 34 40 84 41 35 42
REMARK SMILES IDX 89 43 83 44 85 45 36 46 88 47 82 48 81 49 37 51 69 52 49 53
REMARK SMILES IDX 68 54 50 55 53 56 67 57 86 58 51 59 52 60 66 62 87 63 54 64
REMARK SMILES IDX 38 65 39 66 47 67 40 68 46 69 48 70 45 71 41 72 42 73 43 74
REMARK SMILES IDX 44 75 70 76 71 77 79 78 72 79 78 80 80 81 77 82 73 83 74 84
REMARK SMILES IDX 75 85 76 86 55 87 56 88 64 89 57 90 63 91 65 92 62 93 58 94
REMARK SMILES IDX 59 95 60 96 61 97
REMARK H PARENT 85 50 53 61
REMARK Flexibility Score: inf
ROOT
ATOM      1  C   UNL A   1      41.057  30.060  35.520  1.00  0.00     0.275 C 
ENDROOT
BRANCH   1   2
ATOM      2  C   UNL A   1      39.641  30.600  35.907  1.00  0.00     0.275 C 
BRANCH   2   3
ATOM      3  O   UNL A   1      38.611  30.091  35.017  1.00  0.00    -0.459 OA
BRANCH   3   4
ATOM      4  C   UNL A   1      37.996  30.876  34.084  1.00  0.00     0.338 C 
ATOM      5  O   UNL A   1      37.254  31.813  34.318  1.00  0.00    -0.246 OA
BRANCH   4   6
ATOM      6  C   UNL A   1      38.514  30.485  32.717  1.00  0.00     0.087 C 
ATOM      7  C   UNL A   1      37.311  30.110  28.617  1.00  0.00     0.026 A 
ATOM      8  C   UNL A   1      37.969  29.066  27.933  1.00  0.00     0.033 A 
ATOM      9  C   UNL A   1      37.818  30.302  29.985  1.00  0.00     0.135 A 
ATOM     10  C   UNL A   1      38.785  28.128  28.585  1.00  0.00     0.042 A 
ATOM     11  C   UNL A   1      38.471  29.223  30.692  1.00  0.00     0.019 A 
ATOM     12  O   UNL A   1      38.087  31.592  30.568  1.00  0.00    -0.475 OA
ATOM     13  Cl  UNL A   1      39.455  26.836  27.664  1.00  0.00    -0.084 Cl
ATOM     14  C   UNL A   1      38.965  28.148  29.968  1.00  0.00     0.032 A 
ATOM     15  C   UNL A   1      38.516  29.246  32.191  1.00  0.00     0.027 C 
ATOM     16  C   UNL A   1      39.004  31.526  31.750  1.00  0.00     0.316 C 
BRANCH   7  17
ATOM     17  C   UNL A   1      35.851  30.329  27.997  1.00  0.00    -0.014 A 
ATOM     18  C   UNL A   1      33.034  30.333  27.060  1.00  0.00     0.121 A 
ATOM     19  C   UNL A   1      33.687  31.481  27.552  1.00  0.00     0.047 A 
ATOM     20  C   UNL A   1      33.788  29.172  26.938  1.00  0.00    -0.008 A 
ATOM     21  C   UNL A   1      35.054  31.482  28.033  1.00  0.00     0.013 A 
ATOM     22  C   UNL A   1      35.175  29.210  27.346  1.00  0.00     0.016 A 
ATOM     23  C   UNL A   1      33.124  27.872  26.549  1.00  0.00     0.048 C 
BRANCH  18  24
ATOM     24  O   UNL A   1      31.738  30.444  26.602  1.00  0.00    -0.496 OA
ATOM     25  C   UNL A   1      31.237  31.766  26.340  1.00  0.00     0.278 C 
ENDBRANCH  18  24
ENDBRANCH   7  17
BRANCH  16  26
ATOM     26  C   UNL A   1      39.667  32.724  32.509  1.00  0.00     0.430 C 
ATOM     27  F   UNL A   1      40.534  33.372  31.655  1.00  0.00    -0.167 F 
ATOM     28  F   UNL A   1      38.755  33.683  32.819  1.00  0.00    -0.167 F 
ATOM     29  F   UNL A   1      40.364  32.455  33.622  1.00  0.00    -0.167 F 
ENDBRANCH  16  26
ENDBRANCH   4   6
ENDBRANCH   3   4
ENDBRANCH   2   3
ENDBRANCH   1   2
BRANCH   1  30
ATOM     30  O   UNL A   1      41.223  28.760  34.921  1.00  0.00    -0.458 OA
BRANCH  30  31
ATOM     31  C   UNL A   1      42.486  28.298  34.748  1.00  0.00     0.338 C 
ATOM     32  O   UNL A   1      43.188  27.957  35.654  1.00  0.00    -0.246 OA
BRANCH  31  33
ATOM     33  C   UNL A   1      42.729  28.053  33.306  1.00  0.00     0.060 A 
ATOM     34  C   UNL A   1      43.985  27.578  32.914  1.00  0.00     0.016 A 
ATOM     35  C   UNL A   1      41.678  28.134  32.405  1.00  0.00     0.016 A 
ATOM     36  C   UNL A   1      44.210  27.139  31.631  1.00  0.00     0.010 A 
ATOM     37  C   UNL A   1      41.870  27.673  31.134  1.00  0.00     0.010 A 
ATOM     38  C   UNL A   1      43.133  27.212  30.764  1.00  0.00    -0.014 A 
BRANCH  38  39
ATOM     39  C   UNL A   1      43.292  26.891  29.366  1.00  0.00     0.031 A 
ATOM     40  C   UNL A   1      43.952  25.594  29.162  1.00  0.00     0.074 A 
ATOM     41  C   UNL A   1      42.859  27.875  28.550  1.00  0.00     0.049 A 
ATOM     42  N   UNL A   1      45.089  25.364  28.595  1.00  0.00    -0.248 NA
ATOM     43  C   UNL A   1      43.449  24.400  29.877  1.00  0.00     0.031 C 
ATOM     44  C   UNL A   1      42.784  28.073  27.119  1.00  0.00     0.029 A 
ATOM     45  N   UNL A   1      42.565  29.148  29.003  1.00  0.00    -0.354 N 
ATOM     46  C   UNL A   1      44.992  24.016  28.297  1.00  0.00     0.074 A 
ATOM     47  C   UNL A   1      44.246  23.447  29.389  1.00  0.00     0.031 C 
ATOM     48  C   UNL A   1      42.894  29.399  26.857  1.00  0.00     0.029 A 
ATOM     49  C   UNL A   1      43.066  30.090  28.126  1.00  0.00     0.049 A 
ATOM     50  H   UNL A   1      42.071  29.353  29.830  1.00  0.00     0.167 HD
ATOM     51  C   UNL A   1      44.930  23.663  26.975  1.00  0.00     0.034 A 
ATOM     52  C   UNL A   1      44.167  30.797  28.523  1.00  0.00     0.034 A 
ATOM     53  C   UNL A   1      45.078  24.847  26.123  1.00  0.00     0.049 A 
ATOM     54  C   UNL A   1      45.404  30.312  27.770  1.00  0.00     0.074 A 
ATOM     55  C   UNL A   1      44.174  25.568  25.358  1.00  0.00     0.029 A 
ATOM     56  N   UNL A   1      46.177  25.678  26.296  1.00  0.00    -0.354 N 
ATOM     57  N   UNL A   1      45.585  29.083  27.361  1.00  0.00    -0.248 NA
ATOM     58  C   UNL A   1      46.510  31.188  27.402  1.00  0.00     0.031 C 
ATOM     59  C   UNL A   1      44.745  26.830  25.061  1.00  0.00     0.029 A 
ATOM     60  C   UNL A   1      45.949  26.912  25.728  1.00  0.00     0.049 A 
ATOM     61  H   UNL A   1      47.007  25.421  26.760  1.00  0.00     0.167 HD
ATOM     62  C   UNL A   1      46.688  29.032  26.536  1.00  0.00     0.074 A 
ATOM     63  C   UNL A   1      47.269  30.362  26.658  1.00  0.00     0.031 C 
ATOM     64  C   UNL A   1      46.978  27.930  25.769  1.00  0.00     0.034 A 
BRANCH  51  65
ATOM     65  C   UNL A   1      44.251  22.393  26.512  1.00  0.00     0.023 A 
ATOM     66  C   UNL A   1      45.027  21.382  25.917  1.00  0.00     0.031 A 
ATOM     67  C   UNL A   1      42.874  22.123  26.604  1.00  0.00     0.131 A 
ATOM     68  C   UNL A   1      44.456  20.229  25.364  1.00  0.00     0.055 A 
ATOM     69  C   UNL A   1      42.294  20.971  26.048  1.00  0.00     0.041 A 
ATOM     70  F   UNL A   1      42.044  22.953  27.256  1.00  0.00    -0.206 F 
ATOM     71  C   UNL A   1      43.086  20.019  25.413  1.00  0.00     0.022 A 
BRANCH  68  72
ATOM     72  S   UNL A   1      45.566  19.015  24.601  1.00  0.00     0.124 S 
ATOM     73  O   UNL A   1      44.967  18.843  23.281  1.00  0.00    -0.237 OA
ATOM     74  O   UNL A   1      46.853  19.700  24.635  1.00  0.00    -0.237 OA
ATOM     75  O   UNL A   1      45.460  17.858  25.488  1.00  0.00    -0.744 OA
ENDBRANCH  68  72
ENDBRANCH  51  65
BRANCH  52  76
ATOM     76  C   UNL A   1      44.165  31.092  30.000  1.00  0.00     0.023 A 
ATOM     77  C   UNL A   1      45.093  30.419  30.873  1.00  0.00     0.031 A 
ATOM     78  C   UNL A   1      43.496  32.205  30.492  1.00  0.00     0.131 A 
ATOM     79  C   UNL A   1      45.463  30.954  32.111  1.00  0.00     0.055 A 
ATOM     80  C   UNL A   1      43.859  32.731  31.713  1.00  0.00     0.041 A 
ATOM     81  F   UNL A   1      42.547  32.849  29.800  1.00  0.00    -0.206 F 
ATOM     82  C   UNL A   1      44.853  32.127  32.505  1.00  0.00     0.022 A 
BRANCH  79  83
ATOM     83  S   UNL A   1      46.897  30.288  33.067  1.00  0.00     0.124 S 
ATOM     84  O   UNL A   1      46.342  29.820  34.329  1.00  0.00    -0.237 OA
ATOM     85  O   UNL A   1      47.370  29.225  32.185  1.00  0.00    -0.237 OA
ATOM     86  O   UNL A   1      47.799  31.423  33.203  1.00  0.00    -0.744 OA
ENDBRANCH  79  83
ENDBRANCH  52  76
BRANCH  64  87
ATOM     87  C   UNL A   1      48.154  27.697  24.838  1.00  0.00     0.023 A 
ATOM     88  C   UNL A   1      48.051  27.701  23.451  1.00  0.00     0.031 A 
ATOM     89  C   UNL A   1      49.465  27.457  25.346  1.00  0.00     0.131 A 
ATOM     90  C   UNL A   1      49.159  27.402  22.641  1.00  0.00     0.055 A 
ATOM     91  C   UNL A   1      50.581  27.247  24.540  1.00  0.00     0.041 A 
ATOM     92  F   UNL A   1      49.742  27.405  26.657  1.00  0.00    -0.206 F 
ATOM     93  C   UNL A   1      50.429  27.198  23.170  1.00  0.00     0.022 A 
BRANCH  90  94
ATOM     94  S   UNL A   1      48.861  27.196  20.872  1.00  0.00     0.124 S 
ATOM     95  O   UNL A   1      49.975  27.942  20.293  1.00  0.00    -0.237 OA
ATOM     96  O   UNL A   1      48.922  25.747  20.716  1.00  0.00    -0.237 OA
ATOM     97  O   UNL A   1      47.542  27.790  20.675  1.00  0.00    -0.744 OA
ENDBRANCH  90  94
ENDBRANCH  64  87
ENDBRANCH  38  39
ENDBRANCH  31  33
ENDBRANCH  30  31
ENDBRANCH   1  30
TORSDOF 17
ENDMDL
MODEL 3
REMARK VINA RESULT:     -11.8      6.061     11.733
REMARK SMILES COc1ccc(-c2cc(Cl)cc3c2O[C@@H](C(F)(F)F)C(C(=O)OCCOC(=O)c2ccc(-c4c5nc(c(-c6cc(S(=O)(=O)[O-])ccc6F)c6ccc([nH]6)c(-c6cc(S(=O)(=O)[O-])ccc6F)c6nc(c(-c7cc(S(=O)(=O)[O-])ccc7F)c7ccc4[nH]7)C=C6)C=C5)cc2)=C3)cc1C
REMARK SMILES IDX 25 1 24 2 23 3 21 4 22 5 20 6 7 7 8 8 13 9 9 10 12 11 14 12
REMARK SMILES IDX 10 13 11 14 92 15 15 16 6 17 3 18 4 19 94 20 5 21 93 22
REMARK SMILES IDX 95 23 2 24 1 25 16 26 17 27 18 28 19 29 26 30 27 31 28 32
REMARK SMILES IDX 29 33 30 34 91 35 31 36 90 37 32 38 33 39 34 40 84 41 35 42
REMARK SMILES IDX 89 43 83 44 85 45 36 46 88 47 82 48 81 49 37 51 69 52 49 53
REMARK SMILES IDX 68 54 50 55 53 56 67 57 86 58 51 59 52 60 66 62 87 63 54 64
REMARK SMILES IDX 38 65 39 66 47 67 40 68 46 69 48 70 45 71 41 72 42 73 43 74
REMARK SMILES IDX 44 75 70 76 71 77 79 78 72 79 78 80 80 81 77 82 73 83 74 84
REMARK SMILES IDX 75 85 76 86 55 87 56 88 64 89 57 90 63 91 65 92 62 93 58 94
REMARK SMILES IDX 59 95 60 96 61 97
REMARK H PARENT 85 50 53 61
REMARK Flexibility Score: inf
ROOT
ATOM      1  C   UNL A   1      42.312  30.452  35.017  1.00  0.00     0.275 C 
ENDROOT
BRANCH   1   2
ATOM      2  C   UNL A   1      40.763  30.299  35.172  1.00  0.00     0.275 C 
BRANCH   2   3
ATOM      3  O   UNL A   1      40.257  31.069  36.295  1.00  0.00    -0.459 OA
BRANCH   3   4
ATOM      4  C   UNL A   1      40.396  32.425  36.375  1.00  0.00     0.338 C 
ATOM      5  O   UNL A   1      40.941  33.034  37.278  1.00  0.00    -0.246 OA
BRANCH   4   6
ATOM      6  C   UNL A   1      39.899  33.032  35.081  1.00  0.00     0.087 C 
ATOM      7  C   UNL A   1      38.612  31.992  31.124  1.00  0.00     0.026 A 
ATOM      8  C   UNL A   1      38.935  32.966  30.155  1.00  0.00     0.033 A 
ATOM      9  C   UNL A   1      38.954  32.415  32.491  1.00  0.00     0.135 A 
ATOM     10  C   UNL A   1      39.762  34.065  30.432  1.00  0.00     0.042 A 
ATOM     11  C   UNL A   1      39.975  33.412  32.726  1.00  0.00     0.019 A 
ATOM     12  O   UNL A   1      38.092  32.222  33.630  1.00  0.00    -0.475 OA
ATOM     13  Cl  UNL A   1      40.171  35.135  29.145  1.00  0.00    -0.084 Cl
ATOM     14  C   UNL A   1      40.354  34.242  31.682  1.00  0.00     0.032 A 
ATOM     15  C   UNL A   1      40.661  33.462  34.059  1.00  0.00     0.027 C 
ATOM     16  C   UNL A   1      38.428  33.118  34.783  1.00  0.00     0.316 C 
BRANCH   7  17
ATOM     17  C   UNL A   1      38.589  30.541  30.447  1.00  0.00    -0.014 A 
ATOM     18  C   UNL A   1      38.931  27.992  28.964  1.00  0.00     0.121 A 
ATOM     19  C   UNL A   1      38.605  28.052  30.334  1.00  0.00     0.047 A 
ATOM     20  C   UNL A   1      39.009  29.195  28.274  1.00  0.00    -0.008 A 
ATOM     21  C   UNL A   1      38.460  29.292  31.071  1.00  0.00     0.013 A 
ATOM     22  C   UNL A   1      38.781  30.422  29.004  1.00  0.00     0.016 A 
ATOM     23  C   UNL A   1      39.485  29.218  26.840  1.00  0.00     0.048 C 
BRANCH  18  24
ATOM     24  O   UNL A   1      39.020  26.761  28.351  1.00  0.00    -0.496 OA
ATOM     25  C   UNL A   1      39.989  25.831  28.866  1.00  0.00     0.278 C 
ENDBRANCH  18  24
ENDBRANCH   7  17
BRANCH  16  26
ATOM     26  C   UNL A   1      37.604  33.328  36.097  1.00  0.00     0.430 C 
ATOM     27  F   UNL A   1      36.333  33.749  35.767  1.00  0.00    -0.167 F 
ATOM     28  F   UNL A   1      37.389  32.152  36.743  1.00  0.00    -0.167 F 
ATOM     29  F   UNL A   1      38.070  34.204  36.998  1.00  0.00    -0.167 F 
ENDBRANCH  16  26
ENDBRANCH   4   6
ENDBRANCH   3   4
ENDBRANCH   2   3
ENDBRANCH   1   2
BRANCH   1  30
ATOM     30  O   UNL A   1      43.194  29.326  35.182  1.00  0.00    -0.458 OA
BRANCH  30  31
ATOM     31  C   UNL A   1      42.734  28.101  34.825  1.00  0.00     0.338 C 
ATOM     32  O   UNL A   1      42.066  27.418  35.544  1.00  0.00    -0.246 OA
BRANCH  31  33
ATOM     33  C   UNL A   1      42.967  27.888  33.376  1.00  0.00     0.060 A 
ATOM     34  C   UNL A   1      44.191  27.346  32.972  1.00  0.00     0.016 A 
ATOM     35  C   UNL A   1      41.927  28.065  32.476  1.00  0.00     0.016 A 
ATOM     36  C   UNL A   1      44.393  26.935  31.676  1.00  0.00     0.010 A 
ATOM     37  C   UNL A   1      42.094  27.635  31.191  1.00  0.00     0.010 A 
ATOM     38  C   UNL A   1      43.327  27.105  30.809  1.00  0.00    -0.014 A 
BRANCH  38  39
ATOM     39  C   UNL A   1      43.470  26.819  29.401  1.00  0.00     0.031 A 
ATOM     40  C   UNL A   1      44.145  25.538  29.157  1.00  0.00     0.074 A 
ATOM     41  C   UNL A   1      43.012  27.817  28.615  1.00  0.00     0.049 A 
ATOM     42  N   UNL A   1      45.277  25.337  28.569  1.00  0.00    -0.248 NA
ATOM     43  C   UNL A   1      43.668  24.320  29.850  1.00  0.00     0.031 C 
ATOM     44  C   UNL A   1      42.915  28.049  27.191  1.00  0.00     0.029 A 
ATOM     45  N   UNL A   1      42.708  29.075  29.104  1.00  0.00    -0.354 N 
ATOM     46  C   UNL A   1      45.193  23.996  28.240  1.00  0.00     0.074 A 
ATOM     47  C   UNL A   1      44.470  23.390  29.328  1.00  0.00     0.031 C 
ATOM     48  C   UNL A   1      43.004  29.382  26.959  1.00  0.00     0.029 A 
ATOM     49  C   UNL A   1      43.184  30.044  28.242  1.00  0.00     0.049 A 
ATOM     50  H   UNL A   1      42.222  29.253  29.942  1.00  0.00     0.167 HD
ATOM     51  C   UNL A   1      45.118  23.673  26.911  1.00  0.00     0.034 A 
ATOM     52  C   UNL A   1      44.280  30.757  28.641  1.00  0.00     0.034 A 
ATOM     53  C   UNL A   1      45.238  24.879  26.087  1.00  0.00     0.049 A 
ATOM     54  C   UNL A   1      45.513  30.307  27.860  1.00  0.00     0.074 A 
ATOM     55  C   UNL A   1      44.314  25.606  25.352  1.00  0.00     0.029 A 
ATOM     56  N   UNL A   1      46.328  25.721  26.264  1.00  0.00    -0.354 N 
ATOM     57  N   UNL A   1      45.705  29.091  27.419  1.00  0.00    -0.248 NA
ATOM     58  C   UNL A   1      46.602  31.207  27.498  1.00  0.00     0.031 C 
ATOM     59  C   UNL A   1      44.864  26.882  25.077  1.00  0.00     0.029 A 
ATOM     60  C   UNL A   1      46.076  26.965  25.729  1.00  0.00     0.049 A 
ATOM     61  H   UNL A   1      47.168  25.464  26.710  1.00  0.00     0.167 HD
ATOM     62  C   UNL A   1      46.797  29.075  26.578  1.00  0.00     0.074 A 
ATOM     63  C   UNL A   1      47.361  30.409  26.725  1.00  0.00     0.031 C 
ATOM     64  C   UNL A   1      47.091  27.996  25.780  1.00  0.00     0.034 A 
BRANCH  51  65
ATOM     65  C   UNL A   1      44.450  22.405  26.427  1.00  0.00     0.023 A 
ATOM     66  C   UNL A   1      45.248  21.365  25.916  1.00  0.00     0.031 A 
ATOM     67  C   UNL A   1      43.065  22.164  26.420  1.00  0.00     0.131 A 
ATOM     68  C   UNL A   1      44.697  20.210  25.348  1.00  0.00     0.055 A 
ATOM     69  C   UNL A   1      42.505  21.010  25.847  1.00  0.00     0.041 A 
ATOM     70  F   UNL A   1      42.205  23.025  26.987  1.00  0.00    -0.206 F 
ATOM     71  C   UNL A   1      43.322  20.028  25.297  1.00  0.00     0.022 A 
BRANCH  68  72
ATOM     72  S   UNL A   1      45.836  18.957  24.700  1.00  0.00     0.124 S 
ATOM     73  O   UNL A   1      45.554  17.815  25.564  1.00  0.00    -0.237 OA
ATOM     74  O   UNL A   1      45.407  18.830  23.311  1.00  0.00    -0.237 OA
ATOM     75  O   UNL A   1      47.150  19.569  24.886  1.00  0.00    -0.744 OA
ENDBRANCH  68  72
ENDBRANCH  51  65
BRANCH  52  76
ATOM     76  C   UNL A   1      44.295  31.016  30.125  1.00  0.00     0.023 A 
ATOM     77  C   UNL A   1      45.228  30.317  30.972  1.00  0.00     0.031 A 
ATOM     78  C   UNL A   1      43.638  32.121  30.650  1.00  0.00     0.131 A 
ATOM     79  C   UNL A   1      45.613  30.820  32.219  1.00  0.00     0.055 A 
ATOM     80  C   UNL A   1      44.016  32.616  31.879  1.00  0.00     0.041 A 
ATOM     81  F   UNL A   1      42.686  32.786  29.983  1.00  0.00    -0.206 F 
ATOM     82  C   UNL A   1      45.014  31.986  32.647  1.00  0.00     0.022 A 
BRANCH  79  83
ATOM     83  S   UNL A   1      47.052  30.123  33.144  1.00  0.00     0.124 S 
ATOM     84  O   UNL A   1      48.096  31.134  33.063  1.00  0.00    -0.237 OA
ATOM     85  O   UNL A   1      46.486  29.943  34.477  1.00  0.00    -0.237 OA
ATOM     86  O   UNL A   1      47.372  28.888  32.438  1.00  0.00    -0.744 OA
ENDBRANCH  79  83
ENDBRANCH  52  76
BRANCH  64  87
ATOM     87  C   UNL A   1      48.257  27.801  24.829  1.00  0.00     0.023 A 
ATOM     88  C   UNL A   1      48.115  27.695  23.449  1.00  0.00     0.031 A 
ATOM     89  C   UNL A   1      49.599  27.718  25.307  1.00  0.00     0.131 A 
ATOM     90  C   UNL A   1      49.223  27.438  22.625  1.00  0.00     0.055 A 
ATOM     91  C   UNL A   1      50.706  27.550  24.480  1.00  0.00     0.041 A 
ATOM     92  F   UNL A   1      49.915  27.787  26.608  1.00  0.00    -0.206 F 
ATOM     93  C   UNL A   1      50.521  27.387  23.122  1.00  0.00     0.022 A 
BRANCH  90  94
ATOM     94  S   UNL A   1      48.896  27.076  20.886  1.00  0.00     0.124 S 
ATOM     95  O   UNL A   1      47.575  27.671  20.701  1.00  0.00    -0.237 OA
ATOM     96  O   UNL A   1      49.996  27.761  20.216  1.00  0.00    -0.237 OA
ATOM     97  O   UNL A   1      48.938  25.618  20.825  1.00  0.00    -0.744 OA
ENDBRANCH  90  94
ENDBRANCH  64  87
ENDBRANCH  38  39
ENDBRANCH  31  33
ENDBRANCH  30  31
ENDBRANCH   1  30
TORSDOF 17
ENDMDL
