MODEL 1
REMARK VINA RESULT:     -11.3      0.000      0.000
REMARK SMILES O=C(NC[C@@H]1CC[C@H](C(=O)OCCOC(=O)c2ccc(-c3c4nc(c(-c5cc(S(=O)(=O)[O-])ccc5F)c5ccc([nH]5)c(-c5cc(S(=O)(=O)[O-])ccc5F)c5nc(c(-c6cc(S(=O)(=O)[O-])ccc6F)c6ccc3[nH]6)C=C5)C=C4)cc2)O1)Nc1ncccn1
REMARK SMILES IDX 12 1 11 2 9 3 10 4 8 5 5 6 6 7 80 8 7 9 4 10 3 11 1 12 2 13
REMARK SMILES IDX 81 14 82 17 83 18 87 19 84 20 86 21 85 22 13 23 14 24 15 25
REMARK SMILES IDX 16 26 17 27 18 28 79 29 19 30 78 31 20 32 21 33 22 34 72 35
REMARK SMILES IDX 23 36 77 37 71 38 73 39 24 40 76 41 70 42 69 43 25 45 57 46
REMARK SMILES IDX 37 47 56 48 38 49 41 50 55 51 74 52 39 53 40 54 54 56 75 57
REMARK SMILES IDX 42 58 26 59 27 60 35 61 28 62 34 63 36 64 33 65 29 66 30 67
REMARK SMILES IDX 31 68 32 69 58 70 59 71 67 72 60 73 66 74 68 75 65 76 61 77
REMARK SMILES IDX 62 78 63 79 64 80 43 81 44 82 52 83 45 84 51 85 53 86 50 87
REMARK SMILES IDX 46 88 47 89 48 90 49 91
REMARK H PARENT 3 15 81 16 73 44 41 55
REMARK Flexibility Score: inf
ROOT
ATOM      1  C   UNL A   1      36.025  21.096  25.072  1.00  0.00     0.274 C 
ENDROOT
BRANCH   1   2
ATOM      2  O   UNL A   1      36.235  22.493  25.354  1.00  0.00    -0.460 OA
BRANCH   2   3
ATOM      3  C   UNL A   1      35.728  23.381  24.455  1.00  0.00     0.335 C 
ATOM      4  O   UNL A   1      35.905  23.312  23.244  1.00  0.00    -0.249 OA
BRANCH   3   5
ATOM      5  C   UNL A   1      34.939  24.522  25.123  1.00  0.00     0.228 C 
ATOM      6  C   UNL A   1      32.744  24.035  25.754  1.00  0.00     0.138 C 
ATOM      7  C   UNL A   1      32.724  24.549  24.320  1.00  0.00     0.037 C 
ATOM      8  O   UNL A   1      34.116  24.013  26.182  1.00  0.00    -0.361 OA
ATOM      9  C   UNL A   1      34.017  25.319  24.220  1.00  0.00     0.047 C 
BRANCH   6  10
ATOM     10  C   UNL A   1      32.171  22.626  25.929  1.00  0.00     0.149 C 
BRANCH  10  11
ATOM     11  N   UNL A   1      31.953  21.948  24.664  1.00  0.00    -0.335 N 
ATOM     12  O   UNL A   1      32.187  20.376  23.121  1.00  0.00    -0.248 OA
ATOM     13  C   UNL A   1      32.228  20.657  24.315  1.00  0.00     0.321 C 
ATOM     14  N   UNL A   1      32.487  19.807  25.339  1.00  0.00    -0.276 N 
ATOM     15  H   UNL A   1      31.548  22.498  23.956  1.00  0.00     0.165 HD
ATOM     16  H   UNL A   1      32.329  20.146  26.250  1.00  0.00     0.175 HD
BRANCH  14  17
ATOM     17  C   UNL A   1      32.951  18.509  25.223  1.00  0.00     0.230 A 
ATOM     18  N   UNL A   1      34.167  18.408  24.657  1.00  0.00    -0.221 NA
ATOM     19  N   UNL A   1      32.219  17.462  25.618  1.00  0.00    -0.221 NA
ATOM     20  C   UNL A   1      34.675  17.167  24.539  1.00  0.00     0.117 A 
ATOM     21  C   UNL A   1      32.759  16.243  25.459  1.00  0.00     0.117 A 
ATOM     22  C   UNL A   1      34.007  16.033  24.928  1.00  0.00     0.040 A 
ENDBRANCH  14  17
ENDBRANCH  10  11
ENDBRANCH   6  10
ENDBRANCH   3   5
ENDBRANCH   2   3
ENDBRANCH   1   2
BRANCH   1  23
ATOM     23  C   UNL A   1      37.350  20.328  25.059  1.00  0.00     0.275 C 
BRANCH  23  24
ATOM     24  O   UNL A   1      38.480  21.214  25.164  1.00  0.00    -0.458 OA
BRANCH  24  25
ATOM     25  C   UNL A   1      39.299  20.962  26.212  1.00  0.00     0.338 C 
ATOM     26  O   UNL A   1      39.661  19.871  26.618  1.00  0.00    -0.246 OA
BRANCH  25  27
ATOM     27  C   UNL A   1      39.838  22.222  26.739  1.00  0.00     0.060 A 
ATOM     28  C   UNL A   1      39.365  23.412  26.184  1.00  0.00     0.016 A 
ATOM     29  C   UNL A   1      40.873  22.237  27.673  1.00  0.00     0.016 A 
ATOM     30  C   UNL A   1      39.934  24.629  26.543  1.00  0.00     0.010 A 
ATOM     31  C   UNL A   1      41.440  23.463  28.043  1.00  0.00     0.010 A 
ATOM     32  C   UNL A   1      40.987  24.664  27.465  1.00  0.00    -0.014 A 
BRANCH  32  33
ATOM     33  C   UNL A   1      41.655  25.955  27.753  1.00  0.00     0.031 A 
ATOM     34  C   UNL A   1      40.939  26.995  28.567  1.00  0.00     0.074 A 
ATOM     35  C   UNL A   1      42.915  26.170  27.330  1.00  0.00     0.049 A 
ATOM     36  N   UNL A   1      41.306  28.215  28.863  1.00  0.00    -0.248 NA
ATOM     37  C   UNL A   1      39.632  26.607  29.117  1.00  0.00     0.031 C 
ATOM     38  C   UNL A   1      43.732  25.206  26.591  1.00  0.00     0.029 A 
ATOM     39  N   UNL A   1      43.731  27.264  27.466  1.00  0.00    -0.354 N 
ATOM     40  C   UNL A   1      40.266  28.751  29.616  1.00  0.00     0.074 A 
ATOM     41  C   UNL A   1      39.246  27.727  29.709  1.00  0.00     0.031 C 
ATOM     42  C   UNL A   1      44.934  25.750  26.343  1.00  0.00     0.029 A 
ATOM     43  C   UNL A   1      44.954  27.117  26.857  1.00  0.00     0.049 A 
ATOM     44  H   UNL A   1      43.465  28.077  27.954  1.00  0.00     0.167 HD
ATOM     45  C   UNL A   1      40.175  29.984  30.177  1.00  0.00     0.034 A 
ATOM     46  C   UNL A   1      45.963  27.997  26.701  1.00  0.00     0.034 A 
ATOM     47  C   UNL A   1      41.206  30.988  30.074  1.00  0.00     0.049 A 
ATOM     48  C   UNL A   1      45.812  29.381  27.274  1.00  0.00     0.074 A 
ATOM     49  C   UNL A   1      41.216  32.275  30.587  1.00  0.00     0.029 A 
ATOM     50  N   UNL A   1      42.416  30.820  29.411  1.00  0.00    -0.354 N 
ATOM     51  N   UNL A   1      44.803  29.895  27.940  1.00  0.00    -0.248 NA
ATOM     52  C   UNL A   1      46.935  30.306  27.072  1.00  0.00     0.031 C 
ATOM     53  C   UNL A   1      42.405  32.899  30.188  1.00  0.00     0.029 A 
ATOM     54  C   UNL A   1      43.169  31.983  29.483  1.00  0.00     0.049 A 
ATOM     55  H   UNL A   1      42.699  29.993  28.956  1.00  0.00     0.167 HD
ATOM     56  C   UNL A   1      45.180  31.197  28.255  1.00  0.00     0.074 A 
ATOM     57  C   UNL A   1      46.514  31.383  27.719  1.00  0.00     0.031 C 
ATOM     58  C   UNL A   1      44.490  32.152  28.928  1.00  0.00     0.034 A 
BRANCH  45  59
ATOM     59  C   UNL A   1      38.889  30.320  30.890  1.00  0.00     0.023 A 
ATOM     60  C   UNL A   1      37.836  30.996  30.247  1.00  0.00     0.031 A 
ATOM     61  C   UNL A   1      38.733  30.003  32.252  1.00  0.00     0.131 A 
ATOM     62  C   UNL A   1      36.710  31.398  30.982  1.00  0.00     0.055 A 
ATOM     63  C   UNL A   1      37.577  30.339  32.959  1.00  0.00     0.041 A 
ATOM     64  F   UNL A   1      39.713  29.380  32.924  1.00  0.00    -0.206 F 
ATOM     65  C   UNL A   1      36.564  31.055  32.329  1.00  0.00     0.022 A 
BRANCH  62  66
ATOM     66  S   UNL A   1      35.507  32.503  30.193  1.00  0.00     0.124 S 
ATOM     67  O   UNL A   1      34.402  32.466  31.148  1.00  0.00    -0.237 OA
ATOM     68  O   UNL A   1      36.240  33.760  30.111  1.00  0.00    -0.237 OA
ATOM     69  O   UNL A   1      35.234  31.853  28.911  1.00  0.00    -0.744 OA
ENDBRANCH  62  66
ENDBRANCH  45  59
BRANCH  46  70
ATOM     70  C   UNL A   1      47.178  27.618  25.927  1.00  0.00     0.023 A 
ATOM     71  C   UNL A   1      47.274  27.877  24.551  1.00  0.00     0.031 A 
ATOM     72  C   UNL A   1      48.249  26.954  26.552  1.00  0.00     0.131 A 
ATOM     73  C   UNL A   1      48.402  27.441  23.836  1.00  0.00     0.055 A 
ATOM     74  C   UNL A   1      49.389  26.566  25.847  1.00  0.00     0.041 A 
ATOM     75  F   UNL A   1      48.206  26.683  27.866  1.00  0.00    -0.206 F 
ATOM     76  C   UNL A   1      49.464  26.799  24.477  1.00  0.00     0.022 A 
BRANCH  73  77
ATOM     77  S   UNL A   1      48.430  27.662  22.037  1.00  0.00     0.124 S 
ATOM     78  O   UNL A   1      48.657  26.299  21.572  1.00  0.00    -0.237 OA
ATOM     79  O   UNL A   1      47.104  28.216  21.779  1.00  0.00    -0.237 OA
ATOM     80  O   UNL A   1      49.541  28.588  21.825  1.00  0.00    -0.744 OA
ENDBRANCH  73  77
ENDBRANCH  46  70
BRANCH  58  81
ATOM     81  C   UNL A   1      45.196  33.466  29.150  1.00  0.00     0.023 A 
ATOM     82  C   UNL A   1      45.212  34.471  28.167  1.00  0.00     0.031 A 
ATOM     83  C   UNL A   1      45.884  33.702  30.353  1.00  0.00     0.131 A 
ATOM     84  C   UNL A   1      45.949  35.646  28.383  1.00  0.00     0.055 A 
ATOM     85  C   UNL A   1      46.573  34.893  30.583  1.00  0.00     0.041 A 
ATOM     86  F   UNL A   1      45.901  32.774  31.323  1.00  0.00    -0.206 F 
ATOM     87  C   UNL A   1      46.619  35.868  29.589  1.00  0.00     0.022 A 
BRANCH  84  88
ATOM     88  S   UNL A   1      46.093  36.845  27.029  1.00  0.00     0.124 S 
ATOM     89  O   UNL A   1      47.202  37.680  27.480  1.00  0.00    -0.237 OA
ATOM     90  O   UNL A   1      46.365  35.988  25.881  1.00  0.00    -0.237 OA
ATOM     91  O   UNL A   1      44.788  37.504  27.015  1.00  0.00    -0.744 OA
ENDBRANCH  84  88
ENDBRANCH  58  81
ENDBRANCH  32  33
ENDBRANCH  25  27
ENDBRANCH  24  25
ENDBRANCH  23  24
ENDBRANCH   1  23
TORSDOF 17
ENDMDL
MODEL 2
REMARK VINA RESULT:     -11.2      1.543      7.730
REMARK SMILES O=C(NC[C@@H]1CC[C@H](C(=O)OCCOC(=O)c2ccc(-c3c4nc(c(-c5cc(S(=O)(=O)[O-])ccc5F)c5ccc([nH]5)c(-c5cc(S(=O)(=O)[O-])ccc5F)c5nc(c(-c6cc(S(=O)(=O)[O-])ccc6F)c6ccc3[nH]6)C=C5)C=C4)cc2)O1)Nc1ncccn1
REMARK SMILES IDX 12 1 11 2 9 3 10 4 8 5 5 6 6 7 80 8 7 9 4 10 3 11 1 12 2 13
REMARK SMILES IDX 81 14 82 17 83 18 87 19 84 20 86 21 85 22 13 23 14 24 15 25
REMARK SMILES IDX 16 26 17 27 18 28 79 29 19 30 78 31 20 32 21 33 22 34 72 35
REMARK SMILES IDX 23 36 77 37 71 38 73 39 24 40 76 41 70 42 69 43 25 45 57 46
REMARK SMILES IDX 37 47 56 48 38 49 41 50 55 51 74 52 39 53 40 54 54 56 75 57
REMARK SMILES IDX 42 58 26 59 27 60 35 61 28 62 34 63 36 64 33 65 29 66 30 67
REMARK SMILES IDX 31 68 32 69 58 70 59 71 67 72 60 73 66 74 68 75 65 76 61 77
REMARK SMILES IDX 62 78 63 79 64 80 43 81 44 82 52 83 45 84 51 85 53 86 50 87
REMARK SMILES IDX 46 88 47 89 48 90 49 91
REMARK H PARENT 3 15 81 16 73 44 41 55
REMARK Flexibility Score: inf
ROOT
ATOM      1  C   UNL A   1      36.631  22.165  23.848  1.00  0.00     0.274 C 
ENDROOT
BRANCH   1   2
ATOM      2  O   UNL A   1      35.682  22.769  24.748  1.00  0.00    -0.460 OA
BRANCH   2   3
ATOM      3  C   UNL A   1      35.009  23.857  24.286  1.00  0.00     0.335 C 
ATOM      4  O   UNL A   1      34.822  24.098  23.098  1.00  0.00    -0.249 OA
BRANCH   3   5
ATOM      5  C   UNL A   1      34.538  24.792  25.415  1.00  0.00     0.228 C 
ATOM      6  C   UNL A   1      32.529  24.226  26.461  1.00  0.00     0.138 C 
ATOM      7  C   UNL A   1      32.210  25.123  25.272  1.00  0.00     0.037 C 
ATOM      8  O   UNL A   1      33.953  24.036  26.484  1.00  0.00    -0.361 OA
ATOM      9  C   UNL A   1      33.513  25.843  25.034  1.00  0.00     0.047 C 
BRANCH   6  10
ATOM     10  C   UNL A   1      31.868  22.846  26.408  1.00  0.00     0.149 C 
BRANCH  10  11
ATOM     11  N   UNL A   1      31.746  22.333  25.056  1.00  0.00    -0.335 N 
ATOM     12  O   UNL A   1      32.165  21.019  23.323  1.00  0.00    -0.248 OA
ATOM     13  C   UNL A   1      32.149  21.133  24.544  1.00  0.00     0.321 C 
ATOM     14  N   UNL A   1      32.461  20.176  25.453  1.00  0.00    -0.276 N 
ATOM     15  H   UNL A   1      31.309  22.938  24.414  1.00  0.00     0.165 HD
ATOM     16  H   UNL A   1      32.249  20.369  26.395  1.00  0.00     0.175 HD
BRANCH  14  17
ATOM     17  C   UNL A   1      33.048  18.953  25.178  1.00  0.00     0.230 A 
ATOM     18  N   UNL A   1      32.326  17.893  25.583  1.00  0.00    -0.221 NA
ATOM     19  N   UNL A   1      34.245  18.864  24.589  1.00  0.00    -0.221 NA
ATOM     20  C   UNL A   1      32.842  16.678  25.321  1.00  0.00     0.117 A 
ATOM     21  C   UNL A   1      34.728  17.631  24.369  1.00  0.00     0.117 A 
ATOM     22  C   UNL A   1      34.055  16.484  24.708  1.00  0.00     0.040 A 
ENDBRANCH  14  17
ENDBRANCH  10  11
ENDBRANCH   6  10
ENDBRANCH   3   5
ENDBRANCH   2   3
ENDBRANCH   1   2
BRANCH   1  23
ATOM     23  C   UNL A   1      37.373  21.006  24.520  1.00  0.00     0.275 C 
BRANCH  23  24
ATOM     24  O   UNL A   1      37.750  21.328  25.871  1.00  0.00    -0.458 OA
BRANCH  24  25
ATOM     25  C   UNL A   1      39.067  21.169  26.144  1.00  0.00     0.338 C 
ATOM     26  O   UNL A   1      39.764  20.205  25.873  1.00  0.00    -0.246 OA
BRANCH  25  27
ATOM     27  C   UNL A   1      39.615  22.411  26.705  1.00  0.00     0.060 A 
ATOM     28  C   UNL A   1      39.055  23.617  26.279  1.00  0.00     0.016 A 
ATOM     29  C   UNL A   1      40.732  22.402  27.538  1.00  0.00     0.016 A 
ATOM     30  C   UNL A   1      39.619  24.827  26.667  1.00  0.00     0.010 A 
ATOM     31  C   UNL A   1      41.294  23.621  27.938  1.00  0.00     0.010 A 
ATOM     32  C   UNL A   1      40.752  24.839  27.488  1.00  0.00    -0.014 A 
BRANCH  32  33
ATOM     33  C   UNL A   1      41.406  26.132  27.802  1.00  0.00     0.031 A 
ATOM     34  C   UNL A   1      42.811  26.386  27.333  1.00  0.00     0.074 A 
ATOM     35  C   UNL A   1      40.724  27.090  28.457  1.00  0.00     0.049 A 
ATOM     36  N   UNL A   1      43.593  27.406  27.568  1.00  0.00    -0.248 NA
ATOM     37  C   UNL A   1      43.415  25.343  26.490  1.00  0.00     0.031 C 
ATOM     38  C   UNL A   1      39.333  26.981  28.900  1.00  0.00     0.029 A 
ATOM     39  N   UNL A   1      41.105  28.345  28.859  1.00  0.00    -0.354 N 
ATOM     40  C   UNL A   1      44.791  27.123  26.920  1.00  0.00     0.074 A 
ATOM     41  C   UNL A   1      44.635  25.822  26.304  1.00  0.00     0.031 C 
ATOM     42  C   UNL A   1      38.977  28.124  29.508  1.00  0.00     0.029 A 
ATOM     43  C   UNL A   1      40.127  29.023  29.546  1.00  0.00     0.049 A 
ATOM     44  H   UNL A   1      41.995  28.723  28.673  1.00  0.00     0.167 HD
ATOM     45  C   UNL A   1      45.915  27.881  26.848  1.00  0.00     0.034 A 
ATOM     46  C   UNL A   1      40.165  30.220  30.165  1.00  0.00     0.034 A 
ATOM     47  C   UNL A   1      46.047  29.178  27.468  1.00  0.00     0.049 A 
ATOM     48  C   UNL A   1      41.444  31.014  30.129  1.00  0.00     0.074 A 
ATOM     49  C   UNL A   1      47.141  30.027  27.475  1.00  0.00     0.029 A 
ATOM     50  N   UNL A   1      45.048  29.816  28.194  1.00  0.00    -0.354 N 
ATOM     51  N   UNL A   1      42.588  30.714  29.557  1.00  0.00    -0.248 NA
ATOM     52  C   UNL A   1      41.438  32.307  30.824  1.00  0.00     0.031 C 
ATOM     53  C   UNL A   1      46.822  31.150  28.249  1.00  0.00     0.029 A 
ATOM     54  C   UNL A   1      45.507  31.036  28.671  1.00  0.00     0.049 A 
ATOM     55  H   UNL A   1      44.145  29.456  28.348  1.00  0.00     0.167 HD
ATOM     56  C   UNL A   1      43.431  31.792  29.807  1.00  0.00     0.074 A 
ATOM     57  C   UNL A   1      42.659  32.755  30.567  1.00  0.00     0.031 C 
ATOM     58  C   UNL A   1      44.725  31.974  29.440  1.00  0.00     0.034 A 
BRANCH  45  59
ATOM     59  C   UNL A   1      47.099  27.287  26.127  1.00  0.00     0.023 A 
ATOM     60  C   UNL A   1      48.074  26.528  26.797  1.00  0.00     0.031 A 
ATOM     61  C   UNL A   1      47.282  27.527  24.752  1.00  0.00     0.131 A 
ATOM     62  C   UNL A   1      49.222  26.100  26.111  1.00  0.00     0.055 A 
ATOM     63  C   UNL A   1      48.388  27.034  24.058  1.00  0.00     0.041 A 
ATOM     64  F   UNL A   1      46.396  28.265  24.065  1.00  0.00    -0.206 F 
ATOM     65  C   UNL A   1      49.375  26.329  24.742  1.00  0.00     0.022 A 
BRANCH  62  66
ATOM     66  S   UNL A   1      50.582  25.368  27.064  1.00  0.00     0.124 S 
ATOM     67  O   UNL A   1      51.112  26.535  27.765  1.00  0.00    -0.237 OA
ATOM     68  O   UNL A   1      49.893  24.384  27.890  1.00  0.00    -0.237 OA
ATOM     69  O   UNL A   1      51.462  24.815  26.036  1.00  0.00    -0.744 OA
ENDBRANCH  62  66
ENDBRANCH  45  59
BRANCH  46  70
ATOM     70  C   UNL A   1      38.978  30.715  30.916  1.00  0.00     0.023 A 
ATOM     71  C   UNL A   1      37.919  31.361  30.259  1.00  0.00     0.031 A 
ATOM     72  C   UNL A   1      38.907  30.582  32.315  1.00  0.00     0.131 A 
ATOM     73  C   UNL A   1      36.849  31.881  31.006  1.00  0.00     0.055 A 
ATOM     74  C   UNL A   1      37.818  31.058  33.046  1.00  0.00     0.041 A 
ATOM     75  F   UNL A   1      39.894  29.973  32.990  1.00  0.00    -0.206 F 
ATOM     76  C   UNL A   1      36.786  31.722  32.392  1.00  0.00     0.022 A 
BRANCH  73  77
ATOM     77  S   UNL A   1      35.570  32.834  30.143  1.00  0.00     0.124 S 
ATOM     78  O   UNL A   1      35.664  32.303  28.789  1.00  0.00    -0.237 OA
ATOM     79  O   UNL A   1      34.369  32.478  30.892  1.00  0.00    -0.237 OA
ATOM     80  O   UNL A   1      36.012  34.219  30.303  1.00  0.00    -0.744 OA
ENDBRANCH  73  77
ENDBRANCH  46  70
BRANCH  58  81
ATOM     81  C   UNL A   1      45.360  33.285  29.828  1.00  0.00     0.023 A 
ATOM     82  C   UNL A   1      45.321  34.404  28.977  1.00  0.00     0.031 A 
ATOM     83  C   UNL A   1      46.036  33.406  31.055  1.00  0.00     0.131 A 
ATOM     84  C   UNL A   1      45.995  35.580  29.341  1.00  0.00     0.055 A 
ATOM     85  C   UNL A   1      46.661  34.595  31.434  1.00  0.00     0.041 A 
ATOM     86  F   UNL A   1      46.103  32.367  31.902  1.00  0.00    -0.206 F 
ATOM     87  C   UNL A   1      46.654  35.686  30.569  1.00  0.00     0.022 A 
BRANCH  84  88
ATOM     88  S   UNL A   1      46.074  36.944  28.147  1.00  0.00     0.124 S 
ATOM     89  O   UNL A   1      47.436  37.433  28.333  1.00  0.00    -0.237 OA
ATOM     90  O   UNL A   1      45.805  36.267  26.883  1.00  0.00    -0.237 OA
ATOM     91  O   UNL A   1      45.022  37.854  28.598  1.00  0.00    -0.744 OA
ENDBRANCH  84  88
ENDBRANCH  58  81
ENDBRANCH  32  33
ENDBRANCH  25  27
ENDBRANCH  24  25
ENDBRANCH  23  24
ENDBRANCH   1  23
TORSDOF 17
ENDMDL
MODEL 3
REMARK VINA RESULT:     -11.1      5.692     10.789
REMARK SMILES O=C(NC[C@@H]1CC[C@H](C(=O)OCCOC(=O)c2ccc(-c3c4nc(c(-c5cc(S(=O)(=O)[O-])ccc5F)c5ccc([nH]5)c(-c5cc(S(=O)(=O)[O-])ccc5F)c5nc(c(-c6cc(S(=O)(=O)[O-])ccc6F)c6ccc3[nH]6)C=C5)C=C4)cc2)O1)Nc1ncccn1
REMARK SMILES IDX 12 1 11 2 9 3 10 4 8 5 5 6 6 7 80 8 7 9 4 10 3 11 1 12 2 13
REMARK SMILES IDX 81 14 82 17 83 18 87 19 84 20 86 21 85 22 13 23 14 24 15 25
REMARK SMILES IDX 16 26 17 27 18 28 79 29 19 30 78 31 20 32 21 33 22 34 72 35
REMARK SMILES IDX 23 36 77 37 71 38 73 39 24 40 76 41 70 42 69 43 25 45 57 46
REMARK SMILES IDX 37 47 56 48 38 49 41 50 55 51 74 52 39 53 40 54 54 56 75 57
REMARK SMILES IDX 42 58 26 59 27 60 35 61 28 62 34 63 36 64 33 65 29 66 30 67
REMARK SMILES IDX 31 68 32 69 58 70 59 71 67 72 60 73 66 74 68 75 65 76 61 77
REMARK SMILES IDX 62 78 63 79 64 80 43 81 44 82 52 83 45 84 51 85 53 86 50 87
REMARK SMILES IDX 46 88 47 89 48 90 49 91
REMARK H PARENT 3 15 81 16 73 44 41 55
REMARK Flexibility Score: inf
ROOT
ATOM      1  C   UNL A   1      31.378  28.489  25.923  1.00  0.00     0.274 C 
ENDROOT
BRANCH   1   2
ATOM      2  O   UNL A   1      32.022  27.275  25.493  1.00  0.00    -0.460 OA
BRANCH   2   3
ATOM      3  C   UNL A   1      31.376  26.109  25.770  1.00  0.00     0.335 C 
ATOM      4  O   UNL A   1      30.397  26.022  26.502  1.00  0.00    -0.249 OA
BRANCH   3   5
ATOM      5  C   UNL A   1      32.035  24.889  25.101  1.00  0.00     0.228 C 
ATOM      6  C   UNL A   1      31.866  24.763  22.775  1.00  0.00     0.138 C 
ATOM      7  C   UNL A   1      30.653  24.069  23.378  1.00  0.00     0.037 C 
ATOM      8  O   UNL A   1      32.658  25.266  23.865  1.00  0.00    -0.361 OA
ATOM      9  C   UNL A   1      31.117  23.727  24.771  1.00  0.00     0.047 C 
BRANCH   6  10
ATOM     10  C   UNL A   1      31.531  25.938  21.853  1.00  0.00     0.149 C 
BRANCH  10  11
ATOM     11  N   UNL A   1      32.173  27.174  22.261  1.00  0.00    -0.335 N 
ATOM     12  O   UNL A   1      32.428  29.360  22.510  1.00  0.00    -0.248 OA
ATOM     13  C   UNL A   1      31.643  28.425  22.392  1.00  0.00     0.321 C 
ATOM     14  N   UNL A   1      30.289  28.495  22.410  1.00  0.00    -0.276 N 
ATOM     15  H   UNL A   1      33.131  27.099  22.475  1.00  0.00     0.165 HD
ATOM     16  H   UNL A   1      29.798  27.643  22.462  1.00  0.00     0.175 HD
BRANCH  14  17
ATOM     17  C   UNL A   1      29.533  29.654  22.364  1.00  0.00     0.230 A 
ATOM     18  N   UNL A   1      29.479  30.322  23.529  1.00  0.00    -0.221 NA
ATOM     19  N   UNL A   1      28.897  30.034  21.251  1.00  0.00    -0.221 NA
ATOM     20  C   UNL A   1      28.773  31.469  23.534  1.00  0.00     0.117 A 
ATOM     21  C   UNL A   1      28.187  31.173  21.311  1.00  0.00     0.117 A 
ATOM     22  C   UNL A   1      28.098  31.949  22.439  1.00  0.00     0.040 A 
ENDBRANCH  14  17
ENDBRANCH  10  11
ENDBRANCH   6  10
ENDBRANCH   3   5
ENDBRANCH   2   3
ENDBRANCH   1   2
BRANCH   1  23
ATOM     23  C   UNL A   1      32.246  29.251  26.929  1.00  0.00     0.275 C 
BRANCH  23  24
ATOM     24  O   UNL A   1      33.117  30.192  26.275  1.00  0.00    -0.458 OA
BRANCH  24  25
ATOM     25  C   UNL A   1      33.498  31.239  27.046  1.00  0.00     0.338 C 
ATOM     26  O   UNL A   1      32.841  32.230  27.317  1.00  0.00    -0.246 OA
BRANCH  25  27
ATOM     27  C   UNL A   1      34.803  30.960  27.658  1.00  0.00     0.060 A 
ATOM     28  C   UNL A   1      35.091  29.638  27.998  1.00  0.00     0.016 A 
ATOM     29  C   UNL A   1      35.680  31.988  28.001  1.00  0.00     0.016 A 
ATOM     30  C   UNL A   1      36.249  29.331  28.703  1.00  0.00     0.010 A 
ATOM     31  C   UNL A   1      36.852  31.679  28.703  1.00  0.00     0.010 A 
ATOM     32  C   UNL A   1      37.132  30.351  29.075  1.00  0.00    -0.014 A 
BRANCH  32  33
ATOM     33  C   UNL A   1      38.304  30.022  29.920  1.00  0.00     0.031 A 
ATOM     34  C   UNL A   1      39.367  29.101  29.390  1.00  0.00     0.074 A 
ATOM     35  C   UNL A   1      38.439  30.587  31.135  1.00  0.00     0.049 A 
ATOM     36  N   UNL A   1      40.424  28.620  29.989  1.00  0.00    -0.248 NA
ATOM     37  C   UNL A   1      39.211  28.661  27.995  1.00  0.00     0.031 C 
ATOM     38  C   UNL A   1      37.505  31.548  31.724  1.00  0.00     0.029 A 
ATOM     39  N   UNL A   1      39.414  30.441  32.088  1.00  0.00    -0.354 N 
ATOM     40  C   UNL A   1      41.051  27.802  29.055  1.00  0.00     0.074 A 
ATOM     41  C   UNL A   1      40.239  27.837  27.857  1.00  0.00     0.031 C 
ATOM     42  C   UNL A   1      37.956  31.908  32.937  1.00  0.00     0.029 A 
ATOM     43  C   UNL A   1      39.178  31.166  33.231  1.00  0.00     0.049 A 
ATOM     44  H   UNL A   1      40.207  29.871  31.963  1.00  0.00     0.167 HD
ATOM     45  C   UNL A   1      42.200  27.091  29.188  1.00  0.00     0.034 A 
ATOM     46  C   UNL A   1      39.854  31.200  34.397  1.00  0.00     0.034 A 
ATOM     47  C   UNL A   1      42.996  27.073  30.392  1.00  0.00     0.049 A 
ATOM     48  C   UNL A   1      41.088  30.350  34.546  1.00  0.00     0.074 A 
ATOM     49  C   UNL A   1      44.166  26.377  30.646  1.00  0.00     0.029 A 
ATOM     50  N   UNL A   1      42.703  27.787  31.548  1.00  0.00    -0.354 N 
ATOM     51  N   UNL A   1      41.644  29.540  33.673  1.00  0.00    -0.248 NA
ATOM     52  C   UNL A   1      41.784  30.417  35.836  1.00  0.00     0.031 C 
ATOM     53  C   UNL A   1      44.549  26.628  31.969  1.00  0.00     0.029 A 
ATOM     54  C   UNL A   1      43.657  27.532  32.523  1.00  0.00     0.049 A 
ATOM     55  H   UNL A   1      41.931  28.387  31.660  1.00  0.00     0.167 HD
ATOM     56  C   UNL A   1      42.769  29.017  34.305  1.00  0.00     0.074 A 
ATOM     57  C   UNL A   1      42.818  29.615  35.624  1.00  0.00     0.031 C 
ATOM     58  C   UNL A   1      43.679  28.126  33.838  1.00  0.00     0.034 A 
BRANCH  45  59
ATOM     59  C   UNL A   1      42.612  26.228  28.021  1.00  0.00     0.023 A 
ATOM     60  C   UNL A   1      42.050  24.960  27.796  1.00  0.00     0.031 A 
ATOM     61  C   UNL A   1      43.624  26.664  27.145  1.00  0.00     0.131 A 
ATOM     62  C   UNL A   1      42.552  24.143  26.772  1.00  0.00     0.055 A 
ATOM     63  C   UNL A   1      44.066  25.877  26.080  1.00  0.00     0.041 A 
ATOM     64  F   UNL A   1      44.215  27.856  27.324  1.00  0.00    -0.206 F 
ATOM     65  C   UNL A   1      43.541  24.601  25.899  1.00  0.00     0.022 A 
BRANCH  62  66
ATOM     66  S   UNL A   1      41.998  22.417  26.687  1.00  0.00     0.124 S 
ATOM     67  O   UNL A   1      40.551  22.564  26.819  1.00  0.00    -0.237 OA
ATOM     68  O   UNL A   1      42.482  21.995  25.378  1.00  0.00    -0.237 OA
ATOM     69  O   UNL A   1      42.660  21.788  27.829  1.00  0.00    -0.744 OA
ENDBRANCH  62  66
ENDBRANCH  45  59
BRANCH  46  70
ATOM     70  C   UNL A   1      39.351  32.024  35.533  1.00  0.00     0.023 A 
ATOM     71  C   UNL A   1      39.766  33.352  35.707  1.00  0.00     0.031 A 
ATOM     72  C   UNL A   1      38.472  31.473  36.484  1.00  0.00     0.131 A 
ATOM     73  C   UNL A   1      39.330  34.077  36.829  1.00  0.00     0.055 A 
ATOM     74  C   UNL A   1      38.004  32.214  37.570  1.00  0.00     0.041 A 
ATOM     75  F   UNL A   1      38.046  30.206  36.362  1.00  0.00    -0.206 F 
ATOM     76  C   UNL A   1      38.443  33.521  37.753  1.00  0.00     0.022 A 
BRANCH  73  77
ATOM     77  S   UNL A   1      39.999  35.741  37.102  1.00  0.00     0.124 S 
ATOM     78  O   UNL A   1      39.270  36.164  38.292  1.00  0.00    -0.237 OA
ATOM     79  O   UNL A   1      41.422  35.470  37.282  1.00  0.00    -0.237 OA
ATOM     80  O   UNL A   1      39.654  36.452  35.873  1.00  0.00    -0.744 OA
ENDBRANCH  73  77
ENDBRANCH  46  70
BRANCH  58  81
ATOM     81  C   UNL A   1      44.825  27.786  34.757  1.00  0.00     0.023 A 
ATOM     82  C   UNL A   1      44.753  26.712  35.660  1.00  0.00     0.031 A 
ATOM     83  C   UNL A   1      45.994  28.567  34.746  1.00  0.00     0.131 A 
ATOM     84  C   UNL A   1      45.809  26.481  36.555  1.00  0.00     0.055 A 
ATOM     85  C   UNL A   1      47.062  28.302  35.602  1.00  0.00     0.041 A 
ATOM     86  F   UNL A   1      46.112  29.606  33.903  1.00  0.00    -0.206 F 
ATOM     87  C   UNL A   1      46.968  27.261  36.523  1.00  0.00     0.022 A 
BRANCH  84  88
ATOM     88  S   UNL A   1      45.613  25.198  37.823  1.00  0.00     0.124 S 
ATOM     89  O   UNL A   1      46.295  24.061  37.214  1.00  0.00    -0.237 OA
ATOM     90  O   UNL A   1      46.274  25.796  38.977  1.00  0.00    -0.237 OA
ATOM     91  O   UNL A   1      44.162  25.057  37.945  1.00  0.00    -0.744 OA
ENDBRANCH  84  88
ENDBRANCH  58  81
ENDBRANCH  32  33
ENDBRANCH  25  27
ENDBRANCH  24  25
ENDBRANCH  23  24
ENDBRANCH   1  23
TORSDOF 17
ENDMDL
