MODEL 1
REMARK VINA RESULT:     -12.3      0.000      0.000
REMARK SMILES CCOc1ccccc1-c1cc(C(=O)OCCOC(=O)c2ccc(-c3c4nc(c(-c5cc(S(=O)(=O)[O-])ccc5F)c5ccc([nH]5)c(-c5cc(S(=O)(=O)[O-])ccc5F)c5nc(c(-c6cc(S(=O)(=O)[O-])ccc6F)c6ccc3[nH]6)C=C5)C=C4)cc2)c2cc(C)cc(C)c2n1
REMARK SMILES IDX 16 1 15 2 13 3 14 4 12 5 10 6 11 7 92 8 91 9 84 10 89 11
REMARK SMILES IDX 85 12 88 13 90 14 86 15 87 16 9 17 4 18 5 19 6 20 8 21 7 22
REMARK SMILES IDX 3 23 2 24 1 25 17 26 18 27 19 28 20 29 21 30 22 31 83 32
REMARK SMILES IDX 23 33 82 34 24 35 25 36 26 37 76 38 27 39 81 40 75 41 77 42
REMARK SMILES IDX 28 43 80 44 74 45 73 46 29 48 61 49 41 50 60 51 42 52 45 53
REMARK SMILES IDX 59 54 78 55 43 56 44 57 58 59 79 60 46 61 30 62 31 63 39 64
REMARK SMILES IDX 32 65 38 66 40 67 37 68 33 69 34 70 35 71 36 72 62 73 63 74
REMARK SMILES IDX 71 75 64 76 70 77 72 78 69 79 65 80 66 81 67 82 68 83 47 84
REMARK SMILES IDX 48 85 56 86 49 87 55 88 57 89 54 90 50 91 51 92 52 93 53 94
REMARK H PARENT 77 47 45 58
REMARK Flexibility Score: inf
ROOT
ATOM      1  C   UNL A   1      31.793  29.069  25.983  1.00  0.00     0.275 C 
ENDROOT
BRANCH   1   2
ATOM      2  O   UNL A   1      32.838  28.075  25.897  1.00  0.00    -0.458 OA
BRANCH   2   3
ATOM      3  C   UNL A   1      32.849  27.303  24.774  1.00  0.00     0.339 C 
ATOM      4  O   UNL A   1      32.375  27.625  23.696  1.00  0.00    -0.246 OA
BRANCH   3   5
ATOM      5  C   UNL A   1      33.451  25.962  25.042  1.00  0.00     0.071 A 
ATOM      6  C   UNL A   1      34.866  24.194  24.446  1.00  0.00     0.076 A 
ATOM      7  C   UNL A   1      34.536  25.516  24.277  1.00  0.00     0.045 A 
ATOM      8  N   UNL A   1      34.829  23.753  25.716  1.00  0.00    -0.247 NA
ATOM      9  C   UNL A   1      33.655  23.941  26.322  1.00  0.00     0.075 A 
ATOM     10  C   UNL A   1      32.851  25.031  25.933  1.00  0.00     0.015 A 
ATOM     11  C   UNL A   1      33.156  22.947  27.165  1.00  0.00    -0.024 A 
ATOM     12  C   UNL A   1      31.484  24.996  26.272  1.00  0.00     0.014 A 
ATOM     13  C   UNL A   1      31.787  22.894  27.420  1.00  0.00     0.009 A 
ATOM     14  C   UNL A   1      33.995  21.789  27.625  1.00  0.00     0.047 C 
ATOM     15  C   UNL A   1      30.945  23.873  26.912  1.00  0.00    -0.050 A 
ATOM     16  C   UNL A   1      29.476  23.603  26.876  1.00  0.00     0.044 C 
BRANCH   6  17
ATOM     17  C   UNL A   1      34.271  23.122  23.547  1.00  0.00     0.042 A 
ATOM     18  C   UNL A   1      33.543  23.424  22.366  1.00  0.00     0.128 A 
ATOM     19  C   UNL A   1      32.518  22.579  21.920  1.00  0.00     0.047 A 
ATOM     20  C   UNL A   1      32.268  21.375  22.570  1.00  0.00     0.004 A 
ATOM     21  C   UNL A   1      34.070  21.842  24.111  1.00  0.00     0.014 A 
ATOM     22  C   UNL A   1      33.071  20.985  23.636  1.00  0.00     0.001 A 
BRANCH  18  23
ATOM     23  O   UNL A   1      33.664  24.653  21.761  1.00  0.00    -0.493 OA
BRANCH  23  24
ATOM     24  C   UNL A   1      32.419  25.175  21.287  1.00  0.00     0.226 C 
ATOM     25  C   UNL A   1      32.530  25.579  19.827  1.00  0.00     0.049 C 
ENDBRANCH  23  24
ENDBRANCH  18  23
ENDBRANCH   6  17
ENDBRANCH   3   5
ENDBRANCH   2   3
ENDBRANCH   1   2
BRANCH   1  26
ATOM     26  C   UNL A   1      32.166  30.194  26.947  1.00  0.00     0.275 C 
BRANCH  26  27
ATOM     27  O   UNL A   1      33.517  30.582  26.685  1.00  0.00    -0.458 OA
BRANCH  27  28
ATOM     28  C   UNL A   1      34.044  31.520  27.506  1.00  0.00     0.338 C 
ATOM     29  O   UNL A   1      33.516  32.556  27.868  1.00  0.00    -0.246 OA
BRANCH  28  30
ATOM     30  C   UNL A   1      35.388  31.046  27.909  1.00  0.00     0.060 A 
ATOM     31  C   UNL A   1      35.605  29.674  28.060  1.00  0.00     0.016 A 
ATOM     32  C   UNL A   1      36.420  31.948  28.184  1.00  0.00     0.016 A 
ATOM     33  C   UNL A   1      36.847  29.206  28.478  1.00  0.00     0.010 A 
ATOM     34  C   UNL A   1      37.685  31.468  28.564  1.00  0.00     0.010 A 
ATOM     35  C   UNL A   1      37.907  30.089  28.715  1.00  0.00    -0.014 A 
BRANCH  35  36
ATOM     36  C   UNL A   1      39.171  29.531  29.275  1.00  0.00     0.031 A 
ATOM     37  C   UNL A   1      39.542  29.870  30.689  1.00  0.00     0.074 A 
ATOM     38  C   UNL A   1      39.891  28.608  28.607  1.00  0.00     0.049 A 
ATOM     39  N   UNL A   1      40.544  29.441  31.410  1.00  0.00    -0.248 NA
ATOM     40  C   UNL A   1      38.665  30.828  31.371  1.00  0.00     0.031 C 
ATOM     41  C   UNL A   1      39.604  28.139  27.255  1.00  0.00     0.029 A 
ATOM     42  N   UNL A   1      40.953  27.830  29.009  1.00  0.00    -0.354 N 
ATOM     43  C   UNL A   1      40.454  30.118  32.619  1.00  0.00     0.074 A 
ATOM     44  C   UNL A   1      39.285  30.972  32.531  1.00  0.00     0.031 C 
ATOM     45  C   UNL A   1      40.362  27.057  27.000  1.00  0.00     0.029 A 
ATOM     46  C   UNL A   1      41.263  26.816  28.126  1.00  0.00     0.049 A 
ATOM     47  H   UNL A   1      41.446  27.983  29.846  1.00  0.00     0.167 HD
ATOM     48  C   UNL A   1      41.286  30.059  33.690  1.00  0.00     0.034 A 
ATOM     49  C   UNL A   1      42.159  25.808  28.224  1.00  0.00     0.034 A 
ATOM     50  C   UNL A   1      42.455  29.217  33.763  1.00  0.00     0.049 A 
ATOM     51  C   UNL A   1      43.100  25.788  29.410  1.00  0.00     0.074 A 
ATOM     52  C   UNL A   1      43.417  29.157  34.757  1.00  0.00     0.029 A 
ATOM     53  N   UNL A   1      42.824  28.281  32.805  1.00  0.00    -0.354 N 
ATOM     54  N   UNL A   1      43.084  26.521  30.499  1.00  0.00    -0.248 NA
ATOM     55  C   UNL A   1      44.216  24.831  29.349  1.00  0.00     0.031 C 
ATOM     56  C   UNL A   1      44.398  28.235  34.371  1.00  0.00     0.029 A 
ATOM     57  C   UNL A   1      44.007  27.655  33.175  1.00  0.00     0.049 A 
ATOM     58  H   UNL A   1      42.320  28.090  31.981  1.00  0.00     0.167 HD
ATOM     59  C   UNL A   1      44.187  26.112  31.249  1.00  0.00     0.074 A 
ATOM     60  C   UNL A   1      44.815  25.036  30.511  1.00  0.00     0.031 C 
ATOM     61  C   UNL A   1      44.649  26.595  32.430  1.00  0.00     0.034 A 
BRANCH  48  62
ATOM     62  C   UNL A   1      41.009  31.042  34.800  1.00  0.00     0.023 A 
ATOM     63  C   UNL A   1      39.940  30.872  35.696  1.00  0.00     0.031 A 
ATOM     64  C   UNL A   1      41.754  32.232  34.879  1.00  0.00     0.131 A 
ATOM     65  C   UNL A   1      39.577  31.922  36.552  1.00  0.00     0.055 A 
ATOM     66  C   UNL A   1      41.451  33.230  35.803  1.00  0.00     0.041 A 
ATOM     67  F   UNL A   1      42.767  32.462  34.028  1.00  0.00    -0.206 F 
ATOM     68  C   UNL A   1      40.340  33.090  36.630  1.00  0.00     0.022 A 
BRANCH  65  69
ATOM     69  S   UNL A   1      37.972  31.832  37.394  1.00  0.00     0.124 S 
ATOM     70  O   UNL A   1      37.170  32.761  36.601  1.00  0.00    -0.237 OA
ATOM     71  O   UNL A   1      37.627  30.421  37.266  1.00  0.00    -0.237 OA
ATOM     72  O   UNL A   1      38.271  32.283  38.751  1.00  0.00    -0.744 OA
ENDBRANCH  65  69
ENDBRANCH  48  62
BRANCH  49  73
ATOM     73  C   UNL A   1      42.283  24.748  27.171  1.00  0.00     0.023 A 
ATOM     74  C   UNL A   1      41.479  23.592  27.214  1.00  0.00     0.031 A 
ATOM     75  C   UNL A   1      43.275  24.811  26.176  1.00  0.00     0.131 A 
ATOM     76  C   UNL A   1      41.717  22.533  26.321  1.00  0.00     0.055 A 
ATOM     77  C   UNL A   1      43.456  23.788  25.243  1.00  0.00     0.041 A 
ATOM     78  F   UNL A   1      44.097  25.869  26.101  1.00  0.00    -0.206 F 
ATOM     79  C   UNL A   1      42.686  22.633  25.323  1.00  0.00     0.022 A 
BRANCH  76  80
ATOM     80  S   UNL A   1      40.823  20.969  26.553  1.00  0.00     0.124 S 
ATOM     81  O   UNL A   1      40.778  20.867  28.007  1.00  0.00    -0.237 OA
ATOM     82  O   UNL A   1      39.551  21.242  25.890  1.00  0.00    -0.237 OA
ATOM     83  O   UNL A   1      41.673  19.987  25.884  1.00  0.00    -0.744 OA
ENDBRANCH  76  80
ENDBRANCH  49  73
BRANCH  61  84
ATOM     84  C   UNL A   1      45.886  25.946  33.012  1.00  0.00     0.023 A 
ATOM     85  C   UNL A   1      45.814  24.811  33.842  1.00  0.00     0.031 A 
ATOM     86  C   UNL A   1      47.160  26.482  32.748  1.00  0.00     0.131 A 
ATOM     87  C   UNL A   1      46.981  24.287  34.423  1.00  0.00     0.055 A 
ATOM     88  C   UNL A   1      48.323  25.921  33.279  1.00  0.00     0.041 A 
ATOM     89  F   UNL A   1      47.296  27.565  31.966  1.00  0.00    -0.206 F 
ATOM     90  C   UNL A   1      48.236  24.826  34.135  1.00  0.00     0.022 A 
BRANCH  87  91
ATOM     91  S   UNL A   1      46.830  22.953  35.646  1.00  0.00     0.124 S 
ATOM     92  O   UNL A   1      48.217  22.750  36.051  1.00  0.00    -0.237 OA
ATOM     93  O   UNL A   1      45.952  23.547  36.649  1.00  0.00    -0.237 OA
ATOM     94  O   UNL A   1      46.242  21.852  34.883  1.00  0.00    -0.744 OA
ENDBRANCH  87  91
ENDBRANCH  61  84
ENDBRANCH  35  36
ENDBRANCH  28  30
ENDBRANCH  27  28
ENDBRANCH  26  27
ENDBRANCH   1  26
TORSDOF 17
ENDMDL
MODEL 2
REMARK VINA RESULT:     -12.1      5.070      7.709
REMARK SMILES CCOc1ccccc1-c1cc(C(=O)OCCOC(=O)c2ccc(-c3c4nc(c(-c5cc(S(=O)(=O)[O-])ccc5F)c5ccc([nH]5)c(-c5cc(S(=O)(=O)[O-])ccc5F)c5nc(c(-c6cc(S(=O)(=O)[O-])ccc6F)c6ccc3[nH]6)C=C5)C=C4)cc2)c2cc(C)cc(C)c2n1
REMARK SMILES IDX 16 1 15 2 13 3 14 4 12 5 10 6 11 7 92 8 91 9 84 10 89 11
REMARK SMILES IDX 85 12 88 13 90 14 86 15 87 16 9 17 4 18 5 19 6 20 8 21 7 22
REMARK SMILES IDX 3 23 2 24 1 25 17 26 18 27 19 28 20 29 21 30 22 31 83 32
REMARK SMILES IDX 23 33 82 34 24 35 25 36 26 37 76 38 27 39 81 40 75 41 77 42
REMARK SMILES IDX 28 43 80 44 74 45 73 46 29 48 61 49 41 50 60 51 42 52 45 53
REMARK SMILES IDX 59 54 78 55 43 56 44 57 58 59 79 60 46 61 30 62 31 63 39 64
REMARK SMILES IDX 32 65 38 66 40 67 37 68 33 69 34 70 35 71 36 72 62 73 63 74
REMARK SMILES IDX 71 75 64 76 70 77 72 78 69 79 65 80 66 81 67 82 68 83 47 84
REMARK SMILES IDX 48 85 56 86 49 87 55 88 57 89 54 90 50 91 51 92 52 93 53 94
REMARK H PARENT 77 47 45 58
REMARK Flexibility Score: inf
ROOT
ATOM      1  C   UNL A   1      35.854  22.284  24.055  1.00  0.00     0.275 C 
ENDROOT
BRANCH   1   2
ATOM      2  O   UNL A   1      35.270  22.937  25.204  1.00  0.00    -0.458 OA
BRANCH   2   3
ATOM      3  C   UNL A   1      33.925  23.154  25.160  1.00  0.00     0.339 C 
ATOM      4  O   UNL A   1      33.076  22.278  25.095  1.00  0.00    -0.246 OA
BRANCH   3   5
ATOM      5  C   UNL A   1      33.609  24.613  25.123  1.00  0.00     0.071 A 
ATOM      6  C   UNL A   1      32.611  26.518  26.046  1.00  0.00     0.076 A 
ATOM      7  C   UNL A   1      33.074  25.243  26.253  1.00  0.00     0.045 A 
ATOM      8  N   UNL A   1      33.387  27.290  25.264  1.00  0.00    -0.247 NA
ATOM      9  C   UNL A   1      33.636  26.766  24.062  1.00  0.00     0.075 A 
ATOM     10  C   UNL A   1      33.665  25.365  23.918  1.00  0.00     0.015 A 
ATOM     11  C   UNL A   1      33.648  27.602  22.944  1.00  0.00    -0.024 A 
ATOM     12  C   UNL A   1      33.526  24.833  22.621  1.00  0.00     0.014 A 
ATOM     13  C   UNL A   1      33.431  27.055  21.681  1.00  0.00     0.009 A 
ATOM     14  C   UNL A   1      33.649  29.100  23.062  1.00  0.00     0.047 C 
ATOM     15  C   UNL A   1      33.296  25.681  21.531  1.00  0.00    -0.050 A 
ATOM     16  C   UNL A   1      32.705  25.157  20.263  1.00  0.00     0.044 C 
BRANCH   6  17
ATOM     17  C   UNL A   1      31.157  26.769  25.677  1.00  0.00     0.042 A 
ATOM     18  C   UNL A   1      30.124  25.829  25.931  1.00  0.00     0.128 A 
ATOM     19  C   UNL A   1      29.005  25.749  25.092  1.00  0.00     0.047 A 
ATOM     20  C   UNL A   1      28.838  26.663  24.057  1.00  0.00     0.004 A 
ATOM     21  C   UNL A   1      30.899  27.751  24.694  1.00  0.00     0.014 A 
ATOM     22  C   UNL A   1      29.759  27.690  23.886  1.00  0.00     0.001 A 
BRANCH  18  23
ATOM     23  O   UNL A   1      30.298  24.828  26.859  1.00  0.00    -0.493 OA
BRANCH  23  24
ATOM     24  C   UNL A   1      30.083  23.518  26.324  1.00  0.00     0.226 C 
ATOM     25  C   UNL A   1      29.371  22.638  27.337  1.00  0.00     0.049 C 
ENDBRANCH  23  24
ENDBRANCH  18  23
ENDBRANCH   6  17
ENDBRANCH   3   5
ENDBRANCH   2   3
ENDBRANCH   1   2
BRANCH   1  26
ATOM     26  C   UNL A   1      36.742  21.110  24.467  1.00  0.00     0.275 C 
BRANCH  26  27
ATOM     27  O   UNL A   1      37.257  21.372  25.775  1.00  0.00    -0.458 OA
BRANCH  27  28
ATOM     28  C   UNL A   1      38.570  21.110  25.968  1.00  0.00     0.338 C 
ATOM     29  O   UNL A   1      39.128  20.035  25.840  1.00  0.00    -0.246 OA
BRANCH  28  30
ATOM     30  C   UNL A   1      39.221  22.384  26.350  1.00  0.00     0.060 A 
ATOM     31  C   UNL A   1      38.657  23.588  25.920  1.00  0.00     0.016 A 
ATOM     32  C   UNL A   1      40.409  22.396  27.088  1.00  0.00     0.016 A 
ATOM     33  C   UNL A   1      39.273  24.796  26.230  1.00  0.00     0.010 A 
ATOM     34  C   UNL A   1      41.003  23.621  27.436  1.00  0.00     0.010 A 
ATOM     35  C   UNL A   1      40.438  24.833  27.007  1.00  0.00    -0.014 A 
BRANCH  35  36
ATOM     36  C   UNL A   1      41.110  26.150  27.199  1.00  0.00     0.031 A 
ATOM     37  C   UNL A   1      40.556  27.097  28.222  1.00  0.00     0.074 A 
ATOM     38  C   UNL A   1      42.285  26.436  26.603  1.00  0.00     0.049 A 
ATOM     39  N   UNL A   1      41.016  28.255  28.617  1.00  0.00    -0.248 NA
ATOM     40  C   UNL A   1      39.312  26.679  28.879  1.00  0.00     0.031 C 
ATOM     41  C   UNL A   1      42.967  25.577  25.640  1.00  0.00     0.029 A 
ATOM     42  N   UNL A   1      43.159  27.482  26.791  1.00  0.00    -0.354 N 
ATOM     43  C   UNL A   1      40.088  28.736  29.532  1.00  0.00     0.074 A 
ATOM     44  C   UNL A   1      39.051  27.728  29.640  1.00  0.00     0.031 C 
ATOM     45  C   UNL A   1      44.211  26.048  25.442  1.00  0.00     0.029 A 
ATOM     46  C   UNL A   1      44.383  27.299  26.180  1.00  0.00     0.049 A 
ATOM     47  H   UNL A   1      42.933  28.286  27.311  1.00  0.00     0.167 HD
ATOM     48  C   UNL A   1      40.084  29.920  30.195  1.00  0.00     0.034 A 
ATOM     49  C   UNL A   1      45.509  28.046  26.223  1.00  0.00     0.034 A 
ATOM     50  C   UNL A   1      41.113  30.924  30.070  1.00  0.00     0.049 A 
ATOM     51  C   UNL A   1      45.464  29.381  26.938  1.00  0.00     0.074 A 
ATOM     52  C   UNL A   1      41.153  32.194  30.618  1.00  0.00     0.029 A 
ATOM     53  N   UNL A   1      42.291  30.771  29.348  1.00  0.00    -0.354 N 
ATOM     54  N   UNL A   1      44.525  29.886  27.703  1.00  0.00    -0.248 NA
ATOM     55  C   UNL A   1      46.621  30.269  26.745  1.00  0.00     0.031 C 
ATOM     56  C   UNL A   1      42.319  32.832  30.176  1.00  0.00     0.029 A 
ATOM     57  C   UNL A   1      43.052  31.930  29.420  1.00  0.00     0.049 A 
ATOM     58  H   UNL A   1      42.548  29.958  28.855  1.00  0.00     0.167 HD
ATOM     59  C   UNL A   1      44.980  31.150  28.081  1.00  0.00     0.074 A 
ATOM     60  C   UNL A   1      46.297  31.308  27.500  1.00  0.00     0.031 C 
ATOM     61  C   UNL A   1      44.358  32.100  28.824  1.00  0.00     0.034 A 
BRANCH  48  62
ATOM     62  C   UNL A   1      38.848  30.223  31.004  1.00  0.00     0.023 A 
ATOM     63  C   UNL A   1      37.721  30.845  30.438  1.00  0.00     0.031 A 
ATOM     64  C   UNL A   1      38.852  30.001  32.393  1.00  0.00     0.131 A 
ATOM     65  C   UNL A   1      36.699  31.322  31.272  1.00  0.00     0.055 A 
ATOM     66  C   UNL A   1      37.785  30.387  33.203  1.00  0.00     0.041 A 
ATOM     67  F   UNL A   1      39.914  29.439  32.992  1.00  0.00    -0.206 F 
ATOM     68  C   UNL A   1      36.711  31.075  32.647  1.00  0.00     0.022 A 
BRANCH  65  69
ATOM     69  S   UNL A   1      35.473  32.460  30.568  1.00  0.00     0.124 S 
ATOM     70  O   UNL A   1      34.470  32.507  31.629  1.00  0.00    -0.237 OA
ATOM     71  O   UNL A   1      36.251  33.678  30.370  1.00  0.00    -0.237 OA
ATOM     72  O   UNL A   1      35.043  31.787  29.345  1.00  0.00    -0.744 OA
ENDBRANCH  65  69
ENDBRANCH  48  62
BRANCH  49  73
ATOM     73  C   UNL A   1      46.774  27.620  25.543  1.00  0.00     0.023 A 
ATOM     74  C   UNL A   1      47.036  27.993  24.210  1.00  0.00     0.031 A 
ATOM     75  C   UNL A   1      47.684  26.745  26.162  1.00  0.00     0.131 A 
ATOM     76  C   UNL A   1      48.142  27.453  23.530  1.00  0.00     0.055 A 
ATOM     77  C   UNL A   1      48.823  26.272  25.506  1.00  0.00     0.041 A 
ATOM     78  F   UNL A   1      47.475  26.324  27.419  1.00  0.00    -0.206 F 
ATOM     79  C   UNL A   1      49.047  26.612  24.176  1.00  0.00     0.022 A 
BRANCH  76  80
ATOM     80  S   UNL A   1      48.320  27.769  21.750  1.00  0.00     0.124 S 
ATOM     81  O   UNL A   1      49.363  28.788  21.735  1.00  0.00    -0.237 OA
ATOM     82  O   UNL A   1      48.701  26.454  21.242  1.00  0.00    -0.237 OA
ATOM     83  O   UNL A   1      46.992  28.228  21.349  1.00  0.00    -0.744 OA
ENDBRANCH  76  80
ENDBRANCH  49  73
BRANCH  61  84
ATOM     84  C   UNL A   1      45.107  33.392  29.071  1.00  0.00     0.023 A 
ATOM     85  C   UNL A   1      44.932  34.524  28.254  1.00  0.00     0.031 A 
ATOM     86  C   UNL A   1      46.026  33.487  30.132  1.00  0.00     0.131 A 
ATOM     87  C   UNL A   1      45.704  35.677  28.472  1.00  0.00     0.055 A 
ATOM     88  C   UNL A   1      46.747  34.656  30.382  1.00  0.00     0.041 A 
ATOM     89  F   UNL A   1      46.240  32.441  30.947  1.00  0.00    -0.206 F 
ATOM     90  C   UNL A   1      46.600  35.755  29.540  1.00  0.00     0.022 A 
BRANCH  87  91
ATOM     91  S   UNL A   1      45.601  37.042  27.278  1.00  0.00     0.124 S 
ATOM     92  O   UNL A   1      44.185  37.037  26.929  1.00  0.00    -0.237 OA
ATOM     93  O   UNL A   1      46.061  38.180  28.067  1.00  0.00    -0.237 OA
ATOM     94  O   UNL A   1      46.505  36.628  26.205  1.00  0.00    -0.744 OA
ENDBRANCH  87  91
ENDBRANCH  61  84
ENDBRANCH  35  36
ENDBRANCH  28  30
ENDBRANCH  27  28
ENDBRANCH  26  27
ENDBRANCH   1  26
TORSDOF 17
ENDMDL
MODEL 3
REMARK VINA RESULT:     -11.9      4.494      9.429
REMARK SMILES CCOc1ccccc1-c1cc(C(=O)OCCOC(=O)c2ccc(-c3c4nc(c(-c5cc(S(=O)(=O)[O-])ccc5F)c5ccc([nH]5)c(-c5cc(S(=O)(=O)[O-])ccc5F)c5nc(c(-c6cc(S(=O)(=O)[O-])ccc6F)c6ccc3[nH]6)C=C5)C=C4)cc2)c2cc(C)cc(C)c2n1
REMARK SMILES IDX 16 1 15 2 13 3 14 4 12 5 10 6 11 7 92 8 91 9 84 10 89 11
REMARK SMILES IDX 85 12 88 13 90 14 86 15 87 16 9 17 4 18 5 19 6 20 8 21 7 22
REMARK SMILES IDX 3 23 2 24 1 25 17 26 18 27 19 28 20 29 21 30 22 31 83 32
REMARK SMILES IDX 23 33 82 34 24 35 25 36 26 37 76 38 27 39 81 40 75 41 77 42
REMARK SMILES IDX 28 43 80 44 74 45 73 46 29 48 61 49 41 50 60 51 42 52 45 53
REMARK SMILES IDX 59 54 78 55 43 56 44 57 58 59 79 60 46 61 30 62 31 63 39 64
REMARK SMILES IDX 32 65 38 66 40 67 37 68 33 69 34 70 35 71 36 72 62 73 63 74
REMARK SMILES IDX 71 75 64 76 70 77 72 78 69 79 65 80 66 81 67 82 68 83 47 84
REMARK SMILES IDX 48 85 56 86 49 87 55 88 57 89 54 90 50 91 51 92 52 93 53 94
REMARK H PARENT 77 47 45 58
REMARK Flexibility Score: inf
ROOT
ATOM      1  C   UNL A   1      36.479  21.977  23.923  1.00  0.00     0.275 C 
ENDROOT
BRANCH   1   2
ATOM      2  O   UNL A   1      35.958  23.057  24.729  1.00  0.00    -0.458 OA
BRANCH   2   3
ATOM      3  C   UNL A   1      34.601  23.152  24.812  1.00  0.00     0.339 C 
ATOM      4  O   UNL A   1      33.826  22.211  24.733  1.00  0.00    -0.246 OA
BRANCH   3   5
ATOM      5  C   UNL A   1      34.161  24.574  24.936  1.00  0.00     0.071 A 
ATOM      6  C   UNL A   1      33.132  26.305  26.131  1.00  0.00     0.076 A 
ATOM      7  C   UNL A   1      33.724  25.067  26.172  1.00  0.00     0.045 A 
ATOM      8  N   UNL A   1      33.733  27.200  25.327  1.00  0.00    -0.247 NA
ATOM      9  C   UNL A   1      33.868  26.792  24.064  1.00  0.00     0.075 A 
ATOM     10  C   UNL A   1      33.997  25.414  23.801  1.00  0.00     0.015 A 
ATOM     11  C   UNL A   1      33.665  27.704  23.027  1.00  0.00    -0.024 A 
ATOM     12  C   UNL A   1      33.738  24.966  22.491  1.00  0.00     0.014 A 
ATOM     13  C   UNL A   1      33.335  27.231  21.759  1.00  0.00     0.009 A 
ATOM     14  C   UNL A   1      33.555  29.183  23.269  1.00  0.00     0.047 C 
ATOM     15  C   UNL A   1      33.298  25.866  21.511  1.00  0.00    -0.050 A 
ATOM     16  C   UNL A   1      32.594  25.381  20.286  1.00  0.00     0.044 C 
BRANCH   6  17
ATOM     17  C   UNL A   1      31.627  26.443  25.964  1.00  0.00     0.042 A 
ATOM     18  C   UNL A   1      30.721  25.387  26.243  1.00  0.00     0.128 A 
ATOM     19  C   UNL A   1      29.514  25.272  25.540  1.00  0.00     0.047 A 
ATOM     20  C   UNL A   1      29.138  26.254  24.628  1.00  0.00     0.004 A 
ATOM     21  C   UNL A   1      31.161  27.479  25.122  1.00  0.00     0.014 A 
ATOM     22  C   UNL A   1      29.937  27.378  24.453  1.00  0.00     0.001 A 
BRANCH  18  23
ATOM     23  O   UNL A   1      31.097  24.330  27.039  1.00  0.00    -0.493 OA
BRANCH  23  24
ATOM     24  C   UNL A   1      30.256  23.181  26.887  1.00  0.00     0.226 C 
ATOM     25  C   UNL A   1      30.906  22.163  25.966  1.00  0.00     0.049 C 
ENDBRANCH  23  24
ENDBRANCH  18  23
ENDBRANCH   6  17
ENDBRANCH   3   5
ENDBRANCH   2   3
ENDBRANCH   1   2
BRANCH   1  26
ATOM     26  C   UNL A   1      37.360  21.037  24.746  1.00  0.00     0.275 C 
BRANCH  26  27
ATOM     27  O   UNL A   1      37.880  21.767  25.859  1.00  0.00    -0.458 OA
BRANCH  27  28
ATOM     28  C   UNL A   1      39.182  21.557  26.161  1.00  0.00     0.338 C 
ATOM     29  O   UNL A   1      39.838  20.560  25.917  1.00  0.00    -0.246 OA
BRANCH  28  30
ATOM     30  C   UNL A   1      39.681  22.779  26.831  1.00  0.00     0.060 A 
ATOM     31  C   UNL A   1      39.070  24.004  26.549  1.00  0.00     0.016 A 
ATOM     32  C   UNL A   1      40.776  22.732  27.700  1.00  0.00     0.016 A 
ATOM     33  C   UNL A   1      39.547  25.173  27.134  1.00  0.00     0.010 A 
ATOM     34  C   UNL A   1      41.226  23.909  28.323  1.00  0.00     0.010 A 
ATOM     35  C   UNL A   1      40.613  25.142  28.042  1.00  0.00    -0.014 A 
BRANCH  35  36
ATOM     36  C   UNL A   1      41.149  26.441  28.538  1.00  0.00     0.031 A 
ATOM     37  C   UNL A   1      42.507  26.881  28.077  1.00  0.00     0.074 A 
ATOM     38  C   UNL A   1      40.383  27.295  29.245  1.00  0.00     0.049 A 
ATOM     39  N   UNL A   1      43.141  28.000  28.310  1.00  0.00    -0.248 NA
ATOM     40  C   UNL A   1      43.247  25.922  27.249  1.00  0.00     0.031 C 
ATOM     41  C   UNL A   1      39.024  27.022  29.701  1.00  0.00     0.029 A 
ATOM     42  N   UNL A   1      40.603  28.601  29.623  1.00  0.00    -0.354 N 
ATOM     43  C   UNL A   1      44.383  27.862  27.703  1.00  0.00     0.074 A 
ATOM     44  C   UNL A   1      44.397  26.553  27.079  1.00  0.00     0.031 C 
ATOM     45  C   UNL A   1      38.479  28.166  30.154  1.00  0.00     0.029 A 
ATOM     46  C   UNL A   1      39.480  29.231  30.119  1.00  0.00     0.049 A 
ATOM     47  H   UNL A   1      41.478  29.044  29.547  1.00  0.00     0.167 HD
ATOM     48  C   UNL A   1      45.425  28.731  27.695  1.00  0.00     0.034 A 
ATOM     49  C   UNL A   1      39.284  30.517  30.489  1.00  0.00     0.034 A 
ATOM     50  C   UNL A   1      45.407  30.026  28.332  1.00  0.00     0.049 A 
ATOM     51  C   UNL A   1      40.473  31.454  30.507  1.00  0.00     0.074 A 
ATOM     52  C   UNL A   1      46.441  30.937  28.468  1.00  0.00     0.029 A 
ATOM     53  N   UNL A   1      44.297  30.600  28.938  1.00  0.00    -0.354 N 
ATOM     54  N   UNL A   1      41.687  31.270  30.042  1.00  0.00    -0.248 NA
ATOM     55  C   UNL A   1      40.271  32.761  31.152  1.00  0.00     0.031 C 
ATOM     56  C   UNL A   1      45.975  32.029  29.210  1.00  0.00     0.029 A 
ATOM     57  C   UNL A   1      44.626  31.841  29.466  1.00  0.00     0.049 A 
ATOM     58  H   UNL A   1      43.405  30.186  28.988  1.00  0.00     0.167 HD
ATOM     59  C   UNL A   1      42.390  32.438  30.341  1.00  0.00     0.074 A 
ATOM     60  C   UNL A   1      41.451  33.336  30.980  1.00  0.00     0.031 C 
ATOM     61  C   UNL A   1      43.697  32.732  30.124  1.00  0.00     0.034 A 
BRANCH  48  62
ATOM     62  C   UNL A   1      46.707  28.224  27.082  1.00  0.00     0.023 A 
ATOM     63  C   UNL A   1      46.973  28.344  25.707  1.00  0.00     0.031 A 
ATOM     64  C   UNL A   1      47.616  27.496  27.870  1.00  0.00     0.131 A 
ATOM     65  C   UNL A   1      48.057  27.652  25.146  1.00  0.00     0.055 A 
ATOM     66  C   UNL A   1      48.748  26.894  27.322  1.00  0.00     0.041 A 
ATOM     67  F   UNL A   1      47.396  27.322  29.183  1.00  0.00    -0.206 F 
ATOM     68  C   UNL A   1      48.960  26.948  25.948  1.00  0.00     0.022 A 
BRANCH  65  69
ATOM     69  S   UNL A   1      48.139  27.496  23.340  1.00  0.00     0.124 S 
ATOM     70  O   UNL A   1      48.096  26.046  23.166  1.00  0.00    -0.237 OA
ATOM     71  O   UNL A   1      46.952  28.226  22.908  1.00  0.00    -0.237 OA
ATOM     72  O   UNL A   1      49.415  28.119  23.000  1.00  0.00    -0.744 OA
ENDBRANCH  65  69
ENDBRANCH  48  62
BRANCH  49  73
ATOM     73  C   UNL A   1      37.945  31.022  30.931  1.00  0.00     0.023 A 
ATOM     74  C   UNL A   1      37.036  31.564  30.002  1.00  0.00     0.031 A 
ATOM     75  C   UNL A   1      37.592  31.081  32.292  1.00  0.00     0.131 A 
ATOM     76  C   UNL A   1      35.855  32.184  30.446  1.00  0.00     0.055 A 
ATOM     77  C   UNL A   1      36.382  31.630  32.722  1.00  0.00     0.041 A 
ATOM     78  F   UNL A   1      38.428  30.613  33.232  1.00  0.00    -0.206 F 
ATOM     79  C   UNL A   1      35.514  32.202  31.799  1.00  0.00     0.022 A 
BRANCH  76  80
ATOM     80  S   UNL A   1      34.823  33.075  29.246  1.00  0.00     0.124 S 
ATOM     81  O   UNL A   1      35.815  33.887  28.550  1.00  0.00    -0.237 OA
ATOM     82  O   UNL A   1      34.234  31.983  28.478  1.00  0.00    -0.237 OA
ATOM     83  O   UNL A   1      33.887  33.818  30.087  1.00  0.00    -0.744 OA
ENDBRANCH  76  80
ENDBRANCH  49  73
BRANCH  61  84
ATOM     84  C   UNL A   1      44.186  34.096  30.562  1.00  0.00     0.023 A 
ATOM     85  C   UNL A   1      44.752  34.313  31.833  1.00  0.00     0.031 A 
ATOM     86  C   UNL A   1      44.066  35.203  29.702  1.00  0.00     0.131 A 
ATOM     87  C   UNL A   1      45.121  35.610  32.228  1.00  0.00     0.055 A 
ATOM     88  C   UNL A   1      44.491  36.479  30.077  1.00  0.00     0.041 A 
ATOM     89  F   UNL A   1      43.533  35.062  28.478  1.00  0.00    -0.206 F 
ATOM     90  C   UNL A   1      45.007  36.691  31.352  1.00  0.00     0.022 A 
BRANCH  87  91
ATOM     91  S   UNL A   1      45.656  35.887  33.941  1.00  0.00     0.124 S 
ATOM     92  O   UNL A   1      45.446  34.575  34.544  1.00  0.00    -0.237 OA
ATOM     93  O   UNL A   1      47.045  36.297  33.771  1.00  0.00    -0.237 OA
ATOM     94  O   UNL A   1      44.755  36.937  34.416  1.00  0.00    -0.744 OA
ENDBRANCH  87  91
ENDBRANCH  61  84
ENDBRANCH  35  36
ENDBRANCH  28  30
ENDBRANCH  27  28
ENDBRANCH  26  27
ENDBRANCH   1  26
TORSDOF 17
ENDMDL
