MODEL 1
REMARK VINA RESULT:     -11.6      0.000      0.000
REMARK SMILES N#CCSCC(=O)N1Cc2ccccc2C[C@@H]1C(=O)OCCOC(=O)c1ccc(-c2c3nc(c(-c4cc(S(=O)(=O)[O-])ccc4F)c4ccc([nH]4)c(-c4cc(S(=O)(=O)[O-])ccc4F)c4nc(c(-c5cc(S(=O)(=O)[O-])ccc5F)c5ccc2[nH]5)C=C4)C=C3)cc1
REMARK SMILES IDX 21 1 20 2 18 3 19 4 17 5 8 6 9 7 10 8 16 9 11 10 15 11 12 12
REMARK SMILES IDX 14 13 13 14 6 15 7 16 5 17 4 18 3 19 2 20 1 21 22 22 23 23
REMARK SMILES IDX 24 24 25 25 26 26 27 27 88 28 28 29 87 30 29 31 30 32 31 33
REMARK SMILES IDX 81 34 32 35 86 36 80 37 82 38 33 39 85 40 79 41 78 42 34 44
REMARK SMILES IDX 66 45 46 46 65 47 47 48 50 49 64 50 83 51 48 52 49 53 63 55
REMARK SMILES IDX 84 56 51 57 35 58 36 59 44 60 37 61 43 62 45 63 42 64 38 65
REMARK SMILES IDX 39 66 40 67 41 68 67 69 68 70 76 71 69 72 75 73 77 74 74 75
REMARK SMILES IDX 70 76 71 77 72 78 73 79 52 80 53 81 61 82 54 83 60 84 62 85
REMARK SMILES IDX 59 86 55 87 56 88 57 89 58 90
REMARK H PARENT 82 43 50 54
REMARK Flexibility Score: inf
ROOT
ATOM      1  C   UNL A   1      36.687  22.979  23.496  1.00  0.00     0.274 C 
ENDROOT
BRANCH   1   2
ATOM      2  O   UNL A   1      35.469  23.035  22.715  1.00  0.00    -0.461 OA
BRANCH   2   3
ATOM      3  C   UNL A   1      34.444  23.808  23.188  1.00  0.00     0.329 C 
ATOM      4  O   UNL A   1      34.052  24.832  22.639  1.00  0.00    -0.250 OA
BRANCH   3   5
ATOM      5  C   UNL A   1      33.870  23.310  24.538  1.00  0.00     0.199 C 
ATOM      6  N   UNL A   1      32.698  22.449  24.311  1.00  0.00    -0.323 N 
ATOM      7  C   UNL A   1      31.382  23.090  24.198  1.00  0.00     0.156 C 
ATOM      8  C   UNL A   1      31.335  24.575  24.468  1.00  0.00    -0.025 A 
ATOM      9  C   UNL A   1      33.606  24.455  25.513  1.00  0.00     0.073 C 
ATOM     10  C   UNL A   1      30.197  25.311  24.107  1.00  0.00     0.006 A 
ATOM     11  C   UNL A   1      32.386  25.232  25.124  1.00  0.00    -0.040 A 
ATOM     12  C   UNL A   1      30.110  26.673  24.394  1.00  0.00     0.000 A 
ATOM     13  C   UNL A   1      32.274  26.590  25.448  1.00  0.00     0.004 A 
ATOM     14  C   UNL A   1      31.145  27.311  25.072  1.00  0.00     0.000 A 
BRANCH   6  15
ATOM     15  C   UNL A   1      32.802  21.122  23.914  1.00  0.00     0.233 C 
ATOM     16  O   UNL A   1      32.168  20.704  22.939  1.00  0.00    -0.274 OA
BRANCH  15  17
ATOM     17  C   UNL A   1      33.617  20.122  24.736  1.00  0.00     0.170 C 
BRANCH  17  18
ATOM     18  S   UNL A   1      32.852  18.517  25.152  1.00  0.00    -0.137 SA
BRANCH  18  19
ATOM     19  C   UNL A   1      33.637  17.395  23.949  1.00  0.00     0.189 C 
BRANCH  19  20
ATOM     20  C   UNL A   1      34.474  16.346  24.662  1.00  0.00     0.073 C 
ATOM     21  N   UNL A   1      35.168  15.475  25.254  1.00  0.00    -0.197 NA
ENDBRANCH  19  20
ENDBRANCH  18  19
ENDBRANCH  17  18
ENDBRANCH  15  17
ENDBRANCH   6  15
ENDBRANCH   3   5
ENDBRANCH   2   3
ENDBRANCH   1   2
BRANCH   1  22
ATOM     22  C   UNL A   1      36.904  21.612  24.114  1.00  0.00     0.275 C 
BRANCH  22  23
ATOM     23  O   UNL A   1      37.245  21.820  25.483  1.00  0.00    -0.458 OA
BRANCH  23  24
ATOM     24  C   UNL A   1      38.499  21.469  25.833  1.00  0.00     0.338 C 
ATOM     25  O   UNL A   1      39.043  20.393  25.630  1.00  0.00    -0.246 OA
BRANCH  24  26
ATOM     26  C   UNL A   1      39.136  22.618  26.502  1.00  0.00     0.060 A 
ATOM     27  C   UNL A   1      38.701  23.919  26.246  1.00  0.00     0.016 A 
ATOM     28  C   UNL A   1      40.234  22.407  27.327  1.00  0.00     0.016 A 
ATOM     29  C   UNL A   1      39.404  25.014  26.724  1.00  0.00     0.010 A 
ATOM     30  C   UNL A   1      40.888  23.504  27.887  1.00  0.00     0.010 A 
ATOM     31  C   UNL A   1      40.505  24.818  27.556  1.00  0.00    -0.014 A 
BRANCH  31  32
ATOM     32  C   UNL A   1      41.326  25.969  28.007  1.00  0.00     0.031 A 
ATOM     33  C   UNL A   1      40.682  27.026  28.857  1.00  0.00     0.074 A 
ATOM     34  C   UNL A   1      42.626  26.068  27.672  1.00  0.00     0.049 A 
ATOM     35  N   UNL A   1      41.078  28.243  29.116  1.00  0.00    -0.248 NA
ATOM     36  C   UNL A   1      39.398  26.666  29.482  1.00  0.00     0.031 C 
ATOM     37  C   UNL A   1      43.399  25.062  26.939  1.00  0.00     0.029 A 
ATOM     38  N   UNL A   1      43.528  27.076  27.901  1.00  0.00    -0.354 N 
ATOM     39  C   UNL A   1      40.060  28.819  29.869  1.00  0.00     0.074 A 
ATOM     40  C   UNL A   1      39.032  27.813  30.032  1.00  0.00     0.031 C 
ATOM     41  C   UNL A   1      44.659  25.497  26.792  1.00  0.00     0.029 A 
ATOM     42  C   UNL A   1      44.753  26.853  27.317  1.00  0.00     0.049 A 
ATOM     43  H   UNL A   1      43.320  27.878  28.431  1.00  0.00     0.167 HD
ATOM     44  C   UNL A   1      39.990  30.081  30.356  1.00  0.00     0.034 A 
ATOM     45  C   UNL A   1      45.806  27.678  27.153  1.00  0.00     0.034 A 
ATOM     46  C   UNL A   1      41.052  31.046  30.204  1.00  0.00     0.049 A 
ATOM     47  C   UNL A   1      45.690  29.093  27.651  1.00  0.00     0.074 A 
ATOM     48  C   UNL A   1      41.100  32.357  30.640  1.00  0.00     0.029 A 
ATOM     49  N   UNL A   1      42.263  30.791  29.572  1.00  0.00    -0.354 N 
ATOM     50  N   UNL A   1      44.680  29.675  28.255  1.00  0.00    -0.248 NA
ATOM     51  C   UNL A   1      46.847  29.966  27.422  1.00  0.00     0.031 C 
ATOM     52  C   UNL A   1      42.320  32.909  30.228  1.00  0.00     0.029 A 
ATOM     53  C   UNL A   1      43.059  31.925  29.591  1.00  0.00     0.049 A 
ATOM     54  H   UNL A   1      42.519  29.930  29.169  1.00  0.00     0.167 HD
ATOM     55  C   UNL A   1      45.080  30.987  28.480  1.00  0.00     0.074 A 
ATOM     56  C   UNL A   1      46.433  31.100  27.969  1.00  0.00     0.031 C 
ATOM     57  C   UNL A   1      44.395  32.012  29.051  1.00  0.00     0.034 A 
BRANCH  44  58
ATOM     58  C   UNL A   1      38.700  30.500  31.015  1.00  0.00     0.023 A 
ATOM     59  C   UNL A   1      37.646  31.092  30.298  1.00  0.00     0.031 A 
ATOM     60  C   UNL A   1      38.544  30.346  32.406  1.00  0.00     0.131 A 
ATOM     61  C   UNL A   1      36.514  31.565  30.981  1.00  0.00     0.055 A 
ATOM     62  C   UNL A   1      37.385  30.751  33.068  1.00  0.00     0.041 A 
ATOM     63  F   UNL A   1      39.529  29.814  33.147  1.00  0.00    -0.206 F 
ATOM     64  C   UNL A   1      36.366  31.377  32.357  1.00  0.00     0.022 A 
BRANCH  61  65
ATOM     65  S   UNL A   1      35.296  32.551  30.066  1.00  0.00     0.124 S 
ATOM     66  O   UNL A   1      34.894  31.620  29.015  1.00  0.00    -0.237 OA
ATOM     67  O   UNL A   1      34.294  32.838  31.086  1.00  0.00    -0.237 OA
ATOM     68  O   UNL A   1      36.066  33.706  29.606  1.00  0.00    -0.744 OA
ENDBRANCH  61  65
ENDBRANCH  44  58
BRANCH  45  69
ATOM     69  C   UNL A   1      47.006  27.217  26.400  1.00  0.00     0.023 A 
ATOM     70  C   UNL A   1      48.070  26.575  27.053  1.00  0.00     0.031 A 
ATOM     71  C   UNL A   1      47.108  27.417  25.011  1.00  0.00     0.131 A 
ATOM     72  C   UNL A   1      49.197  26.173  26.320  1.00  0.00     0.055 A 
ATOM     73  C   UNL A   1      48.208  26.972  24.279  1.00  0.00     0.041 A 
ATOM     74  F   UNL A   1      46.118  28.026  24.339  1.00  0.00    -0.206 F 
ATOM     75  C   UNL A   1      49.266  26.352  24.936  1.00  0.00     0.022 A 
BRANCH  72  76
ATOM     76  S   UNL A   1      50.603  25.455  27.211  1.00  0.00     0.124 S 
ATOM     77  O   UNL A   1      50.878  26.481  28.211  1.00  0.00    -0.237 OA
ATOM     78  O   UNL A   1      50.038  24.206  27.711  1.00  0.00    -0.237 OA
ATOM     79  O   UNL A   1      51.623  25.305  26.175  1.00  0.00    -0.744 OA
ENDBRANCH  72  76
ENDBRANCH  45  69
BRANCH  57  80
ATOM     80  C   UNL A   1      45.126  33.321  29.166  1.00  0.00     0.023 A 
ATOM     81  C   UNL A   1      45.176  34.228  28.095  1.00  0.00     0.031 A 
ATOM     82  C   UNL A   1      45.807  33.647  30.351  1.00  0.00     0.131 A 
ATOM     83  C   UNL A   1      45.946  35.394  28.207  1.00  0.00     0.055 A 
ATOM     84  C   UNL A   1      46.528  34.835  30.476  1.00  0.00     0.041 A 
ATOM     85  F   UNL A   1      45.789  32.812  31.401  1.00  0.00    -0.206 F 
ATOM     86  C   UNL A   1      46.611  35.710  29.395  1.00  0.00     0.022 A 
BRANCH  83  87
ATOM     87  S   UNL A   1      46.144  36.449  26.746  1.00  0.00     0.124 S 
ATOM     88  O   UNL A   1      46.004  35.488  25.657  1.00  0.00    -0.237 OA
ATOM     89  O   UNL A   1      45.050  37.403  26.899  1.00  0.00    -0.237 OA
ATOM     90  O   UNL A   1      47.483  37.011  26.907  1.00  0.00    -0.744 OA
ENDBRANCH  83  87
ENDBRANCH  57  80
ENDBRANCH  31  32
ENDBRANCH  24  26
ENDBRANCH  23  24
ENDBRANCH  22  23
ENDBRANCH   1  22
TORSDOF 19
ENDMDL
MODEL 2
REMARK VINA RESULT:     -11.5      4.976      9.816
REMARK SMILES N#CCSCC(=O)N1Cc2ccccc2C[C@@H]1C(=O)OCCOC(=O)c1ccc(-c2c3nc(c(-c4cc(S(=O)(=O)[O-])ccc4F)c4ccc([nH]4)c(-c4cc(S(=O)(=O)[O-])ccc4F)c4nc(c(-c5cc(S(=O)(=O)[O-])ccc5F)c5ccc2[nH]5)C=C4)C=C3)cc1
REMARK SMILES IDX 21 1 20 2 18 3 19 4 17 5 8 6 9 7 10 8 16 9 11 10 15 11 12 12
REMARK SMILES IDX 14 13 13 14 6 15 7 16 5 17 4 18 3 19 2 20 1 21 22 22 23 23
REMARK SMILES IDX 24 24 25 25 26 26 27 27 88 28 28 29 87 30 29 31 30 32 31 33
REMARK SMILES IDX 81 34 32 35 86 36 80 37 82 38 33 39 85 40 79 41 78 42 34 44
REMARK SMILES IDX 66 45 46 46 65 47 47 48 50 49 64 50 83 51 48 52 49 53 63 55
REMARK SMILES IDX 84 56 51 57 35 58 36 59 44 60 37 61 43 62 45 63 42 64 38 65
REMARK SMILES IDX 39 66 40 67 41 68 67 69 68 70 76 71 69 72 75 73 77 74 74 75
REMARK SMILES IDX 70 76 71 77 72 78 73 79 52 80 53 81 61 82 54 83 60 84 62 85
REMARK SMILES IDX 59 86 55 87 56 88 57 89 58 90
REMARK H PARENT 82 43 50 54
REMARK Flexibility Score: inf
ROOT
ATOM      1  C   UNL A   1      31.480  28.241  27.260  1.00  0.00     0.274 C 
ENDROOT
BRANCH   1   2
ATOM      2  O   UNL A   1      31.823  27.234  26.278  1.00  0.00    -0.461 OA
BRANCH   2   3
ATOM      3  C   UNL A   1      30.813  26.452  25.789  1.00  0.00     0.329 C 
ATOM      4  O   UNL A   1      29.928  25.966  26.484  1.00  0.00    -0.250 OA
BRANCH   3   5
ATOM      5  C   UNL A   1      30.936  26.168  24.270  1.00  0.00     0.199 C 
ATOM      6  N   UNL A   1      31.954  27.043  23.666  1.00  0.00    -0.323 N 
ATOM      7  C   UNL A   1      31.535  28.370  23.197  1.00  0.00     0.156 C 
ATOM      8  C   UNL A   1      30.055  28.663  23.253  1.00  0.00    -0.025 A 
ATOM      9  C   UNL A   1      29.585  26.224  23.560  1.00  0.00     0.073 C 
ATOM     10  C   UNL A   1      29.602  29.982  23.102  1.00  0.00     0.006 A 
ATOM     11  C   UNL A   1      29.111  27.636  23.398  1.00  0.00    -0.040 A 
ATOM     12  C   UNL A   1      28.237  30.269  23.098  1.00  0.00     0.000 A 
ATOM     13  C   UNL A   1      27.742  27.925  23.349  1.00  0.00     0.004 A 
ATOM     14  C   UNL A   1      27.307  29.240  23.213  1.00  0.00     0.000 A 
BRANCH   6  15
ATOM     15  C   UNL A   1      33.318  26.802  23.777  1.00  0.00     0.233 C 
ATOM     16  O   UNL A   1      34.118  27.740  23.870  1.00  0.00    -0.274 OA
BRANCH  15  17
ATOM     17  C   UNL A   1      33.870  25.379  23.679  1.00  0.00     0.170 C 
BRANCH  17  18
ATOM     18  S   UNL A   1      34.365  24.534  25.220  1.00  0.00    -0.137 SA
BRANCH  18  19
ATOM     19  C   UNL A   1      33.179  23.154  25.299  1.00  0.00     0.189 C 
BRANCH  19  20
ATOM     20  C   UNL A   1      32.369  23.216  26.584  1.00  0.00     0.073 C 
ATOM     21  N   UNL A   1      31.698  23.267  27.650  1.00  0.00    -0.197 NA
ENDBRANCH  19  20
ENDBRANCH  18  19
ENDBRANCH  17  18
ENDBRANCH  15  17
ENDBRANCH   6  15
ENDBRANCH   3   5
ENDBRANCH   2   3
ENDBRANCH   1   2
BRANCH   1  22
ATOM     22  C   UNL A   1      31.516  29.640  26.677  1.00  0.00     0.275 C 
BRANCH  22  23
ATOM     23  O   UNL A   1      32.887  29.974  26.472  1.00  0.00    -0.458 OA
BRANCH  23  24
ATOM     24  C   UNL A   1      33.318  31.086  27.102  1.00  0.00     0.338 C 
ATOM     25  O   UNL A   1      32.696  32.126  27.263  1.00  0.00    -0.246 OA
BRANCH  24  26
ATOM     26  C   UNL A   1      34.687  30.844  27.592  1.00  0.00     0.060 A 
ATOM     27  C   UNL A   1      35.144  29.542  27.808  1.00  0.00     0.016 A 
ATOM     28  C   UNL A   1      35.497  31.923  27.923  1.00  0.00     0.016 A 
ATOM     29  C   UNL A   1      36.356  29.306  28.437  1.00  0.00     0.010 A 
ATOM     30  C   UNL A   1      36.758  31.688  28.470  1.00  0.00     0.010 A 
ATOM     31  C   UNL A   1      37.181  30.379  28.772  1.00  0.00    -0.014 A 
BRANCH  31  32
ATOM     32  C   UNL A   1      38.440  30.158  29.525  1.00  0.00     0.031 A 
ATOM     33  C   UNL A   1      39.489  29.261  28.931  1.00  0.00     0.074 A 
ATOM     34  C   UNL A   1      38.652  30.752  30.714  1.00  0.00     0.049 A 
ATOM     35  N   UNL A   1      40.507  28.678  29.503  1.00  0.00    -0.248 NA
ATOM     36  C   UNL A   1      39.352  28.962  27.496  1.00  0.00     0.031 C 
ATOM     37  C   UNL A   1      37.762  31.724  31.354  1.00  0.00     0.029 A 
ATOM     38  N   UNL A   1      39.686  30.615  31.605  1.00  0.00    -0.354 N 
ATOM     39  C   UNL A   1      41.089  27.885  28.520  1.00  0.00     0.074 A 
ATOM     40  C   UNL A   1      40.313  28.069  27.312  1.00  0.00     0.031 C 
ATOM     41  C   UNL A   1      38.295  32.106  32.524  1.00  0.00     0.029 A 
ATOM     42  C   UNL A   1      39.500  31.324  32.768  1.00  0.00     0.049 A 
ATOM     43  H   UNL A   1      40.483  30.065  31.428  1.00  0.00     0.167 HD
ATOM     44  C   UNL A   1      42.160  27.063  28.631  1.00  0.00     0.034 A 
ATOM     45  C   UNL A   1      40.180  31.289  33.931  1.00  0.00     0.034 A 
ATOM     46  C   UNL A   1      42.932  26.933  29.843  1.00  0.00     0.049 A 
ATOM     47  C   UNL A   1      41.333  30.330  34.057  1.00  0.00     0.074 A 
ATOM     48  C   UNL A   1      44.030  26.129  30.089  1.00  0.00     0.029 A 
ATOM     49  N   UNL A   1      42.687  27.642  31.013  1.00  0.00    -0.354 N 
ATOM     50  N   UNL A   1      41.808  29.490  33.166  1.00  0.00    -0.248 NA
ATOM     51  C   UNL A   1      42.024  30.299  35.350  1.00  0.00     0.031 C 
ATOM     52  C   UNL A   1      44.418  26.316  31.422  1.00  0.00     0.029 A 
ATOM     53  C   UNL A   1      43.602  27.283  31.989  1.00  0.00     0.049 A 
ATOM     54  H   UNL A   1      41.968  28.304  31.132  1.00  0.00     0.167 HD
ATOM     55  C   UNL A   1      42.857  28.828  33.794  1.00  0.00     0.074 A 
ATOM     56  C   UNL A   1      42.959  29.388  35.128  1.00  0.00     0.031 C 
ATOM     57  C   UNL A   1      43.662  27.843  33.319  1.00  0.00     0.034 A 
BRANCH  44  58
ATOM     58  C   UNL A   1      42.495  26.194  27.445  1.00  0.00     0.023 A 
ATOM     59  C   UNL A   1      42.033  24.872  27.327  1.00  0.00     0.031 A 
ATOM     60  C   UNL A   1      43.339  26.689  26.433  1.00  0.00     0.131 A 
ATOM     61  C   UNL A   1      42.467  24.072  26.258  1.00  0.00     0.055 A 
ATOM     62  C   UNL A   1      43.707  25.912  25.334  1.00  0.00     0.041 A 
ATOM     63  F   UNL A   1      43.835  27.934  26.508  1.00  0.00    -0.206 F 
ATOM     64  C   UNL A   1      43.282  24.591  25.248  1.00  0.00     0.022 A 
BRANCH  61  65
ATOM     65  S   UNL A   1      42.062  22.303  26.275  1.00  0.00     0.124 S 
ATOM     66  O   UNL A   1      42.908  21.799  25.195  1.00  0.00    -0.237 OA
ATOM     67  O   UNL A   1      42.442  21.907  27.625  1.00  0.00    -0.237 OA
ATOM     68  O   UNL A   1      40.627  22.278  25.997  1.00  0.00    -0.744 OA
ENDBRANCH  61  65
ENDBRANCH  44  58
BRANCH  45  69
ATOM     69  C   UNL A   1      39.722  32.106  35.089  1.00  0.00     0.023 A 
ATOM     70  C   UNL A   1      40.216  33.402  35.303  1.00  0.00     0.031 A 
ATOM     71  C   UNL A   1      38.784  31.597  36.006  1.00  0.00     0.131 A 
ATOM     72  C   UNL A   1      39.782  34.138  36.417  1.00  0.00     0.055 A 
ATOM     73  C   UNL A   1      38.319  32.350  37.083  1.00  0.00     0.041 A 
ATOM     74  F   UNL A   1      38.280  30.362  35.847  1.00  0.00    -0.206 F 
ATOM     75  C   UNL A   1      38.825  33.628  37.298  1.00  0.00     0.022 A 
BRANCH  72  76
ATOM     76  S   UNL A   1      40.527  35.761  36.730  1.00  0.00     0.124 S 
ATOM     77  O   UNL A   1      41.903  35.547  36.295  1.00  0.00    -0.237 OA
ATOM     78  O   UNL A   1      39.716  36.634  35.886  1.00  0.00    -0.237 OA
ATOM     79  O   UNL A   1      40.347  35.947  38.168  1.00  0.00    -0.744 OA
ENDBRANCH  72  76
ENDBRANCH  45  69
BRANCH  57  80
ATOM     80  C   UNL A   1      44.731  27.345  34.253  1.00  0.00     0.023 A 
ATOM     81  C   UNL A   1      44.575  26.147  34.971  1.00  0.00     0.031 A 
ATOM     82  C   UNL A   1      45.901  28.096  34.451  1.00  0.00     0.131 A 
ATOM     83  C   UNL A   1      45.550  25.765  35.904  1.00  0.00     0.055 A 
ATOM     84  C   UNL A   1      46.893  27.682  35.341  1.00  0.00     0.041 A 
ATOM     85  F   UNL A   1      46.094  29.247  33.789  1.00  0.00    -0.206 F 
ATOM     86  C   UNL A   1      46.713  26.518  36.083  1.00  0.00     0.022 A 
BRANCH  83  87
ATOM     87  S   UNL A   1      45.232  24.318  36.948  1.00  0.00     0.124 S 
ATOM     88  O   UNL A   1      46.580  23.815  37.188  1.00  0.00    -0.237 OA
ATOM     89  O   UNL A   1      44.555  24.907  38.100  1.00  0.00    -0.237 OA
ATOM     90  O   UNL A   1      44.394  23.465  36.108  1.00  0.00    -0.744 OA
ENDBRANCH  83  87
ENDBRANCH  57  80
ENDBRANCH  31  32
ENDBRANCH  24  26
ENDBRANCH  23  24
ENDBRANCH  22  23
ENDBRANCH   1  22
TORSDOF 19
ENDMDL
MODEL 3
REMARK VINA RESULT:     -11.5      1.376      1.549
REMARK SMILES N#CCSCC(=O)N1Cc2ccccc2C[C@@H]1C(=O)OCCOC(=O)c1ccc(-c2c3nc(c(-c4cc(S(=O)(=O)[O-])ccc4F)c4ccc([nH]4)c(-c4cc(S(=O)(=O)[O-])ccc4F)c4nc(c(-c5cc(S(=O)(=O)[O-])ccc5F)c5ccc2[nH]5)C=C4)C=C3)cc1
REMARK SMILES IDX 21 1 20 2 18 3 19 4 17 5 8 6 9 7 10 8 16 9 11 10 15 11 12 12
REMARK SMILES IDX 14 13 13 14 6 15 7 16 5 17 4 18 3 19 2 20 1 21 22 22 23 23
REMARK SMILES IDX 24 24 25 25 26 26 27 27 88 28 28 29 87 30 29 31 30 32 31 33
REMARK SMILES IDX 81 34 32 35 86 36 80 37 82 38 33 39 85 40 79 41 78 42 34 44
REMARK SMILES IDX 66 45 46 46 65 47 47 48 50 49 64 50 83 51 48 52 49 53 63 55
REMARK SMILES IDX 84 56 51 57 35 58 36 59 44 60 37 61 43 62 45 63 42 64 38 65
REMARK SMILES IDX 39 66 40 67 41 68 67 69 68 70 76 71 69 72 75 73 77 74 74 75
REMARK SMILES IDX 70 76 71 77 72 78 73 79 52 80 53 81 61 82 54 83 60 84 62 85
REMARK SMILES IDX 59 86 55 87 56 88 57 89 58 90
REMARK H PARENT 82 43 50 54
REMARK Flexibility Score: inf
ROOT
ATOM      1  C   UNL A   1      36.691  23.185  23.587  1.00  0.00     0.274 C 
ENDROOT
BRANCH   1   2
ATOM      2  O   UNL A   1      35.466  23.138  22.818  1.00  0.00    -0.461 OA
BRANCH   2   3
ATOM      3  C   UNL A   1      34.426  23.926  23.229  1.00  0.00     0.329 C 
ATOM      4  O   UNL A   1      34.112  24.980  22.686  1.00  0.00    -0.250 OA
BRANCH   3   5
ATOM      5  C   UNL A   1      33.723  23.401  24.506  1.00  0.00     0.199 C 
ATOM      6  N   UNL A   1      32.565  22.566  24.148  1.00  0.00    -0.323 N 
ATOM      7  C   UNL A   1      31.274  23.231  23.933  1.00  0.00     0.156 C 
ATOM      8  C   UNL A   1      31.222  24.708  24.239  1.00  0.00    -0.025 A 
ATOM      9  C   UNL A   1      33.385  24.523  25.485  1.00  0.00     0.073 C 
ATOM     10  C   UNL A   1      30.133  25.472  23.796  1.00  0.00     0.006 A 
ATOM     11  C   UNL A   1      32.217  25.331  25.007  1.00  0.00    -0.040 A 
ATOM     12  C   UNL A   1      30.038  26.827  24.112  1.00  0.00     0.000 A 
ATOM     13  C   UNL A   1      32.094  26.681  25.358  1.00  0.00     0.004 A 
ATOM     14  C   UNL A   1      31.014  27.430  24.900  1.00  0.00     0.000 A 
BRANCH   6  15
ATOM     15  C   UNL A   1      32.687  21.248  23.725  1.00  0.00     0.233 C 
ATOM     16  O   UNL A   1      32.050  20.838  22.748  1.00  0.00    -0.274 OA
BRANCH  15  17
ATOM     17  C   UNL A   1      33.527  20.247  24.520  1.00  0.00     0.170 C 
BRANCH  17  18
ATOM     18  S   UNL A   1      32.758  18.663  25.002  1.00  0.00    -0.137 SA
BRANCH  18  19
ATOM     19  C   UNL A   1      34.086  17.467  24.646  1.00  0.00     0.189 C 
BRANCH  19  20
ATOM     20  C   UNL A   1      33.620  16.049  24.929  1.00  0.00     0.073 C 
ATOM     21  N   UNL A   1      33.233  14.872  25.164  1.00  0.00    -0.197 NA
ENDBRANCH  19  20
ENDBRANCH  18  19
ENDBRANCH  17  18
ENDBRANCH  15  17
ENDBRANCH   6  15
ENDBRANCH   3   5
ENDBRANCH   2   3
ENDBRANCH   1   2
BRANCH   1  22
ATOM     22  C   UNL A   1      37.035  21.839  24.194  1.00  0.00     0.275 C 
BRANCH  22  23
ATOM     23  O   UNL A   1      37.369  22.068  25.561  1.00  0.00    -0.458 OA
BRANCH  23  24
ATOM     24  C   UNL A   1      38.629  21.744  25.917  1.00  0.00     0.338 C 
ATOM     25  O   UNL A   1      39.200  20.684  25.709  1.00  0.00    -0.246 OA
BRANCH  24  26
ATOM     26  C   UNL A   1      39.234  22.902  26.601  1.00  0.00     0.060 A 
ATOM     27  C   UNL A   1      38.768  24.195  26.353  1.00  0.00     0.016 A 
ATOM     28  C   UNL A   1      40.331  22.711  27.432  1.00  0.00     0.016 A 
ATOM     29  C   UNL A   1      39.441  25.302  26.845  1.00  0.00     0.010 A 
ATOM     30  C   UNL A   1      40.954  23.819  28.006  1.00  0.00     0.010 A 
ATOM     31  C   UNL A   1      40.541  25.126  27.683  1.00  0.00    -0.014 A 
BRANCH  31  32
ATOM     32  C   UNL A   1      41.330  26.293  28.150  1.00  0.00     0.031 A 
ATOM     33  C   UNL A   1      40.647  27.342  28.980  1.00  0.00     0.074 A 
ATOM     34  C   UNL A   1      42.637  26.413  27.848  1.00  0.00     0.049 A 
ATOM     35  N   UNL A   1      41.016  28.566  29.244  1.00  0.00    -0.248 NA
ATOM     36  C   UNL A   1      39.355  26.961  29.574  1.00  0.00     0.031 C 
ATOM     37  C   UNL A   1      43.445  25.418  27.137  1.00  0.00     0.029 A 
ATOM     38  N   UNL A   1      43.515  27.437  28.094  1.00  0.00    -0.354 N 
ATOM     39  C   UNL A   1      39.970  29.126  29.969  1.00  0.00     0.074 A 
ATOM     40  C   UNL A   1      38.955  28.104  30.111  1.00  0.00     0.031 C 
ATOM     41  C   UNL A   1      44.701  25.875  27.020  1.00  0.00     0.029 A 
ATOM     42  C   UNL A   1      44.758  27.234  27.542  1.00  0.00     0.049 A 
ATOM     43  H   UNL A   1      43.280  28.238  28.616  1.00  0.00     0.167 HD
ATOM     44  C   UNL A   1      39.865  30.389  30.450  1.00  0.00     0.034 A 
ATOM     45  C   UNL A   1      45.800  28.076  27.401  1.00  0.00     0.034 A 
ATOM     46  C   UNL A   1      40.914  31.371  30.320  1.00  0.00     0.049 A 
ATOM     47  C   UNL A   1      45.648  29.490  27.890  1.00  0.00     0.074 A 
ATOM     48  C   UNL A   1      40.929  32.685  30.752  1.00  0.00     0.029 A 
ATOM     49  N   UNL A   1      42.145  31.136  29.719  1.00  0.00    -0.354 N 
ATOM     50  N   UNL A   1      44.612  30.057  28.467  1.00  0.00    -0.248 NA
ATOM     51  C   UNL A   1      46.794  30.383  27.687  1.00  0.00     0.031 C 
ATOM     52  C   UNL A   1      42.149  33.257  30.368  1.00  0.00     0.029 A 
ATOM     53  C   UNL A   1      42.920  32.283  29.754  1.00  0.00     0.049 A 
ATOM     54  H   UNL A   1      42.426  30.278  29.326  1.00  0.00     0.167 HD
ATOM     55  C   UNL A   1      44.985  31.377  28.697  1.00  0.00     0.074 A 
ATOM     56  C   UNL A   1      46.347  31.511  28.219  1.00  0.00     0.031 C 
ATOM     57  C   UNL A   1      44.267  32.391  29.246  1.00  0.00     0.034 A 
BRANCH  44  58
ATOM     58  C   UNL A   1      38.552  30.788  31.075  1.00  0.00     0.023 A 
ATOM     59  C   UNL A   1      37.508  31.361  30.330  1.00  0.00     0.031 A 
ATOM     60  C   UNL A   1      38.364  30.634  32.461  1.00  0.00     0.131 A 
ATOM     61  C   UNL A   1      36.351  31.816  30.982  1.00  0.00     0.055 A 
ATOM     62  C   UNL A   1      37.181  31.021  33.093  1.00  0.00     0.041 A 
ATOM     63  F   UNL A   1      39.338  30.119  33.228  1.00  0.00    -0.206 F 
ATOM     64  C   UNL A   1      36.171  31.628  32.355  1.00  0.00     0.022 A 
BRANCH  61  65
ATOM     65  S   UNL A   1      35.140  32.781  30.035  1.00  0.00     0.124 S 
ATOM     66  O   UNL A   1      34.725  31.815  29.020  1.00  0.00    -0.237 OA
ATOM     67  O   UNL A   1      34.145  33.115  31.046  1.00  0.00    -0.237 OA
ATOM     68  O   UNL A   1      35.921  33.909  29.530  1.00  0.00    -0.744 OA
ENDBRANCH  61  65
ENDBRANCH  44  58
BRANCH  45  69
ATOM     69  C   UNL A   1      47.026  27.633  26.680  1.00  0.00     0.023 A 
ATOM     70  C   UNL A   1      47.160  27.815  25.295  1.00  0.00     0.031 A 
ATOM     71  C   UNL A   1      48.085  27.014  27.370  1.00  0.00     0.131 A 
ATOM     72  C   UNL A   1      48.318  27.366  24.642  1.00  0.00     0.055 A 
ATOM     73  C   UNL A   1      49.254  26.613  26.725  1.00  0.00     0.041 A 
ATOM     74  F   UNL A   1      48.007  26.816  28.696  1.00  0.00    -0.206 F 
ATOM     75  C   UNL A   1      49.372  26.782  25.349  1.00  0.00     0.022 A 
BRANCH  72  76
ATOM     76  S   UNL A   1      48.408  27.509  22.837  1.00  0.00     0.124 S 
ATOM     77  O   UNL A   1      47.198  28.266  22.536  1.00  0.00    -0.237 OA
ATOM     78  O   UNL A   1      49.671  28.217  22.652  1.00  0.00    -0.237 OA
ATOM     79  O   UNL A   1      48.404  26.119  22.384  1.00  0.00    -0.744 OA
ENDBRANCH  72  76
ENDBRANCH  45  69
BRANCH  57  80
ATOM     80  C   UNL A   1      44.973  33.714  29.375  1.00  0.00     0.023 A 
ATOM     81  C   UNL A   1      44.926  34.671  28.347  1.00  0.00     0.031 A 
ATOM     82  C   UNL A   1      45.727  34.003  30.524  1.00  0.00     0.131 A 
ATOM     83  C   UNL A   1      45.673  35.851  28.463  1.00  0.00     0.055 A 
ATOM     84  C   UNL A   1      46.425  35.203  30.657  1.00  0.00     0.041 A 
ATOM     85  F   UNL A   1      45.802  33.119  31.532  1.00  0.00    -0.206 F 
ATOM     86  C   UNL A   1      46.412  36.129  29.617  1.00  0.00     0.022 A 
BRANCH  83  87
ATOM     87  S   UNL A   1      45.743  36.977  27.045  1.00  0.00     0.124 S 
ATOM     88  O   UNL A   1      46.199  36.094  25.977  1.00  0.00    -0.237 OA
ATOM     89  O   UNL A   1      44.362  37.440  26.944  1.00  0.00    -0.237 OA
ATOM     90  O   UNL A   1      46.707  37.994  27.460  1.00  0.00    -0.744 OA
ENDBRANCH  83  87
ENDBRANCH  57  80
ENDBRANCH  31  32
ENDBRANCH  24  26
ENDBRANCH  23  24
ENDBRANCH  22  23
ENDBRANCH   1  22
TORSDOF 19
ENDMDL
