MODEL 1
REMARK VINA RESULT:     -11.7      0.000      0.000
REMARK SMILES CC(=O)NCC(=O)N1[C@@H](C(=O)OCCOC(=O)c2ccc(-c3c4nc(c(-c5cc(S(=O)(=O)[O-])ccc5F)c5ccc([nH]5)c(-c5cc(S(=O)(=O)[O-])ccc5F)c5nc(c(-c6cc(S(=O)(=O)[O-])ccc6F)c6ccc3[nH]6)C=C5)C=C4)cc2)CC[C@H]2CCCC[C@H]21
REMARK SMILES IDX 13 1 12 2 10 3 11 4 9 5 8 6 88 7 81 8 83 9 87 10 82 11 84 12
REMARK SMILES IDX 86 13 85 14 6 15 7 16 5 17 4 18 1 19 2 20 3 21 14 23 15 24
REMARK SMILES IDX 16 25 17 26 18 27 19 28 80 29 20 30 79 31 21 32 22 33 23 34
REMARK SMILES IDX 73 35 24 36 78 37 72 38 74 39 25 40 77 41 71 42 70 43 26 45
REMARK SMILES IDX 58 46 38 47 57 48 39 49 42 50 56 51 75 52 40 53 41 54 55 56
REMARK SMILES IDX 76 57 43 58 27 59 28 60 36 61 29 62 35 63 37 64 34 65 30 66
REMARK SMILES IDX 31 67 32 68 33 69 59 70 60 71 68 72 61 73 67 74 69 75 66 76
REMARK SMILES IDX 62 77 63 78 64 79 65 80 44 81 45 82 53 83 46 84 52 85 54 86
REMARK SMILES IDX 51 87 47 88 48 89 49 90 50 91
REMARK H PARENT 4 22 74 44 42 55
REMARK Flexibility Score: inf
ROOT
ATOM      1  C   UNL A   1      35.447  21.171  26.036  1.00  0.00     0.274 C 
ENDROOT
BRANCH   1   2
ATOM      2  O   UNL A   1      34.769  22.381  25.639  1.00  0.00    -0.461 OA
BRANCH   2   3
ATOM      3  C   UNL A   1      34.162  23.036  26.656  1.00  0.00     0.328 C 
ATOM      4  O   UNL A   1      33.994  22.569  27.778  1.00  0.00    -0.250 OA
BRANCH   3   5
ATOM      5  C   UNL A   1      33.614  24.421  26.299  1.00  0.00     0.195 C 
ATOM      6  N   UNL A   1      32.187  24.525  25.954  1.00  0.00    -0.324 N 
ATOM      7  C   UNL A   1      31.683  25.905  25.904  1.00  0.00     0.089 C 
ATOM      8  C   UNL A   1      34.461  25.156  25.261  1.00  0.00     0.037 C 
ATOM      9  C   UNL A   1      32.520  26.766  24.926  1.00  0.00     0.012 C 
ATOM     10  C   UNL A   1      30.195  26.065  25.569  1.00  0.00     0.025 C 
ATOM     11  C   UNL A   1      34.029  26.622  25.190  1.00  0.00     0.008 C 
ATOM     12  C   UNL A   1      32.183  26.513  23.441  1.00  0.00     0.006 C 
ATOM     13  C   UNL A   1      29.832  25.760  24.119  1.00  0.00     0.002 C 
ATOM     14  C   UNL A   1      31.022  25.557  23.192  1.00  0.00     0.000 C 
BRANCH   6  15
ATOM     15  C   UNL A   1      31.351  23.464  26.255  1.00  0.00     0.242 C 
ATOM     16  O   UNL A   1      30.748  23.416  27.329  1.00  0.00    -0.273 OA
BRANCH  15  17
ATOM     17  C   UNL A   1      31.146  22.400  25.173  1.00  0.00     0.216 C 
BRANCH  17  18
ATOM     18  N   UNL A   1      31.673  21.143  25.684  1.00  0.00    -0.347 N 
ATOM     19  C   UNL A   1      32.478  20.253  23.526  1.00  0.00     0.114 C 
ATOM     20  C   UNL A   1      32.218  20.098  25.001  1.00  0.00     0.217 C 
ATOM     21  O   UNL A   1      32.531  19.078  25.614  1.00  0.00    -0.275 OA
ATOM     22  H   UNL A   1      31.629  21.032  26.660  1.00  0.00     0.164 HD
ENDBRANCH  17  18
ENDBRANCH  15  17
ENDBRANCH   6  15
ENDBRANCH   3   5
ENDBRANCH   2   3
ENDBRANCH   1   2
BRANCH   1  23
ATOM     23  C   UNL A   1      36.455  20.676  24.988  1.00  0.00     0.275 C 
BRANCH  23  24
ATOM     24  O   UNL A   1      37.626  21.514  24.891  1.00  0.00    -0.458 OA
BRANCH  24  25
ATOM     25  C   UNL A   1      38.665  21.130  25.672  1.00  0.00     0.338 C 
ATOM     26  O   UNL A   1      39.175  20.021  25.698  1.00  0.00    -0.246 OA
BRANCH  25  27
ATOM     27  C   UNL A   1      39.261  22.286  26.375  1.00  0.00     0.060 A 
ATOM     28  C   UNL A   1      38.686  23.539  26.137  1.00  0.00     0.016 A 
ATOM     29  C   UNL A   1      40.395  22.180  27.181  1.00  0.00     0.016 A 
ATOM     30  C   UNL A   1      39.235  24.689  26.696  1.00  0.00     0.010 A 
ATOM     31  C   UNL A   1      40.963  23.342  27.727  1.00  0.00     0.010 A 
ATOM     32  C   UNL A   1      40.394  24.603  27.474  1.00  0.00    -0.014 A 
BRANCH  32  33
ATOM     33  C   UNL A   1      41.044  25.866  27.903  1.00  0.00     0.031 A 
ATOM     34  C   UNL A   1      42.465  26.138  27.489  1.00  0.00     0.074 A 
ATOM     35  C   UNL A   1      40.334  26.809  28.552  1.00  0.00     0.049 A 
ATOM     36  N   UNL A   1      43.209  27.189  27.718  1.00  0.00    -0.248 NA
ATOM     37  C   UNL A   1      43.128  25.089  26.701  1.00  0.00     0.031 C 
ATOM     38  C   UNL A   1      38.927  26.685  28.938  1.00  0.00     0.029 A 
ATOM     39  N   UNL A   1      40.690  28.062  28.982  1.00  0.00    -0.354 N 
ATOM     40  C   UNL A   1      44.426  26.936  27.093  1.00  0.00     0.074 A 
ATOM     41  C   UNL A   1      44.330  25.615  26.508  1.00  0.00     0.031 C 
ATOM     42  C   UNL A   1      38.539  27.822  29.543  1.00  0.00     0.029 A 
ATOM     43  C   UNL A   1      39.676  28.737  29.622  1.00  0.00     0.049 A 
ATOM     44  H   UNL A   1      41.587  28.443  28.845  1.00  0.00     0.167 HD
ATOM     45  C   UNL A   1      45.518  27.736  27.005  1.00  0.00     0.034 A 
ATOM     46  C   UNL A   1      39.673  29.946  30.218  1.00  0.00     0.034 A 
ATOM     47  C   UNL A   1      45.611  29.042  27.612  1.00  0.00     0.049 A 
ATOM     48  C   UNL A   1      40.938  30.773  30.192  1.00  0.00     0.074 A 
ATOM     49  C   UNL A   1      46.688  29.912  27.632  1.00  0.00     0.029 A 
ATOM     50  N   UNL A   1      44.587  29.668  28.311  1.00  0.00    -0.354 N 
ATOM     51  N   UNL A   1      42.092  30.506  29.623  1.00  0.00    -0.248 NA
ATOM     52  C   UNL A   1      40.894  32.070  30.879  1.00  0.00     0.031 C 
ATOM     53  C   UNL A   1      46.334  31.036  28.386  1.00  0.00     0.029 A 
ATOM     54  C   UNL A   1      45.012  30.903  28.778  1.00  0.00     0.049 A 
ATOM     55  H   UNL A   1      43.689  29.290  28.455  1.00  0.00     0.167 HD
ATOM     56  C   UNL A   1      42.898  31.617  29.861  1.00  0.00     0.074 A 
ATOM     57  C   UNL A   1      42.087  32.567  30.594  1.00  0.00     0.031 C 
ATOM     58  C   UNL A   1      44.193  31.836  29.514  1.00  0.00     0.034 A 
BRANCH  45  59
ATOM     59  C   UNL A   1      46.712  27.193  26.263  1.00  0.00     0.023 A 
ATOM     60  C   UNL A   1      47.746  26.510  26.930  1.00  0.00     0.031 A 
ATOM     61  C   UNL A   1      46.829  27.372  24.873  1.00  0.00     0.131 A 
ATOM     62  C   UNL A   1      48.874  26.080  26.217  1.00  0.00     0.055 A 
ATOM     63  C   UNL A   1      47.922  26.881  24.158  1.00  0.00     0.041 A 
ATOM     64  F   UNL A   1      45.884  28.036  24.189  1.00  0.00    -0.206 F 
ATOM     65  C   UNL A   1      48.959  26.240  24.830  1.00  0.00     0.022 A 
BRANCH  62  66
ATOM     66  S   UNL A   1      50.283  25.405  27.139  1.00  0.00     0.124 S 
ATOM     67  O   UNL A   1      51.237  25.138  26.065  1.00  0.00    -0.237 OA
ATOM     68  O   UNL A   1      50.625  26.500  28.038  1.00  0.00    -0.237 OA
ATOM     69  O   UNL A   1      49.732  24.216  27.785  1.00  0.00    -0.744 OA
ENDBRANCH  62  66
ENDBRANCH  45  59
BRANCH  46  70
ATOM     70  C   UNL A   1      38.464  30.449  30.937  1.00  0.00     0.023 A 
ATOM     71  C   UNL A   1      37.435  31.117  30.252  1.00  0.00     0.031 A 
ATOM     72  C   UNL A   1      38.371  30.361  32.337  1.00  0.00     0.131 A 
ATOM     73  C   UNL A   1      36.398  31.731  30.973  1.00  0.00     0.055 A 
ATOM     74  C   UNL A   1      37.305  30.918  33.045  1.00  0.00     0.041 A 
ATOM     75  F   UNL A   1      39.328  29.738  33.044  1.00  0.00    -0.206 F 
ATOM     76  C   UNL A   1      36.320  31.626  32.364  1.00  0.00     0.022 A 
BRANCH  73  77
ATOM     77  S   UNL A   1      35.221  32.781  30.076  1.00  0.00     0.124 S 
ATOM     78  O   UNL A   1      36.095  33.816  29.536  1.00  0.00    -0.237 OA
ATOM     79  O   UNL A   1      34.662  31.843  29.107  1.00  0.00    -0.237 OA
ATOM     80  O   UNL A   1      34.297  33.224  31.118  1.00  0.00    -0.744 OA
ENDBRANCH  73  77
ENDBRANCH  46  70
BRANCH  58  81
ATOM     81  C   UNL A   1      44.780  33.175  29.890  1.00  0.00     0.023 A 
ATOM     82  C   UNL A   1      44.608  34.310  29.077  1.00  0.00     0.031 A 
ATOM     83  C   UNL A   1      45.567  33.307  31.049  1.00  0.00     0.131 A 
ATOM     84  C   UNL A   1      45.279  35.503  29.390  1.00  0.00     0.055 A 
ATOM     85  C   UNL A   1      46.176  34.514  31.390  1.00  0.00     0.041 A 
ATOM     86  F   UNL A   1      45.765  32.257  31.862  1.00  0.00    -0.206 F 
ATOM     87  C   UNL A   1      46.049  35.616  30.548  1.00  0.00     0.022 A 
BRANCH  84  88
ATOM     88  S   UNL A   1      45.231  36.865  28.192  1.00  0.00     0.124 S 
ATOM     89  O   UNL A   1      46.006  36.320  27.082  1.00  0.00    -0.237 OA
ATOM     90  O   UNL A   1      43.799  37.019  27.955  1.00  0.00    -0.237 OA
ATOM     91  O   UNL A   1      45.864  37.972  28.907  1.00  0.00    -0.744 OA
ENDBRANCH  84  88
ENDBRANCH  58  81
ENDBRANCH  32  33
ENDBRANCH  25  27
ENDBRANCH  24  25
ENDBRANCH  23  24
ENDBRANCH   1  23
TORSDOF 17
ENDMDL
MODEL 2
REMARK VINA RESULT:     -11.7      4.750     10.031
REMARK SMILES CC(=O)NCC(=O)N1[C@@H](C(=O)OCCOC(=O)c2ccc(-c3c4nc(c(-c5cc(S(=O)(=O)[O-])ccc5F)c5ccc([nH]5)c(-c5cc(S(=O)(=O)[O-])ccc5F)c5nc(c(-c6cc(S(=O)(=O)[O-])ccc6F)c6ccc3[nH]6)C=C5)C=C4)cc2)CC[C@H]2CCCC[C@H]21
REMARK SMILES IDX 13 1 12 2 10 3 11 4 9 5 8 6 88 7 81 8 83 9 87 10 82 11 84 12
REMARK SMILES IDX 86 13 85 14 6 15 7 16 5 17 4 18 1 19 2 20 3 21 14 23 15 24
REMARK SMILES IDX 16 25 17 26 18 27 19 28 80 29 20 30 79 31 21 32 22 33 23 34
REMARK SMILES IDX 73 35 24 36 78 37 72 38 74 39 25 40 77 41 71 42 70 43 26 45
REMARK SMILES IDX 58 46 38 47 57 48 39 49 42 50 56 51 75 52 40 53 41 54 55 56
REMARK SMILES IDX 76 57 43 58 27 59 28 60 36 61 29 62 35 63 37 64 34 65 30 66
REMARK SMILES IDX 31 67 32 68 33 69 59 70 60 71 68 72 61 73 67 74 69 75 66 76
REMARK SMILES IDX 62 77 63 78 64 79 65 80 44 81 45 82 53 83 46 84 52 85 54 86
REMARK SMILES IDX 51 87 47 88 48 89 49 90 50 91
REMARK H PARENT 4 22 74 44 42 55
REMARK Flexibility Score: inf
ROOT
ATOM      1  C   UNL A   1      31.056  30.760  25.516  1.00  0.00     0.274 C 
ENDROOT
BRANCH   1   2
ATOM      2  O   UNL A   1      32.173  29.867  25.333  1.00  0.00    -0.461 OA
BRANCH   2   3
ATOM      3  C   UNL A   1      32.010  28.649  25.902  1.00  0.00     0.328 C 
ATOM      4  O   UNL A   1      31.456  28.458  26.980  1.00  0.00    -0.250 OA
BRANCH   3   5
ATOM      5  C   UNL A   1      32.635  27.484  25.130  1.00  0.00     0.195 C 
ATOM      6  N   UNL A   1      31.731  26.590  24.388  1.00  0.00    -0.324 N 
ATOM      7  C   UNL A   1      32.417  25.684  23.456  1.00  0.00     0.089 C 
ATOM      8  C   UNL A   1      33.617  26.664  25.965  1.00  0.00     0.037 C 
ATOM      9  C   UNL A   1      33.493  24.846  24.190  1.00  0.00     0.012 C 
ATOM     10  C   UNL A   1      31.516  24.746  22.644  1.00  0.00     0.025 C 
ATOM     11  C   UNL A   1      34.413  25.729  25.052  1.00  0.00     0.008 C 
ATOM     12  C   UNL A   1      32.908  23.676  25.009  1.00  0.00     0.006 C 
ATOM     13  C   UNL A   1      30.879  23.618  23.450  1.00  0.00     0.002 C 
ATOM     14  C   UNL A   1      31.404  23.474  24.871  1.00  0.00     0.000 C 
BRANCH   6  15
ATOM     15  C   UNL A   1      30.427  26.999  24.166  1.00  0.00     0.242 C 
ATOM     16  O   UNL A   1      29.507  26.599  24.881  1.00  0.00    -0.273 OA
BRANCH  15  17
ATOM     17  C   UNL A   1      30.190  28.025  23.054  1.00  0.00     0.216 C 
BRANCH  17  18
ATOM     18  N   UNL A   1      28.778  28.378  23.073  1.00  0.00    -0.347 N 
ATOM     19  C   UNL A   1      29.052  30.755  22.465  1.00  0.00     0.114 C 
ATOM     20  C   UNL A   1      28.193  29.594  22.891  1.00  0.00     0.217 C 
ATOM     21  O   UNL A   1      26.975  29.701  23.030  1.00  0.00    -0.275 OA
ATOM     22  H   UNL A   1      28.159  27.632  23.239  1.00  0.00     0.164 HD
ENDBRANCH  17  18
ENDBRANCH  15  17
ENDBRANCH   6  15
ENDBRANCH   3   5
ENDBRANCH   2   3
ENDBRANCH   1   2
BRANCH   1  23
ATOM     23  C   UNL A   1      31.412  32.007  26.339  1.00  0.00     0.275 C 
BRANCH  23  24
ATOM     24  O   UNL A   1      32.426  31.755  27.335  1.00  0.00    -0.458 OA
BRANCH  24  25
ATOM     25  C   UNL A   1      33.273  32.791  27.557  1.00  0.00     0.338 C 
ATOM     26  O   UNL A   1      32.975  33.975  27.564  1.00  0.00    -0.246 OA
BRANCH  25  27
ATOM     27  C   UNL A   1      34.600  32.310  27.995  1.00  0.00     0.060 A 
ATOM     28  C   UNL A   1      34.697  30.966  28.373  1.00  0.00     0.016 A 
ATOM     29  C   UNL A   1      35.707  33.151  28.116  1.00  0.00     0.016 A 
ATOM     30  C   UNL A   1      35.890  30.455  28.873  1.00  0.00     0.010 A 
ATOM     31  C   UNL A   1      36.905  32.641  28.642  1.00  0.00     0.010 A 
ATOM     32  C   UNL A   1      36.997  31.294  29.036  1.00  0.00    -0.014 A 
BRANCH  32  33
ATOM     33  C   UNL A   1      38.190  30.752  29.733  1.00  0.00     0.031 A 
ATOM     34  C   UNL A   1      38.448  31.148  31.162  1.00  0.00     0.074 A 
ATOM     35  C   UNL A   1      38.962  29.825  29.135  1.00  0.00     0.049 A 
ATOM     36  N   UNL A   1      39.402  30.764  31.969  1.00  0.00    -0.248 NA
ATOM     37  C   UNL A   1      37.495  32.093  31.761  1.00  0.00     0.031 C 
ATOM     38  C   UNL A   1      38.762  29.310  27.780  1.00  0.00     0.029 A 
ATOM     39  N   UNL A   1      40.058  29.139  29.595  1.00  0.00    -0.354 N 
ATOM     40  C   UNL A   1      39.160  31.409  33.178  1.00  0.00     0.074 A 
ATOM     41  C   UNL A   1      37.989  32.239  32.982  1.00  0.00     0.031 C 
ATOM     42  C   UNL A   1      39.701  28.382  27.522  1.00  0.00     0.029 A 
ATOM     43  C   UNL A   1      40.591  28.265  28.675  1.00  0.00     0.049 A 
ATOM     44  H   UNL A   1      40.427  29.259  30.500  1.00  0.00     0.167 HD
ATOM     45  C   UNL A   1      39.844  31.311  34.345  1.00  0.00     0.034 A 
ATOM     46  C   UNL A   1      41.682  27.478  28.751  1.00  0.00     0.034 A 
ATOM     47  C   UNL A   1      41.024  30.499  34.522  1.00  0.00     0.049 A 
ATOM     48  C   UNL A   1      42.484  27.466  30.033  1.00  0.00     0.074 A 
ATOM     49  C   UNL A   1      41.825  30.370  35.644  1.00  0.00     0.029 A 
ATOM     50  N   UNL A   1      41.577  29.678  33.547  1.00  0.00    -0.354 N 
ATOM     51  N   UNL A   1      42.260  28.108  31.157  1.00  0.00    -0.248 NA
ATOM     52  C   UNL A   1      43.681  26.615  30.056  1.00  0.00     0.031 C 
ATOM     53  C   UNL A   1      42.887  29.515  35.332  1.00  0.00     0.029 A 
ATOM     54  C   UNL A   1      42.713  29.053  34.038  1.00  0.00     0.049 A 
ATOM     55  H   UNL A   1      41.214  29.557  32.640  1.00  0.00     0.167 HD
ATOM     56  C   UNL A   1      43.272  27.711  32.028  1.00  0.00     0.074 A 
ATOM     57  C   UNL A   1      44.085  26.751  31.309  1.00  0.00     0.031 C 
ATOM     58  C   UNL A   1      43.517  28.104  33.305  1.00  0.00     0.034 A 
BRANCH  45  59
ATOM     59  C   UNL A   1      39.354  32.143  35.503  1.00  0.00     0.023 A 
ATOM     60  C   UNL A   1      39.765  33.476  35.679  1.00  0.00     0.031 A 
ATOM     61  C   UNL A   1      38.475  31.592  36.453  1.00  0.00     0.131 A 
ATOM     62  C   UNL A   1      39.342  34.195  36.806  1.00  0.00     0.055 A 
ATOM     63  C   UNL A   1      38.004  32.335  37.536  1.00  0.00     0.041 A 
ATOM     64  F   UNL A   1      38.068  30.317  36.348  1.00  0.00    -0.206 F 
ATOM     65  C   UNL A   1      38.445  33.641  37.724  1.00  0.00     0.022 A 
BRANCH  62  66
ATOM     66  S   UNL A   1      40.065  35.829  37.120  1.00  0.00     0.124 S 
ATOM     67  O   UNL A   1      41.479  35.500  37.279  1.00  0.00    -0.237 OA
ATOM     68  O   UNL A   1      39.714  36.567  35.911  1.00  0.00    -0.237 OA
ATOM     69  O   UNL A   1      39.393  36.274  38.339  1.00  0.00    -0.744 OA
ENDBRANCH  62  66
ENDBRANCH  45  59
BRANCH  46  70
ATOM     70  C   UNL A   1      42.129  26.664  27.580  1.00  0.00     0.023 A 
ATOM     71  C   UNL A   1      41.728  25.327  27.427  1.00  0.00     0.031 A 
ATOM     72  C   UNL A   1      43.050  27.184  26.653  1.00  0.00     0.131 A 
ATOM     73  C   UNL A   1      42.300  24.536  26.418  1.00  0.00     0.055 A 
ATOM     74  C   UNL A   1      43.567  26.412  25.612  1.00  0.00     0.041 A 
ATOM     75  F   UNL A   1      43.472  28.455  26.754  1.00  0.00    -0.206 F 
ATOM     76  C   UNL A   1      43.208  25.072  25.502  1.00  0.00     0.022 A 
BRANCH  73  77
ATOM     77  S   UNL A   1      41.937  22.758  26.399  1.00  0.00     0.124 S 
ATOM     78  O   UNL A   1      42.505  22.350  25.120  1.00  0.00    -0.237 OA
ATOM     79  O   UNL A   1      42.641  22.296  27.591  1.00  0.00    -0.237 OA
ATOM     80  O   UNL A   1      40.478  22.709  26.479  1.00  0.00    -0.744 OA
ENDBRANCH  73  77
ENDBRANCH  46  70
BRANCH  58  81
ATOM     81  C   UNL A   1      44.686  27.452  34.004  1.00  0.00     0.023 A 
ATOM     82  C   UNL A   1      44.530  26.279  34.764  1.00  0.00     0.031 A 
ATOM     83  C   UNL A   1      45.962  28.041  33.954  1.00  0.00     0.131 A 
ATOM     84  C   UNL A   1      45.610  25.778  35.508  1.00  0.00     0.055 A 
ATOM     85  C   UNL A   1      47.049  27.499  34.641  1.00  0.00     0.041 A 
ATOM     86  F   UNL A   1      46.170  29.161  33.243  1.00  0.00    -0.206 F 
ATOM     87  C   UNL A   1      46.871  26.372  35.439  1.00  0.00     0.022 A 
BRANCH  84  88
ATOM     88  S   UNL A   1      45.309  24.414  36.665  1.00  0.00     0.124 S 
ATOM     89  O   UNL A   1      44.446  23.536  35.881  1.00  0.00    -0.237 OA
ATOM     90  O   UNL A   1      46.658  23.919  36.918  1.00  0.00    -0.237 OA
ATOM     91  O   UNL A   1      44.663  25.065  37.803  1.00  0.00    -0.744 OA
ENDBRANCH  84  88
ENDBRANCH  58  81
ENDBRANCH  32  33
ENDBRANCH  25  27
ENDBRANCH  24  25
ENDBRANCH  23  24
ENDBRANCH   1  23
TORSDOF 17
ENDMDL
MODEL 3
REMARK VINA RESULT:     -11.6      1.399      7.708
REMARK SMILES CC(=O)NCC(=O)N1[C@@H](C(=O)OCCOC(=O)c2ccc(-c3c4nc(c(-c5cc(S(=O)(=O)[O-])ccc5F)c5ccc([nH]5)c(-c5cc(S(=O)(=O)[O-])ccc5F)c5nc(c(-c6cc(S(=O)(=O)[O-])ccc6F)c6ccc3[nH]6)C=C5)C=C4)cc2)CC[C@H]2CCCC[C@H]21
REMARK SMILES IDX 13 1 12 2 10 3 11 4 9 5 8 6 88 7 81 8 83 9 87 10 82 11 84 12
REMARK SMILES IDX 86 13 85 14 6 15 7 16 5 17 4 18 1 19 2 20 3 21 14 23 15 24
REMARK SMILES IDX 16 25 17 26 18 27 19 28 80 29 20 30 79 31 21 32 22 33 23 34
REMARK SMILES IDX 73 35 24 36 78 37 72 38 74 39 25 40 77 41 71 42 70 43 26 45
REMARK SMILES IDX 58 46 38 47 57 48 39 49 42 50 56 51 75 52 40 53 41 54 55 56
REMARK SMILES IDX 76 57 43 58 27 59 28 60 36 61 29 62 35 63 37 64 34 65 30 66
REMARK SMILES IDX 31 67 32 68 33 69 59 70 60 71 68 72 61 73 67 74 69 75 66 76
REMARK SMILES IDX 62 77 63 78 64 79 65 80 44 81 45 82 53 83 46 84 52 85 54 86
REMARK SMILES IDX 51 87 47 88 48 89 49 90 50 91
REMARK H PARENT 4 22 74 44 42 55
REMARK Flexibility Score: inf
ROOT
ATOM      1  C   UNL A   1      35.438  20.934  25.450  1.00  0.00     0.274 C 
ENDROOT
BRANCH   1   2
ATOM      2  O   UNL A   1      34.983  22.287  25.244  1.00  0.00    -0.461 OA
BRANCH   2   3
ATOM      3  C   UNL A   1      34.458  22.870  26.346  1.00  0.00     0.328 C 
ATOM      4  O   UNL A   1      34.356  22.320  27.439  1.00  0.00    -0.250 OA
BRANCH   3   5
ATOM      5  C   UNL A   1      33.918  24.287  26.134  1.00  0.00     0.195 C 
ATOM      6  N   UNL A   1      32.458  24.457  26.046  1.00  0.00    -0.324 N 
ATOM      7  C   UNL A   1      32.012  25.856  26.128  1.00  0.00     0.089 C 
ATOM      8  C   UNL A   1      34.604  25.030  24.989  1.00  0.00     0.037 C 
ATOM      9  C   UNL A   1      32.705  26.722  25.047  1.00  0.00     0.012 C 
ATOM     10  C   UNL A   1      30.498  26.083  26.062  1.00  0.00     0.025 C 
ATOM     11  C   UNL A   1      34.230  26.512  25.040  1.00  0.00     0.008 C 
ATOM     12  C   UNL A   1      32.106  26.540  23.636  1.00  0.00     0.006 C 
ATOM     13  C   UNL A   1      29.877  25.848  24.688  1.00  0.00     0.002 C 
ATOM     14  C   UNL A   1      30.880  25.638  23.563  1.00  0.00     0.000 C 
BRANCH   6  15
ATOM     15  C   UNL A   1      31.642  23.416  26.454  1.00  0.00     0.242 C 
ATOM     16  O   UNL A   1      31.265  23.327  27.624  1.00  0.00    -0.273 OA
BRANCH  15  17
ATOM     17  C   UNL A   1      31.163  22.434  25.381  1.00  0.00     0.216 C 
BRANCH  17  18
ATOM     18  N   UNL A   1      31.641  21.110  25.749  1.00  0.00    -0.347 N 
ATOM     19  C   UNL A   1      32.427  20.438  23.507  1.00  0.00     0.114 C 
ATOM     20  C   UNL A   1      32.154  20.129  24.955  1.00  0.00     0.217 C 
ATOM     21  O   UNL A   1      32.426  19.036  25.451  1.00  0.00    -0.275 OA
ATOM     22  H   UNL A   1      31.588  20.893  26.707  1.00  0.00     0.164 HD
ENDBRANCH  17  18
ENDBRANCH  15  17
ENDBRANCH   6  15
ENDBRANCH   3   5
ENDBRANCH   2   3
ENDBRANCH   1   2
BRANCH   1  23
ATOM     23  C   UNL A   1      36.888  20.711  24.994  1.00  0.00     0.275 C 
BRANCH  23  24
ATOM     24  O   UNL A   1      37.747  21.837  25.273  1.00  0.00    -0.458 OA
BRANCH  24  25
ATOM     25  C   UNL A   1      38.823  21.551  26.047  1.00  0.00     0.338 C 
ATOM     26  O   UNL A   1      39.364  20.462  26.155  1.00  0.00    -0.246 OA
BRANCH  25  27
ATOM     27  C   UNL A   1      39.410  22.782  26.619  1.00  0.00     0.060 A 
ATOM     28  C   UNL A   1      38.949  24.001  26.111  1.00  0.00     0.016 A 
ATOM     29  C   UNL A   1      40.438  22.762  27.563  1.00  0.00     0.016 A 
ATOM     30  C   UNL A   1      39.506  25.203  26.537  1.00  0.00     0.010 A 
ATOM     31  C   UNL A   1      41.016  23.973  27.976  1.00  0.00     0.010 A 
ATOM     32  C   UNL A   1      40.562  25.198  27.454  1.00  0.00    -0.014 A 
BRANCH  32  33
ATOM     33  C   UNL A   1      41.241  26.484  27.747  1.00  0.00     0.031 A 
ATOM     34  C   UNL A   1      40.498  27.552  28.502  1.00  0.00     0.074 A 
ATOM     35  C   UNL A   1      42.544  26.647  27.446  1.00  0.00     0.049 A 
ATOM     36  N   UNL A   1      40.911  28.728  28.899  1.00  0.00    -0.248 NA
ATOM     37  C   UNL A   1      39.108  27.244  28.871  1.00  0.00     0.031 C 
ATOM     38  C   UNL A   1      43.386  25.651  26.781  1.00  0.00     0.029 A 
ATOM     39  N   UNL A   1      43.392  27.701  27.677  1.00  0.00    -0.354 N 
ATOM     40  C   UNL A   1      39.837  29.299  29.575  1.00  0.00     0.074 A 
ATOM     41  C   UNL A   1      38.744  28.353  29.500  1.00  0.00     0.031 C 
ATOM     42  C   UNL A   1      44.633  26.141  26.665  1.00  0.00     0.029 A 
ATOM     43  C   UNL A   1      44.671  27.496  27.210  1.00  0.00     0.049 A 
ATOM     44  H   UNL A   1      43.113  28.526  28.135  1.00  0.00     0.167 HD
ATOM     45  C   UNL A   1      39.773  30.497  30.207  1.00  0.00     0.034 A 
ATOM     46  C   UNL A   1      45.740  28.317  27.207  1.00  0.00     0.034 A 
ATOM     47  C   UNL A   1      40.862  31.443  30.255  1.00  0.00     0.049 A 
ATOM     48  C   UNL A   1      45.608  29.687  27.831  1.00  0.00     0.074 A 
ATOM     49  C   UNL A   1      40.885  32.707  30.821  1.00  0.00     0.029 A 
ATOM     50  N   UNL A   1      42.123  31.231  29.712  1.00  0.00    -0.354 N 
ATOM     51  N   UNL A   1      44.574  30.225  28.438  1.00  0.00    -0.248 NA
ATOM     52  C   UNL A   1      46.791  30.555  27.777  1.00  0.00     0.031 C 
ATOM     53  C   UNL A   1      42.139  33.277  30.574  1.00  0.00     0.029 A 
ATOM     54  C   UNL A   1      42.924  32.344  29.917  1.00  0.00     0.049 A 
ATOM     55  H   UNL A   1      42.406  30.409  29.250  1.00  0.00     0.167 HD
ATOM     56  C   UNL A   1      44.998  31.483  28.864  1.00  0.00     0.074 A 
ATOM     57  C   UNL A   1      46.388  31.606  28.473  1.00  0.00     0.031 C 
ATOM     58  C   UNL A   1      44.305  32.453  29.514  1.00  0.00     0.034 A 
BRANCH  45  59
ATOM     59  C   UNL A   1      38.462  30.864  30.856  1.00  0.00     0.023 A 
ATOM     60  C   UNL A   1      37.433  31.494  30.133  1.00  0.00     0.031 A 
ATOM     61  C   UNL A   1      38.243  30.596  32.219  1.00  0.00     0.131 A 
ATOM     62  C   UNL A   1      36.255  31.882  30.787  1.00  0.00     0.055 A 
ATOM     63  C   UNL A   1      37.041  30.924  32.849  1.00  0.00     0.041 A 
ATOM     64  F   UNL A   1      39.199  30.018  32.963  1.00  0.00    -0.206 F 
ATOM     65  C   UNL A   1      36.042  31.580  32.136  1.00  0.00     0.022 A 
BRANCH  62  66
ATOM     66  S   UNL A   1      35.046  32.887  29.882  1.00  0.00     0.124 S 
ATOM     67  O   UNL A   1      34.551  31.932  28.894  1.00  0.00    -0.237 OA
ATOM     68  O   UNL A   1      34.104  33.267  30.929  1.00  0.00    -0.237 OA
ATOM     69  O   UNL A   1      35.847  33.980  29.337  1.00  0.00    -0.744 OA
ENDBRANCH  62  66
ENDBRANCH  45  59
BRANCH  46  70
ATOM     70  C   UNL A   1      47.023  27.909  26.558  1.00  0.00     0.023 A 
ATOM     71  C   UNL A   1      47.215  28.048  25.173  1.00  0.00     0.031 A 
ATOM     72  C   UNL A   1      48.036  27.277  27.301  1.00  0.00     0.131 A 
ATOM     73  C   UNL A   1      48.355  27.499  24.567  1.00  0.00     0.055 A 
ATOM     74  C   UNL A   1      49.198  26.790  26.702  1.00  0.00     0.041 A 
ATOM     75  F   UNL A   1      47.904  27.113  28.627  1.00  0.00    -0.206 F 
ATOM     76  C   UNL A   1      49.354  26.881  25.323  1.00  0.00     0.022 A 
BRANCH  73  77
ATOM     77  S   UNL A   1      48.454  27.489  22.754  1.00  0.00     0.124 S 
ATOM     78  O   UNL A   1      47.232  28.193  22.385  1.00  0.00    -0.237 OA
ATOM     79  O   UNL A   1      49.703  28.206  22.519  1.00  0.00    -0.237 OA
ATOM     80  O   UNL A   1      48.480  26.066  22.423  1.00  0.00    -0.744 OA
ENDBRANCH  73  77
ENDBRANCH  46  70
BRANCH  58  81
ATOM     81  C   UNL A   1      45.068  33.706  29.875  1.00  0.00     0.023 A 
ATOM     82  C   UNL A   1      45.143  34.803  28.997  1.00  0.00     0.031 A 
ATOM     83  C   UNL A   1      45.773  33.784  31.089  1.00  0.00     0.131 A 
ATOM     84  C   UNL A   1      45.969  35.893  29.308  1.00  0.00     0.055 A 
ATOM     85  C   UNL A   1      46.539  34.901  31.424  1.00  0.00     0.041 A 
ATOM     86  F   UNL A   1      45.737  32.768  31.966  1.00  0.00    -0.206 F 
ATOM     87  C   UNL A   1      46.655  35.956  30.523  1.00  0.00     0.022 A 
BRANCH  84  88
ATOM     88  S   UNL A   1      46.233  37.171  28.048  1.00  0.00     0.124 S 
ATOM     89  O   UNL A   1      45.685  38.357  28.697  1.00  0.00    -0.237 OA
ATOM     90  O   UNL A   1      47.683  37.148  27.883  1.00  0.00    -0.237 OA
ATOM     91  O   UNL A   1      45.471  36.683  26.900  1.00  0.00    -0.744 OA
ENDBRANCH  84  88
ENDBRANCH  58  81
ENDBRANCH  32  33
ENDBRANCH  25  27
ENDBRANCH  24  25
ENDBRANCH  23  24
ENDBRANCH   1  23
TORSDOF 17
ENDMDL
