MODEL 1
REMARK VINA RESULT:     -11.0      0.000      0.000
REMARK SMILES O=C(CCCNS(=O)(=O)c1ccc(N2CCCC2=O)cc1)OCCOC(=O)c1ccc(-c2c3nc(c(-c4cc(S(=O)(=O)[O-])ccc4F)c4ccc([nH]4)c(-c4cc(S(=O)(=O)[O-])ccc4F)c4nc(c(-c5cc(S(=O)(=O)[O-])ccc5F)c5ccc2[nH]5)C=C4)C=C3)cc1
REMARK SMILES IDX 22 1 2 2 1 3 3 4 4 5 5 6 6 7 7 9 8 10 9 11 10 12 11 13 21 14
REMARK SMILES IDX 12 15 20 16 13 17 14 18 15 19 18 20 16 21 17 22 19 23 23 24
REMARK SMILES IDX 24 25 25 26 26 27 27 28 28 29 29 30 90 31 30 32 89 33 31 34
REMARK SMILES IDX 32 35 33 36 83 37 34 38 88 39 82 40 84 41 35 42 87 43 81 44
REMARK SMILES IDX 80 45 36 47 68 48 48 49 67 50 49 51 52 52 66 53 85 54 50 55
REMARK SMILES IDX 51 56 65 58 86 59 53 60 37 61 38 62 46 63 39 64 45 65 47 66
REMARK SMILES IDX 44 67 40 68 41 69 42 70 43 71 69 72 70 73 78 74 71 75 77 76
REMARK SMILES IDX 79 77 76 78 72 79 73 80 74 81 75 82 54 83 55 84 63 85 56 86
REMARK SMILES IDX 62 87 64 88 61 89 57 90 58 91 59 92 60 93
REMARK H PARENT 6 8 84 46 52 57
REMARK Flexibility Score: inf
ROOT
ATOM      1  O   UNL A   1      37.342  21.474  23.862  1.00  0.00    -0.462 OA
ENDROOT
BRANCH   1   2
ATOM      2  C   UNL A   1      36.580  22.595  23.798  1.00  0.00     0.305 C 
ATOM      3  O   UNL A   1      36.734  23.426  22.909  1.00  0.00    -0.252 OA
BRANCH   2   4
ATOM      4  C   UNL A   1      35.620  22.827  24.943  1.00  0.00     0.124 C 
BRANCH   4   5
ATOM      5  C   UNL A   1      35.497  24.300  25.317  1.00  0.00     0.028 C 
BRANCH   5   6
ATOM      6  C   UNL A   1      34.364  25.013  24.579  1.00  0.00     0.099 C 
BRANCH   6   7
ATOM      7  N   UNL A   1      33.129  24.905  25.365  1.00  0.00    -0.211 NA
ATOM      8  H   UNL A   1      32.916  25.847  25.692  1.00  0.00     0.141 HD
BRANCH   7   9
ATOM      9  S   UNL A   1      31.710  24.302  24.710  1.00  0.00     0.240 S 
ATOM     10  O   UNL A   1      30.680  24.433  25.717  1.00  0.00    -0.207 OA
ATOM     11  O   UNL A   1      31.583  24.900  23.400  1.00  0.00    -0.207 OA
BRANCH   9  12
ATOM     12  C   UNL A   1      32.022  22.577  24.475  1.00  0.00     0.082 A 
ATOM     13  C   UNL A   1      32.367  22.090  23.215  1.00  0.00     0.024 A 
ATOM     14  C   UNL A   1      31.986  21.724  25.581  1.00  0.00     0.024 A 
ATOM     15  C   UNL A   1      32.811  20.782  23.084  1.00  0.00     0.028 A 
ATOM     16  C   UNL A   1      32.340  20.379  25.423  1.00  0.00     0.028 A 
ATOM     17  C   UNL A   1      32.809  19.925  24.187  1.00  0.00     0.044 A 
BRANCH  17  18
ATOM     18  N   UNL A   1      33.285  18.620  24.017  1.00  0.00    -0.312 N 
ATOM     19  C   UNL A   1      34.106  17.969  25.004  1.00  0.00     0.126 C 
ATOM     20  C   UNL A   1      32.979  17.779  22.951  1.00  0.00     0.227 C 
ATOM     21  C   UNL A   1      34.805  16.887  24.214  1.00  0.00     0.032 C 
ATOM     22  C   UNL A   1      33.791  16.516  23.137  1.00  0.00     0.102 C 
ATOM     23  O   UNL A   1      32.226  17.985  22.013  1.00  0.00    -0.275 OA
ENDBRANCH  17  18
ENDBRANCH   9  12
ENDBRANCH   7   9
ENDBRANCH   6   7
ENDBRANCH   5   6
ENDBRANCH   4   5
ENDBRANCH   2   4
ENDBRANCH   1   2
BRANCH   1  24
ATOM     24  C   UNL A   1      37.163  20.577  24.973  1.00  0.00     0.274 C 
BRANCH  24  25
ATOM     25  C   UNL A   1      38.324  19.602  25.184  1.00  0.00     0.275 C 
BRANCH  25  26
ATOM     26  O   UNL A   1      38.961  19.809  26.453  1.00  0.00    -0.458 OA
BRANCH  26  27
ATOM     27  C   UNL A   1      40.279  20.113  26.345  1.00  0.00     0.338 C 
ATOM     28  O   UNL A   1      41.129  19.453  25.772  1.00  0.00    -0.246 OA
BRANCH  27  29
ATOM     29  C   UNL A   1      40.530  21.472  26.864  1.00  0.00     0.060 A 
ATOM     30  C   UNL A   1      39.857  22.526  26.236  1.00  0.00     0.016 A 
ATOM     31  C   UNL A   1      41.434  21.727  27.901  1.00  0.00     0.016 A 
ATOM     32  C   UNL A   1      40.155  23.842  26.572  1.00  0.00     0.010 A 
ATOM     33  C   UNL A   1      41.732  23.053  28.242  1.00  0.00     0.010 A 
ATOM     34  C   UNL A   1      41.139  24.113  27.534  1.00  0.00    -0.014 A 
BRANCH  34  35
ATOM     35  C   UNL A   1      41.698  25.487  27.595  1.00  0.00     0.031 A 
ATOM     36  C   UNL A   1      40.917  26.540  28.339  1.00  0.00     0.074 A 
ATOM     37  C   UNL A   1      42.912  25.771  27.090  1.00  0.00     0.049 A 
ATOM     38  N   UNL A   1      41.251  27.768  28.639  1.00  0.00    -0.248 NA
ATOM     39  C   UNL A   1      39.578  26.149  28.806  1.00  0.00     0.031 C 
ATOM     40  C   UNL A   1      43.773  24.829  26.377  1.00  0.00     0.029 A 
ATOM     41  N   UNL A   1      43.638  26.935  27.120  1.00  0.00    -0.354 N 
ATOM     42  C   UNL A   1      40.171  28.290  29.344  1.00  0.00     0.074 A 
ATOM     43  C   UNL A   1      39.150  27.267  29.370  1.00  0.00     0.031 C 
ATOM     44  C   UNL A   1      44.917  25.453  26.044  1.00  0.00     0.029 A 
ATOM     45  C   UNL A   1      44.866  26.838  26.510  1.00  0.00     0.049 A 
ATOM     46  H   UNL A   1      43.309  27.764  27.540  1.00  0.00     0.167 HD
ATOM     47  C   UNL A   1      40.047  29.505  29.935  1.00  0.00     0.034 A 
ATOM     48  C   UNL A   1      45.837  27.761  26.354  1.00  0.00     0.034 A 
ATOM     49  C   UNL A   1      41.065  30.524  29.887  1.00  0.00     0.049 A 
ATOM     50  C   UNL A   1      45.647  29.134  26.958  1.00  0.00     0.074 A 
ATOM     51  C   UNL A   1      41.053  31.784  30.460  1.00  0.00     0.029 A 
ATOM     52  N   UNL A   1      42.274  30.407  29.212  1.00  0.00    -0.354 N 
ATOM     53  N   UNL A   1      44.641  29.601  27.660  1.00  0.00    -0.248 NA
ATOM     54  C   UNL A   1      46.740  30.096  26.765  1.00  0.00     0.031 C 
ATOM     55  C   UNL A   1      42.220  32.453  30.072  1.00  0.00     0.029 A 
ATOM     56  C   UNL A   1      42.999  31.584  29.324  1.00  0.00     0.049 A 
ATOM     57  H   UNL A   1      42.573  29.605  28.725  1.00  0.00     0.167 HD
ATOM     58  C   UNL A   1      45.002  30.895  28.029  1.00  0.00     0.074 A 
ATOM     59  C   UNL A   1      46.320  31.129  27.478  1.00  0.00     0.031 C 
ATOM     60  C   UNL A   1      44.312  31.805  28.765  1.00  0.00     0.034 A 
BRANCH  47  61
ATOM     61  C   UNL A   1      38.742  29.798  30.635  1.00  0.00     0.023 A 
ATOM     62  C   UNL A   1      37.732  30.565  30.027  1.00  0.00     0.031 A 
ATOM     63  C   UNL A   1      38.527  29.348  31.948  1.00  0.00     0.131 A 
ATOM     64  C   UNL A   1      36.590  30.923  30.759  1.00  0.00     0.055 A 
ATOM     65  C   UNL A   1      37.352  29.640  32.644  1.00  0.00     0.041 A 
ATOM     66  F   UNL A   1      39.466  28.633  32.589  1.00  0.00    -0.206 F 
ATOM     67  C   UNL A   1      36.381  30.446  32.055  1.00  0.00     0.022 A 
BRANCH  64  68
ATOM     68  S   UNL A   1      35.454  32.149  30.052  1.00  0.00     0.124 S 
ATOM     69  O   UNL A   1      36.369  33.236  29.710  1.00  0.00    -0.237 OA
ATOM     70  O   UNL A   1      34.870  31.426  28.928  1.00  0.00    -0.237 OA
ATOM     71  O   UNL A   1      34.536  32.440  31.152  1.00  0.00    -0.744 OA
ENDBRANCH  64  68
ENDBRANCH  47  61
BRANCH  48  72
ATOM     72  C   UNL A   1      47.076  27.437  25.590  1.00  0.00     0.023 A 
ATOM     73  C   UNL A   1      47.208  27.781  24.236  1.00  0.00     0.031 A 
ATOM     74  C   UNL A   1      48.120  26.712  26.191  1.00  0.00     0.131 A 
ATOM     75  C   UNL A   1      48.334  27.354  23.512  1.00  0.00     0.055 A 
ATOM     76  C   UNL A   1      49.260  26.333  25.481  1.00  0.00     0.041 A 
ATOM     77  F   UNL A   1      48.045  26.360  27.485  1.00  0.00    -0.206 F 
ATOM     78  C   UNL A   1      49.365  26.642  24.128  1.00  0.00     0.022 A 
BRANCH  75  79
ATOM     79  S   UNL A   1      48.390  27.667  21.726  1.00  0.00     0.124 S 
ATOM     80  O   UNL A   1      48.594  26.324  21.195  1.00  0.00    -0.237 OA
ATOM     81  O   UNL A   1      47.081  28.264  21.483  1.00  0.00    -0.237 OA
ATOM     82  O   UNL A   1      49.524  28.577  21.576  1.00  0.00    -0.744 OA
ENDBRANCH  75  79
ENDBRANCH  48  72
BRANCH  60  83
ATOM     83  C   UNL A   1      45.001  33.117  29.061  1.00  0.00     0.023 A 
ATOM     84  C   UNL A   1      45.025  34.172  28.132  1.00  0.00     0.031 A 
ATOM     85  C   UNL A   1      45.662  33.304  30.289  1.00  0.00     0.131 A 
ATOM     86  C   UNL A   1      45.747  35.341  28.418  1.00  0.00     0.055 A 
ATOM     87  C   UNL A   1      46.325  34.494  30.594  1.00  0.00     0.041 A 
ATOM     88  F   UNL A   1      45.673  32.331  31.214  1.00  0.00    -0.206 F 
ATOM     89  C   UNL A   1      46.384  35.514  29.650  1.00  0.00     0.022 A 
BRANCH  86  90
ATOM     90  S   UNL A   1      45.935  36.590  27.117  1.00  0.00     0.124 S 
ATOM     91  O   UNL A   1      44.697  37.353  27.247  1.00  0.00    -0.237 OA
ATOM     92  O   UNL A   1      47.155  37.281  27.522  1.00  0.00    -0.237 OA
ATOM     93  O   UNL A   1      46.048  35.798  25.894  1.00  0.00    -0.744 OA
ENDBRANCH  86  90
ENDBRANCH  60  83
ENDBRANCH  34  35
ENDBRANCH  27  29
ENDBRANCH  26  27
ENDBRANCH  25  26
ENDBRANCH  24  25
ENDBRANCH   1  24
TORSDOF 20
ENDMDL
MODEL 2
REMARK VINA RESULT:     -10.8      1.645      2.030
REMARK SMILES O=C(CCCNS(=O)(=O)c1ccc(N2CCCC2=O)cc1)OCCOC(=O)c1ccc(-c2c3nc(c(-c4cc(S(=O)(=O)[O-])ccc4F)c4ccc([nH]4)c(-c4cc(S(=O)(=O)[O-])ccc4F)c4nc(c(-c5cc(S(=O)(=O)[O-])ccc5F)c5ccc2[nH]5)C=C4)C=C3)cc1
REMARK SMILES IDX 22 1 2 2 1 3 3 4 4 5 5 6 6 7 7 9 8 10 9 11 10 12 11 13 21 14
REMARK SMILES IDX 12 15 20 16 13 17 14 18 15 19 18 20 16 21 17 22 19 23 23 24
REMARK SMILES IDX 24 25 25 26 26 27 27 28 28 29 29 30 90 31 30 32 89 33 31 34
REMARK SMILES IDX 32 35 33 36 83 37 34 38 88 39 82 40 84 41 35 42 87 43 81 44
REMARK SMILES IDX 80 45 36 47 68 48 48 49 67 50 49 51 52 52 66 53 85 54 50 55
REMARK SMILES IDX 51 56 65 58 86 59 53 60 37 61 38 62 46 63 39 64 45 65 47 66
REMARK SMILES IDX 44 67 40 68 41 69 42 70 43 71 69 72 70 73 78 74 71 75 77 76
REMARK SMILES IDX 79 77 76 78 72 79 73 80 74 81 75 82 54 83 55 84 63 85 56 86
REMARK SMILES IDX 62 87 64 88 61 89 57 90 58 91 59 92 60 93
REMARK H PARENT 6 8 84 46 52 57
REMARK Flexibility Score: inf
ROOT
ATOM      1  O   UNL A   1      36.085  23.252  24.459  1.00  0.00    -0.462 OA
ENDROOT
BRANCH   1   2
ATOM      2  C   UNL A   1      35.354  23.781  25.473  1.00  0.00     0.305 C 
ATOM      3  O   UNL A   1      35.276  23.227  26.564  1.00  0.00    -0.252 OA
BRANCH   2   4
ATOM      4  C   UNL A   1      34.544  25.016  25.150  1.00  0.00     0.124 C 
BRANCH   4   5
ATOM      5  C   UNL A   1      34.348  25.214  23.651  1.00  0.00     0.028 C 
BRANCH   5   6
ATOM      6  C   UNL A   1      32.924  25.627  23.282  1.00  0.00     0.099 C 
BRANCH   6   7
ATOM      7  N   UNL A   1      32.043  25.422  24.438  1.00  0.00    -0.211 NA
ATOM      8  H   UNL A   1      31.581  26.315  24.606  1.00  0.00     0.141 HD
BRANCH   7   9
ATOM      9  S   UNL A   1      30.837  24.259  24.440  1.00  0.00     0.240 S 
ATOM     10  O   UNL A   1      30.204  24.297  25.740  1.00  0.00    -0.207 OA
ATOM     11  O   UNL A   1      30.090  24.449  23.217  1.00  0.00    -0.207 OA
BRANCH   9  12
ATOM     12  C   UNL A   1      31.697  22.720  24.301  1.00  0.00     0.082 A 
ATOM     13  C   UNL A   1      32.068  22.016  25.446  1.00  0.00     0.024 A 
ATOM     14  C   UNL A   1      31.936  22.188  23.031  1.00  0.00     0.024 A 
ATOM     15  C   UNL A   1      32.551  20.721  25.327  1.00  0.00     0.028 A 
ATOM     16  C   UNL A   1      32.517  20.921  22.915  1.00  0.00     0.028 A 
ATOM     17  C   UNL A   1      32.768  20.164  24.064  1.00  0.00     0.044 A 
BRANCH  17  18
ATOM     18  N   UNL A   1      33.237  18.847  23.987  1.00  0.00    -0.312 N 
ATOM     19  C   UNL A   1      34.074  18.272  25.007  1.00  0.00     0.126 C 
ATOM     20  C   UNL A   1      32.909  17.928  22.996  1.00  0.00     0.227 C 
ATOM     21  C   UNL A   1      34.755  17.129  24.290  1.00  0.00     0.032 C 
ATOM     22  C   UNL A   1      33.721  16.680  23.264  1.00  0.00     0.102 C 
ATOM     23  O   UNL A   1      32.138  18.063  22.059  1.00  0.00    -0.275 OA
ENDBRANCH  17  18
ENDBRANCH   9  12
ENDBRANCH   7   9
ENDBRANCH   6   7
ENDBRANCH   5   6
ENDBRANCH   4   5
ENDBRANCH   2   4
ENDBRANCH   1   2
BRANCH   1  24
ATOM     24  C   UNL A   1      36.110  21.822  24.296  1.00  0.00     0.274 C 
BRANCH  24  25
ATOM     25  C   UNL A   1      37.464  21.180  24.611  1.00  0.00     0.275 C 
BRANCH  25  26
ATOM     26  O   UNL A   1      37.841  21.392  25.980  1.00  0.00    -0.458 OA
BRANCH  26  27
ATOM     27  C   UNL A   1      39.182  21.329  26.179  1.00  0.00     0.338 C 
ATOM     28  O   UNL A   1      39.927  20.437  25.810  1.00  0.00    -0.246 OA
BRANCH  27  29
ATOM     29  C   UNL A   1      39.670  22.598  26.753  1.00  0.00     0.060 A 
ATOM     30  C   UNL A   1      39.074  23.776  26.287  1.00  0.00     0.016 A 
ATOM     31  C   UNL A   1      40.715  22.653  27.681  1.00  0.00     0.016 A 
ATOM     32  C   UNL A   1      39.581  25.013  26.672  1.00  0.00     0.010 A 
ATOM     33  C   UNL A   1      41.223  23.899  28.070  1.00  0.00     0.010 A 
ATOM     34  C   UNL A   1      40.697  25.079  27.517  1.00  0.00    -0.014 A 
BRANCH  34  35
ATOM     35  C   UNL A   1      41.437  26.364  27.599  1.00  0.00     0.031 A 
ATOM     36  C   UNL A   1      40.813  27.494  28.378  1.00  0.00     0.074 A 
ATOM     37  C   UNL A   1      42.672  26.494  27.083  1.00  0.00     0.049 A 
ATOM     38  N   UNL A   1      41.312  28.659  28.700  1.00  0.00    -0.248 NA
ATOM     39  C   UNL A   1      39.439  27.276  28.856  1.00  0.00     0.031 C 
ATOM     40  C   UNL A   1      43.390  25.462  26.337  1.00  0.00     0.029 A 
ATOM     41  N   UNL A   1      43.548  27.549  27.128  1.00  0.00    -0.354 N 
ATOM     42  C   UNL A   1      40.321  29.304  29.431  1.00  0.00     0.074 A 
ATOM     43  C   UNL A   1      39.172  28.427  29.451  1.00  0.00     0.031 C 
ATOM     44  C   UNL A   1      44.604  25.935  26.001  1.00  0.00     0.029 A 
ATOM     45  C   UNL A   1      44.744  27.303  26.498  1.00  0.00     0.049 A 
ATOM     46  H   UNL A   1      43.338  28.404  27.570  1.00  0.00     0.167 HD
ATOM     47  C   UNL A   1      40.368  30.510  30.050  1.00  0.00     0.034 A 
ATOM     48  C   UNL A   1      45.829  28.091  26.347  1.00  0.00     0.034 A 
ATOM     49  C   UNL A   1      41.514  31.385  30.009  1.00  0.00     0.049 A 
ATOM     50  C   UNL A   1      45.833  29.462  26.984  1.00  0.00     0.074 A 
ATOM     51  C   UNL A   1      41.678  32.621  30.610  1.00  0.00     0.029 A 
ATOM     52  N   UNL A   1      42.688  31.123  29.315  1.00  0.00    -0.354 N 
ATOM     53  N   UNL A   1      44.906  30.043  27.711  1.00  0.00    -0.248 NA
ATOM     54  C   UNL A   1      47.043  30.273  26.795  1.00  0.00     0.031 C 
ATOM     55  C   UNL A   1      42.919  33.136  30.220  1.00  0.00     0.029 A 
ATOM     56  C   UNL A   1      43.565  32.189  29.442  1.00  0.00     0.049 A 
ATOM     57  H   UNL A   1      42.870  30.300  28.806  1.00  0.00     0.167 HD
ATOM     58  C   UNL A   1      45.442  31.268  28.103  1.00  0.00     0.074 A 
ATOM     59  C   UNL A   1      46.773  31.336  27.538  1.00  0.00     0.031 C 
ATOM     60  C   UNL A   1      44.889  32.245  28.868  1.00  0.00     0.034 A 
BRANCH  47  61
ATOM     61  C   UNL A   1      39.123  30.960  30.775  1.00  0.00     0.023 A 
ATOM     62  C   UNL A   1      38.112  31.691  30.127  1.00  0.00     0.031 A 
ATOM     63  C   UNL A   1      38.969  30.696  32.147  1.00  0.00     0.131 A 
ATOM     64  C   UNL A   1      37.034  32.201  30.867  1.00  0.00     0.055 A 
ATOM     65  C   UNL A   1      37.853  31.137  32.861  1.00  0.00     0.041 A 
ATOM     66  F   UNL A   1      39.913  30.023  32.825  1.00  0.00    -0.206 F 
ATOM     67  C   UNL A   1      36.884  31.908  32.225  1.00  0.00     0.022 A 
BRANCH  64  68
ATOM     68  S   UNL A   1      35.911  33.381  30.066  1.00  0.00     0.124 S 
ATOM     69  O   UNL A   1      36.822  34.094  29.173  1.00  0.00    -0.237 OA
ATOM     70  O   UNL A   1      34.939  32.505  29.423  1.00  0.00    -0.237 OA
ATOM     71  O   UNL A   1      35.396  34.174  31.181  1.00  0.00    -0.744 OA
ENDBRANCH  64  68
ENDBRANCH  47  61
BRANCH  48  72
ATOM     72  C   UNL A   1      47.004  27.622  25.559  1.00  0.00     0.023 A 
ATOM     73  C   UNL A   1      47.162  27.971  24.209  1.00  0.00     0.031 A 
ATOM     74  C   UNL A   1      47.952  26.754  26.131  1.00  0.00     0.131 A 
ATOM     75  C   UNL A   1      48.212  27.413  23.460  1.00  0.00     0.055 A 
ATOM     76  C   UNL A   1      49.022  26.243  25.396  1.00  0.00     0.041 A 
ATOM     77  F   UNL A   1      47.849  26.390  27.419  1.00  0.00    -0.206 F 
ATOM     78  C   UNL A   1      49.149  26.561  24.047  1.00  0.00     0.022 A 
BRANCH  75  79
ATOM     79  S   UNL A   1      48.285  27.751  21.678  1.00  0.00     0.124 S 
ATOM     80  O   UNL A   1      49.400  28.687  21.599  1.00  0.00    -0.237 OA
ATOM     81  O   UNL A   1      48.520  26.420  21.129  1.00  0.00    -0.237 OA
ATOM     82  O   UNL A   1      46.970  28.318  21.387  1.00  0.00    -0.744 OA
ENDBRANCH  75  79
ENDBRANCH  48  72
BRANCH  60  83
ATOM     83  C   UNL A   1      45.752  33.445  29.182  1.00  0.00     0.023 A 
ATOM     84  C   UNL A   1      46.587  33.487  30.312  1.00  0.00     0.031 A 
ATOM     85  C   UNL A   1      45.720  34.574  28.342  1.00  0.00     0.131 A 
ATOM     86  C   UNL A   1      47.308  34.655  30.607  1.00  0.00     0.055 A 
ATOM     87  C   UNL A   1      46.489  35.709  28.607  1.00  0.00     0.041 A 
ATOM     88  F   UNL A   1      44.941  34.592  27.250  1.00  0.00    -0.206 F 
ATOM     89  C   UNL A   1      47.276  35.760  29.752  1.00  0.00     0.022 A 
BRANCH  86  90
ATOM     90  S   UNL A   1      48.205  34.751  32.181  1.00  0.00     0.124 S 
ATOM     91  O   UNL A   1      48.922  36.015  32.045  1.00  0.00    -0.237 OA
ATOM     92  O   UNL A   1      47.122  34.735  33.158  1.00  0.00    -0.237 OA
ATOM     93  O   UNL A   1      49.047  33.557  32.169  1.00  0.00    -0.744 OA
ENDBRANCH  86  90
ENDBRANCH  60  83
ENDBRANCH  34  35
ENDBRANCH  27  29
ENDBRANCH  26  27
ENDBRANCH  25  26
ENDBRANCH  24  25
ENDBRANCH   1  24
TORSDOF 20
ENDMDL
MODEL 3
REMARK VINA RESULT:     -10.7      5.830     11.300
REMARK SMILES O=C(CCCNS(=O)(=O)c1ccc(N2CCCC2=O)cc1)OCCOC(=O)c1ccc(-c2c3nc(c(-c4cc(S(=O)(=O)[O-])ccc4F)c4ccc([nH]4)c(-c4cc(S(=O)(=O)[O-])ccc4F)c4nc(c(-c5cc(S(=O)(=O)[O-])ccc5F)c5ccc2[nH]5)C=C4)C=C3)cc1
REMARK SMILES IDX 22 1 2 2 1 3 3 4 4 5 5 6 6 7 7 9 8 10 9 11 10 12 11 13 21 14
REMARK SMILES IDX 12 15 20 16 13 17 14 18 15 19 18 20 16 21 17 22 19 23 23 24
REMARK SMILES IDX 24 25 25 26 26 27 27 28 28 29 29 30 90 31 30 32 89 33 31 34
REMARK SMILES IDX 32 35 33 36 83 37 34 38 88 39 82 40 84 41 35 42 87 43 81 44
REMARK SMILES IDX 80 45 36 47 68 48 48 49 67 50 49 51 52 52 66 53 85 54 50 55
REMARK SMILES IDX 51 56 65 58 86 59 53 60 37 61 38 62 46 63 39 64 45 65 47 66
REMARK SMILES IDX 44 67 40 68 41 69 42 70 43 71 69 72 70 73 78 74 71 75 77 76
REMARK SMILES IDX 79 77 76 78 72 79 73 80 74 81 75 82 54 83 55 84 63 85 56 86
REMARK SMILES IDX 62 87 64 88 61 89 57 90 58 91 59 92 60 93
REMARK H PARENT 6 8 84 46 52 57
REMARK Flexibility Score: inf
ROOT
ATOM      1  O   UNL A   1      32.411  30.835  25.988  1.00  0.00    -0.462 OA
ENDROOT
BRANCH   1   2
ATOM      2  C   UNL A   1      32.451  29.482  26.078  1.00  0.00     0.305 C 
ATOM      3  O   UNL A   1      31.437  28.801  25.966  1.00  0.00    -0.252 OA
BRANCH   2   4
ATOM      4  C   UNL A   1      33.782  28.867  26.447  1.00  0.00     0.124 C 
BRANCH   4   5
ATOM      5  C   UNL A   1      33.746  27.343  26.443  1.00  0.00     0.028 C 
BRANCH   5   6
ATOM      6  C   UNL A   1      33.463  26.753  25.062  1.00  0.00     0.099 C 
BRANCH   6   7
ATOM      7  N   UNL A   1      32.285  25.881  25.138  1.00  0.00    -0.211 NA
ATOM      8  H   UNL A   1      31.603  26.373  25.714  1.00  0.00     0.141 HD
BRANCH   7   9
ATOM      9  S   UNL A   1      31.465  25.373  23.767  1.00  0.00     0.240 S 
ATOM     10  O   UNL A   1      32.458  24.997  22.785  1.00  0.00    -0.207 OA
ATOM     11  O   UNL A   1      30.448  24.453  24.223  1.00  0.00    -0.207 OA
BRANCH   9  12
ATOM     12  C   UNL A   1      30.641  26.823  23.177  1.00  0.00     0.082 A 
ATOM     13  C   UNL A   1      29.306  27.056  23.507  1.00  0.00     0.024 A 
ATOM     14  C   UNL A   1      31.364  27.762  22.437  1.00  0.00     0.024 A 
ATOM     15  C   UNL A   1      28.734  28.286  23.217  1.00  0.00     0.028 A 
ATOM     16  C   UNL A   1      30.750  28.961  22.061  1.00  0.00     0.028 A 
ATOM     17  C   UNL A   1      29.455  29.246  22.504  1.00  0.00     0.044 A 
BRANCH  17  18
ATOM     18  N   UNL A   1      28.849  30.483  22.250  1.00  0.00    -0.312 N 
ATOM     19  C   UNL A   1      28.089  30.733  21.054  1.00  0.00     0.126 C 
ATOM     20  C   UNL A   1      28.834  31.570  23.119  1.00  0.00     0.227 C 
ATOM     21  C   UNL A   1      28.110  32.239  20.940  1.00  0.00     0.032 C 
ATOM     22  C   UNL A   1      28.159  32.710  22.389  1.00  0.00     0.102 C 
ATOM     23  O   UNL A   1      29.285  31.644  24.251  1.00  0.00    -0.275 OA
ENDBRANCH  17  18
ENDBRANCH   9  12
ENDBRANCH   7   9
ENDBRANCH   6   7
ENDBRANCH   5   6
ENDBRANCH   4   5
ENDBRANCH   2   4
ENDBRANCH   1   2
BRANCH   1  24
ATOM     24  C   UNL A   1      31.421  31.551  26.749  1.00  0.00     0.274 C 
BRANCH  24  25
ATOM     25  C   UNL A   1      31.720  33.043  26.917  1.00  0.00     0.275 C 
BRANCH  25  26
ATOM     26  O   UNL A   1      33.127  33.311  26.825  1.00  0.00    -0.458 OA
BRANCH  26  27
ATOM     27  C   UNL A   1      33.657  33.777  27.984  1.00  0.00     0.338 C 
ATOM     28  O   UNL A   1      33.156  34.601  28.730  1.00  0.00    -0.246 OA
BRANCH  27  29
ATOM     29  C   UNL A   1      34.866  33.005  28.335  1.00  0.00     0.060 A 
ATOM     30  C   UNL A   1      34.676  31.680  28.744  1.00  0.00     0.016 A 
ATOM     31  C   UNL A   1      36.148  33.564  28.318  1.00  0.00     0.016 A 
ATOM     32  C   UNL A   1      35.749  30.940  29.229  1.00  0.00     0.010 A 
ATOM     33  C   UNL A   1      37.229  32.818  28.804  1.00  0.00     0.010 A 
ATOM     34  C   UNL A   1      37.019  31.526  29.319  1.00  0.00    -0.014 A 
BRANCH  34  35
ATOM     35  C   UNL A   1      38.036  30.865  30.176  1.00  0.00     0.031 A 
ATOM     36  C   UNL A   1      38.936  29.834  29.544  1.00  0.00     0.074 A 
ATOM     37  C   UNL A   1      38.223  31.239  31.454  1.00  0.00     0.049 A 
ATOM     38  N   UNL A   1      39.974  29.216  30.044  1.00  0.00    -0.248 NA
ATOM     39  C   UNL A   1      38.618  29.453  28.159  1.00  0.00     0.031 C 
ATOM     40  C   UNL A   1      37.436  32.245  32.165  1.00  0.00     0.029 A 
ATOM     41  N   UNL A   1      39.152  30.825  32.375  1.00  0.00    -0.354 N 
ATOM     42  C   UNL A   1      40.442  28.386  29.031  1.00  0.00     0.074 A 
ATOM     43  C   UNL A   1      39.538  28.534  27.912  1.00  0.00     0.031 C 
ATOM     44  C   UNL A   1      37.923  32.376  33.412  1.00  0.00     0.029 A 
ATOM     45  C   UNL A   1      39.047  31.457  33.591  1.00  0.00     0.049 A 
ATOM     46  H   UNL A   1      39.831  30.137  32.183  1.00  0.00     0.167 HD
ATOM     47  C   UNL A   1      41.538  27.586  29.023  1.00  0.00     0.034 A 
ATOM     48  C   UNL A   1      39.779  31.315  34.714  1.00  0.00     0.034 A 
ATOM     49  C   UNL A   1      42.423  27.433  30.150  1.00  0.00     0.049 A 
ATOM     50  C   UNL A   1      40.954  30.363  34.707  1.00  0.00     0.074 A 
ATOM     51  C   UNL A   1      43.568  26.662  30.250  1.00  0.00     0.029 A 
ATOM     52  N   UNL A   1      42.252  28.050  31.383  1.00  0.00    -0.354 N 
ATOM     53  N   UNL A   1      41.413  29.617  33.728  1.00  0.00    -0.248 NA
ATOM     54  C   UNL A   1      41.722  30.254  35.954  1.00  0.00     0.031 C 
ATOM     55  C   UNL A   1      44.047  26.758  31.562  1.00  0.00     0.029 A 
ATOM     56  C   UNL A   1      43.249  27.650  32.260  1.00  0.00     0.049 A 
ATOM     57  H   UNL A   1      41.527  28.680  31.603  1.00  0.00     0.167 HD
ATOM     58  C   UNL A   1      42.549  28.986  34.231  1.00  0.00     0.074 A 
ATOM     59  C   UNL A   1      42.708  29.446  35.595  1.00  0.00     0.031 C 
ATOM     60  C   UNL A   1      43.392  28.113  33.620  1.00  0.00     0.034 A 
BRANCH  47  61
ATOM     61  C   UNL A   1      41.797  26.788  27.768  1.00  0.00     0.023 A 
ATOM     62  C   UNL A   1      41.490  25.418  27.686  1.00  0.00     0.031 A 
ATOM     63  C   UNL A   1      42.406  27.395  26.656  1.00  0.00     0.131 A 
ATOM     64  C   UNL A   1      41.866  24.684  26.550  1.00  0.00     0.055 A 
ATOM     65  C   UNL A   1      42.703  26.676  25.496  1.00  0.00     0.041 A 
ATOM     66  F   UNL A   1      42.743  28.694  26.686  1.00  0.00    -0.206 F 
ATOM     67  C   UNL A   1      42.448  25.309  25.444  1.00  0.00     0.022 A 
BRANCH  64  68
ATOM     68  S   UNL A   1      41.725  22.876  26.598  1.00  0.00     0.124 S 
ATOM     69  O   UNL A   1      42.176  22.510  25.257  1.00  0.00    -0.237 OA
ATOM     70  O   UNL A   1      42.618  22.519  27.694  1.00  0.00    -0.237 OA
ATOM     71  O   UNL A   1      40.303  22.649  26.851  1.00  0.00    -0.744 OA
ENDBRANCH  64  68
ENDBRANCH  47  61
BRANCH  48  72
ATOM     72  C   UNL A   1      39.434  32.077  35.948  1.00  0.00     0.023 A 
ATOM     73  C   UNL A   1      38.563  31.547  36.912  1.00  0.00     0.031 A 
ATOM     74  C   UNL A   1      39.917  33.383  36.143  1.00  0.00     0.131 A 
ATOM     75  C   UNL A   1      38.159  32.337  38.001  1.00  0.00     0.055 A 
ATOM     76  C   UNL A   1      39.553  34.146  37.254  1.00  0.00     0.041 A 
ATOM     77  F   UNL A   1      40.754  33.938  35.253  1.00  0.00    -0.206 F 
ATOM     78  C   UNL A   1      38.656  33.629  38.183  1.00  0.00     0.022 A 
BRANCH  75  79
ATOM     79  S   UNL A   1      36.901  31.681  39.133  1.00  0.00     0.124 S 
ATOM     80  O   UNL A   1      35.782  32.584  38.888  1.00  0.00    -0.237 OA
ATOM     81  O   UNL A   1      36.744  30.314  38.650  1.00  0.00    -0.237 OA
ATOM     82  O   UNL A   1      37.529  31.807  40.447  1.00  0.00    -0.744 OA
ENDBRANCH  75  79
ENDBRANCH  48  72
BRANCH  60  83
ATOM     83  C   UNL A   1      44.592  27.646  34.410  1.00  0.00     0.023 A 
ATOM     84  C   UNL A   1      44.561  26.477  35.190  1.00  0.00     0.031 A 
ATOM     85  C   UNL A   1      45.781  28.398  34.394  1.00  0.00     0.131 A 
ATOM     86  C   UNL A   1      45.674  26.128  35.971  1.00  0.00     0.055 A 
ATOM     87  C   UNL A   1      46.907  28.011  35.124  1.00  0.00     0.041 A 
ATOM     88  F   UNL A   1      45.869  29.524  33.668  1.00  0.00    -0.206 F 
ATOM     89  C   UNL A   1      46.852  26.879  35.930  1.00  0.00     0.022 A 
BRANCH  86  90
ATOM     90  S   UNL A   1      45.525  24.737  37.126  1.00  0.00     0.124 S 
ATOM     91  O   UNL A   1      44.572  25.254  38.104  1.00  0.00    -0.237 OA
ATOM     92  O   UNL A   1      45.035  23.667  36.264  1.00  0.00    -0.237 OA
ATOM     93  O   UNL A   1      46.887  24.557  37.624  1.00  0.00    -0.744 OA
ENDBRANCH  86  90
ENDBRANCH  60  83
ENDBRANCH  34  35
ENDBRANCH  27  29
ENDBRANCH  26  27
ENDBRANCH  25  26
ENDBRANCH  24  25
ENDBRANCH   1  24
TORSDOF 20
ENDMDL
