MODEL 1
REMARK VINA RESULT:     -12.0      0.000      0.000
REMARK SMILES [NH3+][C@H]1C=C[C@H](C(=O)N2CCCc3c(C(=O)OCCOC(=O)c4ccc(-c5c6nc(c(-c7cc(S(=O)(=O)[O-])ccc7F)c7ccc([nH]7)c(-c7cc(S(=O)(=O)[O-])ccc7F)c7nc(c(-c8cc(S(=O)(=O)[O-])ccc8F)c8ccc5[nH]8)C=C7)C=C6)cc4)cccc32)C1
REMARK SMILES IDX 17 1 16 2 14 3 15 4 13 5 8 6 9 7 88 8 10 9 12 10 87 11 11 12
REMARK SMILES IDX 86 13 85 14 6 15 7 16 5 17 2 18 3 19 89 20 4 21 1 22 18 26
REMARK SMILES IDX 19 27 20 28 21 29 22 30 23 31 84 32 24 33 83 34 25 35 26 36
REMARK SMILES IDX 27 37 77 38 28 39 82 40 76 41 78 42 29 43 81 44 75 45 74 46
REMARK SMILES IDX 30 48 62 49 42 50 61 51 43 52 46 53 60 54 79 55 44 56 45 57
REMARK SMILES IDX 59 59 80 60 47 61 31 62 32 63 40 64 33 65 39 66 41 67 38 68
REMARK SMILES IDX 34 69 35 70 36 71 37 72 63 73 64 74 72 75 65 76 71 77 73 78
REMARK SMILES IDX 70 79 66 80 67 81 68 82 69 83 48 84 49 85 57 86 50 87 56 88
REMARK SMILES IDX 58 89 55 90 51 91 52 92 53 93 54 94
REMARK H PARENT 1 23 1 24 1 25 78 47 46 58
REMARK Flexibility Score: inf
ROOT
ATOM      1  C   UNL A   1      31.032  29.201  24.528  1.00  0.00     0.275 C 
ENDROOT
BRANCH   1   2
ATOM      2  O   UNL A   1      31.545  28.156  23.676  1.00  0.00    -0.458 OA
BRANCH   2   3
ATOM      3  C   UNL A   1      30.796  27.035  23.547  1.00  0.00     0.338 C 
ATOM      4  O   UNL A   1      29.584  26.982  23.462  1.00  0.00    -0.246 OA
BRANCH   3   5
ATOM      5  C   UNL A   1      31.670  25.837  23.405  1.00  0.00     0.065 A 
ATOM      6  N   UNL A   1      32.746  22.714  25.116  1.00  0.00    -0.312 N 
ATOM      7  C   UNL A   1      31.827  22.781  26.240  1.00  0.00     0.126 C 
ATOM      8  C   UNL A   1      32.708  23.787  24.176  1.00  0.00     0.048 A 
ATOM      9  C   UNL A   1      31.862  24.154  26.872  1.00  0.00     0.027 C 
ATOM     10  C   UNL A   1      31.953  24.948  24.461  1.00  0.00    -0.010 A 
ATOM     11  C   UNL A   1      33.302  23.624  22.913  1.00  0.00     0.027 A 
ATOM     12  C   UNL A   1      31.412  25.189  25.852  1.00  0.00     0.040 C 
ATOM     13  C   UNL A   1      33.021  24.508  21.882  1.00  0.00     0.003 A 
ATOM     14  C   UNL A   1      32.154  25.567  22.114  1.00  0.00     0.016 A 
BRANCH   6  15
ATOM     15  C   UNL A   1      33.611  21.646  24.948  1.00  0.00     0.234 C 
ATOM     16  O   UNL A   1      33.300  20.653  24.283  1.00  0.00    -0.274 OA
BRANCH  15  17
ATOM     17  C   UNL A   1      34.973  21.694  25.656  1.00  0.00     0.108 C 
ATOM     18  C   UNL A   1      36.838  23.059  24.833  1.00  0.00     0.205 C 
ATOM     19  C   UNL A   1      37.055  21.607  24.576  1.00  0.00     0.033 C 
ATOM     20  C   UNL A   1      35.639  23.072  25.794  1.00  0.00     0.087 C 
ATOM     21  C   UNL A   1      36.028  20.861  25.001  1.00  0.00    -0.012 C 
BRANCH  18  22
ATOM     22  N   UNL A   1      38.017  23.703  25.379  1.00  0.00    -0.352 N 
ATOM     23  H   UNL A   1      38.225  23.309  26.297  1.00  0.00     0.345 HD
ATOM     24  H   UNL A   1      37.847  24.704  25.469  1.00  0.00     0.345 HD
ATOM     25  H   UNL A   1      38.809  23.547  24.755  1.00  0.00     0.345 HD
ENDBRANCH  18  22
ENDBRANCH  15  17
ENDBRANCH   6  15
ENDBRANCH   3   5
ENDBRANCH   2   3
ENDBRANCH   1   2
BRANCH   1  26
ATOM     26  C   UNL A   1      31.776  29.194  25.861  1.00  0.00     0.275 C 
BRANCH  26  27
ATOM     27  O   UNL A   1      32.952  30.015  25.755  1.00  0.00    -0.458 OA
BRANCH  27  28
ATOM     28  C   UNL A   1      33.093  30.950  26.722  1.00  0.00     0.338 C 
ATOM     29  O   UNL A   1      32.260  31.756  27.106  1.00  0.00    -0.246 OA
BRANCH  28  30
ATOM     30  C   UNL A   1      34.408  30.790  27.354  1.00  0.00     0.060 A 
ATOM     31  C   UNL A   1      34.776  29.515  27.763  1.00  0.00     0.016 A 
ATOM     32  C   UNL A   1      35.216  31.879  27.659  1.00  0.00     0.016 A 
ATOM     33  C   UNL A   1      35.888  29.327  28.577  1.00  0.00     0.010 A 
ATOM     34  C   UNL A   1      36.414  31.668  28.357  1.00  0.00     0.010 A 
ATOM     35  C   UNL A   1      36.757  30.390  28.845  1.00  0.00    -0.014 A 
BRANCH  35  36
ATOM     36  C   UNL A   1      38.024  30.158  29.602  1.00  0.00     0.031 A 
ATOM     37  C   UNL A   1      39.093  29.253  29.043  1.00  0.00     0.074 A 
ATOM     38  C   UNL A   1      38.213  30.750  30.804  1.00  0.00     0.049 A 
ATOM     39  N   UNL A   1      40.140  28.743  29.640  1.00  0.00    -0.248 NA
ATOM     40  C   UNL A   1      38.959  28.859  27.631  1.00  0.00     0.031 C 
ATOM     41  C   UNL A   1      37.294  31.698  31.440  1.00  0.00     0.029 A 
ATOM     42  N   UNL A   1      39.240  30.642  31.712  1.00  0.00    -0.354 N 
ATOM     43  C   UNL A   1      40.756  27.922  28.699  1.00  0.00     0.074 A 
ATOM     44  C   UNL A   1      39.964  28.005  27.490  1.00  0.00     0.031 C 
ATOM     45  C   UNL A   1      37.810  32.109  32.605  1.00  0.00     0.029 A 
ATOM     46  C   UNL A   1      39.027  31.356  32.872  1.00  0.00     0.049 A 
ATOM     47  H   UNL A   1      40.050  30.106  31.551  1.00  0.00     0.167 HD
ATOM     48  C   UNL A   1      41.872  27.165  28.843  1.00  0.00     0.034 A 
ATOM     49  C   UNL A   1      39.680  31.354  34.051  1.00  0.00     0.034 A 
ATOM     50  C   UNL A   1      42.668  27.132  30.046  1.00  0.00     0.049 A 
ATOM     51  C   UNL A   1      40.867  30.438  34.209  1.00  0.00     0.074 A 
ATOM     52  C   UNL A   1      43.836  26.426  30.286  1.00  0.00     0.029 A 
ATOM     53  N   UNL A   1      42.385  27.831  31.212  1.00  0.00    -0.354 N 
ATOM     54  N   UNL A   1      41.412  29.635  33.326  1.00  0.00    -0.248 NA
ATOM     55  C   UNL A   1      41.514  30.415  35.526  1.00  0.00     0.031 C 
ATOM     56  C   UNL A   1      44.210  26.633  31.616  1.00  0.00     0.029 A 
ATOM     57  C   UNL A   1      43.328  27.538  32.184  1.00  0.00     0.049 A 
ATOM     58  H   UNL A   1      41.624  28.445  31.331  1.00  0.00     0.167 HD
ATOM     59  C   UNL A   1      42.480  29.028  33.978  1.00  0.00     0.074 A 
ATOM     60  C   UNL A   1      42.520  29.581  35.316  1.00  0.00     0.031 C 
ATOM     61  C   UNL A   1      43.348  28.092  33.517  1.00  0.00     0.034 A 
BRANCH  48  62
ATOM     62  C   UNL A   1      42.268  26.253  27.704  1.00  0.00     0.023 A 
ATOM     63  C   UNL A   1      41.839  24.919  27.619  1.00  0.00     0.031 A 
ATOM     64  C   UNL A   1      43.073  26.755  26.663  1.00  0.00     0.131 A 
ATOM     65  C   UNL A   1      42.249  24.121  26.537  1.00  0.00     0.055 A 
ATOM     66  C   UNL A   1      43.418  25.977  25.556  1.00  0.00     0.041 A 
ATOM     67  F   UNL A   1      43.530  28.016  26.701  1.00  0.00    -0.206 F 
ATOM     68  C   UNL A   1      43.012  24.649  25.492  1.00  0.00     0.022 A 
BRANCH  65  69
ATOM     69  S   UNL A   1      41.851  22.352  26.556  1.00  0.00     0.124 S 
ATOM     70  O   UNL A   1      42.564  21.877  25.372  1.00  0.00    -0.237 OA
ATOM     71  O   UNL A   1      42.389  21.921  27.841  1.00  0.00    -0.237 OA
ATOM     72  O   UNL A   1      40.394  22.325  26.450  1.00  0.00    -0.744 OA
ENDBRANCH  65  69
ENDBRANCH  48  62
BRANCH  49  73
ATOM     73  C   UNL A   1      39.178  32.154  35.208  1.00  0.00     0.023 A 
ATOM     74  C   UNL A   1      39.628  33.465  35.431  1.00  0.00     0.031 A 
ATOM     75  C   UNL A   1      38.298  31.596  36.156  1.00  0.00     0.131 A 
ATOM     76  C   UNL A   1      39.250  34.147  36.598  1.00  0.00     0.055 A 
ATOM     77  C   UNL A   1      37.861  32.308  37.273  1.00  0.00     0.041 A 
ATOM     78  F   UNL A   1      37.843  30.342  36.006  1.00  0.00    -0.206 F 
ATOM     79  C   UNL A   1      38.353  33.586  37.510  1.00  0.00     0.022 A 
BRANCH  76  80
ATOM     80  S   UNL A   1      40.057  35.727  36.978  1.00  0.00     0.124 S 
ATOM     81  O   UNL A   1      39.470  36.055  38.272  1.00  0.00    -0.237 OA
ATOM     82  O   UNL A   1      41.466  35.349  36.990  1.00  0.00    -0.237 OA
ATOM     83  O   UNL A   1      39.653  36.589  35.871  1.00  0.00    -0.744 OA
ENDBRANCH  76  80
ENDBRANCH  49  73
BRANCH  61  84
ATOM     84  C   UNL A   1      44.436  27.651  34.464  1.00  0.00     0.023 A 
ATOM     85  C   UNL A   1      44.272  26.538  35.307  1.00  0.00     0.031 A 
ATOM     86  C   UNL A   1      45.642  28.369  34.540  1.00  0.00     0.131 A 
ATOM     87  C   UNL A   1      45.271  26.216  36.236  1.00  0.00     0.055 A 
ATOM     88  C   UNL A   1      46.661  28.001  35.418  1.00  0.00     0.041 A 
ATOM     89  F   UNL A   1      45.848  29.444  33.762  1.00  0.00    -0.206 F 
ATOM     90  C   UNL A   1      46.474  26.927  36.283  1.00  0.00     0.022 A 
BRANCH  87  91
ATOM     91  S   UNL A   1      44.936  24.915  37.455  1.00  0.00     0.124 S 
ATOM     92  O   UNL A   1      45.082  23.705  36.654  1.00  0.00    -0.237 OA
ATOM     93  O   UNL A   1      45.974  25.146  38.454  1.00  0.00    -0.237 OA
ATOM     94  O   UNL A   1      43.574  25.205  37.900  1.00  0.00    -0.744 OA
ENDBRANCH  87  91
ENDBRANCH  61  84
ENDBRANCH  35  36
ENDBRANCH  28  30
ENDBRANCH  27  28
ENDBRANCH  26  27
ENDBRANCH   1  26
TORSDOF 17
ENDMDL
MODEL 2
REMARK VINA RESULT:     -11.9      4.624      9.867
REMARK SMILES [NH3+][C@H]1C=C[C@H](C(=O)N2CCCc3c(C(=O)OCCOC(=O)c4ccc(-c5c6nc(c(-c7cc(S(=O)(=O)[O-])ccc7F)c7ccc([nH]7)c(-c7cc(S(=O)(=O)[O-])ccc7F)c7nc(c(-c8cc(S(=O)(=O)[O-])ccc8F)c8ccc5[nH]8)C=C7)C=C6)cc4)cccc32)C1
REMARK SMILES IDX 17 1 16 2 14 3 15 4 13 5 8 6 9 7 88 8 10 9 12 10 87 11 11 12
REMARK SMILES IDX 86 13 85 14 6 15 7 16 5 17 2 18 3 19 89 20 4 21 1 22 18 26
REMARK SMILES IDX 19 27 20 28 21 29 22 30 23 31 84 32 24 33 83 34 25 35 26 36
REMARK SMILES IDX 27 37 77 38 28 39 82 40 76 41 78 42 29 43 81 44 75 45 74 46
REMARK SMILES IDX 30 48 62 49 42 50 61 51 43 52 46 53 60 54 79 55 44 56 45 57
REMARK SMILES IDX 59 59 80 60 47 61 31 62 32 63 40 64 33 65 39 66 41 67 38 68
REMARK SMILES IDX 34 69 35 70 36 71 37 72 63 73 64 74 72 75 65 76 71 77 73 78
REMARK SMILES IDX 70 79 66 80 67 81 68 82 69 83 48 84 49 85 57 86 50 87 56 88
REMARK SMILES IDX 58 89 55 90 51 91 52 92 53 93 54 94
REMARK H PARENT 1 23 1 24 1 25 78 47 46 58
REMARK Flexibility Score: inf
ROOT
ATOM      1  C   UNL A   1      34.722  21.585  26.128  1.00  0.00     0.275 C 
ENDROOT
BRANCH   1   2
ATOM      2  O   UNL A   1      33.443  20.944  25.951  1.00  0.00    -0.458 OA
BRANCH   2   3
ATOM      3  C   UNL A   1      32.680  21.356  24.911  1.00  0.00     0.338 C 
ATOM      4  O   UNL A   1      32.404  20.710  23.918  1.00  0.00    -0.246 OA
BRANCH   3   5
ATOM      5  C   UNL A   1      32.104  22.702  25.186  1.00  0.00     0.065 A 
ATOM      6  N   UNL A   1      31.856  26.166  23.852  1.00  0.00    -0.312 N 
ATOM      7  C   UNL A   1      32.499  25.927  22.569  1.00  0.00     0.126 C 
ATOM      8  C   UNL A   1      31.765  25.063  24.752  1.00  0.00     0.048 A 
ATOM      9  C   UNL A   1      33.798  25.179  22.759  1.00  0.00     0.027 C 
ATOM     10  C   UNL A   1      32.459  23.863  24.471  1.00  0.00    -0.010 A 
ATOM     11  C   UNL A   1      30.871  25.124  25.835  1.00  0.00     0.027 A 
ATOM     12  C   UNL A   1      33.510  23.822  23.385  1.00  0.00     0.040 C 
ATOM     13  C   UNL A   1      30.532  23.975  26.535  1.00  0.00     0.003 A 
ATOM     14  C   UNL A   1      31.096  22.763  26.163  1.00  0.00     0.016 A 
BRANCH   6  15
ATOM     15  C   UNL A   1      31.335  27.406  24.183  1.00  0.00     0.234 C 
ATOM     16  O   UNL A   1      30.145  27.682  24.004  1.00  0.00    -0.274 OA
BRANCH  15  17
ATOM     17  C   UNL A   1      32.290  28.469  24.744  1.00  0.00     0.108 C 
ATOM     18  C   UNL A   1      32.960  28.528  27.104  1.00  0.00     0.205 C 
ATOM     19  C   UNL A   1      31.991  29.612  26.773  1.00  0.00     0.033 C 
ATOM     20  C   UNL A   1      33.372  27.990  25.724  1.00  0.00     0.087 C 
ATOM     21  C   UNL A   1      31.604  29.567  25.492  1.00  0.00    -0.012 C 
BRANCH  18  22
ATOM     22  N   UNL A   1      34.079  29.012  27.888  1.00  0.00    -0.352 N 
ATOM     23  H   UNL A   1      34.449  28.250  28.458  1.00  0.00     0.345 HD
ATOM     24  H   UNL A   1      33.766  29.769  28.496  1.00  0.00     0.345 HD
ATOM     25  H   UNL A   1      34.808  29.355  27.264  1.00  0.00     0.345 HD
ENDBRANCH  18  22
ENDBRANCH  15  17
ENDBRANCH   6  15
ENDBRANCH   3   5
ENDBRANCH   2   3
ENDBRANCH   1   2
BRANCH   1  26
ATOM     26  C   UNL A   1      35.788  20.844  25.325  1.00  0.00     0.275 C 
BRANCH  26  27
ATOM     27  O   UNL A   1      36.927  21.702  25.139  1.00  0.00    -0.458 OA
BRANCH  27  28
ATOM     28  C   UNL A   1      38.106  21.199  25.573  1.00  0.00     0.338 C 
ATOM     29  O   UNL A   1      38.541  20.071  25.408  1.00  0.00    -0.246 OA
BRANCH  28  30
ATOM     30  C   UNL A   1      38.878  22.274  26.209  1.00  0.00     0.060 A 
ATOM     31  C   UNL A   1      38.415  23.575  26.061  1.00  0.00     0.016 A 
ATOM     32  C   UNL A   1      40.099  22.036  26.829  1.00  0.00     0.016 A 
ATOM     33  C   UNL A   1      39.213  24.655  26.423  1.00  0.00     0.010 A 
ATOM     34  C   UNL A   1      40.837  23.120  27.325  1.00  0.00     0.010 A 
ATOM     35  C   UNL A   1      40.415  24.448  27.109  1.00  0.00    -0.014 A 
BRANCH  35  36
ATOM     36  C   UNL A   1      41.203  25.611  27.622  1.00  0.00     0.031 A 
ATOM     37  C   UNL A   1      40.539  26.671  28.464  1.00  0.00     0.074 A 
ATOM     38  C   UNL A   1      42.516  25.725  27.319  1.00  0.00     0.049 A 
ATOM     39  N   UNL A   1      40.980  27.857  28.799  1.00  0.00    -0.248 NA
ATOM     40  C   UNL A   1      39.198  26.363  28.985  1.00  0.00     0.031 C 
ATOM     41  C   UNL A   1      43.305  24.744  26.567  1.00  0.00     0.029 A 
ATOM     42  N   UNL A   1      43.426  26.717  27.603  1.00  0.00    -0.354 N 
ATOM     43  C   UNL A   1      39.951  28.460  29.518  1.00  0.00     0.074 A 
ATOM     44  C   UNL A   1      38.864  27.506  29.571  1.00  0.00     0.031 C 
ATOM     45  C   UNL A   1      44.574  25.161  26.482  1.00  0.00     0.029 A 
ATOM     46  C   UNL A   1      44.668  26.499  27.048  1.00  0.00     0.049 A 
ATOM     47  H   UNL A   1      43.210  27.506  28.149  1.00  0.00     0.167 HD
ATOM     48  C   UNL A   1      39.922  29.698  30.069  1.00  0.00     0.034 A 
ATOM     49  C   UNL A   1      45.743  27.305  26.928  1.00  0.00     0.034 A 
ATOM     50  C   UNL A   1      41.036  30.615  30.039  1.00  0.00     0.049 A 
ATOM     51  C   UNL A   1      45.650  28.706  27.476  1.00  0.00     0.074 A 
ATOM     52  C   UNL A   1      41.124  31.881  30.596  1.00  0.00     0.029 A 
ATOM     53  N   UNL A   1      42.255  30.372  29.421  1.00  0.00    -0.354 N 
ATOM     54  N   UNL A   1      44.656  29.277  28.114  1.00  0.00    -0.248 NA
ATOM     55  C   UNL A   1      46.815  29.574  27.272  1.00  0.00     0.031 C 
ATOM     56  C   UNL A   1      42.360  32.431  30.246  1.00  0.00     0.029 A 
ATOM     57  C   UNL A   1      43.082  31.478  29.545  1.00  0.00     0.049 A 
ATOM     58  H   UNL A   1      42.498  29.536  28.961  1.00  0.00     0.167 HD
ATOM     59  C   UNL A   1      45.088  30.567  28.406  1.00  0.00     0.074 A 
ATOM     60  C   UNL A   1      46.441  30.676  27.902  1.00  0.00     0.031 C 
ATOM     61  C   UNL A   1      44.425  31.575  29.028  1.00  0.00     0.034 A 
BRANCH  48  62
ATOM     62  C   UNL A   1      38.629  30.172  30.692  1.00  0.00     0.023 A 
ATOM     63  C   UNL A   1      37.665  30.898  29.975  1.00  0.00     0.031 A 
ATOM     64  C   UNL A   1      38.350  29.855  32.036  1.00  0.00     0.131 A 
ATOM     65  C   UNL A   1      36.485  31.316  30.615  1.00  0.00     0.055 A 
ATOM     66  C   UNL A   1      37.146  30.212  32.645  1.00  0.00     0.041 A 
ATOM     67  F   UNL A   1      39.244  29.181  32.777  1.00  0.00    -0.206 F 
ATOM     68  C   UNL A   1      36.208  30.954  31.936  1.00  0.00     0.022 A 
BRANCH  65  69
ATOM     69  S   UNL A   1      35.355  32.422  29.728  1.00  0.00     0.124 S 
ATOM     70  O   UNL A   1      34.959  31.591  28.593  1.00  0.00    -0.237 OA
ATOM     71  O   UNL A   1      34.320  32.680  30.722  1.00  0.00    -0.237 OA
ATOM     72  O   UNL A   1      36.192  33.570  29.388  1.00  0.00    -0.744 OA
ENDBRANCH  65  69
ENDBRANCH  48  62
BRANCH  49  73
ATOM     73  C   UNL A   1      46.955  26.860  26.177  1.00  0.00     0.023 A 
ATOM     74  C   UNL A   1      48.012  26.206  26.829  1.00  0.00     0.031 A 
ATOM     75  C   UNL A   1      47.113  27.152  24.808  1.00  0.00     0.131 A 
ATOM     76  C   UNL A   1      49.197  25.922  26.133  1.00  0.00     0.055 A 
ATOM     77  C   UNL A   1      48.261  26.795  24.101  1.00  0.00     0.041 A 
ATOM     78  F   UNL A   1      46.144  27.789  24.131  1.00  0.00    -0.206 F 
ATOM     79  C   UNL A   1      49.321  26.193  24.768  1.00  0.00     0.022 A 
BRANCH  76  80
ATOM     80  S   UNL A   1      50.628  25.319  27.070  1.00  0.00     0.124 S 
ATOM     81  O   UNL A   1      51.539  24.929  26.000  1.00  0.00    -0.237 OA
ATOM     82  O   UNL A   1      51.006  26.502  27.836  1.00  0.00    -0.237 OA
ATOM     83  O   UNL A   1      50.079  24.217  27.856  1.00  0.00    -0.744 OA
ENDBRANCH  76  80
ENDBRANCH  49  73
BRANCH  61  84
ATOM     84  C   UNL A   1      45.185  32.862  29.232  1.00  0.00     0.023 A 
ATOM     85  C   UNL A   1      45.125  33.909  28.295  1.00  0.00     0.031 A 
ATOM     86  C   UNL A   1      45.999  33.032  30.365  1.00  0.00     0.131 A 
ATOM     87  C   UNL A   1      45.916  35.052  28.476  1.00  0.00     0.055 A 
ATOM     88  C   UNL A   1      46.729  34.202  30.575  1.00  0.00     0.041 A 
ATOM     89  F   UNL A   1      46.098  32.062  31.288  1.00  0.00    -0.206 F 
ATOM     90  C   UNL A   1      46.702  35.214  29.620  1.00  0.00     0.022 A 
BRANCH  87  91
ATOM     91  S   UNL A   1      45.983  36.281  27.145  1.00  0.00     0.124 S 
ATOM     92  O   UNL A   1      45.984  35.437  25.954  1.00  0.00    -0.237 OA
ATOM     93  O   UNL A   1      44.769  37.058  27.372  1.00  0.00    -0.237 OA
ATOM     94  O   UNL A   1      47.233  36.996  27.400  1.00  0.00    -0.744 OA
ENDBRANCH  87  91
ENDBRANCH  61  84
ENDBRANCH  35  36
ENDBRANCH  28  30
ENDBRANCH  27  28
ENDBRANCH  26  27
ENDBRANCH   1  26
TORSDOF 17
ENDMDL
MODEL 3
REMARK VINA RESULT:     -11.8      1.106      1.786
REMARK SMILES [NH3+][C@H]1C=C[C@H](C(=O)N2CCCc3c(C(=O)OCCOC(=O)c4ccc(-c5c6nc(c(-c7cc(S(=O)(=O)[O-])ccc7F)c7ccc([nH]7)c(-c7cc(S(=O)(=O)[O-])ccc7F)c7nc(c(-c8cc(S(=O)(=O)[O-])ccc8F)c8ccc5[nH]8)C=C7)C=C6)cc4)cccc32)C1
REMARK SMILES IDX 17 1 16 2 14 3 15 4 13 5 8 6 9 7 88 8 10 9 12 10 87 11 11 12
REMARK SMILES IDX 86 13 85 14 6 15 7 16 5 17 2 18 3 19 89 20 4 21 1 22 18 26
REMARK SMILES IDX 19 27 20 28 21 29 22 30 23 31 84 32 24 33 83 34 25 35 26 36
REMARK SMILES IDX 27 37 77 38 28 39 82 40 76 41 78 42 29 43 81 44 75 45 74 46
REMARK SMILES IDX 30 48 62 49 42 50 61 51 43 52 46 53 60 54 79 55 44 56 45 57
REMARK SMILES IDX 59 59 80 60 47 61 31 62 32 63 40 64 33 65 39 66 41 67 38 68
REMARK SMILES IDX 34 69 35 70 36 71 37 72 63 73 64 74 72 75 65 76 71 77 73 78
REMARK SMILES IDX 70 79 66 80 67 81 68 82 69 83 48 84 49 85 57 86 50 87 56 88
REMARK SMILES IDX 58 89 55 90 51 91 52 92 53 93 54 94
REMARK H PARENT 1 23 1 24 1 25 78 47 46 58
REMARK Flexibility Score: inf
ROOT
ATOM      1  C   UNL A   1      31.449  29.308  23.858  1.00  0.00     0.275 C 
ENDROOT
BRANCH   1   2
ATOM      2  O   UNL A   1      31.749  27.925  23.581  1.00  0.00    -0.458 OA
BRANCH   2   3
ATOM      3  C   UNL A   1      32.883  27.660  22.890  1.00  0.00     0.338 C 
ATOM      4  O   UNL A   1      33.701  28.474  22.506  1.00  0.00    -0.246 OA
BRANCH   3   5
ATOM      5  C   UNL A   1      33.077  26.190  22.748  1.00  0.00     0.065 A 
ATOM      6  N   UNL A   1      33.700  23.067  24.671  1.00  0.00    -0.312 N 
ATOM      7  C   UNL A   1      33.574  23.631  26.005  1.00  0.00     0.126 C 
ATOM      8  C   UNL A   1      33.568  23.962  23.568  1.00  0.00     0.048 A 
ATOM      9  C   UNL A   1      34.405  24.887  26.130  1.00  0.00     0.027 C 
ATOM     10  C   UNL A   1      33.526  25.357  23.793  1.00  0.00    -0.010 A 
ATOM     11  C   UNL A   1      33.334  23.447  22.281  1.00  0.00     0.027 A 
ATOM     12  C   UNL A   1      33.894  25.928  25.143  1.00  0.00     0.040 C 
ATOM     13  C   UNL A   1      32.898  24.276  21.258  1.00  0.00     0.003 A 
ATOM     14  C   UNL A   1      32.706  25.627  21.516  1.00  0.00     0.016 A 
BRANCH   6  15
ATOM     15  C   UNL A   1      33.920  21.714  24.472  1.00  0.00     0.234 C 
ATOM     16  O   UNL A   1      35.050  21.259  24.269  1.00  0.00    -0.274 OA
BRANCH  15  17
ATOM     17  C   UNL A   1      32.706  20.774  24.462  1.00  0.00     0.108 C 
ATOM     18  C   UNL A   1      32.930  18.331  24.433  1.00  0.00     0.205 C 
ATOM     19  C   UNL A   1      32.492  18.866  23.112  1.00  0.00     0.033 C 
ATOM     20  C   UNL A   1      32.772  19.537  25.372  1.00  0.00     0.087 C 
ATOM     21  C   UNL A   1      32.393  20.201  23.117  1.00  0.00    -0.012 C 
BRANCH  18  22
ATOM     22  N   UNL A   1      32.152  17.178  24.844  1.00  0.00    -0.352 N 
ATOM     23  H   UNL A   1      31.286  17.143  24.306  1.00  0.00     0.345 HD
ATOM     24  H   UNL A   1      31.931  17.254  25.837  1.00  0.00     0.345 HD
ATOM     25  H   UNL A   1      32.690  16.328  24.679  1.00  0.00     0.345 HD
ENDBRANCH  18  22
ENDBRANCH  15  17
ENDBRANCH   6  15
ENDBRANCH   3   5
ENDBRANCH   2   3
ENDBRANCH   1   2
BRANCH   1  26
ATOM     26  C   UNL A   1      31.575  29.574  25.356  1.00  0.00     0.275 C 
BRANCH  26  27
ATOM     27  O   UNL A   1      32.922  29.978  25.658  1.00  0.00    -0.458 OA
BRANCH  27  28
ATOM     28  C   UNL A   1      33.041  30.914  26.627  1.00  0.00     0.338 C 
ATOM     29  O   UNL A   1      32.193  31.704  27.008  1.00  0.00    -0.246 OA
BRANCH  28  30
ATOM     30  C   UNL A   1      34.356  30.776  27.266  1.00  0.00     0.060 A 
ATOM     31  C   UNL A   1      34.767  29.499  27.625  1.00  0.00     0.016 A 
ATOM     32  C   UNL A   1      35.120  31.880  27.625  1.00  0.00     0.016 A 
ATOM     33  C   UNL A   1      35.877  29.317  28.442  1.00  0.00     0.010 A 
ATOM     34  C   UNL A   1      36.319  31.683  28.325  1.00  0.00     0.010 A 
ATOM     35  C   UNL A   1      36.704  30.400  28.764  1.00  0.00    -0.014 A 
BRANCH  35  36
ATOM     36  C   UNL A   1      37.972  30.182  29.524  1.00  0.00     0.031 A 
ATOM     37  C   UNL A   1      39.042  29.271  28.978  1.00  0.00     0.074 A 
ATOM     38  C   UNL A   1      38.161  30.794  30.715  1.00  0.00     0.049 A 
ATOM     39  N   UNL A   1      40.091  28.772  29.583  1.00  0.00    -0.248 NA
ATOM     40  C   UNL A   1      38.909  28.854  27.574  1.00  0.00     0.031 C 
ATOM     41  C   UNL A   1      37.240  31.751  31.336  1.00  0.00     0.029 A 
ATOM     42  N   UNL A   1      39.188  30.703  31.625  1.00  0.00    -0.354 N 
ATOM     43  C   UNL A   1      40.708  27.937  28.655  1.00  0.00     0.074 A 
ATOM     44  C   UNL A   1      39.915  27.999  27.446  1.00  0.00     0.031 C 
ATOM     45  C   UNL A   1      37.756  32.182  32.495  1.00  0.00     0.029 A 
ATOM     46  C   UNL A   1      38.974  31.435  32.773  1.00  0.00     0.049 A 
ATOM     47  H   UNL A   1      39.999  30.166  31.472  1.00  0.00     0.167 HD
ATOM     48  C   UNL A   1      41.825  27.185  28.811  1.00  0.00     0.034 A 
ATOM     49  C   UNL A   1      39.628  31.453  33.952  1.00  0.00     0.034 A 
ATOM     50  C   UNL A   1      42.622  27.174  30.014  1.00  0.00     0.049 A 
ATOM     51  C   UNL A   1      40.816  30.542  34.124  1.00  0.00     0.074 A 
ATOM     52  C   UNL A   1      43.792  26.474  30.265  1.00  0.00     0.029 A 
ATOM     53  N   UNL A   1      42.338  27.890  31.169  1.00  0.00    -0.354 N 
ATOM     54  N   UNL A   1      41.362  29.726  33.253  1.00  0.00    -0.248 NA
ATOM     55  C   UNL A   1      41.464  30.542  35.441  1.00  0.00     0.031 C 
ATOM     56  C   UNL A   1      44.166  26.703  31.592  1.00  0.00     0.029 A 
ATOM     57  C   UNL A   1      43.283  27.615  32.145  1.00  0.00     0.049 A 
ATOM     58  H   UNL A   1      41.576  28.504  31.278  1.00  0.00     0.167 HD
ATOM     59  C   UNL A   1      42.433  29.132  33.915  1.00  0.00     0.074 A 
ATOM     60  C   UNL A   1      42.472  29.707  35.244  1.00  0.00     0.031 C 
ATOM     61  C   UNL A   1      43.302  28.190  33.469  1.00  0.00     0.034 A 
BRANCH  48  62
ATOM     62  C   UNL A   1      42.223  26.256  27.687  1.00  0.00     0.023 A 
ATOM     63  C   UNL A   1      41.763  24.932  27.601  1.00  0.00     0.031 A 
ATOM     64  C   UNL A   1      43.063  26.729  26.660  1.00  0.00     0.131 A 
ATOM     65  C   UNL A   1      42.175  24.117  26.533  1.00  0.00     0.055 A 
ATOM     66  C   UNL A   1      43.412  25.936  25.566  1.00  0.00     0.041 A 
ATOM     67  F   UNL A   1      43.551  27.979  26.701  1.00  0.00    -0.206 F 
ATOM     68  C   UNL A   1      42.974  24.618  25.502  1.00  0.00     0.022 A 
BRANCH  65  69
ATOM     69  S   UNL A   1      41.732  22.358  26.555  1.00  0.00     0.124 S 
ATOM     70  O   UNL A   1      42.408  21.869  25.355  1.00  0.00    -0.237 OA
ATOM     71  O   UNL A   1      42.285  21.908  27.827  1.00  0.00    -0.237 OA
ATOM     72  O   UNL A   1      40.273  22.370  26.479  1.00  0.00    -0.744 OA
ENDBRANCH  65  69
ENDBRANCH  48  62
BRANCH  49  73
ATOM     73  C   UNL A   1      39.125  32.272  35.096  1.00  0.00     0.023 A 
ATOM     74  C   UNL A   1      39.580  33.583  35.303  1.00  0.00     0.031 A 
ATOM     75  C   UNL A   1      38.238  31.730  36.047  1.00  0.00     0.131 A 
ATOM     76  C   UNL A   1      39.200  34.283  36.460  1.00  0.00     0.055 A 
ATOM     77  C   UNL A   1      37.800  32.458  37.153  1.00  0.00     0.041 A 
ATOM     78  F   UNL A   1      37.778  30.476  35.912  1.00  0.00    -0.206 F 
ATOM     79  C   UNL A   1      38.297  33.737  37.375  1.00  0.00     0.022 A 
BRANCH  76  80
ATOM     80  S   UNL A   1      40.013  35.863  36.822  1.00  0.00     0.124 S 
ATOM     81  O   UNL A   1      41.391  35.441  37.047  1.00  0.00    -0.237 OA
ATOM     82  O   UNL A   1      39.765  36.617  35.598  1.00  0.00    -0.237 OA
ATOM     83  O   UNL A   1      39.305  36.346  38.005  1.00  0.00    -0.744 OA
ENDBRANCH  76  80
ENDBRANCH  49  73
BRANCH  61  84
ATOM     84  C   UNL A   1      44.392  27.767  34.422  1.00  0.00     0.023 A 
ATOM     85  C   UNL A   1      44.237  26.657  35.271  1.00  0.00     0.031 A 
ATOM     86  C   UNL A   1      45.589  28.499  34.499  1.00  0.00     0.131 A 
ATOM     87  C   UNL A   1      45.236  26.351  36.206  1.00  0.00     0.055 A 
ATOM     88  C   UNL A   1      46.609  28.147  35.382  1.00  0.00     0.041 A 
ATOM     89  F   UNL A   1      45.786  29.572  33.716  1.00  0.00    -0.206 F 
ATOM     90  C   UNL A   1      46.430  27.076  36.253  1.00  0.00     0.022 A 
BRANCH  87  91
ATOM     91  S   UNL A   1      44.911  25.054  37.431  1.00  0.00     0.124 S 
ATOM     92  O   UNL A   1      43.494  25.256  37.716  1.00  0.00    -0.237 OA
ATOM     93  O   UNL A   1      45.245  23.838  36.697  1.00  0.00    -0.237 OA
ATOM     94  O   UNL A   1      45.819  25.384  38.529  1.00  0.00    -0.744 OA
ENDBRANCH  87  91
ENDBRANCH  61  84
ENDBRANCH  35  36
ENDBRANCH  28  30
ENDBRANCH  27  28
ENDBRANCH  26  27
ENDBRANCH   1  26
TORSDOF 17
ENDMDL
