MODEL 1
REMARK VINA RESULT:     -14.2      0.000      0.000
REMARK SMILES O=C(OCCOC(=O)c1ccc(-c2c3nc(c(-c4cc(S(=O)(=O)[O-])ccc4F)c4ccc([nH]4)c(-c4cc(S(=O)(=O)[O-])ccc4F)c4nc(c(-c5cc(S(=O)(=O)[O-])ccc5F)c5ccc2[nH]5)C=C4)C=C3)cc1)C1=Cc2cc(C(F)(F)F)ccc2O[C@@H]1C(F)(F)F
REMARK SMILES IDX 5 1 4 2 3 3 2 4 1 5 72 6 73 7 85 8 74 9 84 10 75 11 83 12
REMARK SMILES IDX 76 13 82 14 81 15 86 16 87 17 88 18 89 19 77 20 78 21 79 22
REMARK SMILES IDX 80 23 6 24 7 25 8 26 9 27 10 28 71 29 11 30 70 31 12 32
REMARK SMILES IDX 13 33 14 34 64 35 15 36 69 37 63 38 65 39 16 40 68 41 62 42
REMARK SMILES IDX 61 43 17 45 49 46 29 47 48 48 30 49 33 50 47 51 66 52 31 53
REMARK SMILES IDX 32 54 46 56 67 57 34 58 18 59 19 60 27 61 20 62 26 63 28 64
REMARK SMILES IDX 25 65 21 66 22 67 23 68 24 69 50 70 51 71 59 72 52 73 58 74
REMARK SMILES IDX 60 75 57 76 53 77 54 78 55 79 56 80 35 81 36 82 44 83 37 84
REMARK SMILES IDX 43 85 45 86 42 87 38 88 39 89 40 90 41 91
REMARK H PARENT 65 44 33 55
REMARK Flexibility Score: inf
ROOT
ATOM      1  C   UNL A   1      38.088  19.483  24.953  1.00  0.00     0.275 C 
ENDROOT
BRANCH   1   2
ATOM      2  C   UNL A   1      36.763  21.125  25.452  1.00  0.00     0.275 C 
BRANCH   2   3
ATOM      3  O   UNL A   1      35.355  21.388  24.856  1.00  0.00    -0.459 OA
BRANCH   3   4
ATOM      4  C   UNL A   1      35.340  22.408  23.988  1.00  0.00     0.338 C 
ATOM      5  O   UNL A   1      36.238  22.904  23.361  1.00  0.00    -0.246 OA
BRANCH   4   6
ATOM      6  C   UNL A   1      34.029  22.881  24.363  1.00  0.00     0.087 C 
ATOM      7  C   UNL A   1      34.071  23.952  25.337  1.00  0.00     0.027 C 
ATOM      8  C   UNL A   1      33.341  23.004  22.568  1.00  0.00     0.316 C 
ATOM      9  C   UNL A   1      33.692  25.640  24.935  1.00  0.00     0.018 A 
ATOM     10  O   UNL A   1      33.007  24.856  22.084  1.00  0.00    -0.475 OA
ATOM     11  C   UNL A   1      33.926  26.562  25.906  1.00  0.00     0.025 A 
ATOM     12  C   UNL A   1      33.272  26.163  23.340  1.00  0.00     0.128 A 
ATOM     13  C   UNL A   1      33.830  27.907  25.504  1.00  0.00     0.056 A 
ATOM     14  C   UNL A   1      33.193  27.486  23.007  1.00  0.00     0.048 A 
ATOM     15  C   UNL A   1      33.489  28.333  24.128  1.00  0.00     0.017 A 
BRANCH   8  16
ATOM     16  C   UNL A   1      32.438  21.686  22.759  1.00  0.00     0.430 C 
ATOM     17  F   UNL A   1      31.356  21.943  23.503  1.00  0.00    -0.167 F 
ATOM     18  F   UNL A   1      31.899  21.325  21.549  1.00  0.00    -0.167 F 
ATOM     19  F   UNL A   1      33.039  20.546  23.132  1.00  0.00    -0.167 F 
ENDBRANCH   8  16
BRANCH  13  20
ATOM     20  C   UNL A   1      34.100  28.906  26.623  1.00  0.00     0.416 C 
ATOM     21  F   UNL A   1      33.822  30.184  26.241  1.00  0.00    -0.166 F 
ATOM     22  F   UNL A   1      33.312  28.678  27.716  1.00  0.00    -0.166 F 
ATOM     23  F   UNL A   1      35.378  28.909  27.080  1.00  0.00    -0.166 F 
ENDBRANCH  13  20
ENDBRANCH   4   6
ENDBRANCH   3   4
ENDBRANCH   2   3
ENDBRANCH   1   2
BRANCH   1  24
ATOM     24  O   UNL A   1      39.564  19.101  25.820  1.00  0.00    -0.458 OA
BRANCH  24  25
ATOM     25  C   UNL A   1      40.815  19.590  26.146  1.00  0.00     0.338 C 
ATOM     26  O   UNL A   1      41.911  19.242  25.740  1.00  0.00    -0.246 OA
BRANCH  25  27
ATOM     27  C   UNL A   1      40.591  20.944  26.753  1.00  0.00     0.060 A 
ATOM     28  C   UNL A   1      41.267  21.260  27.947  1.00  0.00     0.016 A 
ATOM     29  C   UNL A   1      40.091  21.973  25.956  1.00  0.00     0.016 A 
ATOM     30  C   UNL A   1      41.660  22.591  28.198  1.00  0.00     0.010 A 
ATOM     31  C   UNL A   1      40.482  23.293  26.213  1.00  0.00     0.010 A 
ATOM     32  C   UNL A   1      41.339  23.606  27.285  1.00  0.00    -0.014 A 
BRANCH  32  33
ATOM     33  C   UNL A   1      41.656  25.036  27.566  1.00  0.00     0.031 A 
ATOM     34  C   UNL A   1      43.027  25.473  27.142  1.00  0.00     0.074 A 
ATOM     35  C   UNL A   1      40.839  25.895  28.217  1.00  0.00     0.049 A 
ATOM     36  N   UNL A   1      43.644  26.606  27.331  1.00  0.00    -0.248 NA
ATOM     37  C   UNL A   1      43.822  24.455  26.434  1.00  0.00     0.031 C 
ATOM     38  C   UNL A   1      39.484  25.609  28.691  1.00  0.00     0.029 A 
ATOM     39  N   UNL A   1      41.043  27.204  28.612  1.00  0.00    -0.354 N 
ATOM     40  C   UNL A   1      44.897  26.436  26.757  1.00  0.00     0.074 A 
ATOM     41  C   UNL A   1      44.980  25.070  26.298  1.00  0.00     0.031 C 
ATOM     42  C   UNL A   1      38.987  26.698  29.312  1.00  0.00     0.029 A 
ATOM     43  C   UNL A   1      39.987  27.766  29.306  1.00  0.00     0.049 A 
ATOM     44  H   UNL A   1      41.873  27.696  28.416  1.00  0.00     0.167 HD
ATOM     45  C   UNL A   1      45.885  27.344  26.591  1.00  0.00     0.034 A 
ATOM     46  C   UNL A   1      39.858  28.993  29.869  1.00  0.00     0.034 A 
ATOM     47  C   UNL A   1      45.816  28.687  27.089  1.00  0.00     0.049 A 
ATOM     48  C   UNL A   1      41.023  29.966  29.758  1.00  0.00     0.074 A 
ATOM     49  C   UNL A   1      46.765  29.686  27.005  1.00  0.00     0.029 A 
ATOM     50  N   UNL A   1      44.736  29.212  27.788  1.00  0.00    -0.354 N 
ATOM     51  N   UNL A   1      42.184  29.808  29.161  1.00  0.00    -0.248 NA
ATOM     52  C   UNL A   1      40.856  31.285  30.389  1.00  0.00     0.031 C 
ATOM     53  C   UNL A   1      46.287  30.795  27.709  1.00  0.00     0.029 A 
ATOM     54  C   UNL A   1      45.006  30.517  28.161  1.00  0.00     0.049 A 
ATOM     55  H   UNL A   1      43.904  28.727  27.989  1.00  0.00     0.167 HD
ATOM     56  C   UNL A   1      42.857  31.022  29.303  1.00  0.00     0.074 A 
ATOM     57  C   UNL A   1      41.971  31.905  30.030  1.00  0.00     0.031 C 
ATOM     58  C   UNL A   1      44.095  31.382  28.871  1.00  0.00     0.034 A 
BRANCH  45  59
ATOM     59  C   UNL A   1      47.117  26.858  25.875  1.00  0.00     0.023 A 
ATOM     60  C   UNL A   1      48.125  26.157  26.564  1.00  0.00     0.031 A 
ATOM     61  C   UNL A   1      47.348  27.206  24.534  1.00  0.00     0.131 A 
ATOM     62  C   UNL A   1      49.358  25.924  25.944  1.00  0.00     0.055 A 
ATOM     63  C   UNL A   1      48.543  26.879  23.892  1.00  0.00     0.041 A 
ATOM     64  F   UNL A   1      46.436  27.906  23.842  1.00  0.00    -0.206 F 
ATOM     65  C   UNL A   1      49.565  26.253  24.604  1.00  0.00     0.022 A 
BRANCH  62  66
ATOM     66  S   UNL A   1      50.744  25.358  26.969  1.00  0.00     0.124 S 
ATOM     67  O   UNL A   1      51.172  26.607  27.597  1.00  0.00    -0.237 OA
ATOM     68  O   UNL A   1      50.111  24.385  27.852  1.00  0.00    -0.237 OA
ATOM     69  O   UNL A   1      51.682  24.802  25.998  1.00  0.00    -0.744 OA
ENDBRANCH  62  66
ENDBRANCH  45  59
BRANCH  46  70
ATOM     70  C   UNL A   1      38.621  29.411  30.620  1.00  0.00     0.023 A 
ATOM     71  C   UNL A   1      37.665  30.268  30.037  1.00  0.00     0.031 A 
ATOM     72  C   UNL A   1      38.447  29.082  31.975  1.00  0.00     0.131 A 
ATOM     73  C   UNL A   1      36.629  30.817  30.819  1.00  0.00     0.055 A 
ATOM     74  C   UNL A   1      37.380  29.581  32.733  1.00  0.00     0.041 A 
ATOM     75  F   UNL A   1      39.329  28.285  32.600  1.00  0.00    -0.206 F 
ATOM     76  C   UNL A   1      36.474  30.469  32.161  1.00  0.00     0.022 A 
BRANCH  73  77
ATOM     77  S   UNL A   1      35.562  32.100  30.094  1.00  0.00     0.124 S 
ATOM     78  O   UNL A   1      36.508  33.190  29.887  1.00  0.00    -0.237 OA
ATOM     79  O   UNL A   1      35.068  31.440  28.890  1.00  0.00    -0.237 OA
ATOM     80  O   UNL A   1      34.557  32.333  31.130  1.00  0.00    -0.744 OA
ENDBRANCH  73  77
ENDBRANCH  46  70
BRANCH  58  81
ATOM     81  C   UNL A   1      44.533  32.807  29.110  1.00  0.00     0.023 A 
ATOM     82  C   UNL A   1      44.222  33.845  28.214  1.00  0.00     0.031 A 
ATOM     83  C   UNL A   1      45.252  33.133  30.275  1.00  0.00     0.131 A 
ATOM     84  C   UNL A   1      44.670  35.148  28.474  1.00  0.00     0.055 A 
ATOM     85  C   UNL A   1      45.635  34.443  30.562  1.00  0.00     0.041 A 
ATOM     86  F   UNL A   1      45.577  32.182  31.166  1.00  0.00    -0.206 F 
ATOM     87  C   UNL A   1      45.355  35.457  29.652  1.00  0.00     0.022 A 
BRANCH  84  88
ATOM     88  S   UNL A   1      44.424  36.421  27.207  1.00  0.00     0.124 S 
ATOM     89  O   UNL A   1      44.217  37.619  28.015  1.00  0.00    -0.237 OA
ATOM     90  O   UNL A   1      45.676  36.366  26.459  1.00  0.00    -0.237 OA
ATOM     91  O   UNL A   1      43.246  35.956  26.477  1.00  0.00    -0.744 OA
ENDBRANCH  84  88
ENDBRANCH  58  81
ENDBRANCH  32  33
ENDBRANCH  25  27
ENDBRANCH  24  25
ENDBRANCH   1  24
TORSDOF 16
ENDMDL
MODEL 2
REMARK VINA RESULT:     -14.1      4.934     10.490
REMARK SMILES O=C(OCCOC(=O)c1ccc(-c2c3nc(c(-c4cc(S(=O)(=O)[O-])ccc4F)c4ccc([nH]4)c(-c4cc(S(=O)(=O)[O-])ccc4F)c4nc(c(-c5cc(S(=O)(=O)[O-])ccc5F)c5ccc2[nH]5)C=C4)C=C3)cc1)C1=Cc2cc(C(F)(F)F)ccc2O[C@@H]1C(F)(F)F
REMARK SMILES IDX 5 1 4 2 3 3 2 4 1 5 72 6 73 7 85 8 74 9 84 10 75 11 83 12
REMARK SMILES IDX 76 13 82 14 81 15 86 16 87 17 88 18 89 19 77 20 78 21 79 22
REMARK SMILES IDX 80 23 6 24 7 25 8 26 9 27 10 28 71 29 11 30 70 31 12 32
REMARK SMILES IDX 13 33 14 34 64 35 15 36 69 37 63 38 65 39 16 40 68 41 62 42
REMARK SMILES IDX 61 43 17 45 49 46 29 47 48 48 30 49 33 50 47 51 66 52 31 53
REMARK SMILES IDX 32 54 46 56 67 57 34 58 18 59 19 60 27 61 20 62 26 63 28 64
REMARK SMILES IDX 25 65 21 66 22 67 23 68 24 69 50 70 51 71 59 72 52 73 58 74
REMARK SMILES IDX 60 75 57 76 53 77 54 78 55 79 56 80 35 81 36 82 44 83 37 84
REMARK SMILES IDX 43 85 45 86 42 87 38 88 39 89 40 90 41 91
REMARK H PARENT 65 44 33 55
REMARK Flexibility Score: inf
ROOT
ATOM      1  C   UNL A   1      31.359  31.988  26.622  1.00  0.00     0.275 C 
ENDROOT
BRANCH   1   2
ATOM      2  C   UNL A   1      32.403  30.268  25.815  1.00  0.00     0.275 C 
BRANCH   2   3
ATOM      3  O   UNL A   1      31.755  29.025  25.148  1.00  0.00    -0.459 OA
BRANCH   3   4
ATOM      4  C   UNL A   1      31.575  28.011  26.004  1.00  0.00     0.338 C 
ATOM      5  O   UNL A   1      31.582  28.003  27.207  1.00  0.00    -0.246 OA
BRANCH   4   6
ATOM      6  C   UNL A   1      31.742  26.973  25.016  1.00  0.00     0.087 C 
ATOM      7  C   UNL A   1      33.121  26.558  24.859  1.00  0.00     0.027 C 
ATOM      8  C   UNL A   1      30.288  25.872  25.636  1.00  0.00     0.316 C 
ATOM      9  C   UNL A   1      33.734  24.996  25.445  1.00  0.00     0.018 A 
ATOM     10  O   UNL A   1      30.953  24.197  26.363  1.00  0.00    -0.475 OA
ATOM     11  C   UNL A   1      35.078  24.807  25.373  1.00  0.00     0.025 A 
ATOM     12  C   UNL A   1      32.750  23.847  26.285  1.00  0.00     0.128 A 
ATOM     13  C   UNL A   1      35.568  23.667  26.036  1.00  0.00     0.056 A 
ATOM     14  C   UNL A   1      33.283  22.756  26.910  1.00  0.00     0.048 A 
ATOM     15  C   UNL A   1      34.710  22.706  26.766  1.00  0.00     0.017 A 
BRANCH   8  16
ATOM     16  C   UNL A   1      29.357  26.296  24.394  1.00  0.00     0.430 C 
ATOM     17  F   UNL A   1      29.428  25.395  23.406  1.00  0.00    -0.167 F 
ATOM     18  F   UNL A   1      28.039  26.234  24.771  1.00  0.00    -0.167 F 
ATOM     19  F   UNL A   1      29.441  27.551  23.929  1.00  0.00    -0.167 F 
ENDBRANCH   8  16
BRANCH  13  20
ATOM     20  C   UNL A   1      37.078  23.494  25.930  1.00  0.00     0.416 C 
ATOM     21  F   UNL A   1      37.447  22.185  26.022  1.00  0.00    -0.166 F 
ATOM     22  F   UNL A   1      37.560  23.919  24.723  1.00  0.00    -0.166 F 
ATOM     23  F   UNL A   1      37.790  24.163  26.871  1.00  0.00    -0.166 F 
ENDBRANCH  13  20
ENDBRANCH   4   6
ENDBRANCH   3   4
ENDBRANCH   2   3
ENDBRANCH   1   2
BRANCH   1  24
ATOM     24  O   UNL A   1      32.143  33.461  27.160  1.00  0.00    -0.458 OA
BRANCH  24  25
ATOM     25  C   UNL A   1      32.996  33.975  28.119  1.00  0.00     0.338 C 
ATOM     26  O   UNL A   1      32.749  34.710  29.060  1.00  0.00    -0.246 OA
BRANCH  25  27
ATOM     27  C   UNL A   1      34.226  33.115  28.091  1.00  0.00     0.060 A 
ATOM     28  C   UNL A   1      35.483  33.748  28.127  1.00  0.00     0.016 A 
ATOM     29  C   UNL A   1      34.125  31.771  28.448  1.00  0.00     0.016 A 
ATOM     30  C   UNL A   1      36.571  33.111  28.760  1.00  0.00     0.010 A 
ATOM     31  C   UNL A   1      35.209  31.143  29.072  1.00  0.00     0.010 A 
ATOM     32  C   UNL A   1      36.414  31.831  29.313  1.00  0.00    -0.014 A 
BRANCH  32  33
ATOM     33  C   UNL A   1      37.565  31.091  29.904  1.00  0.00     0.031 A 
ATOM     34  C   UNL A   1      37.906  31.477  31.314  1.00  0.00     0.074 A 
ATOM     35  C   UNL A   1      38.327  30.189  29.243  1.00  0.00     0.049 A 
ATOM     36  N   UNL A   1      38.900  31.104  32.071  1.00  0.00    -0.248 NA
ATOM     37  C   UNL A   1      37.001  32.460  31.933  1.00  0.00     0.031 C 
ATOM     38  C   UNL A   1      38.118  29.722  27.872  1.00  0.00     0.029 A 
ATOM     39  N   UNL A   1      39.459  29.506  29.643  1.00  0.00    -0.354 N 
ATOM     40  C   UNL A   1      38.732  31.803  33.259  1.00  0.00     0.074 A 
ATOM     41  C   UNL A   1      37.601  32.684  33.086  1.00  0.00     0.031 C 
ATOM     42  C   UNL A   1      39.086  28.841  27.547  1.00  0.00     0.029 A 
ATOM     43  C   UNL A   1      40.006  28.685  28.673  1.00  0.00     0.049 A 
ATOM     44  H   UNL A   1      39.846  29.595  30.544  1.00  0.00     0.167 HD
ATOM     45  C   UNL A   1      39.434  31.701  34.410  1.00  0.00     0.034 A 
ATOM     46  C   UNL A   1      41.119  27.910  28.702  1.00  0.00     0.034 A 
ATOM     47  C   UNL A   1      40.586  30.860  34.562  1.00  0.00     0.049 A 
ATOM     48  C   UNL A   1      41.953  27.889  29.975  1.00  0.00     0.074 A 
ATOM     49  C   UNL A   1      41.392  30.696  35.670  1.00  0.00     0.029 A 
ATOM     50  N   UNL A   1      41.107  30.053  33.558  1.00  0.00    -0.354 N 
ATOM     51  N   UNL A   1      41.749  28.516  31.112  1.00  0.00    -0.248 NA
ATOM     52  C   UNL A   1      43.161  27.048  29.970  1.00  0.00     0.031 C 
ATOM     53  C   UNL A   1      42.440  29.839  35.318  1.00  0.00     0.029 A 
ATOM     54  C   UNL A   1      42.240  29.404  34.017  1.00  0.00     0.049 A 
ATOM     55  H   UNL A   1      40.728  29.957  32.655  1.00  0.00     0.167 HD
ATOM     56  C   UNL A   1      42.772  28.103  31.968  1.00  0.00     0.074 A 
ATOM     57  C   UNL A   1      43.583  27.167  31.221  1.00  0.00     0.031 C 
ATOM     58  C   UNL A   1      43.022  28.460  33.255  1.00  0.00     0.034 A 
BRANCH  45  59
ATOM     59  C   UNL A   1      38.967  32.568  35.549  1.00  0.00     0.023 A 
ATOM     60  C   UNL A   1      39.407  33.900  35.672  1.00  0.00     0.031 A 
ATOM     61  C   UNL A   1      38.186  32.028  36.584  1.00  0.00     0.131 A 
ATOM     62  C   UNL A   1      39.155  34.609  36.852  1.00  0.00     0.055 A 
ATOM     63  C   UNL A   1      37.855  32.777  37.713  1.00  0.00     0.041 A 
ATOM     64  F   UNL A   1      37.772  30.753  36.535  1.00  0.00    -0.206 F 
ATOM     65  C   UNL A   1      38.358  34.068  37.862  1.00  0.00     0.022 A 
BRANCH  62  66
ATOM     66  S   UNL A   1      40.041  36.168  37.125  1.00  0.00     0.124 S 
ATOM     67  O   UNL A   1      39.325  36.714  38.276  1.00  0.00    -0.237 OA
ATOM     68  O   UNL A   1      41.406  35.720  37.376  1.00  0.00    -0.237 OA
ATOM     69  O   UNL A   1      39.843  36.897  35.874  1.00  0.00    -0.744 OA
ENDBRANCH  62  66
ENDBRANCH  45  59
BRANCH  46  70
ATOM     70  C   UNL A   1      41.571  27.101  27.515  1.00  0.00     0.023 A 
ATOM     71  C   UNL A   1      41.418  25.700  27.482  1.00  0.00     0.031 A 
ATOM     72  C   UNL A   1      42.292  27.692  26.463  1.00  0.00     0.131 A 
ATOM     73  C   UNL A   1      42.031  24.939  26.468  1.00  0.00     0.055 A 
ATOM     74  C   UNL A   1      42.849  26.937  25.423  1.00  0.00     0.041 A 
ATOM     75  F   UNL A   1      42.493  29.020  26.438  1.00  0.00    -0.206 F 
ATOM     76  C   UNL A   1      42.736  25.550  25.431  1.00  0.00     0.022 A 
BRANCH  73  77
ATOM     77  S   UNL A   1      42.012  23.124  26.592  1.00  0.00     0.124 S 
ATOM     78  O   UNL A   1      43.105  22.754  25.701  1.00  0.00    -0.237 OA
ATOM     79  O   UNL A   1      42.246  22.914  28.017  1.00  0.00    -0.237 OA
ATOM     80  O   UNL A   1      40.675  22.763  26.124  1.00  0.00    -0.744 OA
ENDBRANCH  73  77
ENDBRANCH  46  70
BRANCH  58  81
ATOM     81  C   UNL A   1      44.174  27.784  33.959  1.00  0.00     0.023 A 
ATOM     82  C   UNL A   1      44.019  26.571  34.651  1.00  0.00     0.031 A 
ATOM     83  C   UNL A   1      45.459  28.355  33.906  1.00  0.00     0.131 A 
ATOM     84  C   UNL A   1      45.119  25.995  35.304  1.00  0.00     0.055 A 
ATOM     85  C   UNL A   1      46.563  27.742  34.498  1.00  0.00     0.041 A 
ATOM     86  F   UNL A   1      45.666  29.514  33.258  1.00  0.00    -0.206 F 
ATOM     87  C   UNL A   1      46.393  26.561  35.213  1.00  0.00     0.022 A 
BRANCH  84  88
ATOM     88  S   UNL A   1      44.846  24.540  36.350  1.00  0.00     0.124 S 
ATOM     89  O   UNL A   1      46.187  23.973  36.440  1.00  0.00    -0.237 OA
ATOM     90  O   UNL A   1      44.320  25.130  37.577  1.00  0.00    -0.237 OA
ATOM     91  O   UNL A   1      43.887  23.743  35.586  1.00  0.00    -0.744 OA
ENDBRANCH  84  88
ENDBRANCH  58  81
ENDBRANCH  32  33
ENDBRANCH  25  27
ENDBRANCH  24  25
ENDBRANCH   1  24
TORSDOF 16
ENDMDL
MODEL 3
REMARK VINA RESULT:     -13.7      1.679      1.988
REMARK SMILES O=C(OCCOC(=O)c1ccc(-c2c3nc(c(-c4cc(S(=O)(=O)[O-])ccc4F)c4ccc([nH]4)c(-c4cc(S(=O)(=O)[O-])ccc4F)c4nc(c(-c5cc(S(=O)(=O)[O-])ccc5F)c5ccc2[nH]5)C=C4)C=C3)cc1)C1=Cc2cc(C(F)(F)F)ccc2O[C@@H]1C(F)(F)F
REMARK SMILES IDX 5 1 4 2 3 3 2 4 1 5 72 6 73 7 85 8 74 9 84 10 75 11 83 12
REMARK SMILES IDX 76 13 82 14 81 15 86 16 87 17 88 18 89 19 77 20 78 21 79 22
REMARK SMILES IDX 80 23 6 24 7 25 8 26 9 27 10 28 71 29 11 30 70 31 12 32
REMARK SMILES IDX 13 33 14 34 64 35 15 36 69 37 63 38 65 39 16 40 68 41 62 42
REMARK SMILES IDX 61 43 17 45 49 46 29 47 48 48 30 49 33 50 47 51 66 52 31 53
REMARK SMILES IDX 32 54 46 56 67 57 34 58 18 59 19 60 27 61 20 62 26 63 28 64
REMARK SMILES IDX 25 65 21 66 22 67 23 68 24 69 50 70 51 71 59 72 52 73 58 74
REMARK SMILES IDX 60 75 57 76 53 77 54 78 55 79 56 80 35 81 36 82 44 83 37 84
REMARK SMILES IDX 43 85 45 86 42 87 38 88 39 89 40 90 41 91
REMARK H PARENT 65 44 33 55
REMARK Flexibility Score: inf
ROOT
ATOM      1  C   UNL A   1      38.010  19.720  24.796  1.00  0.00     0.275 C 
ENDROOT
BRANCH   1   2
ATOM      2  C   UNL A   1      36.505  21.098  25.527  1.00  0.00     0.275 C 
BRANCH   2   3
ATOM      3  O   UNL A   1      36.250  22.541  25.017  1.00  0.00    -0.459 OA
BRANCH   3   4
ATOM      4  C   UNL A   1      35.235  22.614  24.147  1.00  0.00     0.338 C 
ATOM      5  O   UNL A   1      35.228  22.951  22.992  1.00  0.00    -0.246 OA
BRANCH   4   6
ATOM      6  C   UNL A   1      34.198  22.514  25.145  1.00  0.00     0.087 C 
ATOM      7  C   UNL A   1      34.033  23.732  25.913  1.00  0.00     0.027 C 
ATOM      8  C   UNL A   1      32.883  21.714  23.988  1.00  0.00     0.316 C 
ATOM      9  C   UNL A   1      32.638  24.815  25.719  1.00  0.00     0.018 A 
ATOM     10  O   UNL A   1      31.393  22.927  23.695  1.00  0.00    -0.475 OA
ATOM     11  C   UNL A   1      32.693  25.998  26.387  1.00  0.00     0.025 A 
ATOM     12  C   UNL A   1      31.371  24.534  24.575  1.00  0.00     0.128 A 
ATOM     13  C   UNL A   1      31.694  26.931  26.053  1.00  0.00     0.056 A 
ATOM     14  C   UNL A   1      30.426  25.479  24.292  1.00  0.00     0.048 A 
ATOM     15  C   UNL A   1      30.629  26.677  25.056  1.00  0.00     0.017 A 
BRANCH   8  16
ATOM     16  C   UNL A   1      33.071  20.270  24.671  1.00  0.00     0.430 C 
ATOM     17  F   UNL A   1      32.030  19.470  24.409  1.00  0.00    -0.167 F 
ATOM     18  F   UNL A   1      34.118  19.616  24.072  1.00  0.00    -0.167 F 
ATOM     19  F   UNL A   1      33.427  20.214  25.963  1.00  0.00    -0.167 F 
ENDBRANCH   8  16
BRANCH  13  20
ATOM     20  C   UNL A   1      31.792  28.242  26.824  1.00  0.00     0.416 C 
ATOM     21  F   UNL A   1      31.126  28.184  28.011  1.00  0.00    -0.166 F 
ATOM     22  F   UNL A   1      33.084  28.549  27.151  1.00  0.00    -0.166 F 
ATOM     23  F   UNL A   1      31.309  29.323  26.162  1.00  0.00    -0.166 F 
ENDBRANCH  13  20
ENDBRANCH   4   6
ENDBRANCH   3   4
ENDBRANCH   2   3
ENDBRANCH   1   2
BRANCH   1  24
ATOM     24  O   UNL A   1      39.443  19.250  25.693  1.00  0.00    -0.458 OA
BRANCH  24  25
ATOM     25  C   UNL A   1      40.698  19.680  26.081  1.00  0.00     0.338 C 
ATOM     26  O   UNL A   1      41.795  19.307  25.702  1.00  0.00    -0.246 OA
BRANCH  25  27
ATOM     27  C   UNL A   1      40.500  21.021  26.727  1.00  0.00     0.060 A 
ATOM     28  C   UNL A   1      41.229  21.311  27.896  1.00  0.00     0.016 A 
ATOM     29  C   UNL A   1      39.965  22.066  25.975  1.00  0.00     0.016 A 
ATOM     30  C   UNL A   1      41.632  22.638  28.159  1.00  0.00     0.010 A 
ATOM     31  C   UNL A   1      40.366  23.381  26.244  1.00  0.00     0.010 A 
ATOM     32  C   UNL A   1      41.270  23.672  27.283  1.00  0.00    -0.014 A 
BRANCH  32  33
ATOM     33  C   UNL A   1      41.598  25.096  27.581  1.00  0.00     0.031 A 
ATOM     34  C   UNL A   1      42.976  25.524  27.171  1.00  0.00     0.074 A 
ATOM     35  C   UNL A   1      40.784  25.956  28.235  1.00  0.00     0.049 A 
ATOM     36  N   UNL A   1      43.603  26.650  27.376  1.00  0.00    -0.248 NA
ATOM     37  C   UNL A   1      43.766  24.506  26.458  1.00  0.00     0.031 C 
ATOM     38  C   UNL A   1      39.424  25.677  28.696  1.00  0.00     0.029 A 
ATOM     39  N   UNL A   1      40.998  27.258  28.645  1.00  0.00    -0.354 N 
ATOM     40  C   UNL A   1      44.858  26.473  26.809  1.00  0.00     0.074 A 
ATOM     41  C   UNL A   1      44.931  25.111  26.337  1.00  0.00     0.031 C 
ATOM     42  C   UNL A   1      38.932  26.765  29.325  1.00  0.00     0.029 A 
ATOM     43  C   UNL A   1      39.942  27.823  29.337  1.00  0.00     0.049 A 
ATOM     44  H   UNL A   1      41.834  27.745  28.460  1.00  0.00     0.167 HD
ATOM     45  C   UNL A   1      45.855  27.374  26.659  1.00  0.00     0.034 A 
ATOM     46  C   UNL A   1      39.820  29.046  29.912  1.00  0.00     0.034 A 
ATOM     47  C   UNL A   1      45.796  28.712  27.171  1.00  0.00     0.049 A 
ATOM     48  C   UNL A   1      40.995  30.009  29.819  1.00  0.00     0.074 A 
ATOM     49  C   UNL A   1      46.754  29.703  27.104  1.00  0.00     0.029 A 
ATOM     50  N   UNL A   1      44.716  29.240  27.868  1.00  0.00    -0.354 N 
ATOM     51  N   UNL A   1      42.159  29.846  29.229  1.00  0.00    -0.248 NA
ATOM     52  C   UNL A   1      40.836  31.323  30.462  1.00  0.00     0.031 C 
ATOM     53  C   UNL A   1      46.281  30.810  27.816  1.00  0.00     0.029 A 
ATOM     54  C   UNL A   1      44.994  30.539  28.256  1.00  0.00     0.049 A 
ATOM     55  H   UNL A   1      43.877  28.761  28.058  1.00  0.00     0.167 HD
ATOM     56  C   UNL A   1      42.843  31.052  29.388  1.00  0.00     0.074 A 
ATOM     57  C   UNL A   1      41.960  31.936  30.117  1.00  0.00     0.031 C 
ATOM     58  C   UNL A   1      44.086  31.405  28.969  1.00  0.00     0.034 A 
BRANCH  45  59
ATOM     59  C   UNL A   1      47.087  26.884  25.947  1.00  0.00     0.023 A 
ATOM     60  C   UNL A   1      48.086  26.171  26.637  1.00  0.00     0.031 A 
ATOM     61  C   UNL A   1      47.329  27.239  24.610  1.00  0.00     0.131 A 
ATOM     62  C   UNL A   1      49.321  25.932  26.022  1.00  0.00     0.055 A 
ATOM     63  C   UNL A   1      48.526  26.908  23.973  1.00  0.00     0.041 A 
ATOM     64  F   UNL A   1      46.427  27.950  23.917  1.00  0.00    -0.206 F 
ATOM     65  C   UNL A   1      49.538  26.270  24.686  1.00  0.00     0.022 A 
BRANCH  62  66
ATOM     66  S   UNL A   1      50.697  25.349  27.052  1.00  0.00     0.124 S 
ATOM     67  O   UNL A   1      51.058  26.567  27.774  1.00  0.00    -0.237 OA
ATOM     68  O   UNL A   1      50.076  24.296  27.847  1.00  0.00    -0.237 OA
ATOM     69  O   UNL A   1      51.684  24.895  26.076  1.00  0.00    -0.744 OA
ENDBRANCH  62  66
ENDBRANCH  45  59
BRANCH  46  70
ATOM     70  C   UNL A   1      38.583  29.468  30.658  1.00  0.00     0.023 A 
ATOM     71  C   UNL A   1      37.616  30.303  30.061  1.00  0.00     0.031 A 
ATOM     72  C   UNL A   1      38.416  29.165  32.021  1.00  0.00     0.131 A 
ATOM     73  C   UNL A   1      36.578  30.858  30.835  1.00  0.00     0.055 A 
ATOM     74  C   UNL A   1      37.347  29.671  32.772  1.00  0.00     0.041 A 
ATOM     75  F   UNL A   1      39.308  28.391  32.659  1.00  0.00    -0.206 F 
ATOM     76  C   UNL A   1      36.431  30.537  32.184  1.00  0.00     0.022 A 
BRANCH  73  77
ATOM     77  S   UNL A   1      35.496  32.115  30.087  1.00  0.00     0.124 S 
ATOM     78  O   UNL A   1      34.991  31.411  28.915  1.00  0.00    -0.237 OA
ATOM     79  O   UNL A   1      34.531  32.360  31.155  1.00  0.00    -0.237 OA
ATOM     80  O   UNL A   1      36.404  33.225  29.806  1.00  0.00    -0.744 OA
ENDBRANCH  73  77
ENDBRANCH  46  70
BRANCH  58  81
ATOM     81  C   UNL A   1      44.537  32.823  29.225  1.00  0.00     0.023 A 
ATOM     82  C   UNL A   1      45.193  33.196  30.410  1.00  0.00     0.031 A 
ATOM     83  C   UNL A   1      44.328  33.812  28.246  1.00  0.00     0.131 A 
ATOM     84  C   UNL A   1      45.573  34.532  30.606  1.00  0.00     0.055 A 
ATOM     85  C   UNL A   1      44.770  35.123  28.417  1.00  0.00     0.041 A 
ATOM     86  F   UNL A   1      43.705  33.512  27.093  1.00  0.00    -0.206 F 
ATOM     87  C   UNL A   1      45.386  35.493  29.608  1.00  0.00     0.022 A 
BRANCH  84  88
ATOM     88  S   UNL A   1      46.238  35.020  32.220  1.00  0.00     0.124 S 
ATOM     89  O   UNL A   1      45.148  35.821  32.769  1.00  0.00    -0.237 OA
ATOM     90  O   UNL A   1      46.469  33.732  32.866  1.00  0.00    -0.237 OA
ATOM     91  O   UNL A   1      47.447  35.769  31.882  1.00  0.00    -0.744 OA
ENDBRANCH  84  88
ENDBRANCH  58  81
ENDBRANCH  32  33
ENDBRANCH  25  27
ENDBRANCH  24  25
ENDBRANCH   1  24
TORSDOF 16
ENDMDL
