MODEL 1
REMARK VINA RESULT:     -12.5      0.000      0.000
REMARK SMILES Cc1cc(Cl)cc2c1O[C@H](C(F)(F)F)C(C(=O)OCCOC(=O)c1ccc(-c3c4nc(c(-c5cc(S(=O)(=O)[O-])ccc5F)c5ccc([nH]5)c(-c5cc(S(=O)(=O)[O-])ccc5F)c5nc(c(-c6cc(S(=O)(=O)[O-])ccc6F)c6ccc3[nH]6)C=C5)C=C4)cc1)=C2
REMARK SMILES IDX 20 1 19 2 18 3 16 4 17 5 15 6 1 7 2 8 3 9 8 10 4 11 7 12
REMARK SMILES IDX 9 13 5 14 6 15 87 16 10 17 11 18 12 19 13 20 14 21 21 22
REMARK SMILES IDX 22 23 23 24 24 25 25 26 86 27 26 28 85 29 27 30 28 31 29 32
REMARK SMILES IDX 79 33 30 34 84 35 78 36 80 37 31 38 83 39 77 40 76 41 32 43
REMARK SMILES IDX 64 44 44 45 63 46 45 47 48 48 62 49 81 50 46 51 47 52 61 54
REMARK SMILES IDX 82 55 49 56 33 57 34 58 42 59 35 60 41 61 43 62 40 63 36 64
REMARK SMILES IDX 37 65 38 66 39 67 65 68 66 69 74 70 67 71 73 72 75 73 72 74
REMARK SMILES IDX 68 75 69 76 70 77 71 78 50 79 51 80 59 81 52 82 58 83 60 84
REMARK SMILES IDX 57 85 53 86 54 87 55 88 56 89
REMARK H PARENT 80 42 48 53
REMARK Flexibility Score: inf
ROOT
ATOM      1  C   UNL A   1      36.231  20.763  25.308  1.00  0.00     0.275 C 
ENDROOT
BRANCH   1   2
ATOM      2  C   UNL A   1      34.934  21.398  24.806  1.00  0.00     0.275 C 
BRANCH   2   3
ATOM      3  O   UNL A   1      35.004  22.840  24.832  1.00  0.00    -0.459 OA
BRANCH   3   4
ATOM      4  C   UNL A   1      34.855  23.451  23.633  1.00  0.00     0.338 C 
ATOM      5  O   UNL A   1      35.401  23.137  22.586  1.00  0.00    -0.246 OA
BRANCH   4   6
ATOM      6  C   UNL A   1      33.913  24.582  23.738  1.00  0.00     0.087 C 
ATOM      7  C   UNL A   1      29.783  27.620  23.514  1.00  0.00     0.048 C 
ATOM      8  C   UNL A   1      31.042  27.573  24.328  1.00  0.00    -0.007 A 
ATOM      9  C   UNL A   1      31.247  28.513  25.352  1.00  0.00     0.027 A 
ATOM     10  C   UNL A   1      32.019  26.595  24.088  1.00  0.00     0.131 A 
ATOM     11  C   UNL A   1      32.413  28.483  26.114  1.00  0.00     0.042 A 
ATOM     12  C   UNL A   1      33.179  26.566  24.866  1.00  0.00     0.019 A 
ATOM     13  O   UNL A   1      31.788  25.709  23.069  1.00  0.00    -0.475 OA
ATOM     14  Cl  UNL A   1      32.643  29.630  27.373  1.00  0.00    -0.084 Cl
ATOM     15  C   UNL A   1      33.383  27.517  25.873  1.00  0.00     0.032 A 
ATOM     16  C   UNL A   1      34.161  25.525  24.653  1.00  0.00     0.027 C 
ATOM     17  C   UNL A   1      32.653  24.548  22.928  1.00  0.00     0.316 C 
BRANCH  17  18
ATOM     18  C   UNL A   1      31.838  23.280  23.230  1.00  0.00     0.430 C 
ATOM     19  F   UNL A   1      31.957  22.914  24.530  1.00  0.00    -0.167 F 
ATOM     20  F   UNL A   1      30.515  23.474  23.010  1.00  0.00    -0.167 F 
ATOM     21  F   UNL A   1      32.223  22.226  22.476  1.00  0.00    -0.167 F 
ENDBRANCH  17  18
ENDBRANCH   4   6
ENDBRANCH   3   4
ENDBRANCH   2   3
ENDBRANCH   1   2
BRANCH   1  22
ATOM     22  O   UNL A   1      37.349  21.632  25.058  1.00  0.00    -0.458 OA
BRANCH  22  23
ATOM     23  C   UNL A   1      38.497  21.273  25.676  1.00  0.00     0.338 C 
ATOM     24  O   UNL A   1      39.066  20.196  25.604  1.00  0.00    -0.246 OA
BRANCH  23  25
ATOM     25  C   UNL A   1      39.061  22.413  26.414  1.00  0.00     0.060 A 
ATOM     26  C   UNL A   1      38.564  23.679  26.142  1.00  0.00     0.016 A 
ATOM     27  C   UNL A   1      40.208  22.266  27.189  1.00  0.00     0.016 A 
ATOM     28  C   UNL A   1      39.307  24.805  26.478  1.00  0.00     0.010 A 
ATOM     29  C   UNL A   1      40.860  23.408  27.674  1.00  0.00     0.010 A 
ATOM     30  C   UNL A   1      40.453  24.696  27.278  1.00  0.00    -0.014 A 
BRANCH  30  31
ATOM     31  C   UNL A   1      41.224  25.918  27.664  1.00  0.00     0.031 A 
ATOM     32  C   UNL A   1      40.590  26.981  28.529  1.00  0.00     0.074 A 
ATOM     33  C   UNL A   1      42.510  26.065  27.277  1.00  0.00     0.049 A 
ATOM     34  N   UNL A   1      41.016  28.189  28.801  1.00  0.00    -0.248 NA
ATOM     35  C   UNL A   1      39.300  26.652  29.162  1.00  0.00     0.031 C 
ATOM     36  C   UNL A   1      43.284  25.088  26.502  1.00  0.00     0.029 A 
ATOM     37  N   UNL A   1      43.409  27.081  27.498  1.00  0.00    -0.354 N 
ATOM     38  C   UNL A   1      40.032  28.777  29.592  1.00  0.00     0.074 A 
ATOM     39  C   UNL A   1      38.975  27.799  29.740  1.00  0.00     0.031 C 
ATOM     40  C   UNL A   1      44.548  25.514  26.383  1.00  0.00     0.029 A 
ATOM     41  C   UNL A   1      44.651  26.851  26.949  1.00  0.00     0.049 A 
ATOM     42  H   UNL A   1      43.186  27.897  28.002  1.00  0.00     0.167 HD
ATOM     43  C   UNL A   1      40.018  30.012  30.148  1.00  0.00     0.034 A 
ATOM     44  C   UNL A   1      45.739  27.641  26.853  1.00  0.00     0.034 A 
ATOM     45  C   UNL A   1      41.103  30.956  30.037  1.00  0.00     0.049 A 
ATOM     46  C   UNL A   1      45.662  29.042  27.392  1.00  0.00     0.074 A 
ATOM     47  C   UNL A   1      41.182  32.241  30.548  1.00  0.00     0.029 A 
ATOM     48  N   UNL A   1      42.307  30.711  29.391  1.00  0.00    -0.354 N 
ATOM     49  N   UNL A   1      44.675  29.624  28.031  1.00  0.00    -0.248 NA
ATOM     50  C   UNL A   1      46.831  29.904  27.170  1.00  0.00     0.031 C 
ATOM     51  C   UNL A   1      42.408  32.791  30.165  1.00  0.00     0.029 A 
ATOM     52  C   UNL A   1      43.123  31.827  29.473  1.00  0.00     0.049 A 
ATOM     53  H   UNL A   1      42.544  29.868  28.942  1.00  0.00     0.167 HD
ATOM     54  C   UNL A   1      45.111  30.916  28.301  1.00  0.00     0.074 A 
ATOM     55  C   UNL A   1      46.454  31.025  27.768  1.00  0.00     0.031 C 
ATOM     56  C   UNL A   1      44.456  31.922  28.931  1.00  0.00     0.034 A 
BRANCH  43  57
ATOM     57  C   UNL A   1      38.781  30.440  30.899  1.00  0.00     0.023 A 
ATOM     58  C   UNL A   1      37.725  31.116  30.267  1.00  0.00     0.031 A 
ATOM     59  C   UNL A   1      38.642  30.123  32.264  1.00  0.00     0.131 A 
ATOM     60  C   UNL A   1      36.590  31.485  31.007  1.00  0.00     0.055 A 
ATOM     61  C   UNL A   1      37.485  30.436  32.978  1.00  0.00     0.041 A 
ATOM     62  F   UNL A   1      39.627  29.490  32.921  1.00  0.00    -0.206 F 
ATOM     63  C   UNL A   1      36.452  31.127  32.352  1.00  0.00     0.022 A 
BRANCH  60  64
ATOM     64  S   UNL A   1      35.320  32.503  30.208  1.00  0.00     0.124 S 
ATOM     65  O   UNL A   1      34.341  32.646  31.282  1.00  0.00    -0.237 OA
ATOM     66  O   UNL A   1      36.058  33.709  29.851  1.00  0.00    -0.237 OA
ATOM     67  O   UNL A   1      34.883  31.684  29.080  1.00  0.00    -0.744 OA
ENDBRANCH  60  64
ENDBRANCH  43  57
BRANCH  44  68
ATOM     68  C   UNL A   1      46.968  27.150  26.164  1.00  0.00     0.023 A 
ATOM     69  C   UNL A   1      47.982  26.497  26.880  1.00  0.00     0.031 A 
ATOM     70  C   UNL A   1      47.150  27.332  24.780  1.00  0.00     0.131 A 
ATOM     71  C   UNL A   1      49.140  26.065  26.214  1.00  0.00     0.055 A 
ATOM     72  C   UNL A   1      48.278  26.853  24.113  1.00  0.00     0.041 A 
ATOM     73  F   UNL A   1      46.211  27.953  24.046  1.00  0.00    -0.206 F 
ATOM     74  C   UNL A   1      49.286  26.222  24.834  1.00  0.00     0.022 A 
BRANCH  71  75
ATOM     75  S   UNL A   1      50.484  25.337  27.191  1.00  0.00     0.124 S 
ATOM     76  O   UNL A   1      49.813  24.203  27.817  1.00  0.00    -0.237 OA
ATOM     77  O   UNL A   1      51.467  25.014  26.163  1.00  0.00    -0.237 OA
ATOM     78  O   UNL A   1      50.866  26.415  28.098  1.00  0.00    -0.744 OA
ENDBRANCH  71  75
ENDBRANCH  44  68
BRANCH  56  79
ATOM     79  C   UNL A   1      45.194  33.220  29.108  1.00  0.00     0.023 A 
ATOM     80  C   UNL A   1      45.023  34.286  28.212  1.00  0.00     0.031 A 
ATOM     81  C   UNL A   1      46.048  33.404  30.210  1.00  0.00     0.131 A 
ATOM     82  C   UNL A   1      45.720  35.486  28.415  1.00  0.00     0.055 A 
ATOM     83  C   UNL A   1      46.700  34.615  30.435  1.00  0.00     0.041 A 
ATOM     84  F   UNL A   1      46.243  32.413  31.096  1.00  0.00    -0.206 F 
ATOM     85  C   UNL A   1      46.542  35.663  29.532  1.00  0.00     0.022 A 
BRANCH  82  86
ATOM     86  S   UNL A   1      45.566  36.802  27.179  1.00  0.00     0.124 S 
ATOM     87  O   UNL A   1      46.447  36.324  26.119  1.00  0.00    -0.237 OA
ATOM     88  O   UNL A   1      44.139  36.788  26.877  1.00  0.00    -0.237 OA
ATOM     89  O   UNL A   1      46.035  37.993  27.886  1.00  0.00    -0.744 OA
ENDBRANCH  82  86
ENDBRANCH  56  79
ENDBRANCH  30  31
ENDBRANCH  23  25
ENDBRANCH  22  23
ENDBRANCH   1  22
TORSDOF 15
ENDMDL
MODEL 2
REMARK VINA RESULT:     -12.5      4.716      9.931
REMARK SMILES Cc1cc(Cl)cc2c1O[C@H](C(F)(F)F)C(C(=O)OCCOC(=O)c1ccc(-c3c4nc(c(-c5cc(S(=O)(=O)[O-])ccc5F)c5ccc([nH]5)c(-c5cc(S(=O)(=O)[O-])ccc5F)c5nc(c(-c6cc(S(=O)(=O)[O-])ccc6F)c6ccc3[nH]6)C=C5)C=C4)cc1)=C2
REMARK SMILES IDX 20 1 19 2 18 3 16 4 17 5 15 6 1 7 2 8 3 9 8 10 4 11 7 12
REMARK SMILES IDX 9 13 5 14 6 15 87 16 10 17 11 18 12 19 13 20 14 21 21 22
REMARK SMILES IDX 22 23 23 24 24 25 25 26 86 27 26 28 85 29 27 30 28 31 29 32
REMARK SMILES IDX 79 33 30 34 84 35 78 36 80 37 31 38 83 39 77 40 76 41 32 43
REMARK SMILES IDX 64 44 44 45 63 46 45 47 48 48 62 49 81 50 46 51 47 52 61 54
REMARK SMILES IDX 82 55 49 56 33 57 34 58 42 59 35 60 41 61 43 62 40 63 36 64
REMARK SMILES IDX 37 65 38 66 39 67 65 68 66 69 74 70 67 71 73 72 75 73 72 74
REMARK SMILES IDX 68 75 69 76 70 77 71 78 50 79 51 80 59 81 52 82 58 83 60 84
REMARK SMILES IDX 57 85 53 86 54 87 55 88 56 89
REMARK H PARENT 80 42 48 53
REMARK Flexibility Score: inf
ROOT
ATOM      1  C   UNL A   1      31.719  30.446  25.587  1.00  0.00     0.275 C 
ENDROOT
BRANCH   1   2
ATOM      2  C   UNL A   1      31.527  29.016  25.082  1.00  0.00     0.275 C 
BRANCH   2   3
ATOM      3  O   UNL A   1      32.348  28.081  25.815  1.00  0.00    -0.459 OA
BRANCH   3   4
ATOM      4  C   UNL A   1      31.678  27.081  26.436  1.00  0.00     0.338 C 
ATOM      5  O   UNL A   1      30.787  27.210  27.262  1.00  0.00    -0.246 OA
BRANCH   4   6
ATOM      6  C   UNL A   1      32.161  25.765  25.978  1.00  0.00     0.087 C 
ATOM      7  C   UNL A   1      32.657  21.196  23.693  1.00  0.00     0.048 C 
ATOM      8  C   UNL A   1      33.589  22.202  24.303  1.00  0.00    -0.007 A 
ATOM      9  C   UNL A   1      34.976  21.982  24.266  1.00  0.00     0.027 A 
ATOM     10  C   UNL A   1      33.095  23.370  24.905  1.00  0.00     0.131 A 
ATOM     11  C   UNL A   1      35.852  22.906  24.831  1.00  0.00     0.042 A 
ATOM     12  C   UNL A   1      33.982  24.295  25.457  1.00  0.00     0.019 A 
ATOM     13  O   UNL A   1      31.735  23.537  24.934  1.00  0.00    -0.475 OA
ATOM     14  Cl  UNL A   1      37.548  22.629  24.765  1.00  0.00    -0.084 Cl
ATOM     15  C   UNL A   1      35.362  24.059  25.432  1.00  0.00     0.032 A 
ATOM     16  C   UNL A   1      33.475  25.524  26.030  1.00  0.00     0.027 C 
ATOM     17  C   UNL A   1      31.187  24.822  25.340  1.00  0.00     0.316 C 
BRANCH  17  18
ATOM     18  C   UNL A   1      30.502  25.475  24.128  1.00  0.00     0.430 C 
ATOM     19  F   UNL A   1      31.377  26.218  23.407  1.00  0.00    -0.167 F 
ATOM     20  F   UNL A   1      30.003  24.545  23.277  1.00  0.00    -0.167 F 
ATOM     21  F   UNL A   1      29.481  26.286  24.486  1.00  0.00    -0.167 F 
ENDBRANCH  17  18
ENDBRANCH   4   6
ENDBRANCH   3   4
ENDBRANCH   2   3
ENDBRANCH   1   2
BRANCH   1  22
ATOM     22  O   UNL A   1      32.321  30.445  26.893  1.00  0.00    -0.458 OA
BRANCH  22  23
ATOM     23  C   UNL A   1      32.991  31.576  27.211  1.00  0.00     0.338 C 
ATOM     24  O   UNL A   1      32.544  32.709  27.255  1.00  0.00    -0.246 OA
BRANCH  23  25
ATOM     25  C   UNL A   1      34.372  31.260  27.603  1.00  0.00     0.060 A 
ATOM     26  C   UNL A   1      34.681  29.942  27.908  1.00  0.00     0.016 A 
ATOM     27  C   UNL A   1      35.286  32.272  27.884  1.00  0.00     0.016 A 
ATOM     28  C   UNL A   1      35.812  29.649  28.660  1.00  0.00     0.010 A 
ATOM     29  C   UNL A   1      36.507  31.947  28.491  1.00  0.00     0.010 A 
ATOM     30  C   UNL A   1      36.765  30.638  28.941  1.00  0.00    -0.014 A 
BRANCH  30  31
ATOM     31  C   UNL A   1      37.996  30.303  29.721  1.00  0.00     0.031 A 
ATOM     32  C   UNL A   1      39.072  29.434  29.115  1.00  0.00     0.074 A 
ATOM     33  C   UNL A   1      38.177  30.807  30.962  1.00  0.00     0.049 A 
ATOM     34  N   UNL A   1      40.104  28.872  29.693  1.00  0.00    -0.248 NA
ATOM     35  C   UNL A   1      38.971  29.146  27.674  1.00  0.00     0.031 C 
ATOM     36  C   UNL A   1      37.261  31.722  31.652  1.00  0.00     0.029 A 
ATOM     37  N   UNL A   1      39.203  30.645  31.861  1.00  0.00    -0.354 N 
ATOM     38  C   UNL A   1      40.744  28.131  28.703  1.00  0.00     0.074 A 
ATOM     39  C   UNL A   1      39.972  28.297  27.491  1.00  0.00     0.031 C 
ATOM     40  C   UNL A   1      37.800  32.097  32.819  1.00  0.00     0.029 A 
ATOM     41  C   UNL A   1      39.031  31.350  33.032  1.00  0.00     0.049 A 
ATOM     42  H   UNL A   1      39.988  30.077  31.686  1.00  0.00     0.167 HD
ATOM     43  C   UNL A   1      41.874  27.388  28.798  1.00  0.00     0.034 A 
ATOM     44  C   UNL A   1      39.744  31.358  34.176  1.00  0.00     0.034 A 
ATOM     45  C   UNL A   1      42.663  27.276  30.000  1.00  0.00     0.049 A 
ATOM     46  C   UNL A   1      40.937  30.451  34.289  1.00  0.00     0.074 A 
ATOM     47  C   UNL A   1      43.815  26.536  30.208  1.00  0.00     0.029 A 
ATOM     48  N   UNL A   1      42.397  27.938  31.191  1.00  0.00    -0.354 N 
ATOM     49  N   UNL A   1      41.457  29.661  33.379  1.00  0.00    -0.248 NA
ATOM     50  C   UNL A   1      41.619  30.411  35.588  1.00  0.00     0.031 C 
ATOM     51  C   UNL A   1      44.213  26.706  31.536  1.00  0.00     0.029 A 
ATOM     52  C   UNL A   1      43.350  27.607  32.140  1.00  0.00     0.049 A 
ATOM     53  H   UNL A   1      41.642  28.552  31.338  1.00  0.00     0.167 HD
ATOM     54  C   UNL A   1      42.539  29.042  33.994  1.00  0.00     0.074 A 
ATOM     55  C   UNL A   1      42.604  29.558  35.346  1.00  0.00     0.031 C 
ATOM     56  C   UNL A   1      43.398  28.125  33.484  1.00  0.00     0.034 A 
BRANCH  43  57
ATOM     57  C   UNL A   1      42.315  26.607  27.586  1.00  0.00     0.023 A 
ATOM     58  C   UNL A   1      42.028  25.240  27.438  1.00  0.00     0.031 A 
ATOM     59  C   UNL A   1      42.997  27.256  26.540  1.00  0.00     0.131 A 
ATOM     60  C   UNL A   1      42.451  24.558  26.287  1.00  0.00     0.055 A 
ATOM     61  C   UNL A   1      43.360  26.587  25.370  1.00  0.00     0.041 A 
ATOM     62  F   UNL A   1      43.311  28.558  26.635  1.00  0.00    -0.206 F 
ATOM     63  C   UNL A   1      43.093  25.228  25.241  1.00  0.00     0.022 A 
BRANCH  60  64
ATOM     64  S   UNL A   1      42.216  22.762  26.200  1.00  0.00     0.124 S 
ATOM     65  O   UNL A   1      42.863  22.443  24.929  1.00  0.00    -0.237 OA
ATOM     66  O   UNL A   1      42.897  22.293  27.400  1.00  0.00    -0.237 OA
ATOM     67  O   UNL A   1      40.762  22.605  26.208  1.00  0.00    -0.744 OA
ENDBRANCH  60  64
ENDBRANCH  43  57
BRANCH  44  68
ATOM     68  C   UNL A   1      39.310  32.204  35.326  1.00  0.00     0.023 A 
ATOM     69  C   UNL A   1      39.774  33.521  35.466  1.00  0.00     0.031 A 
ATOM     70  C   UNL A   1      38.432  31.705  36.308  1.00  0.00     0.131 A 
ATOM     71  C   UNL A   1      39.371  34.288  36.570  1.00  0.00     0.055 A 
ATOM     72  C   UNL A   1      37.993  32.490  37.374  1.00  0.00     0.041 A 
ATOM     73  F   UNL A   1      37.961  30.450  36.224  1.00  0.00    -0.206 F 
ATOM     74  C   UNL A   1      38.470  33.789  37.514  1.00  0.00     0.022 A 
BRANCH  71  75
ATOM     75  S   UNL A   1      40.085  35.942  36.785  1.00  0.00     0.124 S 
ATOM     76  O   UNL A   1      41.499  35.632  36.967  1.00  0.00    -0.237 OA
ATOM     77  O   UNL A   1      39.726  36.594  35.531  1.00  0.00    -0.237 OA
ATOM     78  O   UNL A   1      39.401  36.455  37.970  1.00  0.00    -0.744 OA
ENDBRANCH  71  75
ENDBRANCH  44  68
BRANCH  56  79
ATOM     79  C   UNL A   1      44.504  27.644  34.383  1.00  0.00     0.023 A 
ATOM     80  C   UNL A   1      44.360  26.488  35.165  1.00  0.00     0.031 A 
ATOM     81  C   UNL A   1      45.731  28.330  34.424  1.00  0.00     0.131 A 
ATOM     82  C   UNL A   1      45.419  26.063  35.981  1.00  0.00     0.055 A 
ATOM     83  C   UNL A   1      46.797  27.877  35.200  1.00  0.00     0.041 A 
ATOM     84  F   UNL A   1      45.917  29.441  33.692  1.00  0.00    -0.206 F 
ATOM     85  C   UNL A   1      46.642  26.740  35.989  1.00  0.00     0.022 A 
BRANCH  82  86
ATOM     86  S   UNL A   1      45.162  24.634  37.065  1.00  0.00     0.124 S 
ATOM     87  O   UNL A   1      44.535  23.677  36.160  1.00  0.00    -0.237 OA
ATOM     88  O   UNL A   1      46.521  24.313  37.492  1.00  0.00    -0.237 OA
ATOM     89  O   UNL A   1      44.292  25.154  38.119  1.00  0.00    -0.744 OA
ENDBRANCH  82  86
ENDBRANCH  56  79
ENDBRANCH  30  31
ENDBRANCH  23  25
ENDBRANCH  22  23
ENDBRANCH   1  22
TORSDOF 15
ENDMDL
MODEL 3
REMARK VINA RESULT:     -12.4      1.595      1.946
REMARK SMILES Cc1cc(Cl)cc2c1O[C@H](C(F)(F)F)C(C(=O)OCCOC(=O)c1ccc(-c3c4nc(c(-c5cc(S(=O)(=O)[O-])ccc5F)c5ccc([nH]5)c(-c5cc(S(=O)(=O)[O-])ccc5F)c5nc(c(-c6cc(S(=O)(=O)[O-])ccc6F)c6ccc3[nH]6)C=C5)C=C4)cc1)=C2
REMARK SMILES IDX 20 1 19 2 18 3 16 4 17 5 15 6 1 7 2 8 3 9 8 10 4 11 7 12
REMARK SMILES IDX 9 13 5 14 6 15 87 16 10 17 11 18 12 19 13 20 14 21 21 22
REMARK SMILES IDX 22 23 23 24 24 25 25 26 86 27 26 28 85 29 27 30 28 31 29 32
REMARK SMILES IDX 79 33 30 34 84 35 78 36 80 37 31 38 83 39 77 40 76 41 32 43
REMARK SMILES IDX 64 44 44 45 63 46 45 47 48 48 62 49 81 50 46 51 47 52 61 54
REMARK SMILES IDX 82 55 49 56 33 57 34 58 42 59 35 60 41 61 43 62 40 63 36 64
REMARK SMILES IDX 37 65 38 66 39 67 65 68 66 69 74 70 67 71 73 72 75 73 72 74
REMARK SMILES IDX 68 75 69 76 70 77 71 78 50 79 51 80 59 81 52 82 58 83 60 84
REMARK SMILES IDX 57 85 53 86 54 87 55 88 56 89
REMARK H PARENT 80 42 48 53
REMARK Flexibility Score: inf
ROOT
ATOM      1  C   UNL A   1      36.485  20.380  25.002  1.00  0.00     0.275 C 
ENDROOT
BRANCH   1   2
ATOM      2  C   UNL A   1      35.015  20.737  25.222  1.00  0.00     0.275 C 
BRANCH   2   3
ATOM      3  O   UNL A   1      34.642  21.924  24.488  1.00  0.00    -0.459 OA
BRANCH   3   4
ATOM      4  C   UNL A   1      33.580  22.604  24.982  1.00  0.00     0.338 C 
ATOM      5  O   UNL A   1      32.633  22.127  25.588  1.00  0.00    -0.246 OA
BRANCH   4   6
ATOM      6  C   UNL A   1      33.707  24.046  24.700  1.00  0.00     0.087 C 
ATOM      7  C   UNL A   1      33.984  28.637  22.423  1.00  0.00     0.048 C 
ATOM      8  C   UNL A   1      33.664  28.136  23.800  1.00  0.00    -0.007 A 
ATOM      9  C   UNL A   1      33.284  29.044  24.803  1.00  0.00     0.027 A 
ATOM     10  C   UNL A   1      33.729  26.767  24.102  1.00  0.00     0.131 A 
ATOM     11  C   UNL A   1      32.988  28.592  26.088  1.00  0.00     0.042 A 
ATOM     12  C   UNL A   1      33.418  26.324  25.389  1.00  0.00     0.019 A 
ATOM     13  O   UNL A   1      34.120  25.918  23.100  1.00  0.00    -0.475 OA
ATOM     14  Cl  UNL A   1      32.511  29.714  27.300  1.00  0.00    -0.084 Cl
ATOM     15  C   UNL A   1      33.058  27.237  26.387  1.00  0.00     0.032 A 
ATOM     16  C   UNL A   1      33.435  24.907  25.685  1.00  0.00     0.027 C 
ATOM     17  C   UNL A   1      33.987  24.482  23.294  1.00  0.00     0.316 C 
BRANCH  17  18
ATOM     18  C   UNL A   1      32.918  23.947  22.328  1.00  0.00     0.430 C 
ATOM     19  F   UNL A   1      32.806  24.732  21.229  1.00  0.00    -0.167 F 
ATOM     20  F   UNL A   1      33.228  22.706  21.878  1.00  0.00    -0.167 F 
ATOM     21  F   UNL A   1      31.694  23.875  22.900  1.00  0.00    -0.167 F 
ENDBRANCH  17  18
ENDBRANCH   4   6
ENDBRANCH   3   4
ENDBRANCH   2   3
ENDBRANCH   1   2
BRANCH   1  22
ATOM     22  O   UNL A   1      37.324  21.526  25.231  1.00  0.00    -0.458 OA
BRANCH  22  23
ATOM     23  C   UNL A   1      38.553  21.242  25.720  1.00  0.00     0.338 C 
ATOM     24  O   UNL A   1      39.196  20.220  25.546  1.00  0.00    -0.246 OA
BRANCH  23  25
ATOM     25  C   UNL A   1      39.094  22.397  26.450  1.00  0.00     0.060 A 
ATOM     26  C   UNL A   1      38.600  23.657  26.142  1.00  0.00     0.016 A 
ATOM     27  C   UNL A   1      40.221  22.270  27.257  1.00  0.00     0.016 A 
ATOM     28  C   UNL A   1      39.330  24.791  26.476  1.00  0.00     0.010 A 
ATOM     29  C   UNL A   1      40.856  23.424  27.737  1.00  0.00     0.010 A 
ATOM     30  C   UNL A   1      40.455  24.702  27.306  1.00  0.00    -0.014 A 
BRANCH  30  31
ATOM     31  C   UNL A   1      41.212  25.934  27.689  1.00  0.00     0.031 A 
ATOM     32  C   UNL A   1      40.572  26.984  28.567  1.00  0.00     0.074 A 
ATOM     33  C   UNL A   1      42.491  26.103  27.287  1.00  0.00     0.049 A 
ATOM     34  N   UNL A   1      40.983  28.197  28.839  1.00  0.00    -0.248 NA
ATOM     35  C   UNL A   1      39.295  26.631  29.213  1.00  0.00     0.031 C 
ATOM     36  C   UNL A   1      43.270  25.142  26.498  1.00  0.00     0.029 A 
ATOM     37  N   UNL A   1      43.377  27.131  27.502  1.00  0.00    -0.354 N 
ATOM     38  C   UNL A   1      39.999  28.765  29.645  1.00  0.00     0.074 A 
ATOM     39  C   UNL A   1      38.960  27.771  29.800  1.00  0.00     0.031 C 
ATOM     40  C   UNL A   1      44.527  25.587  26.366  1.00  0.00     0.029 A 
ATOM     41  C   UNL A   1      44.616  26.923  26.937  1.00  0.00     0.049 A 
ATOM     42  H   UNL A   1      43.147  27.941  28.013  1.00  0.00     0.167 HD
ATOM     43  C   UNL A   1      39.973  29.998  30.206  1.00  0.00     0.034 A 
ATOM     44  C   UNL A   1      45.690  27.730  26.832  1.00  0.00     0.034 A 
ATOM     45  C   UNL A   1      41.042  30.958  30.087  1.00  0.00     0.049 A 
ATOM     46  C   UNL A   1      45.598  29.128  27.378  1.00  0.00     0.074 A 
ATOM     47  C   UNL A   1      41.107  32.242  30.603  1.00  0.00     0.029 A 
ATOM     48  N   UNL A   1      42.242  30.735  29.425  1.00  0.00    -0.354 N 
ATOM     49  N   UNL A   1      44.610  29.691  28.032  1.00  0.00    -0.248 NA
ATOM     50  C   UNL A   1      46.751  30.008  27.146  1.00  0.00     0.031 C 
ATOM     51  C   UNL A   1      42.320  32.813  30.208  1.00  0.00     0.029 A 
ATOM     52  C   UNL A   1      43.042  31.863  29.503  1.00  0.00     0.049 A 
ATOM     53  H   UNL A   1      42.487  29.898  28.969  1.00  0.00     0.167 HD
ATOM     54  C   UNL A   1      45.029  30.988  28.303  1.00  0.00     0.074 A 
ATOM     55  C   UNL A   1      46.363  31.120  27.754  1.00  0.00     0.031 C 
ATOM     56  C   UNL A   1      44.366  31.981  28.946  1.00  0.00     0.034 A 
BRANCH  43  57
ATOM     57  C   UNL A   1      38.739  30.403  30.974  1.00  0.00     0.023 A 
ATOM     58  C   UNL A   1      37.685  31.107  30.369  1.00  0.00     0.031 A 
ATOM     59  C   UNL A   1      38.600  30.036  32.326  1.00  0.00     0.131 A 
ATOM     60  C   UNL A   1      36.553  31.453  31.124  1.00  0.00     0.055 A 
ATOM     61  C   UNL A   1      37.445  30.328  33.053  1.00  0.00     0.041 A 
ATOM     62  F   UNL A   1      39.583  29.375  32.959  1.00  0.00    -0.206 F 
ATOM     63  C   UNL A   1      36.415  31.047  32.454  1.00  0.00     0.022 A 
BRANCH  60  64
ATOM     64  S   UNL A   1      35.287  32.506  30.364  1.00  0.00     0.124 S 
ATOM     65  O   UNL A   1      34.302  32.601  31.439  1.00  0.00    -0.237 OA
ATOM     66  O   UNL A   1      36.026  33.726  30.065  1.00  0.00    -0.237 OA
ATOM     67  O   UNL A   1      34.855  31.738  29.198  1.00  0.00    -0.744 OA
ENDBRANCH  60  64
ENDBRANCH  43  57
BRANCH  44  68
ATOM     68  C   UNL A   1      46.918  27.261  26.125  1.00  0.00     0.023 A 
ATOM     69  C   UNL A   1      47.162  27.623  24.792  1.00  0.00     0.031 A 
ATOM     70  C   UNL A   1      47.860  26.437  26.769  1.00  0.00     0.131 A 
ATOM     71  C   UNL A   1      48.312  27.149  24.140  1.00  0.00     0.055 A 
ATOM     72  C   UNL A   1      49.027  26.013  26.134  1.00  0.00     0.041 A 
ATOM     73  F   UNL A   1      47.673  26.058  28.044  1.00  0.00    -0.206 F 
ATOM     74  C   UNL A   1      49.254  26.362  24.807  1.00  0.00     0.022 A 
BRANCH  71  75
ATOM     75  S   UNL A   1      48.535  27.534  22.382  1.00  0.00     0.124 S 
ATOM     76  O   UNL A   1      47.334  28.309  22.095  1.00  0.00    -0.237 OA
ATOM     77  O   UNL A   1      49.792  28.275  22.389  1.00  0.00    -0.237 OA
ATOM     78  O   UNL A   1      48.595  26.218  21.751  1.00  0.00    -0.744 OA
ENDBRANCH  71  75
ENDBRANCH  44  68
BRANCH  56  79
ATOM     79  C   UNL A   1      45.087  33.290  29.119  1.00  0.00     0.023 A 
ATOM     80  C   UNL A   1      45.059  34.277  28.123  1.00  0.00     0.031 A 
ATOM     81  C   UNL A   1      45.775  33.565  30.315  1.00  0.00     0.131 A 
ATOM     82  C   UNL A   1      45.733  35.490  28.326  1.00  0.00     0.055 A 
ATOM     83  C   UNL A   1      46.402  34.791  30.531  1.00  0.00     0.041 A 
ATOM     84  F   UNL A   1      45.828  32.652  31.298  1.00  0.00    -0.206 F 
ATOM     85  C   UNL A   1      46.388  35.760  29.531  1.00  0.00     0.022 A 
BRANCH  82  86
ATOM     86  S   UNL A   1      45.775  36.699  26.976  1.00  0.00     0.124 S 
ATOM     87  O   UNL A   1      44.405  37.199  26.976  1.00  0.00    -0.237 OA
ATOM     88  O   UNL A   1      46.797  37.639  27.425  1.00  0.00    -0.237 OA
ATOM     89  O   UNL A   1      46.145  35.898  25.810  1.00  0.00    -0.744 OA
ENDBRANCH  82  86
ENDBRANCH  56  79
ENDBRANCH  30  31
ENDBRANCH  23  25
ENDBRANCH  22  23
ENDBRANCH   1  22
TORSDOF 15
ENDMDL
