MODEL 1
REMARK VINA RESULT:     -10.7      0.000      0.000
REMARK SMILES Cc1oc2c(c1C(=O)NCCCC(=O)OCCOC(=O)c1ccc(-c3c4nc(c(-c5cc(S(=O)(=O)[O-])ccc5F)c5ccc([nH]5)c(-c5cc(S(=O)(=O)[O-])ccc5F)c5nc(c(-c6cc(S(=O)(=O)[O-])ccc6F)c6ccc3[nH]6)C=C5)C=C4)cc1)CCCC2
REMARK SMILES IDX 16 1 15 2 13 3 14 4 12 5 11 6 10 7 9 8 7 9 8 10 6 12 1 13
REMARK SMILES IDX 2 14 3 15 4 16 5 17 87 18 84 19 86 20 85 21 17 22 18 23
REMARK SMILES IDX 19 24 20 25 21 26 22 27 83 28 23 29 82 30 24 31 25 32 26 33
REMARK SMILES IDX 76 34 27 35 81 36 75 37 77 38 28 39 80 40 74 41 73 42 29 44
REMARK SMILES IDX 61 45 41 46 60 47 42 48 45 49 59 50 78 51 43 52 44 53 58 55
REMARK SMILES IDX 79 56 46 57 30 58 31 59 39 60 32 61 38 62 40 63 37 64 33 65
REMARK SMILES IDX 34 66 35 67 36 68 62 69 63 70 71 71 64 72 70 73 72 74 69 75
REMARK SMILES IDX 65 76 66 77 67 78 68 79 47 80 48 81 56 82 49 83 55 84 57 85
REMARK SMILES IDX 54 86 50 87 51 88 52 89 53 90
REMARK H PARENT 9 11 77 43 45 54
REMARK Flexibility Score: inf
ROOT
ATOM      1  C   UNL A   1      34.197  34.495  29.468  1.00  0.00     0.274 C 
ENDROOT
BRANCH   1   2
ATOM      2  O   UNL A   1      33.264  35.589  29.553  1.00  0.00    -0.462 OA
BRANCH   2   3
ATOM      3  C   UNL A   1      33.168  36.200  30.764  1.00  0.00     0.305 C 
ATOM      4  O   UNL A   1      32.945  37.393  30.931  1.00  0.00    -0.252 OA
BRANCH   3   5
ATOM      5  C   UNL A   1      33.493  35.253  31.894  1.00  0.00     0.124 C 
BRANCH   5   6
ATOM      6  C   UNL A   1      34.561  35.687  32.892  1.00  0.00     0.033 C 
BRANCH   6   7
ATOM      7  C   UNL A   1      35.869  34.896  32.942  1.00  0.00     0.117 C 
BRANCH   7   8
ATOM      8  N   UNL A   1      35.745  33.523  32.524  1.00  0.00    -0.352 N 
ATOM      9  C   UNL A   1      36.602  32.457  32.587  1.00  0.00     0.255 C 
ATOM     10  O   UNL A   1      36.159  31.416  32.088  1.00  0.00    -0.269 OA
ATOM     11  H   UNL A   1      34.876  33.310  32.112  1.00  0.00     0.163 HD
BRANCH   9  12
ATOM     12  C   UNL A   1      37.962  32.492  33.142  1.00  0.00     0.084 A 
ATOM     13  C   UNL A   1      38.222  30.816  35.231  1.00  0.00     0.088 C 
ATOM     14  C   UNL A   1      38.578  31.834  34.214  1.00  0.00     0.114 A 
ATOM     15  O   UNL A   1      39.892  32.210  34.322  1.00  0.00    -0.465 OA
ATOM     16  C   UNL A   1      40.151  33.048  33.309  1.00  0.00     0.108 A 
ATOM     17  C   UNL A   1      39.040  33.241  32.530  1.00  0.00     0.007 A 
ATOM     18  C   UNL A   1      41.519  33.570  33.113  1.00  0.00     0.076 C 
ATOM     19  C   UNL A   1      39.093  34.103  31.314  1.00  0.00     0.040 C 
ATOM     20  C   UNL A   1      41.477  34.703  32.070  1.00  0.00     0.008 C 
ATOM     21  C   UNL A   1      40.556  34.364  30.881  1.00  0.00     0.005 C 
ENDBRANCH   9  12
ENDBRANCH   7   8
ENDBRANCH   6   7
ENDBRANCH   5   6
ENDBRANCH   3   5
ENDBRANCH   2   3
ENDBRANCH   1   2
BRANCH   1  22
ATOM     22  C   UNL A   1      34.511  34.122  28.025  1.00  0.00     0.275 C 
BRANCH  22  23
ATOM     23  O   UNL A   1      35.685  33.317  27.918  1.00  0.00    -0.458 OA
BRANCH  23  24
ATOM     24  C   UNL A   1      35.446  31.989  27.824  1.00  0.00     0.338 C 
ATOM     25  O   UNL A   1      34.421  31.461  27.436  1.00  0.00    -0.246 OA
BRANCH  24  26
ATOM     26  C   UNL A   1      36.529  31.234  28.459  1.00  0.00     0.060 A 
ATOM     27  C   UNL A   1      37.628  31.952  28.944  1.00  0.00     0.016 A 
ATOM     28  C   UNL A   1      36.555  29.838  28.347  1.00  0.00     0.016 A 
ATOM     29  C   UNL A   1      38.801  31.275  29.212  1.00  0.00     0.010 A 
ATOM     30  C   UNL A   1      37.731  29.167  28.595  1.00  0.00     0.010 A 
ATOM     31  C   UNL A   1      38.856  29.897  28.981  1.00  0.00    -0.014 A 
BRANCH  31  32
ATOM     32  C   UNL A   1      40.092  29.195  29.267  1.00  0.00     0.031 A 
ATOM     33  C   UNL A   1      40.411  29.106  30.711  1.00  0.00     0.074 A 
ATOM     34  C   UNL A   1      40.797  28.534  28.331  1.00  0.00     0.049 A 
ATOM     35  N   UNL A   1      41.411  29.631  31.334  1.00  0.00    -0.248 NA
ATOM     36  C   UNL A   1      39.416  28.477  31.593  1.00  0.00     0.031 C 
ATOM     37  C   UNL A   1      40.424  28.291  26.938  1.00  0.00     0.029 A 
ATOM     38  N   UNL A   1      41.953  27.829  28.475  1.00  0.00    -0.354 N 
ATOM     39  C   UNL A   1      41.295  29.206  32.653  1.00  0.00     0.074 A 
ATOM     40  C   UNL A   1      39.963  28.681  32.790  1.00  0.00     0.031 C 
ATOM     41  C   UNL A   1      41.215  27.317  26.434  1.00  0.00     0.029 A 
ATOM     42  C   UNL A   1      42.217  26.958  27.426  1.00  0.00     0.049 A 
ATOM     43  H   UNL A   1      42.547  27.928  29.253  1.00  0.00     0.167 HD
ATOM     44  C   UNL A   1      42.385  29.102  33.460  1.00  0.00     0.034 A 
ATOM     45  C   UNL A   1      43.139  25.959  27.410  1.00  0.00     0.034 A 
ATOM     46  C   UNL A   1      43.503  29.846  32.927  1.00  0.00     0.049 A 
ATOM     47  C   UNL A   1      44.149  26.275  28.453  1.00  0.00     0.074 A 
ATOM     48  C   UNL A   1      43.706  31.169  32.581  1.00  0.00     0.029 A 
ATOM     49  N   UNL A   1      44.523  29.145  32.324  1.00  0.00    -0.354 N 
ATOM     50  N   UNL A   1      44.955  27.298  28.389  1.00  0.00    -0.248 NA
ATOM     51  C   UNL A   1      43.961  25.725  29.788  1.00  0.00     0.031 C 
ATOM     52  C   UNL A   1      44.516  31.123  31.409  1.00  0.00     0.029 A 
ATOM     53  C   UNL A   1      44.817  29.785  31.145  1.00  0.00     0.049 A 
ATOM     54  H   UNL A   1      44.962  28.335  32.673  1.00  0.00     0.167 HD
ATOM     55  C   UNL A   1      45.024  27.786  29.684  1.00  0.00     0.074 A 
ATOM     56  C   UNL A   1      44.485  26.714  30.518  1.00  0.00     0.031 C 
ATOM     57  C   UNL A   1      45.244  29.110  29.933  1.00  0.00     0.034 A 
BRANCH  44  58
ATOM     58  C   UNL A   1      42.554  28.054  34.536  1.00  0.00     0.023 A 
ATOM     59  C   UNL A   1      43.270  26.892  34.193  1.00  0.00     0.031 A 
ATOM     60  C   UNL A   1      41.828  27.991  35.748  1.00  0.00     0.131 A 
ATOM     61  C   UNL A   1      43.162  25.723  34.964  1.00  0.00     0.055 A 
ATOM     62  C   UNL A   1      41.789  26.851  36.555  1.00  0.00     0.041 A 
ATOM     63  F   UNL A   1      41.037  28.983  36.174  1.00  0.00    -0.206 F 
ATOM     64  C   UNL A   1      42.431  25.696  36.147  1.00  0.00     0.022 A 
BRANCH  61  65
ATOM     65  S   UNL A   1      43.838  24.187  34.284  1.00  0.00     0.124 S 
ATOM     66  O   UNL A   1      45.064  24.039  35.060  1.00  0.00    -0.237 OA
ATOM     67  O   UNL A   1      42.770  23.237  34.575  1.00  0.00    -0.237 OA
ATOM     68  O   UNL A   1      44.028  24.500  32.869  1.00  0.00    -0.744 OA
ENDBRANCH  61  65
ENDBRANCH  44  58
BRANCH  45  69
ATOM     69  C   UNL A   1      43.012  24.626  26.759  1.00  0.00     0.023 A 
ATOM     70  C   UNL A   1      44.004  24.100  25.907  1.00  0.00     0.031 A 
ATOM     71  C   UNL A   1      41.988  23.738  27.163  1.00  0.00     0.131 A 
ATOM     72  C   UNL A   1      43.943  22.747  25.494  1.00  0.00     0.055 A 
ATOM     73  C   UNL A   1      41.925  22.408  26.741  1.00  0.00     0.041 A 
ATOM     74  F   UNL A   1      41.055  24.107  28.055  1.00  0.00    -0.206 F 
ATOM     75  C   UNL A   1      42.911  21.904  25.910  1.00  0.00     0.022 A 
BRANCH  72  76
ATOM     76  S   UNL A   1      45.281  22.031  24.486  1.00  0.00     0.124 S 
ATOM     77  O   UNL A   1      46.157  21.455  25.499  1.00  0.00    -0.237 OA
ATOM     78  O   UNL A   1      44.563  21.090  23.634  1.00  0.00    -0.237 OA
ATOM     79  O   UNL A   1      45.834  23.190  23.783  1.00  0.00    -0.744 OA
ENDBRANCH  72  76
ENDBRANCH  45  69
BRANCH  57  80
ATOM     80  C   UNL A   1      45.749  29.988  28.805  1.00  0.00     0.023 A 
ATOM     81  C   UNL A   1      44.979  30.968  28.138  1.00  0.00     0.031 A 
ATOM     82  C   UNL A   1      47.115  29.903  28.483  1.00  0.00     0.131 A 
ATOM     83  C   UNL A   1      45.583  31.806  27.180  1.00  0.00     0.055 A 
ATOM     84  C   UNL A   1      47.714  30.748  27.552  1.00  0.00     0.041 A 
ATOM     85  F   UNL A   1      47.906  29.012  29.103  1.00  0.00    -0.206 F 
ATOM     86  C   UNL A   1      46.947  31.701  26.891  1.00  0.00     0.022 A 
BRANCH  83  87
ATOM     87  S   UNL A   1      44.599  33.047  26.280  1.00  0.00     0.124 S 
ATOM     88  O   UNL A   1      45.605  33.914  25.681  1.00  0.00    -0.237 OA
ATOM     89  O   UNL A   1      43.827  32.224  25.352  1.00  0.00    -0.237 OA
ATOM     90  O   UNL A   1      43.803  33.679  27.335  1.00  0.00    -0.744 OA
ENDBRANCH  83  87
ENDBRANCH  57  80
ENDBRANCH  31  32
ENDBRANCH  24  26
ENDBRANCH  23  24
ENDBRANCH  22  23
ENDBRANCH   1  22
TORSDOF 18
ENDMDL
MODEL 2
REMARK VINA RESULT:     -10.7      1.297      1.898
REMARK SMILES Cc1oc2c(c1C(=O)NCCCC(=O)OCCOC(=O)c1ccc(-c3c4nc(c(-c5cc(S(=O)(=O)[O-])ccc5F)c5ccc([nH]5)c(-c5cc(S(=O)(=O)[O-])ccc5F)c5nc(c(-c6cc(S(=O)(=O)[O-])ccc6F)c6ccc3[nH]6)C=C5)C=C4)cc1)CCCC2
REMARK SMILES IDX 16 1 15 2 13 3 14 4 12 5 11 6 10 7 9 8 7 9 8 10 6 12 1 13
REMARK SMILES IDX 2 14 3 15 4 16 5 17 87 18 84 19 86 20 85 21 17 22 18 23
REMARK SMILES IDX 19 24 20 25 21 26 22 27 83 28 23 29 82 30 24 31 25 32 26 33
REMARK SMILES IDX 76 34 27 35 81 36 75 37 77 38 28 39 80 40 74 41 73 42 29 44
REMARK SMILES IDX 61 45 41 46 60 47 42 48 45 49 59 50 78 51 43 52 44 53 58 55
REMARK SMILES IDX 79 56 46 57 30 58 31 59 39 60 32 61 38 62 40 63 37 64 33 65
REMARK SMILES IDX 34 66 35 67 36 68 62 69 63 70 71 71 64 72 70 73 72 74 69 75
REMARK SMILES IDX 65 76 66 77 67 78 68 79 47 80 48 81 56 82 49 83 55 84 57 85
REMARK SMILES IDX 54 86 50 87 51 88 52 89 53 90
REMARK H PARENT 9 11 77 43 45 54
REMARK Flexibility Score: inf
ROOT
ATOM      1  C   UNL A   1      34.128  34.442  29.665  1.00  0.00     0.274 C 
ENDROOT
BRANCH   1   2
ATOM      2  O   UNL A   1      33.249  35.556  29.908  1.00  0.00    -0.462 OA
BRANCH   2   3
ATOM      3  C   UNL A   1      33.192  36.005  31.190  1.00  0.00     0.305 C 
ATOM      4  O   UNL A   1      32.951  37.161  31.518  1.00  0.00    -0.252 OA
BRANCH   3   5
ATOM      5  C   UNL A   1      33.585  34.931  32.175  1.00  0.00     0.124 C 
BRANCH   5   6
ATOM      6  C   UNL A   1      34.637  35.285  33.221  1.00  0.00     0.033 C 
BRANCH   6   7
ATOM      7  C   UNL A   1      35.173  34.167  34.116  1.00  0.00     0.117 C 
BRANCH   7   8
ATOM      8  N   UNL A   1      35.384  32.914  33.434  1.00  0.00    -0.352 N 
ATOM      9  C   UNL A   1      36.512  32.302  32.958  1.00  0.00     0.255 C 
ATOM     10  O   UNL A   1      36.304  31.226  32.386  1.00  0.00    -0.269 OA
ATOM     11  H   UNL A   1      34.558  32.401  33.280  1.00  0.00     0.163 HD
BRANCH   9  12
ATOM     12  C   UNL A   1      37.874  32.844  33.043  1.00  0.00     0.084 A 
ATOM     13  C   UNL A   1      38.372  34.589  31.056  1.00  0.00     0.088 C 
ATOM     14  C   UNL A   1      38.599  33.748  32.256  1.00  0.00     0.114 A 
ATOM     15  O   UNL A   1      39.856  33.937  32.768  1.00  0.00    -0.465 OA
ATOM     16  C   UNL A   1      39.937  33.223  33.898  1.00  0.00     0.108 A 
ATOM     17  C   UNL A   1      38.764  32.560  34.150  1.00  0.00     0.007 A 
ATOM     18  C   UNL A   1      41.160  33.284  34.725  1.00  0.00     0.076 C 
ATOM     19  C   UNL A   1      38.598  31.730  35.379  1.00  0.00     0.040 C 
ATOM     20  C   UNL A   1      41.096  32.177  35.794  1.00  0.00     0.008 C 
ATOM     21  C   UNL A   1      39.693  32.055  36.422  1.00  0.00     0.005 C 
ENDBRANCH   9  12
ENDBRANCH   7   8
ENDBRANCH   6   7
ENDBRANCH   5   6
ENDBRANCH   3   5
ENDBRANCH   2   3
ENDBRANCH   1   2
BRANCH   1  22
ATOM     22  C   UNL A   1      34.013  33.922  28.238  1.00  0.00     0.275 C 
BRANCH  22  23
ATOM     23  O   UNL A   1      35.110  33.082  27.880  1.00  0.00    -0.458 OA
BRANCH  23  24
ATOM     24  C   UNL A   1      34.880  31.759  28.048  1.00  0.00     0.338 C 
ATOM     25  O   UNL A   1      33.823  31.179  27.884  1.00  0.00    -0.246 OA
BRANCH  24  26
ATOM     26  C   UNL A   1      36.041  31.119  28.671  1.00  0.00     0.060 A 
ATOM     27  C   UNL A   1      37.141  31.926  28.983  1.00  0.00     0.016 A 
ATOM     28  C   UNL A   1      36.122  29.721  28.708  1.00  0.00     0.016 A 
ATOM     29  C   UNL A   1      38.361  31.325  29.226  1.00  0.00     0.010 A 
ATOM     30  C   UNL A   1      37.342  29.125  28.931  1.00  0.00     0.010 A 
ATOM     31  C   UNL A   1      38.459  29.933  29.141  1.00  0.00    -0.014 A 
BRANCH  31  32
ATOM     32  C   UNL A   1      39.744  29.312  29.400  1.00  0.00     0.031 A 
ATOM     33  C   UNL A   1      40.090  29.226  30.837  1.00  0.00     0.074 A 
ATOM     34  C   UNL A   1      40.478  28.714  28.445  1.00  0.00     0.049 A 
ATOM     35  N   UNL A   1      41.062  29.808  31.453  1.00  0.00    -0.248 NA
ATOM     36  C   UNL A   1      39.154  28.520  31.725  1.00  0.00     0.031 C 
ATOM     37  C   UNL A   1      40.100  28.464  27.053  1.00  0.00     0.029 A 
ATOM     38  N   UNL A   1      41.680  28.086  28.561  1.00  0.00    -0.354 N 
ATOM     39  C   UNL A   1      40.996  29.359  32.768  1.00  0.00     0.074 A 
ATOM     40  C   UNL A   1      39.704  28.744  32.916  1.00  0.00     0.031 C 
ATOM     41  C   UNL A   1      40.947  27.552  26.524  1.00  0.00     0.029 A 
ATOM     42  C   UNL A   1      41.986  27.249  27.496  1.00  0.00     0.049 A 
ATOM     43  H   UNL A   1      42.278  28.214  29.332  1.00  0.00     0.167 HD
ATOM     44  C   UNL A   1      42.102  29.318  33.557  1.00  0.00     0.034 A 
ATOM     45  C   UNL A   1      42.973  26.315  27.453  1.00  0.00     0.034 A 
ATOM     46  C   UNL A   1      43.159  30.143  33.019  1.00  0.00     0.049 A 
ATOM     47  C   UNL A   1      43.975  26.684  28.485  1.00  0.00     0.074 A 
ATOM     48  C   UNL A   1      43.268  31.481  32.689  1.00  0.00     0.029 A 
ATOM     49  N   UNL A   1      44.215  29.521  32.391  1.00  0.00    -0.354 N 
ATOM     50  N   UNL A   1      44.710  27.761  28.424  1.00  0.00    -0.248 NA
ATOM     51  C   UNL A   1      43.846  26.105  29.814  1.00  0.00     0.031 C 
ATOM     52  C   UNL A   1      44.061  31.506  31.505  1.00  0.00     0.029 A 
ATOM     53  C   UNL A   1      44.447  30.195  31.217  1.00  0.00     0.049 A 
ATOM     54  H   UNL A   1      44.712  28.738  32.722  1.00  0.00     0.167 HD
ATOM     55  C   UNL A   1      44.766  28.234  29.725  1.00  0.00     0.074 A 
ATOM     56  C   UNL A   1      44.313  27.117  30.551  1.00  0.00     0.031 C 
ATOM     57  C   UNL A   1      44.900  29.567  29.990  1.00  0.00     0.034 A 
BRANCH  44  58
ATOM     58  C   UNL A   1      42.358  28.270  34.616  1.00  0.00     0.023 A 
ATOM     59  C   UNL A   1      43.138  27.159  34.243  1.00  0.00     0.031 A 
ATOM     60  C   UNL A   1      41.662  28.147  35.840  1.00  0.00     0.131 A 
ATOM     61  C   UNL A   1      43.119  25.977  35.000  1.00  0.00     0.055 A 
ATOM     62  C   UNL A   1      41.711  26.996  36.632  1.00  0.00     0.041 A 
ATOM     63  F   UNL A   1      40.820  29.082  36.295  1.00  0.00    -0.206 F 
ATOM     64  C   UNL A   1      42.415  25.889  36.196  1.00  0.00     0.022 A 
BRANCH  61  65
ATOM     65  S   UNL A   1      43.875  24.495  34.287  1.00  0.00     0.124 S 
ATOM     66  O   UNL A   1      45.081  24.362  35.097  1.00  0.00    -0.237 OA
ATOM     67  O   UNL A   1      42.836  23.494  34.506  1.00  0.00    -0.237 OA
ATOM     68  O   UNL A   1      44.098  24.868  32.892  1.00  0.00    -0.744 OA
ENDBRANCH  61  65
ENDBRANCH  44  58
BRANCH  45  69
ATOM     69  C   UNL A   1      42.926  24.985  26.785  1.00  0.00     0.023 A 
ATOM     70  C   UNL A   1      43.910  24.561  25.868  1.00  0.00     0.031 A 
ATOM     71  C   UNL A   1      42.009  24.004  27.228  1.00  0.00     0.131 A 
ATOM     72  C   UNL A   1      43.944  23.214  25.433  1.00  0.00     0.055 A 
ATOM     73  C   UNL A   1      42.039  22.680  26.785  1.00  0.00     0.041 A 
ATOM     74  F   UNL A   1      41.101  24.276  28.178  1.00  0.00    -0.206 F 
ATOM     75  C   UNL A   1      43.015  22.277  25.890  1.00  0.00     0.022 A 
BRANCH  72  76
ATOM     76  S   UNL A   1      45.279  22.634  24.338  1.00  0.00     0.124 S 
ATOM     77  O   UNL A   1      45.937  23.880  23.964  1.00  0.00    -0.237 OA
ATOM     78  O   UNL A   1      46.031  21.737  25.208  1.00  0.00    -0.237 OA
ATOM     79  O   UNL A   1      44.561  21.967  23.250  1.00  0.00    -0.744 OA
ENDBRANCH  72  76
ENDBRANCH  45  69
BRANCH  57  80
ATOM     80  C   UNL A   1      45.327  30.492  28.868  1.00  0.00     0.023 A 
ATOM     81  C   UNL A   1      46.667  30.808  28.547  1.00  0.00     0.031 A 
ATOM     82  C   UNL A   1      44.321  30.973  28.011  1.00  0.00     0.131 A 
ATOM     83  C   UNL A   1      46.953  31.591  27.411  1.00  0.00     0.055 A 
ATOM     84  C   UNL A   1      44.609  31.728  26.875  1.00  0.00     0.041 A 
ATOM     85  F   UNL A   1      43.031  30.683  28.245  1.00  0.00    -0.206 F 
ATOM     86  C   UNL A   1      45.929  32.045  26.575  1.00  0.00     0.022 A 
BRANCH  83  87
ATOM     87  S   UNL A   1      48.671  32.043  27.004  1.00  0.00     0.124 S 
ATOM     88  O   UNL A   1      49.243  30.799  26.504  1.00  0.00    -0.237 OA
ATOM     89  O   UNL A   1      48.491  33.107  26.020  1.00  0.00    -0.237 OA
ATOM     90  O   UNL A   1      49.217  32.490  28.287  1.00  0.00    -0.744 OA
ENDBRANCH  83  87
ENDBRANCH  57  80
ENDBRANCH  31  32
ENDBRANCH  24  26
ENDBRANCH  23  24
ENDBRANCH  22  23
ENDBRANCH   1  22
TORSDOF 18
ENDMDL
MODEL 3
REMARK VINA RESULT:     -10.6      3.099     11.059
REMARK SMILES Cc1oc2c(c1C(=O)NCCCC(=O)OCCOC(=O)c1ccc(-c3c4nc(c(-c5cc(S(=O)(=O)[O-])ccc5F)c5ccc([nH]5)c(-c5cc(S(=O)(=O)[O-])ccc5F)c5nc(c(-c6cc(S(=O)(=O)[O-])ccc6F)c6ccc3[nH]6)C=C5)C=C4)cc1)CCCC2
REMARK SMILES IDX 16 1 15 2 13 3 14 4 12 5 11 6 10 7 9 8 7 9 8 10 6 12 1 13
REMARK SMILES IDX 2 14 3 15 4 16 5 17 87 18 84 19 86 20 85 21 17 22 18 23
REMARK SMILES IDX 19 24 20 25 21 26 22 27 83 28 23 29 82 30 24 31 25 32 26 33
REMARK SMILES IDX 76 34 27 35 81 36 75 37 77 38 28 39 80 40 74 41 73 42 29 44
REMARK SMILES IDX 61 45 41 46 60 47 42 48 45 49 59 50 78 51 43 52 44 53 58 55
REMARK SMILES IDX 79 56 46 57 30 58 31 59 39 60 32 61 38 62 40 63 37 64 33 65
REMARK SMILES IDX 34 66 35 67 36 68 62 69 63 70 71 71 64 72 70 73 72 74 69 75
REMARK SMILES IDX 65 76 66 77 67 78 68 79 47 80 48 81 56 82 49 83 55 84 57 85
REMARK SMILES IDX 54 86 50 87 51 88 52 89 53 90
REMARK H PARENT 9 11 77 43 45 54
REMARK Flexibility Score: inf
ROOT
ATOM      1  C   UNL A   1      42.653  21.009  26.225  1.00  0.00     0.274 C 
ENDROOT
BRANCH   1   2
ATOM      2  O   UNL A   1      42.407  21.850  25.082  1.00  0.00    -0.462 OA
BRANCH   2   3
ATOM      3  C   UNL A   1      43.458  22.598  24.653  1.00  0.00     0.305 C 
ATOM      4  O   UNL A   1      44.129  22.359  23.656  1.00  0.00    -0.252 OA
BRANCH   3   5
ATOM      5  C   UNL A   1      43.788  23.705  25.625  1.00  0.00     0.124 C 
BRANCH   5   6
ATOM      6  C   UNL A   1      43.787  25.135  25.093  1.00  0.00     0.033 C 
BRANCH   6   7
ATOM      7  C   UNL A   1      45.018  26.005  25.352  1.00  0.00     0.117 C 
BRANCH   7   8
ATOM      8  N   UNL A   1      46.198  25.264  25.721  1.00  0.00    -0.352 N 
ATOM      9  C   UNL A   1      46.809  25.042  26.925  1.00  0.00     0.255 C 
ATOM     10  O   UNL A   1      47.846  24.371  26.854  1.00  0.00    -0.269 OA
ATOM     11  H   UNL A   1      46.652  24.835  24.959  1.00  0.00     0.163 HD
BRANCH   9  12
ATOM     12  C   UNL A   1      46.354  25.567  28.219  1.00  0.00     0.084 A 
ATOM     13  C   UNL A   1      47.002  28.162  28.518  1.00  0.00     0.088 C 
ATOM     14  C   UNL A   1      46.461  26.819  28.838  1.00  0.00     0.114 A 
ATOM     15  O   UNL A   1      45.854  26.805  30.067  1.00  0.00    -0.465 OA
ATOM     16  C   UNL A   1      45.309  25.592  30.228  1.00  0.00     0.108 A 
ATOM     17  C   UNL A   1      45.540  24.797  29.136  1.00  0.00     0.007 A 
ATOM     18  C   UNL A   1      44.515  25.293  31.438  1.00  0.00     0.076 C 
ATOM     19  C   UNL A   1      44.993  23.411  29.064  1.00  0.00     0.040 C 
ATOM     20  C   UNL A   1      44.248  23.777  31.497  1.00  0.00     0.008 C 
ATOM     21  C   UNL A   1      43.880  23.196  30.117  1.00  0.00     0.005 C 
ENDBRANCH   9  12
ENDBRANCH   7   8
ENDBRANCH   6   7
ENDBRANCH   5   6
ENDBRANCH   3   5
ENDBRANCH   2   3
ENDBRANCH   1   2
BRANCH   1  22
ATOM     22  C   UNL A   1      41.471  20.990  27.186  1.00  0.00     0.275 C 
BRANCH  22  23
ATOM     23  O   UNL A   1      41.283  22.246  27.836  1.00  0.00    -0.458 OA
BRANCH  23  24
ATOM     24  C   UNL A   1      40.292  23.004  27.313  1.00  0.00     0.338 C 
ATOM     25  O   UNL A   1      39.363  22.615  26.632  1.00  0.00    -0.246 OA
BRANCH  24  26
ATOM     26  C   UNL A   1      40.591  24.426  27.499  1.00  0.00     0.060 A 
ATOM     27  C   UNL A   1      41.685  24.763  28.305  1.00  0.00     0.016 A 
ATOM     28  C   UNL A   1      39.659  25.387  27.087  1.00  0.00     0.016 A 
ATOM     29  C   UNL A   1      41.783  26.052  28.791  1.00  0.00     0.010 A 
ATOM     30  C   UNL A   1      39.747  26.666  27.589  1.00  0.00     0.010 A 
ATOM     31  C   UNL A   1      40.781  26.974  28.473  1.00  0.00    -0.014 A 
BRANCH  31  32
ATOM     32  C   UNL A   1      40.895  28.325  28.988  1.00  0.00     0.031 A 
ATOM     33  C   UNL A   1      42.051  29.077  28.450  1.00  0.00     0.074 A 
ATOM     34  C   UNL A   1      39.948  28.905  29.747  1.00  0.00     0.049 A 
ATOM     35  N   UNL A   1      43.076  29.520  29.095  1.00  0.00    -0.248 NA
ATOM     36  C   UNL A   1      42.148  29.229  26.990  1.00  0.00     0.031 C 
ATOM     37  C   UNL A   1      38.627  28.375  30.088  1.00  0.00     0.029 A 
ATOM     38  N   UNL A   1      39.928  30.160  30.274  1.00  0.00    -0.354 N 
ATOM     39  C   UNL A   1      43.840  30.208  28.158  1.00  0.00     0.074 A 
ATOM     40  C   UNL A   1      43.333  29.825  26.868  1.00  0.00     0.031 C 
ATOM     41  C   UNL A   1      37.859  29.380  30.566  1.00  0.00     0.029 A 
ATOM     42  C   UNL A   1      38.667  30.586  30.673  1.00  0.00     0.049 A 
ATOM     43  H   UNL A   1      40.735  30.717  30.362  1.00  0.00     0.167 HD
ATOM     44  C   UNL A   1      44.670  31.219  28.528  1.00  0.00     0.034 A 
ATOM     45  C   UNL A   1      38.300  31.855  30.989  1.00  0.00     0.034 A 
ATOM     46  C   UNL A   1      44.942  31.179  29.947  1.00  0.00     0.049 A 
ATOM     47  C   UNL A   1      39.536  32.598  31.342  1.00  0.00     0.074 A 
ATOM     48  C   UNL A   1      45.478  30.234  30.801  1.00  0.00     0.029 A 
ATOM     49  N   UNL A   1      44.308  32.093  30.758  1.00  0.00    -0.354 N 
ATOM     50  N   UNL A   1      40.264  32.330  32.392  1.00  0.00    -0.248 NA
ATOM     51  C   UNL A   1      40.223  33.338  30.293  1.00  0.00     0.031 C 
ATOM     52  C   UNL A   1      44.723  30.355  32.004  1.00  0.00     0.029 A 
ATOM     53  C   UNL A   1      43.819  31.407  31.842  1.00  0.00     0.049 A 
ATOM     54  H   UNL A   1      44.220  33.060  30.591  1.00  0.00     0.167 HD
ATOM     55  C   UNL A   1      41.576  32.466  31.967  1.00  0.00     0.074 A 
ATOM     56  C   UNL A   1      41.487  33.196  30.704  1.00  0.00     0.031 C 
ATOM     57  C   UNL A   1      42.582  31.734  32.527  1.00  0.00     0.034 A 
BRANCH  44  58
ATOM     58  C   UNL A   1      44.953  32.444  27.688  1.00  0.00     0.023 A 
ATOM     59  C   UNL A   1      46.242  32.559  27.136  1.00  0.00     0.031 A 
ATOM     60  C   UNL A   1      44.158  33.613  27.640  1.00  0.00     0.131 A 
ATOM     61  C   UNL A   1      46.723  33.795  26.676  1.00  0.00     0.055 A 
ATOM     62  C   UNL A   1      44.614  34.822  27.107  1.00  0.00     0.041 A 
ATOM     63  F   UNL A   1      42.941  33.688  28.190  1.00  0.00    -0.206 F 
ATOM     64  C   UNL A   1      45.915  34.928  26.652  1.00  0.00     0.022 A 
BRANCH  61  65
ATOM     65  S   UNL A   1      48.487  33.936  26.293  1.00  0.00     0.124 S 
ATOM     66  O   UNL A   1      48.950  34.806  27.369  1.00  0.00    -0.237 OA
ATOM     67  O   UNL A   1      48.919  32.544  26.357  1.00  0.00    -0.237 OA
ATOM     68  O   UNL A   1      48.496  34.533  24.960  1.00  0.00    -0.744 OA
ENDBRANCH  61  65
ENDBRANCH  44  58
BRANCH  45  69
ATOM     69  C   UNL A   1      36.994  32.512  30.703  1.00  0.00     0.023 A 
ATOM     70  C   UNL A   1      36.127  32.954  31.723  1.00  0.00     0.031 A 
ATOM     71  C   UNL A   1      36.685  32.926  29.386  1.00  0.00     0.131 A 
ATOM     72  C   UNL A   1      35.012  33.767  31.408  1.00  0.00     0.055 A 
ATOM     73  C   UNL A   1      35.575  33.716  29.079  1.00  0.00     0.041 A 
ATOM     74  F   UNL A   1      37.502  32.649  28.358  1.00  0.00    -0.206 F 
ATOM     75  C   UNL A   1      34.738  34.148  30.093  1.00  0.00     0.022 A 
BRANCH  72  76
ATOM     76  S   UNL A   1      33.955  34.434  32.732  1.00  0.00     0.124 S 
ATOM     77  O   UNL A   1      33.445  33.222  33.362  1.00  0.00    -0.237 OA
ATOM     78  O   UNL A   1      34.895  35.228  33.515  1.00  0.00    -0.237 OA
ATOM     79  O   UNL A   1      32.953  35.217  32.006  1.00  0.00    -0.744 OA
ENDBRANCH  72  76
ENDBRANCH  45  69
BRANCH  57  80
ATOM     80  C   UNL A   1      42.321  31.022  33.839  1.00  0.00     0.023 A 
ATOM     81  C   UNL A   1      42.269  29.619  34.001  1.00  0.00     0.031 A 
ATOM     82  C   UNL A   1      42.243  31.815  34.999  1.00  0.00     0.131 A 
ATOM     83  C   UNL A   1      42.132  29.063  35.288  1.00  0.00     0.055 A 
ATOM     84  C   UNL A   1      42.130  31.261  36.272  1.00  0.00     0.041 A 
ATOM     85  F   UNL A   1      42.314  33.153  34.915  1.00  0.00    -0.206 F 
ATOM     86  C   UNL A   1      42.067  29.880  36.421  1.00  0.00     0.022 A 
BRANCH  83  87
ATOM     87  S   UNL A   1      42.023  27.258  35.512  1.00  0.00     0.124 S 
ATOM     88  O   UNL A   1      40.831  26.890  34.760  1.00  0.00    -0.237 OA
ATOM     89  O   UNL A   1      43.295  26.796  34.962  1.00  0.00    -0.237 OA
ATOM     90  O   UNL A   1      41.899  27.104  36.963  1.00  0.00    -0.744 OA
ENDBRANCH  83  87
ENDBRANCH  57  80
ENDBRANCH  31  32
ENDBRANCH  24  26
ENDBRANCH  23  24
ENDBRANCH  22  23
ENDBRANCH   1  22
TORSDOF 18
ENDMDL
