MODEL 1
REMARK VINA RESULT:     -10.1      0.000      0.000
REMARK SMILES Cc1cc(Br)cc(C(=O)OCCOC(=O)c2ccc(-c3c4nc(c(-c5cc(S(=O)(=O)[O-])ccc5F)c5ccc([nH]5)c(-c5cc(S(=O)(=O)[O-])ccc5F)c5nc(c(-c6cc(S(=O)(=O)[O-])ccc6F)c6ccc3[nH]6)C=C5)C=C4)cc2)c1Br
REMARK SMILES IDX 13 1 12 2 11 3 10 4 8 5 9 6 7 7 1 8 2 9 3 10 79 11 4 12
REMARK SMILES IDX 80 13 5 14 6 15 14 16 15 17 16 18 17 19 78 20 18 21 77 22
REMARK SMILES IDX 19 23 20 24 21 25 71 26 22 27 76 28 70 29 72 30 23 31 75 32
REMARK SMILES IDX 69 33 68 34 24 36 56 37 36 38 55 39 37 40 40 41 54 42 73 43
REMARK SMILES IDX 38 44 39 45 53 47 74 48 41 49 25 50 26 51 34 52 27 53 33 54
REMARK SMILES IDX 35 55 32 56 28 57 29 58 30 59 31 60 57 61 58 62 66 63 59 64
REMARK SMILES IDX 65 65 67 66 64 67 60 68 61 69 62 70 63 71 42 72 43 73 51 74
REMARK SMILES IDX 44 75 50 76 52 77 49 78 45 79 46 80 47 81 48 82
REMARK H PARENT 72 35 40 46
REMARK Flexibility Score: inf
ROOT
ATOM      1  O   UNL A   1      40.049  20.916  26.993  1.00  0.00    -0.458 OA
ENDROOT
BRANCH   1   2
ATOM      2  C   UNL A   1      40.930  20.194  26.114  1.00  0.00     0.275 C 
BRANCH   2   3
ATOM      3  C   UNL A   1      42.336  20.154  26.708  1.00  0.00     0.275 C 
BRANCH   3   4
ATOM      4  O   UNL A   1      43.304  20.642  25.756  1.00  0.00    -0.458 OA
BRANCH   4   5
ATOM      5  C   UNL A   1      43.308  21.975  25.523  1.00  0.00     0.339 C 
ATOM      6  O   UNL A   1      42.610  22.576  24.720  1.00  0.00    -0.246 OA
BRANCH   5   7
ATOM      7  C   UNL A   1      44.200  22.672  26.476  1.00  0.00     0.075 A 
ATOM      8  C   UNL A   1      47.538  24.547  26.858  1.00  0.00     0.045 C 
ATOM      9  C   UNL A   1      46.211  23.888  27.122  1.00  0.00    -0.035 A 
ATOM     10  C   UNL A   1      45.748  23.899  28.451  1.00  0.00     0.020 A 
ATOM     11  C   UNL A   1      45.441  23.238  26.130  1.00  0.00     0.035 A 
ATOM     12  C   UNL A   1      44.506  23.364  28.774  1.00  0.00     0.019 A 
ATOM     13  Br  UNL A   1      46.050  23.218  24.320  1.00  0.00    -0.050 Br
ATOM     14  Br  UNL A   1      43.891  23.412  30.559  1.00  0.00    -0.051 Br
ATOM     15  C   UNL A   1      43.715  22.793  27.788  1.00  0.00     0.032 A 
ENDBRANCH   5   7
ENDBRANCH   4   5
ENDBRANCH   3   4
ENDBRANCH   2   3
ENDBRANCH   1   2
BRANCH   1  16
ATOM     16  C   UNL A   1      39.287  21.865  26.401  1.00  0.00     0.338 C 
ATOM     17  O   UNL A   1      38.314  21.705  25.688  1.00  0.00    -0.246 OA
BRANCH  16  18
ATOM     18  C   UNL A   1      39.740  23.176  26.886  1.00  0.00     0.060 A 
ATOM     19  C   UNL A   1      40.473  23.314  28.061  1.00  0.00     0.016 A 
ATOM     20  C   UNL A   1      39.456  24.285  26.094  1.00  0.00     0.016 A 
ATOM     21  C   UNL A   1      40.901  24.591  28.448  1.00  0.00     0.010 A 
ATOM     22  C   UNL A   1      39.920  25.546  26.453  1.00  0.00     0.010 A 
ATOM     23  C   UNL A   1      40.637  25.719  27.645  1.00  0.00    -0.014 A 
BRANCH  23  24
ATOM     24  C   UNL A   1      41.130  27.074  28.017  1.00  0.00     0.031 A 
ATOM     25  C   UNL A   1      42.562  27.471  27.765  1.00  0.00     0.074 A 
ATOM     26  C   UNL A   1      40.300  27.931  28.647  1.00  0.00     0.049 A 
ATOM     27  N   UNL A   1      43.168  28.596  28.047  1.00  0.00    -0.248 NA
ATOM     28  C   UNL A   1      43.435  26.463  27.141  1.00  0.00     0.031 C 
ATOM     29  C   UNL A   1      38.917  27.633  29.017  1.00  0.00     0.029 A 
ATOM     30  N   UNL A   1      40.494  29.216  29.091  1.00  0.00    -0.354 N 
ATOM     31  C   UNL A   1      44.491  28.428  27.653  1.00  0.00     0.074 A 
ATOM     32  C   UNL A   1      44.613  27.073  27.165  1.00  0.00     0.031 C 
ATOM     33  C   UNL A   1      38.374  28.717  29.591  1.00  0.00     0.029 A 
ATOM     34  C   UNL A   1      39.378  29.775  29.671  1.00  0.00     0.049 A 
ATOM     35  H   UNL A   1      41.352  29.692  29.003  1.00  0.00     0.167 HD
ATOM     36  C   UNL A   1      45.502  29.330  27.669  1.00  0.00     0.034 A 
ATOM     37  C   UNL A   1      39.179  31.001  30.200  1.00  0.00     0.034 A 
ATOM     38  C   UNL A   1      45.354  30.690  28.119  1.00  0.00     0.049 A 
ATOM     39  C   UNL A   1      40.306  32.003  30.168  1.00  0.00     0.074 A 
ATOM     40  C   UNL A   1      46.296  31.703  28.097  1.00  0.00     0.029 A 
ATOM     41  N   UNL A   1      44.197  31.231  28.660  1.00  0.00    -0.354 N 
ATOM     42  N   UNL A   1      41.521  31.861  29.693  1.00  0.00    -0.248 NA
ATOM     43  C   UNL A   1      40.038  33.335  30.731  1.00  0.00     0.031 C 
ATOM     44  C   UNL A   1      45.725  32.842  28.667  1.00  0.00     0.029 A 
ATOM     45  C   UNL A   1      44.408  32.560  28.989  1.00  0.00     0.049 A 
ATOM     46  H   UNL A   1      43.352  30.744  28.791  1.00  0.00     0.167 HD
ATOM     47  C   UNL A   1      42.153  33.088  29.877  1.00  0.00     0.074 A 
ATOM     48  C   UNL A   1      41.181  33.968  30.488  1.00  0.00     0.031 C 
ATOM     49  C   UNL A   1      43.426  33.444  29.572  1.00  0.00     0.034 A 
BRANCH  36  50
ATOM     50  C   UNL A   1      46.856  28.914  27.143  1.00  0.00     0.023 A 
ATOM     51  C   UNL A   1      47.026  28.598  25.782  1.00  0.00     0.031 A 
ATOM     52  C   UNL A   1      47.941  28.701  28.014  1.00  0.00     0.131 A 
ATOM     53  C   UNL A   1      48.243  28.063  25.337  1.00  0.00     0.055 A 
ATOM     54  C   UNL A   1      49.165  28.210  27.558  1.00  0.00     0.041 A 
ATOM     55  F   UNL A   1      47.828  28.977  29.324  1.00  0.00    -0.206 F 
ATOM     56  C   UNL A   1      49.315  27.877  26.216  1.00  0.00     0.022 A 
BRANCH  53  57
ATOM     57  S   UNL A   1      48.467  27.527  23.619  1.00  0.00     0.124 S 
ATOM     58  O   UNL A   1      49.723  28.183  23.261  1.00  0.00    -0.237 OA
ATOM     59  O   UNL A   1      48.540  26.075  23.758  1.00  0.00    -0.237 OA
ATOM     60  O   UNL A   1      47.285  28.037  22.934  1.00  0.00    -0.744 OA
ENDBRANCH  53  57
ENDBRANCH  36  50
BRANCH  37  61
ATOM     61  C   UNL A   1      37.822  31.357  30.712  1.00  0.00     0.023 A 
ATOM     62  C   UNL A   1      36.882  32.012  29.895  1.00  0.00     0.031 A 
ATOM     63  C   UNL A   1      37.497  31.154  32.064  1.00  0.00     0.131 A 
ATOM     64  C   UNL A   1      35.693  32.499  30.457  1.00  0.00     0.055 A 
ATOM     65  C   UNL A   1      36.282  31.582  32.603  1.00  0.00     0.041 A 
ATOM     66  F   UNL A   1      38.369  30.548  32.885  1.00  0.00    -0.206 F 
ATOM     67  C   UNL A   1      35.381  32.274  31.801  1.00  0.00     0.022 A 
BRANCH  64  68
ATOM     68  S   UNL A   1      34.575  33.558  29.498  1.00  0.00     0.124 S 
ATOM     69  O   UNL A   1      35.499  34.523  28.910  1.00  0.00    -0.237 OA
ATOM     70  O   UNL A   1      33.986  32.602  28.564  1.00  0.00    -0.237 OA
ATOM     71  O   UNL A   1      33.660  34.091  30.501  1.00  0.00    -0.744 OA
ENDBRANCH  64  68
ENDBRANCH  37  61
BRANCH  49  72
ATOM     72  C   UNL A   1      43.882  34.852  29.868  1.00  0.00     0.023 A 
ATOM     73  C   UNL A   1      43.926  35.806  28.833  1.00  0.00     0.031 A 
ATOM     74  C   UNL A   1      44.447  35.187  31.109  1.00  0.00     0.131 A 
ATOM     75  C   UNL A   1      44.573  37.030  29.043  1.00  0.00     0.055 A 
ATOM     76  C   UNL A   1      45.052  36.426  31.326  1.00  0.00     0.041 A 
ATOM     77  F   UNL A   1      44.439  34.306  32.122  1.00  0.00    -0.206 F 
ATOM     78  C   UNL A   1      45.132  37.348  30.285  1.00  0.00     0.022 A 
BRANCH  75  79
ATOM     79  S   UNL A   1      44.800  38.214  27.686  1.00  0.00     0.124 S 
ATOM     80  O   UNL A   1      43.425  38.626  27.410  1.00  0.00    -0.237 OA
ATOM     81  O   UNL A   1      45.643  39.233  28.305  1.00  0.00    -0.237 OA
ATOM     82  O   UNL A   1      45.434  37.427  26.633  1.00  0.00    -0.744 OA
ENDBRANCH  75  79
ENDBRANCH  49  72
ENDBRANCH  23  24
ENDBRANCH  16  18
ENDBRANCH   1  16
TORSDOF 14
ENDMDL
MODEL 2
REMARK VINA RESULT:      -9.9      3.300      5.018
REMARK SMILES Cc1cc(Br)cc(C(=O)OCCOC(=O)c2ccc(-c3c4nc(c(-c5cc(S(=O)(=O)[O-])ccc5F)c5ccc([nH]5)c(-c5cc(S(=O)(=O)[O-])ccc5F)c5nc(c(-c6cc(S(=O)(=O)[O-])ccc6F)c6ccc3[nH]6)C=C5)C=C4)cc2)c1Br
REMARK SMILES IDX 13 1 12 2 11 3 10 4 8 5 9 6 7 7 1 8 2 9 3 10 79 11 4 12
REMARK SMILES IDX 80 13 5 14 6 15 14 16 15 17 16 18 17 19 78 20 18 21 77 22
REMARK SMILES IDX 19 23 20 24 21 25 71 26 22 27 76 28 70 29 72 30 23 31 75 32
REMARK SMILES IDX 69 33 68 34 24 36 56 37 36 38 55 39 37 40 40 41 54 42 73 43
REMARK SMILES IDX 38 44 39 45 53 47 74 48 41 49 25 50 26 51 34 52 27 53 33 54
REMARK SMILES IDX 35 55 32 56 28 57 29 58 30 59 31 60 57 61 58 62 66 63 59 64
REMARK SMILES IDX 65 65 67 66 64 67 60 68 61 69 62 70 63 71 42 72 43 73 51 74
REMARK SMILES IDX 44 75 50 76 52 77 49 78 45 79 46 80 47 81 48 82
REMARK H PARENT 72 35 40 46
REMARK Flexibility Score: inf
ROOT
ATOM      1  O   UNL A   1      37.313  21.541  25.800  1.00  0.00    -0.458 OA
ENDROOT
BRANCH   1   2
ATOM      2  C   UNL A   1      36.578  20.600  24.999  1.00  0.00     0.275 C 
BRANCH   2   3
ATOM      3  C   UNL A   1      35.090  20.947  25.028  1.00  0.00     0.275 C 
BRANCH   3   4
ATOM      4  O   UNL A   1      34.893  22.298  25.493  1.00  0.00    -0.458 OA
BRANCH   4   5
ATOM      5  C   UNL A   1      33.619  22.755  25.507  1.00  0.00     0.339 C 
ATOM      6  O   UNL A   1      32.661  22.227  26.052  1.00  0.00    -0.246 OA
BRANCH   5   7
ATOM      7  C   UNL A   1      33.532  24.087  24.869  1.00  0.00     0.075 A 
ATOM      8  C   UNL A   1      32.990  25.947  21.543  1.00  0.00     0.045 C 
ATOM      9  C   UNL A   1      33.242  25.612  22.989  1.00  0.00    -0.035 A 
ATOM     10  C   UNL A   1      33.455  26.693  23.866  1.00  0.00     0.020 A 
ATOM     11  C   UNL A   1      33.314  24.292  23.493  1.00  0.00     0.035 A 
ATOM     12  C   UNL A   1      33.637  26.477  25.227  1.00  0.00     0.019 A 
ATOM     13  Br  UNL A   1      33.024  22.814  22.321  1.00  0.00    -0.050 Br
ATOM     14  Br  UNL A   1      33.894  27.943  26.391  1.00  0.00    -0.051 Br
ATOM     15  C   UNL A   1      33.633  25.187  25.735  1.00  0.00     0.032 A 
ENDBRANCH   5   7
ENDBRANCH   4   5
ENDBRANCH   3   4
ENDBRANCH   2   3
ENDBRANCH   1   2
BRANCH   1  16
ATOM     16  C   UNL A   1      38.616  21.236  26.004  1.00  0.00     0.338 C 
ATOM     17  O   UNL A   1      39.189  20.194  25.745  1.00  0.00    -0.246 OA
BRANCH  16  18
ATOM     18  C   UNL A   1      39.298  22.452  26.468  1.00  0.00     0.060 A 
ATOM     19  C   UNL A   1      40.481  22.399  27.200  1.00  0.00     0.016 A 
ATOM     20  C   UNL A   1      38.745  23.676  26.104  1.00  0.00     0.016 A 
ATOM     21  C   UNL A   1      41.096  23.598  27.584  1.00  0.00     0.010 A 
ATOM     22  C   UNL A   1      39.380  24.867  26.444  1.00  0.00     0.010 A 
ATOM     23  C   UNL A   1      40.557  24.844  27.203  1.00  0.00    -0.014 A 
BRANCH  23  24
ATOM     24  C   UNL A   1      41.227  26.126  27.559  1.00  0.00     0.031 A 
ATOM     25  C   UNL A   1      42.626  26.424  27.084  1.00  0.00     0.074 A 
ATOM     26  C   UNL A   1      40.598  26.998  28.372  1.00  0.00     0.049 A 
ATOM     27  N   UNL A   1      43.371  27.474  27.319  1.00  0.00    -0.248 NA
ATOM     28  C   UNL A   1      43.286  25.397  26.262  1.00  0.00     0.031 C 
ATOM     29  C   UNL A   1      39.276  26.786  28.961  1.00  0.00     0.029 A 
ATOM     30  N   UNL A   1      40.980  28.229  28.848  1.00  0.00    -0.354 N 
ATOM     31  C   UNL A   1      44.588  27.229  26.691  1.00  0.00     0.074 A 
ATOM     32  C   UNL A   1      44.501  25.907  26.113  1.00  0.00     0.031 C 
ATOM     33  C   UNL A   1      38.939  27.866  29.682  1.00  0.00     0.029 A 
ATOM     34  C   UNL A   1      40.034  28.832  29.644  1.00  0.00     0.049 A 
ATOM     35  H   UNL A   1      41.850  28.640  28.638  1.00  0.00     0.167 HD
ATOM     36  C   UNL A   1      45.664  28.044  26.581  1.00  0.00     0.034 A 
ATOM     37  C   UNL A   1      40.040  30.029  30.269  1.00  0.00     0.034 A 
ATOM     38  C   UNL A   1      45.719  29.376  27.127  1.00  0.00     0.049 A 
ATOM     39  C   UNL A   1      41.231  30.938  30.097  1.00  0.00     0.074 A 
ATOM     40  C   UNL A   1      46.732  30.310  26.998  1.00  0.00     0.029 A 
ATOM     41  N   UNL A   1      44.725  29.968  27.892  1.00  0.00    -0.354 N 
ATOM     42  N   UNL A   1      42.330  30.734  29.410  1.00  0.00    -0.248 NA
ATOM     43  C   UNL A   1      41.185  32.244  30.773  1.00  0.00     0.031 C 
ATOM     44  C   UNL A   1      46.372  31.447  27.722  1.00  0.00     0.029 A 
ATOM     45  C   UNL A   1      45.108  31.248  28.254  1.00  0.00     0.049 A 
ATOM     46  H   UNL A   1      43.873  29.541  28.140  1.00  0.00     0.167 HD
ATOM     47  C   UNL A   1      43.093  31.890  29.550  1.00  0.00     0.074 A 
ATOM     48  C   UNL A   1      42.323  32.799  30.371  1.00  0.00     0.031 C 
ATOM     49  C   UNL A   1      44.323  32.164  29.048  1.00  0.00     0.034 A 
BRANCH  36  50
ATOM     50  C   UNL A   1      46.866  27.560  25.804  1.00  0.00     0.023 A 
ATOM     51  C   UNL A   1      47.042  27.932  24.458  1.00  0.00     0.031 A 
ATOM     52  C   UNL A   1      47.761  26.625  26.356  1.00  0.00     0.131 A 
ATOM     53  C   UNL A   1      48.071  27.353  23.703  1.00  0.00     0.055 A 
ATOM     54  C   UNL A   1      48.811  26.084  25.613  1.00  0.00     0.041 A 
ATOM     55  F   UNL A   1      47.632  26.227  27.633  1.00  0.00    -0.206 F 
ATOM     56  C   UNL A   1      48.961  26.438  24.276  1.00  0.00     0.022 A 
BRANCH  53  57
ATOM     57  S   UNL A   1      48.261  27.708  21.934  1.00  0.00     0.124 S 
ATOM     58  O   UNL A   1      49.419  28.599  21.930  1.00  0.00    -0.237 OA
ATOM     59  O   UNL A   1      48.495  26.378  21.379  1.00  0.00    -0.237 OA
ATOM     60  O   UNL A   1      46.996  28.333  21.564  1.00  0.00    -0.744 OA
ENDBRANCH  53  57
ENDBRANCH  36  50
BRANCH  37  61
ATOM     61  C   UNL A   1      38.827  30.455  31.030  1.00  0.00     0.023 A 
ATOM     62  C   UNL A   1      37.724  31.037  30.379  1.00  0.00     0.031 A 
ATOM     63  C   UNL A   1      38.811  30.395  32.434  1.00  0.00     0.131 A 
ATOM     64  C   UNL A   1      36.685  31.596  31.137  1.00  0.00     0.055 A 
ATOM     65  C   UNL A   1      37.743  30.892  33.181  1.00  0.00     0.041 A 
ATOM     66  F   UNL A   1      39.849  29.862  33.098  1.00  0.00    -0.206 F 
ATOM     67  C   UNL A   1      36.681  31.513  32.533  1.00  0.00     0.022 A 
BRANCH  64  68
ATOM     68  S   UNL A   1      35.373  32.569  30.346  1.00  0.00     0.124 S 
ATOM     69  O   UNL A   1      35.007  31.723  29.214  1.00  0.00    -0.237 OA
ATOM     70  O   UNL A   1      34.381  32.656  31.414  1.00  0.00    -0.237 OA
ATOM     71  O   UNL A   1      36.032  33.826  30.008  1.00  0.00    -0.744 OA
ENDBRANCH  64  68
ENDBRANCH  37  61
BRANCH  49  72
ATOM     72  C   UNL A   1      44.949  33.506  29.339  1.00  0.00     0.023 A 
ATOM     73  C   UNL A   1      44.845  34.547  28.396  1.00  0.00     0.031 A 
ATOM     74  C   UNL A   1      45.798  33.689  30.443  1.00  0.00     0.131 A 
ATOM     75  C   UNL A   1      45.623  35.702  28.546  1.00  0.00     0.055 A 
ATOM     76  C   UNL A   1      46.536  34.861  30.611  1.00  0.00     0.041 A 
ATOM     77  F   UNL A   1      45.937  32.721  31.362  1.00  0.00    -0.206 F 
ATOM     78  C   UNL A   1      46.464  35.867  29.652  1.00  0.00     0.022 A 
BRANCH  75  79
ATOM     79  S   UNL A   1      45.646  36.988  27.266  1.00  0.00     0.124 S 
ATOM     80  O   UNL A   1      46.480  38.017  27.885  1.00  0.00    -0.237 OA
ATOM     81  O   UNL A   1      46.254  36.288  26.138  1.00  0.00    -0.237 OA
ATOM     82  O   UNL A   1      44.242  37.347  27.100  1.00  0.00    -0.744 OA
ENDBRANCH  75  79
ENDBRANCH  49  72
ENDBRANCH  23  24
ENDBRANCH  16  18
ENDBRANCH   1  16
TORSDOF 14
ENDMDL
MODEL 3
REMARK VINA RESULT:      -9.9      5.776     11.374
REMARK SMILES Cc1cc(Br)cc(C(=O)OCCOC(=O)c2ccc(-c3c4nc(c(-c5cc(S(=O)(=O)[O-])ccc5F)c5ccc([nH]5)c(-c5cc(S(=O)(=O)[O-])ccc5F)c5nc(c(-c6cc(S(=O)(=O)[O-])ccc6F)c6ccc3[nH]6)C=C5)C=C4)cc2)c1Br
REMARK SMILES IDX 13 1 12 2 11 3 10 4 8 5 9 6 7 7 1 8 2 9 3 10 79 11 4 12
REMARK SMILES IDX 80 13 5 14 6 15 14 16 15 17 16 18 17 19 78 20 18 21 77 22
REMARK SMILES IDX 19 23 20 24 21 25 71 26 22 27 76 28 70 29 72 30 23 31 75 32
REMARK SMILES IDX 69 33 68 34 24 36 56 37 36 38 55 39 37 40 40 41 54 42 73 43
REMARK SMILES IDX 38 44 39 45 53 47 74 48 41 49 25 50 26 51 34 52 27 53 33 54
REMARK SMILES IDX 35 55 32 56 28 57 29 58 30 59 31 60 57 61 58 62 66 63 59 64
REMARK SMILES IDX 65 65 67 66 64 67 60 68 61 69 62 70 63 71 42 72 43 73 51 74
REMARK SMILES IDX 44 75 50 76 52 77 49 78 45 79 46 80 47 81 48 82
REMARK H PARENT 72 35 40 46
REMARK Flexibility Score: inf
ROOT
ATOM      1  O   UNL A   1      33.399  30.554  26.479  1.00  0.00    -0.458 OA
ENDROOT
BRANCH   1   2
ATOM      2  C   UNL A   1      31.986  30.299  26.555  1.00  0.00     0.275 C 
BRANCH   2   3
ATOM      3  C   UNL A   1      31.738  28.960  27.247  1.00  0.00     0.275 C 
BRANCH   3   4
ATOM      4  O   UNL A   1      32.597  27.938  26.700  1.00  0.00    -0.458 OA
BRANCH   4   5
ATOM      5  C   UNL A   1      32.018  26.749  26.410  1.00  0.00     0.339 C 
ATOM      6  O   UNL A   1      30.968  26.320  26.864  1.00  0.00    -0.246 OA
BRANCH   5   7
ATOM      7  C   UNL A   1      32.763  26.050  25.340  1.00  0.00     0.075 A 
ATOM      8  C   UNL A   1      32.891  25.313  21.565  1.00  0.00     0.045 C 
ATOM      9  C   UNL A   1      33.182  25.355  23.041  1.00  0.00    -0.035 A 
ATOM     10  C   UNL A   1      34.291  24.615  23.493  1.00  0.00     0.020 A 
ATOM     11  C   UNL A   1      32.391  26.054  23.983  1.00  0.00     0.035 A 
ATOM     12  C   UNL A   1      34.666  24.644  24.831  1.00  0.00     0.019 A 
ATOM     13  Br  UNL A   1      30.886  27.068  23.388  1.00  0.00    -0.050 Br
ATOM     14  Br  UNL A   1      36.173  23.666  25.413  1.00  0.00    -0.051 Br
ATOM     15  C   UNL A   1      33.935  25.391  25.744  1.00  0.00     0.032 A 
ENDBRANCH   5   7
ENDBRANCH   4   5
ENDBRANCH   3   4
ENDBRANCH   2   3
ENDBRANCH   1   2
BRANCH   1  16
ATOM     16  C   UNL A   1      33.858  31.528  27.299  1.00  0.00     0.338 C 
ATOM     17  O   UNL A   1      33.291  32.551  27.634  1.00  0.00    -0.246 OA
BRANCH  16  18
ATOM     18  C   UNL A   1      35.138  31.080  27.863  1.00  0.00     0.060 A 
ATOM     19  C   UNL A   1      36.219  31.944  28.017  1.00  0.00     0.016 A 
ATOM     20  C   UNL A   1      35.221  29.759  28.295  1.00  0.00     0.016 A 
ATOM     21  C   UNL A   1      37.401  31.457  28.592  1.00  0.00     0.010 A 
ATOM     22  C   UNL A   1      36.377  29.287  28.908  1.00  0.00     0.010 A 
ATOM     23  C   UNL A   1      37.489  30.128  29.051  1.00  0.00    -0.014 A 
BRANCH  23  24
ATOM     24  C   UNL A   1      38.721  29.611  29.712  1.00  0.00     0.031 A 
ATOM     25  C   UNL A   1      39.143  30.122  31.065  1.00  0.00     0.074 A 
ATOM     26  C   UNL A   1      39.500  28.725  29.059  1.00  0.00     0.049 A 
ATOM     27  N   UNL A   1      40.196  29.805  31.775  1.00  0.00    -0.248 NA
ATOM     28  C   UNL A   1      38.288  31.143  31.692  1.00  0.00     0.031 C 
ATOM     29  C   UNL A   1      39.240  28.217  27.713  1.00  0.00     0.029 A 
ATOM     30  N   UNL A   1      40.666  28.100  29.431  1.00  0.00    -0.354 N 
ATOM     31  C   UNL A   1      40.140  30.595  32.918  1.00  0.00     0.074 A 
ATOM     32  C   UNL A   1      38.980  31.447  32.781  1.00  0.00     0.031 C 
ATOM     33  C   UNL A   1      40.190  27.328  27.388  1.00  0.00     0.029 A 
ATOM     34  C   UNL A   1      41.153  27.229  28.483  1.00  0.00     0.049 A 
ATOM     35  H   UNL A   1      41.111  28.261  30.295  1.00  0.00     0.167 HD
ATOM     36  C   UNL A   1      40.961  30.588  33.996  1.00  0.00     0.034 A 
ATOM     37  C   UNL A   1      42.244  26.435  28.492  1.00  0.00     0.034 A 
ATOM     38  C   UNL A   1      42.089  29.703  34.137  1.00  0.00     0.049 A 
ATOM     39  C   UNL A   1      43.121  26.411  29.720  1.00  0.00     0.074 A 
ATOM     40  C   UNL A   1      42.932  29.561  35.224  1.00  0.00     0.029 A 
ATOM     41  N   UNL A   1      42.525  28.805  33.173  1.00  0.00    -0.354 N 
ATOM     42  N   UNL A   1      42.992  27.088  30.836  1.00  0.00    -0.248 NA
ATOM     43  C   UNL A   1      44.285  25.513  29.699  1.00  0.00     0.031 C 
ATOM     44  C   UNL A   1      43.905  28.614  34.902  1.00  0.00     0.029 A 
ATOM     45  C   UNL A   1      43.635  28.119  33.637  1.00  0.00     0.049 A 
ATOM     46  H   UNL A   1      42.109  28.675  32.291  1.00  0.00     0.167 HD
ATOM     47  C   UNL A   1      44.040  26.680  31.657  1.00  0.00     0.074 A 
ATOM     48  C   UNL A   1      44.783  25.683  30.918  1.00  0.00     0.031 C 
ATOM     49  C   UNL A   1      44.356  27.103  32.907  1.00  0.00     0.034 A 
BRANCH  36  50
ATOM     50  C   UNL A   1      40.663  31.524  35.144  1.00  0.00     0.023 A 
ATOM     51  C   UNL A   1      39.575  31.276  36.002  1.00  0.00     0.031 A 
ATOM     52  C   UNL A   1      41.373  32.728  35.303  1.00  0.00     0.131 A 
ATOM     53  C   UNL A   1      39.214  32.230  36.963  1.00  0.00     0.055 A 
ATOM     54  C   UNL A   1      41.036  33.655  36.291  1.00  0.00     0.041 A 
ATOM     55  F   UNL A   1      42.413  33.019  34.504  1.00  0.00    -0.206 F 
ATOM     56  C   UNL A   1      39.944  33.413  37.118  1.00  0.00     0.022 A 
BRANCH  53  57
ATOM     57  S   UNL A   1      37.747  32.010  38.007  1.00  0.00     0.124 S 
ATOM     58  O   UNL A   1      36.824  32.989  37.438  1.00  0.00    -0.237 OA
ATOM     59  O   UNL A   1      37.403  30.612  37.762  1.00  0.00    -0.237 OA
ATOM     60  O   UNL A   1      38.224  32.316  39.352  1.00  0.00    -0.744 OA
ENDBRANCH  53  57
ENDBRANCH  36  50
BRANCH  37  61
ATOM     61  C   UNL A   1      42.495  25.535  27.328  1.00  0.00     0.023 A 
ATOM     62  C   UNL A   1      42.004  24.216  27.305  1.00  0.00     0.031 A 
ATOM     63  C   UNL A   1      43.334  25.947  26.278  1.00  0.00     0.131 A 
ATOM     64  C   UNL A   1      42.413  23.340  26.290  1.00  0.00     0.055 A 
ATOM     65  C   UNL A   1      43.683  25.090  25.233  1.00  0.00     0.041 A 
ATOM     66  F   UNL A   1      43.838  27.190  26.265  1.00  0.00    -0.206 F 
ATOM     67  C   UNL A   1      43.236  23.773  25.246  1.00  0.00     0.022 A 
BRANCH  64  68
ATOM     68  S   UNL A   1      42.002  21.574  26.362  1.00  0.00     0.124 S 
ATOM     69  O   UNL A   1      40.597  21.572  25.968  1.00  0.00    -0.237 OA
ATOM     70  O   UNL A   1      42.931  21.011  25.385  1.00  0.00    -0.237 OA
ATOM     71  O   UNL A   1      42.269  21.214  27.751  1.00  0.00    -0.744 OA
ENDBRANCH  64  68
ENDBRANCH  37  61
BRANCH  49  72
ATOM     72  C   UNL A   1      45.553  26.499  33.602  1.00  0.00     0.023 A 
ATOM     73  C   UNL A   1      45.392  25.355  34.408  1.00  0.00     0.031 A 
ATOM     74  C   UNL A   1      46.792  27.160  33.621  1.00  0.00     0.131 A 
ATOM     75  C   UNL A   1      46.437  24.940  35.243  1.00  0.00     0.055 A 
ATOM     76  C   UNL A   1      47.845  26.715  34.421  1.00  0.00     0.041 A 
ATOM     77  F   UNL A   1      46.989  28.261  32.878  1.00  0.00    -0.206 F 
ATOM     78  C   UNL A   1      47.665  25.611  35.249  1.00  0.00     0.022 A 
BRANCH  75  79
ATOM     79  S   UNL A   1      46.211  23.577  36.419  1.00  0.00     0.124 S 
ATOM     80  O   UNL A   1      46.338  24.262  37.704  1.00  0.00    -0.237 OA
ATOM     81  O   UNL A   1      44.867  23.110  36.092  1.00  0.00    -0.237 OA
ATOM     82  O   UNL A   1      47.294  22.652  36.100  1.00  0.00    -0.744 OA
ENDBRANCH  75  79
ENDBRANCH  49  72
ENDBRANCH  23  24
ENDBRANCH  16  18
ENDBRANCH   1  16
TORSDOF 14
ENDMDL
