MODEL 1
REMARK VINA RESULT:     -11.7      0.000      0.000
REMARK SMILES Cc1cccc(C[N@@H+](C)C[C@]2(C(=O)OCCOC(=O)c3ccc(-c4c5nc(c(-c6cc(S(=O)(=O)[O-])ccc6F)c6ccc([nH]6)c(-c6cc(S(=O)(=O)[O-])ccc6F)c6nc(c(-c7cc(S(=O)(=O)[O-])ccc7F)c7ccc4[nH]7)C=C6)C=C5)cc3)CCOC2)n1
REMARK SMILES IDX 15 1 14 2 12 3 13 4 11 5 83 6 86 7 84 8 85 9 10 10 8 11 9 12
REMARK SMILES IDX 7 14 6 15 1 16 2 17 3 18 87 19 4 20 5 21 16 22 17 23 18 24
REMARK SMILES IDX 19 25 20 26 21 27 82 28 22 29 81 30 23 31 24 32 25 33 75 34
REMARK SMILES IDX 26 35 80 36 74 37 76 38 27 39 79 40 73 41 72 42 28 44 60 45
REMARK SMILES IDX 40 46 59 47 41 48 44 49 58 50 77 51 42 52 43 53 57 55 78 56
REMARK SMILES IDX 45 57 29 58 30 59 38 60 31 61 37 62 39 63 36 64 32 65 33 66
REMARK SMILES IDX 34 67 35 68 61 69 62 70 70 71 63 72 69 73 71 74 68 75 64 76
REMARK SMILES IDX 65 77 66 78 67 79 46 80 47 81 55 82 48 83 54 84 56 85 53 86
REMARK SMILES IDX 49 87 50 88 51 89 52 90
REMARK H PARENT 8 13 76 43 44 54
REMARK Flexibility Score: inf
ROOT
ATOM      1  C   UNL A   1      31.735  28.086  26.964  1.00  0.00     0.274 C 
ENDROOT
BRANCH   1   2
ATOM      2  O   UNL A   1      32.168  26.843  26.347  1.00  0.00    -0.461 OA
BRANCH   2   3
ATOM      3  C   UNL A   1      31.203  25.926  25.998  1.00  0.00     0.320 C 
ATOM      4  O   UNL A   1      30.135  25.802  26.586  1.00  0.00    -0.251 OA
BRANCH   3   5
ATOM      5  C   UNL A   1      31.558  25.206  24.696  1.00  0.00     0.142 C 
ATOM      6  C   UNL A   1      32.185  23.840  24.975  1.00  0.00     0.055 C 
ATOM      7  C   UNL A   1      30.301  24.734  23.952  1.00  0.00     0.185 C 
ATOM      8  C   UNL A   1      31.926  23.076  23.699  1.00  0.00     0.161 C 
ATOM      9  O   UNL A   1      30.652  23.535  23.229  1.00  0.00    -0.380 OA
BRANCH   5  10
ATOM     10  C   UNL A   1      32.323  26.130  23.697  1.00  0.00     0.283 C 
BRANCH  10  11
ATOM     11  N   UNL A   1      31.686  26.579  22.460  1.00  0.00    -0.331 N 
ATOM     12  C   UNL A   1      32.336  26.000  21.287  1.00  0.00     0.333 C 
ATOM     13  H   UNL A   1      30.740  26.203  22.389  1.00  0.00     0.348 HD
BRANCH  11  14
ATOM     14  C   UNL A   1      31.434  28.034  22.472  1.00  0.00     0.319 C 
BRANCH  14  15
ATOM     15  C   UNL A   1      29.990  28.494  22.399  1.00  0.00     0.095 A 
ATOM     16  C   UNL A   1      28.222  31.375  20.962  1.00  0.00     0.067 C 
ATOM     17  C   UNL A   1      28.475  30.118  21.732  1.00  0.00     0.038 A 
ATOM     18  C   UNL A   1      27.479  29.578  22.539  1.00  0.00     0.023 A 
ATOM     19  N   UNL A   1      29.723  29.602  21.670  1.00  0.00    -0.252 NA
ATOM     20  C   UNL A   1      27.765  28.444  23.288  1.00  0.00     0.004 A 
ATOM     21  C   UNL A   1      29.036  27.890  23.219  1.00  0.00     0.030 A 
ENDBRANCH  14  15
ENDBRANCH  11  14
ENDBRANCH  10  11
ENDBRANCH   5  10
ENDBRANCH   3   5
ENDBRANCH   2   3
ENDBRANCH   1   2
BRANCH   1  22
ATOM     22  C   UNL A   1      31.612  29.234  25.924  1.00  0.00     0.275 C 
BRANCH  22  23
ATOM     23  O   UNL A   1      32.816  30.036  25.780  1.00  0.00    -0.458 OA
BRANCH  23  24
ATOM     24  C   UNL A   1      33.041  30.960  26.776  1.00  0.00     0.338 C 
ATOM     25  O   UNL A   1      32.235  31.816  27.113  1.00  0.00    -0.246 OA
BRANCH  24  26
ATOM     26  C   UNL A   1      34.389  30.815  27.436  1.00  0.00     0.060 A 
ATOM     27  C   UNL A   1      34.835  29.576  27.859  1.00  0.00     0.016 A 
ATOM     28  C   UNL A   1      35.215  31.903  27.725  1.00  0.00     0.016 A 
ATOM     29  C   UNL A   1      36.021  29.361  28.544  1.00  0.00     0.010 A 
ATOM     30  C   UNL A   1      36.450  31.709  28.397  1.00  0.00     0.010 A 
ATOM     31  C   UNL A   1      36.861  30.428  28.812  1.00  0.00    -0.014 A 
BRANCH  31  32
ATOM     32  C   UNL A   1      38.067  30.148  29.633  1.00  0.00     0.031 A 
ATOM     33  C   UNL A   1      39.197  29.374  29.022  1.00  0.00     0.074 A 
ATOM     34  C   UNL A   1      38.251  30.757  30.823  1.00  0.00     0.049 A 
ATOM     35  N   UNL A   1      40.276  28.897  29.580  1.00  0.00    -0.248 NA
ATOM     36  C   UNL A   1      39.103  29.128  27.575  1.00  0.00     0.031 C 
ATOM     37  C   UNL A   1      37.328  31.725  31.418  1.00  0.00     0.029 A 
ATOM     38  N   UNL A   1      39.290  30.701  31.722  1.00  0.00    -0.354 N 
ATOM     39  C   UNL A   1      40.961  28.234  28.569  1.00  0.00     0.074 A 
ATOM     40  C   UNL A   1      40.192  28.408  27.355  1.00  0.00     0.031 C 
ATOM     41  C   UNL A   1      37.863  32.200  32.554  1.00  0.00     0.029 A 
ATOM     42  C   UNL A   1      39.107  31.497  32.831  1.00  0.00     0.049 A 
ATOM     43  H   UNL A   1      40.091  30.146  31.585  1.00  0.00     0.167 HD
ATOM     44  C   UNL A   1      42.106  27.514  28.670  1.00  0.00     0.034 A 
ATOM     45  C   UNL A   1      39.825  31.607  33.970  1.00  0.00     0.034 A 
ATOM     46  C   UNL A   1      42.836  27.375  29.908  1.00  0.00     0.049 A 
ATOM     47  C   UNL A   1      41.028  30.710  34.112  1.00  0.00     0.074 A 
ATOM     48  C   UNL A   1      43.909  26.554  30.203  1.00  0.00     0.029 A 
ATOM     49  N   UNL A   1      42.560  28.097  31.066  1.00  0.00    -0.354 N 
ATOM     50  N   UNL A   1      41.555  29.896  33.224  1.00  0.00    -0.248 NA
ATOM     51  C   UNL A   1      41.703  30.704  35.414  1.00  0.00     0.031 C 
ATOM     52  C   UNL A   1      44.245  26.740  31.552  1.00  0.00     0.029 A 
ATOM     53  C   UNL A   1      43.426  27.725  32.083  1.00  0.00     0.049 A 
ATOM     54  H   UNL A   1      41.852  28.775  31.150  1.00  0.00     0.167 HD
ATOM     55  C   UNL A   1      42.613  29.267  33.867  1.00  0.00     0.074 A 
ATOM     56  C   UNL A   1      42.679  29.834  35.202  1.00  0.00     0.031 C 
ATOM     57  C   UNL A   1      43.443  28.293  33.411  1.00  0.00     0.034 A 
BRANCH  44  58
ATOM     58  C   UNL A   1      42.502  26.711  27.455  1.00  0.00     0.023 A 
ATOM     59  C   UNL A   1      42.086  25.383  27.255  1.00  0.00     0.031 A 
ATOM     60  C   UNL A   1      43.428  27.256  26.546  1.00  0.00     0.131 A 
ATOM     61  C   UNL A   1      42.665  24.620  26.226  1.00  0.00     0.055 A 
ATOM     62  C   UNL A   1      43.940  26.516  25.479  1.00  0.00     0.041 A 
ATOM     63  F   UNL A   1      43.887  28.507  26.705  1.00  0.00    -0.206 F 
ATOM     64  C   UNL A   1      43.573  25.183  25.325  1.00  0.00     0.022 A 
BRANCH  61  65
ATOM     65  S   UNL A   1      42.351  22.831  26.181  1.00  0.00     0.124 S 
ATOM     66  O   UNL A   1      42.963  22.456  24.909  1.00  0.00    -0.237 OA
ATOM     67  O   UNL A   1      43.033  22.360  27.382  1.00  0.00    -0.237 OA
ATOM     68  O   UNL A   1      40.893  22.736  26.215  1.00  0.00    -0.744 OA
ENDBRANCH  61  65
ENDBRANCH  44  58
BRANCH  45  69
ATOM     69  C   UNL A   1      39.364  32.482  35.097  1.00  0.00     0.023 A 
ATOM     70  C   UNL A   1      39.863  33.783  35.283  1.00  0.00     0.031 A 
ATOM     71  C   UNL A   1      38.430  32.008  36.041  1.00  0.00     0.131 A 
ATOM     72  C   UNL A   1      39.438  34.551  36.385  1.00  0.00     0.055 A 
ATOM     73  C   UNL A   1      37.963  32.797  37.094  1.00  0.00     0.041 A 
ATOM     74  F   UNL A   1      37.936  30.763  35.945  1.00  0.00    -0.206 F 
ATOM     75  C   UNL A   1      38.474  34.074  37.276  1.00  0.00     0.022 A 
BRANCH  72  76
ATOM     76  S   UNL A   1      40.226  36.157  36.700  1.00  0.00     0.124 S 
ATOM     77  O   UNL A   1      39.511  36.614  37.886  1.00  0.00    -0.237 OA
ATOM     78  O   UNL A   1      41.620  35.779  36.894  1.00  0.00    -0.237 OA
ATOM     79  O   UNL A   1      39.952  36.914  35.479  1.00  0.00    -0.744 OA
ENDBRANCH  72  76
ENDBRANCH  45  69
BRANCH  57  80
ATOM     80  C   UNL A   1      44.483  27.800  34.382  1.00  0.00     0.023 A 
ATOM     81  C   UNL A   1      44.130  27.003  35.485  1.00  0.00     0.031 A 
ATOM     82  C   UNL A   1      45.832  28.160  34.221  1.00  0.00     0.131 A 
ATOM     83  C   UNL A   1      45.108  26.641  36.423  1.00  0.00     0.055 A 
ATOM     84  C   UNL A   1      46.808  27.751  35.128  1.00  0.00     0.041 A 
ATOM     85  F   UNL A   1      46.216  28.921  33.185  1.00  0.00    -0.206 F 
ATOM     86  C   UNL A   1      46.447  26.998  36.243  1.00  0.00     0.022 A 
BRANCH  83  87
ATOM     87  S   UNL A   1      44.589  25.773  37.928  1.00  0.00     0.124 S 
ATOM     88  O   UNL A   1      43.235  26.282  38.119  1.00  0.00    -0.237 OA
ATOM     89  O   UNL A   1      44.695  24.372  37.534  1.00  0.00    -0.237 OA
ATOM     90  O   UNL A   1      45.563  26.209  38.927  1.00  0.00    -0.744 OA
ENDBRANCH  83  87
ENDBRANCH  57  80
ENDBRANCH  31  32
ENDBRANCH  24  26
ENDBRANCH  23  24
ENDBRANCH  22  23
ENDBRANCH   1  22
TORSDOF 18
ENDMDL
MODEL 2
REMARK VINA RESULT:     -11.3      1.599      3.459
REMARK SMILES Cc1cccc(C[N@@H+](C)C[C@]2(C(=O)OCCOC(=O)c3ccc(-c4c5nc(c(-c6cc(S(=O)(=O)[O-])ccc6F)c6ccc([nH]6)c(-c6cc(S(=O)(=O)[O-])ccc6F)c6nc(c(-c7cc(S(=O)(=O)[O-])ccc7F)c7ccc4[nH]7)C=C6)C=C5)cc3)CCOC2)n1
REMARK SMILES IDX 15 1 14 2 12 3 13 4 11 5 83 6 86 7 84 8 85 9 10 10 8 11 9 12
REMARK SMILES IDX 7 14 6 15 1 16 2 17 3 18 87 19 4 20 5 21 16 22 17 23 18 24
REMARK SMILES IDX 19 25 20 26 21 27 82 28 22 29 81 30 23 31 24 32 25 33 75 34
REMARK SMILES IDX 26 35 80 36 74 37 76 38 27 39 79 40 73 41 72 42 28 44 60 45
REMARK SMILES IDX 40 46 59 47 41 48 44 49 58 50 77 51 42 52 43 53 57 55 78 56
REMARK SMILES IDX 45 57 29 58 30 59 38 60 31 61 37 62 39 63 36 64 32 65 33 66
REMARK SMILES IDX 34 67 35 68 61 69 62 70 70 71 63 72 69 73 71 74 68 75 64 76
REMARK SMILES IDX 65 77 66 78 67 79 46 80 47 81 55 82 48 83 54 84 56 85 53 86
REMARK SMILES IDX 49 87 50 88 51 89 52 90
REMARK H PARENT 8 13 76 43 44 54
REMARK Flexibility Score: inf
ROOT
ATOM      1  C   UNL A   1      30.954  28.783  24.746  1.00  0.00     0.274 C 
ENDROOT
BRANCH   1   2
ATOM      2  O   UNL A   1      31.934  27.843  24.228  1.00  0.00    -0.461 OA
BRANCH   2   3
ATOM      3  C   UNL A   1      31.746  26.505  24.491  1.00  0.00     0.320 C 
ATOM      4  O   UNL A   1      31.230  26.077  25.517  1.00  0.00    -0.251 OA
BRANCH   3   5
ATOM      5  C   UNL A   1      32.106  25.639  23.283  1.00  0.00     0.142 C 
ATOM      6  C   UNL A   1      31.626  26.281  21.981  1.00  0.00     0.055 C 
ATOM      7  C   UNL A   1      33.616  25.657  23.005  1.00  0.00     0.185 C 
ATOM      8  C   UNL A   1      32.526  25.660  20.940  1.00  0.00     0.161 C 
ATOM      9  O   UNL A   1      33.795  25.487  21.583  1.00  0.00    -0.380 OA
BRANCH   5  10
ATOM     10  C   UNL A   1      31.730  24.138  23.497  1.00  0.00     0.283 C 
BRANCH  10  11
ATOM     11  N   UNL A   1      32.759  23.101  23.465  1.00  0.00    -0.331 N 
ATOM     12  C   UNL A   1      32.546  22.175  22.356  1.00  0.00     0.333 C 
ATOM     13  H   UNL A   1      33.667  23.506  23.236  1.00  0.00     0.348 HD
BRANCH  11  14
ATOM     14  C   UNL A   1      33.008  22.537  24.807  1.00  0.00     0.319 C 
BRANCH  14  15
ATOM     15  C   UNL A   1      34.429  22.120  25.138  1.00  0.00     0.095 A 
ATOM     16  C   UNL A   1      37.579  23.867  25.854  1.00  0.00     0.067 C 
ATOM     17  C   UNL A   1      36.615  22.758  25.574  1.00  0.00     0.038 A 
ATOM     18  C   UNL A   1      37.077  21.462  25.374  1.00  0.00     0.023 A 
ATOM     19  N   UNL A   1      35.313  23.098  25.442  1.00  0.00    -0.252 NA
ATOM     20  C   UNL A   1      36.161  20.466  25.056  1.00  0.00     0.004 A 
ATOM     21  C   UNL A   1      34.818  20.795  24.937  1.00  0.00     0.030 A 
ENDBRANCH  14  15
ENDBRANCH  11  14
ENDBRANCH  10  11
ENDBRANCH   5  10
ENDBRANCH   3   5
ENDBRANCH   2   3
ENDBRANCH   1   2
BRANCH   1  22
ATOM     22  C   UNL A   1      31.619  30.097  25.242  1.00  0.00     0.275 C 
BRANCH  22  23
ATOM     23  O   UNL A   1      32.772  29.889  26.104  1.00  0.00    -0.458 OA
BRANCH  23  24
ATOM     24  C   UNL A   1      33.125  30.957  26.898  1.00  0.00     0.338 C 
ATOM     25  O   UNL A   1      32.419  31.940  27.079  1.00  0.00    -0.246 OA
BRANCH  24  26
ATOM     26  C   UNL A   1      34.477  30.802  27.546  1.00  0.00     0.060 A 
ATOM     27  C   UNL A   1      34.919  29.559  27.962  1.00  0.00     0.016 A 
ATOM     28  C   UNL A   1      35.312  31.884  27.833  1.00  0.00     0.016 A 
ATOM     29  C   UNL A   1      36.109  29.335  28.637  1.00  0.00     0.010 A 
ATOM     30  C   UNL A   1      36.551  31.682  28.494  1.00  0.00     0.010 A 
ATOM     31  C   UNL A   1      36.958  30.396  28.902  1.00  0.00    -0.014 A 
BRANCH  31  32
ATOM     32  C   UNL A   1      38.169  30.107  29.712  1.00  0.00     0.031 A 
ATOM     33  C   UNL A   1      39.312  29.378  29.072  1.00  0.00     0.074 A 
ATOM     34  C   UNL A   1      38.342  30.673  30.924  1.00  0.00     0.049 A 
ATOM     35  N   UNL A   1      40.400  28.899  29.612  1.00  0.00    -0.248 NA
ATOM     36  C   UNL A   1      39.222  29.186  27.617  1.00  0.00     0.031 C 
ATOM     37  C   UNL A   1      37.402  31.601  31.556  1.00  0.00     0.029 A 
ATOM     38  N   UNL A   1      39.382  30.602  31.820  1.00  0.00    -0.354 N 
ATOM     39  C   UNL A   1      41.097  28.288  28.576  1.00  0.00     0.074 A 
ATOM     40  C   UNL A   1      40.325  28.494  27.369  1.00  0.00     0.031 C 
ATOM     41  C   UNL A   1      37.929  32.042  32.709  1.00  0.00     0.029 A 
ATOM     42  C   UNL A   1      39.185  31.352  32.960  1.00  0.00     0.049 A 
ATOM     43  H   UNL A   1      40.193  30.066  31.664  1.00  0.00     0.167 HD
ATOM     44  C   UNL A   1      42.254  27.586  28.650  1.00  0.00     0.034 A 
ATOM     45  C   UNL A   1      39.901  31.430  34.102  1.00  0.00     0.034 A 
ATOM     46  C   UNL A   1      42.987  27.412  29.882  1.00  0.00     0.049 A 
ATOM     47  C   UNL A   1      41.120  30.550  34.210  1.00  0.00     0.074 A 
ATOM     48  C   UNL A   1      44.075  26.600  30.146  1.00  0.00     0.029 A 
ATOM     49  N   UNL A   1      42.698  28.084  31.067  1.00  0.00    -0.354 N 
ATOM     50  N   UNL A   1      41.661  29.781  33.292  1.00  0.00    -0.248 NA
ATOM     51  C   UNL A   1      41.795  30.507  35.511  1.00  0.00     0.031 C 
ATOM     52  C   UNL A   1      44.407  26.740  31.502  1.00  0.00     0.029 A 
ATOM     53  C   UNL A   1      43.571  27.689  32.069  1.00  0.00     0.049 A 
ATOM     54  H   UNL A   1      41.978  28.745  31.177  1.00  0.00     0.167 HD
ATOM     55  C   UNL A   1      42.731  29.146  33.912  1.00  0.00     0.074 A 
ATOM     56  C   UNL A   1      42.787  29.663  35.267  1.00  0.00     0.031 C 
ATOM     57  C   UNL A   1      43.578  28.206  33.419  1.00  0.00     0.034 A 
BRANCH  44  58
ATOM     58  C   UNL A   1      42.664  26.837  27.406  1.00  0.00     0.023 A 
ATOM     59  C   UNL A   1      42.298  25.501  27.169  1.00  0.00     0.031 A 
ATOM     60  C   UNL A   1      43.556  27.446  26.503  1.00  0.00     0.131 A 
ATOM     61  C   UNL A   1      42.892  24.793  26.109  1.00  0.00     0.055 A 
ATOM     62  C   UNL A   1      44.081  26.760  25.407  1.00  0.00     0.041 A 
ATOM     63  F   UNL A   1      43.968  28.709  26.696  1.00  0.00    -0.206 F 
ATOM     64  C   UNL A   1      43.765  25.419  25.215  1.00  0.00     0.022 A 
BRANCH  61  65
ATOM     65  S   UNL A   1      42.647  22.995  26.012  1.00  0.00     0.124 S 
ATOM     66  O   UNL A   1      43.044  22.718  24.634  1.00  0.00    -0.237 OA
ATOM     67  O   UNL A   1      43.545  22.497  27.049  1.00  0.00    -0.237 OA
ATOM     68  O   UNL A   1      41.223  22.826  26.288  1.00  0.00    -0.744 OA
ENDBRANCH  61  65
ENDBRANCH  44  58
BRANCH  45  69
ATOM     69  C   UNL A   1      39.424  32.254  35.261  1.00  0.00     0.023 A 
ATOM     70  C   UNL A   1      39.866  33.571  35.473  1.00  0.00     0.031 A 
ATOM     71  C   UNL A   1      38.534  31.711  36.211  1.00  0.00     0.131 A 
ATOM     72  C   UNL A   1      39.431  34.289  36.604  1.00  0.00     0.055 A 
ATOM     73  C   UNL A   1      38.053  32.450  37.294  1.00  0.00     0.041 A 
ATOM     74  F   UNL A   1      38.095  30.448  36.091  1.00  0.00    -0.206 F 
ATOM     75  C   UNL A   1      38.509  33.745  37.501  1.00  0.00     0.022 A 
BRANCH  72  76
ATOM     76  S   UNL A   1      40.150  35.921  36.946  1.00  0.00     0.124 S 
ATOM     77  O   UNL A   1      39.716  36.689  35.785  1.00  0.00    -0.237 OA
ATOM     78  O   UNL A   1      39.525  36.267  38.217  1.00  0.00    -0.237 OA
ATOM     79  O   UNL A   1      41.586  35.653  37.012  1.00  0.00    -0.744 OA
ENDBRANCH  72  76
ENDBRANCH  45  69
BRANCH  57  80
ATOM     80  C   UNL A   1      44.627  27.695  34.371  1.00  0.00     0.023 A 
ATOM     81  C   UNL A   1      44.356  26.632  35.251  1.00  0.00     0.031 A 
ATOM     82  C   UNL A   1      45.894  28.299  34.421  1.00  0.00     0.131 A 
ATOM     83  C   UNL A   1      45.322  26.245  36.190  1.00  0.00     0.055 A 
ATOM     84  C   UNL A   1      46.870  27.872  35.321  1.00  0.00     0.041 A 
ATOM     85  F   UNL A   1      46.199  29.318  33.603  1.00  0.00    -0.206 F 
ATOM     86  C   UNL A   1      46.582  26.848  36.221  1.00  0.00     0.022 A 
BRANCH  83  87
ATOM     87  S   UNL A   1      44.876  25.000  37.432  1.00  0.00     0.124 S 
ATOM     88  O   UNL A   1      45.455  25.563  38.646  1.00  0.00    -0.237 OA
ATOM     89  O   UNL A   1      43.418  24.996  37.362  1.00  0.00    -0.237 OA
ATOM     90  O   UNL A   1      45.521  23.783  36.942  1.00  0.00    -0.744 OA
ENDBRANCH  83  87
ENDBRANCH  57  80
ENDBRANCH  31  32
ENDBRANCH  24  26
ENDBRANCH  23  24
ENDBRANCH  22  23
ENDBRANCH   1  22
TORSDOF 18
ENDMDL
MODEL 3
REMARK VINA RESULT:     -11.2      5.455     10.378
REMARK SMILES Cc1cccc(C[N@@H+](C)C[C@]2(C(=O)OCCOC(=O)c3ccc(-c4c5nc(c(-c6cc(S(=O)(=O)[O-])ccc6F)c6ccc([nH]6)c(-c6cc(S(=O)(=O)[O-])ccc6F)c6nc(c(-c7cc(S(=O)(=O)[O-])ccc7F)c7ccc4[nH]7)C=C6)C=C5)cc3)CCOC2)n1
REMARK SMILES IDX 15 1 14 2 12 3 13 4 11 5 83 6 86 7 84 8 85 9 10 10 8 11 9 12
REMARK SMILES IDX 7 14 6 15 1 16 2 17 3 18 87 19 4 20 5 21 16 22 17 23 18 24
REMARK SMILES IDX 19 25 20 26 21 27 82 28 22 29 81 30 23 31 24 32 25 33 75 34
REMARK SMILES IDX 26 35 80 36 74 37 76 38 27 39 79 40 73 41 72 42 28 44 60 45
REMARK SMILES IDX 40 46 59 47 41 48 44 49 58 50 77 51 42 52 43 53 57 55 78 56
REMARK SMILES IDX 45 57 29 58 30 59 38 60 31 61 37 62 39 63 36 64 32 65 33 66
REMARK SMILES IDX 34 67 35 68 61 69 62 70 70 71 63 72 69 73 71 74 68 75 64 76
REMARK SMILES IDX 65 77 66 78 67 79 46 80 47 81 55 82 48 83 54 84 56 85 53 86
REMARK SMILES IDX 49 87 50 88 51 89 52 90
REMARK H PARENT 8 13 76 43 44 54
REMARK Flexibility Score: inf
ROOT
ATOM      1  C   UNL A   1      35.950  23.259  23.744  1.00  0.00     0.274 C 
ENDROOT
BRANCH   1   2
ATOM      2  O   UNL A   1      34.521  23.520  23.716  1.00  0.00    -0.461 OA
BRANCH   2   3
ATOM      3  C   UNL A   1      33.989  24.307  24.712  1.00  0.00     0.320 C 
ATOM      4  O   UNL A   1      34.189  25.512  24.809  1.00  0.00    -0.251 OA
BRANCH   3   5
ATOM      5  C   UNL A   1      32.995  23.528  25.574  1.00  0.00     0.142 C 
ATOM      6  C   UNL A   1      33.704  22.808  26.721  1.00  0.00     0.055 C 
ATOM      7  C   UNL A   1      32.109  24.467  26.404  1.00  0.00     0.185 C 
ATOM      8  C   UNL A   1      32.605  22.615  27.738  1.00  0.00     0.161 C 
ATOM      9  O   UNL A   1      31.769  23.775  27.623  1.00  0.00    -0.380 OA
BRANCH   5  10
ATOM     10  C   UNL A   1      32.015  22.666  24.715  1.00  0.00     0.283 C 
BRANCH  10  11
ATOM     11  N   UNL A   1      32.484  21.464  24.029  1.00  0.00    -0.331 N 
ATOM     12  C   UNL A   1      32.136  21.492  22.611  1.00  0.00     0.333 C 
ATOM     13  H   UNL A   1      33.503  21.445  24.001  1.00  0.00     0.348 HD
BRANCH  11  14
ATOM     14  C   UNL A   1      32.179  20.242  24.799  1.00  0.00     0.319 C 
BRANCH  14  15
ATOM     15  C   UNL A   1      32.711  18.926  24.262  1.00  0.00     0.095 A 
ATOM     16  C   UNL A   1      35.342  16.560  25.248  1.00  0.00     0.067 C 
ATOM     17  C   UNL A   1      34.259  17.209  24.445  1.00  0.00     0.038 A 
ATOM     18  C   UNL A   1      33.969  16.755  23.163  1.00  0.00     0.023 A 
ATOM     19  N   UNL A   1      33.658  18.291  24.990  1.00  0.00    -0.252 NA
ATOM     20  C   UNL A   1      32.998  17.418  22.422  1.00  0.00     0.004 A 
ATOM     21  C   UNL A   1      32.357  18.518  22.975  1.00  0.00     0.030 A 
ENDBRANCH  14  15
ENDBRANCH  11  14
ENDBRANCH  10  11
ENDBRANCH   5  10
ENDBRANCH   3   5
ENDBRANCH   2   3
ENDBRANCH   1   2
BRANCH   1  22
ATOM     22  C   UNL A   1      36.267  21.836  24.284  1.00  0.00     0.275 C 
BRANCH  22  23
ATOM     23  O   UNL A   1      36.795  21.820  25.639  1.00  0.00    -0.458 OA
BRANCH  23  24
ATOM     24  C   UNL A   1      38.141  21.556  25.752  1.00  0.00     0.338 C 
ATOM     25  O   UNL A   1      38.670  20.514  25.388  1.00  0.00    -0.246 OA
BRANCH  24  26
ATOM     26  C   UNL A   1      38.926  22.688  26.365  1.00  0.00     0.060 A 
ATOM     27  C   UNL A   1      38.607  24.002  26.074  1.00  0.00     0.016 A 
ATOM     28  C   UNL A   1      40.043  22.487  27.179  1.00  0.00     0.016 A 
ATOM     29  C   UNL A   1      39.321  25.101  26.527  1.00  0.00     0.010 A 
ATOM     30  C   UNL A   1      40.774  23.594  27.683  1.00  0.00     0.010 A 
ATOM     31  C   UNL A   1      40.412  24.915  27.357  1.00  0.00    -0.014 A 
BRANCH  31  32
ATOM     32  C   UNL A   1      41.192  26.124  27.728  1.00  0.00     0.031 A 
ATOM     33  C   UNL A   1      40.601  27.097  28.705  1.00  0.00     0.074 A 
ATOM     34  C   UNL A   1      42.490  26.246  27.378  1.00  0.00     0.049 A 
ATOM     35  N   UNL A   1      41.030  28.275  29.068  1.00  0.00    -0.248 NA
ATOM     36  C   UNL A   1      39.368  26.665  29.380  1.00  0.00     0.031 C 
ATOM     37  C   UNL A   1      43.250  25.245  26.628  1.00  0.00     0.029 A 
ATOM     38  N   UNL A   1      43.415  27.226  27.646  1.00  0.00    -0.354 N 
ATOM     39  C   UNL A   1      40.086  28.758  29.965  1.00  0.00     0.074 A 
ATOM     40  C   UNL A   1      39.083  27.726  30.120  1.00  0.00     0.031 C 
ATOM     41  C   UNL A   1      44.528  25.643  26.536  1.00  0.00     0.029 A 
ATOM     42  C   UNL A   1      44.662  26.971  27.117  1.00  0.00     0.049 A 
ATOM     43  H   UNL A   1      43.208  28.035  28.166  1.00  0.00     0.167 HD
ATOM     44  C   UNL A   1      40.051  29.974  30.565  1.00  0.00     0.034 A 
ATOM     45  C   UNL A   1      45.770  27.740  27.052  1.00  0.00     0.034 A 
ATOM     46  C   UNL A   1      41.081  30.969  30.378  1.00  0.00     0.049 A 
ATOM     47  C   UNL A   1      45.673  29.133  27.619  1.00  0.00     0.074 A 
ATOM     48  C   UNL A   1      41.103  32.292  30.782  1.00  0.00     0.029 A 
ATOM     49  N   UNL A   1      42.289  30.733  29.728  1.00  0.00    -0.354 N 
ATOM     50  N   UNL A   1      44.678  29.684  28.280  1.00  0.00    -0.248 NA
ATOM     51  C   UNL A   1      46.816  30.024  27.394  1.00  0.00     0.031 C 
ATOM     52  C   UNL A   1      42.300  32.867  30.329  1.00  0.00     0.029 A 
ATOM     53  C   UNL A   1      43.055  31.889  29.701  1.00  0.00     0.049 A 
ATOM     54  H   UNL A   1      42.562  29.869  29.345  1.00  0.00     0.167 HD
ATOM     55  C   UNL A   1      45.068  30.993  28.533  1.00  0.00     0.074 A 
ATOM     56  C   UNL A   1      46.410  31.132  27.997  1.00  0.00     0.031 C 
ATOM     57  C   UNL A   1      44.378  31.998  29.131  1.00  0.00     0.034 A 
BRANCH  44  58
ATOM     58  C   UNL A   1      38.786  30.316  31.314  1.00  0.00     0.023 A 
ATOM     59  C   UNL A   1      37.675  30.914  30.694  1.00  0.00     0.031 A 
ATOM     60  C   UNL A   1      38.753  30.155  32.712  1.00  0.00     0.131 A 
ATOM     61  C   UNL A   1      36.621  31.409  31.481  1.00  0.00     0.055 A 
ATOM     62  C   UNL A   1      37.668  30.580  33.480  1.00  0.00     0.041 A 
ATOM     63  F   UNL A   1      39.799  29.623  33.363  1.00  0.00    -0.206 F 
ATOM     64  C   UNL A   1      36.600  31.228  32.867  1.00  0.00     0.022 A 
BRANCH  61  65
ATOM     65  S   UNL A   1      35.356  32.449  30.695  1.00  0.00     0.124 S 
ATOM     66  O   UNL A   1      35.095  31.714  29.460  1.00  0.00    -0.237 OA
ATOM     67  O   UNL A   1      34.282  32.443  31.683  1.00  0.00    -0.237 OA
ATOM     68  O   UNL A   1      36.029  33.734  30.516  1.00  0.00    -0.744 OA
ENDBRANCH  61  65
ENDBRANCH  44  58
BRANCH  45  69
ATOM     69  C   UNL A   1      46.996  27.275  26.325  1.00  0.00     0.023 A 
ATOM     70  C   UNL A   1      47.254  27.634  24.991  1.00  0.00     0.031 A 
ATOM     71  C   UNL A   1      47.924  26.418  26.954  1.00  0.00     0.131 A 
ATOM     72  C   UNL A   1      48.393  27.131  24.332  1.00  0.00     0.055 A 
ATOM     73  C   UNL A   1      49.086  25.977  26.318  1.00  0.00     0.041 A 
ATOM     74  F   UNL A   1      47.726  26.007  28.217  1.00  0.00    -0.206 F 
ATOM     75  C   UNL A   1      49.321  26.326  24.995  1.00  0.00     0.022 A 
BRANCH  72  76
ATOM     76  S   UNL A   1      48.611  27.469  22.561  1.00  0.00     0.124 S 
ATOM     77  O   UNL A   1      47.406  28.229  22.250  1.00  0.00    -0.237 OA
ATOM     78  O   UNL A   1      49.864  28.215  22.546  1.00  0.00    -0.237 OA
ATOM     79  O   UNL A   1      48.676  26.135  21.966  1.00  0.00    -0.744 OA
ENDBRANCH  72  76
ENDBRANCH  45  69
BRANCH  57  80
ATOM     80  C   UNL A   1      45.086  33.324  29.225  1.00  0.00     0.023 A 
ATOM     81  C   UNL A   1      45.100  34.220  28.143  1.00  0.00     0.031 A 
ATOM     82  C   UNL A   1      45.781  33.675  30.394  1.00  0.00     0.131 A 
ATOM     83  C   UNL A   1      45.848  35.402  28.229  1.00  0.00     0.055 A 
ATOM     84  C   UNL A   1      46.478  34.879  30.494  1.00  0.00     0.041 A 
ATOM     85  F   UNL A   1      45.798  32.851  31.453  1.00  0.00    -0.206 F 
ATOM     86  C   UNL A   1      46.526  35.744  29.403  1.00  0.00     0.022 A 
BRANCH  83  87
ATOM     87  S   UNL A   1      45.998  36.446  26.753  1.00  0.00     0.124 S 
ATOM     88  O   UNL A   1      45.848  35.472  25.678  1.00  0.00    -0.237 OA
ATOM     89  O   UNL A   1      44.895  37.386  26.921  1.00  0.00    -0.237 OA
ATOM     90  O   UNL A   1      47.332  37.029  26.881  1.00  0.00    -0.744 OA
ENDBRANCH  83  87
ENDBRANCH  57  80
ENDBRANCH  31  32
ENDBRANCH  24  26
ENDBRANCH  23  24
ENDBRANCH  22  23
ENDBRANCH   1  22
TORSDOF 18
ENDMDL
