MODEL 1
REMARK VINA RESULT:     -12.3      0.000      0.000
REMARK SMILES CCN(CC)C(=O)N1CCC[C@H](C(=O)N[C@H](C(=O)OCCOC(=O)c2ccc(-c3c4nc(c(-c5cc(S(=O)(=O)[O-])ccc5F)c5ccc([nH]5)c(-c5cc(S(=O)(=O)[O-])ccc5F)c5nc(c(-c6cc(S(=O)(=O)[O-])ccc6F)c6ccc3[nH]6)C=C5)C=C4)cc2)C(C)(C)C)C1
REMARK SMILES IDX 20 1 19 2 17 3 18 4 16 5 15 6 13 7 14 8 12 10 8 11 9 12
REMARK SMILES IDX 92 13 10 14 11 15 6 16 3 17 7 18 2 19 1 20 4 21 5 22 88 23
REMARK SMILES IDX 89 24 90 25 91 26 21 27 22 28 23 29 24 30 25 31 26 32 87 33
REMARK SMILES IDX 27 34 86 35 28 36 29 37 30 38 80 39 31 40 85 41 79 42 81 43
REMARK SMILES IDX 32 44 84 45 78 46 77 47 33 49 65 50 45 51 64 52 46 53 49 54
REMARK SMILES IDX 63 55 82 56 47 57 48 58 62 60 83 61 50 62 34 63 35 64 43 65
REMARK SMILES IDX 36 66 42 67 44 68 41 69 37 70 38 71 39 72 40 73 66 74 67 75
REMARK SMILES IDX 75 76 68 77 74 78 76 79 73 80 69 81 70 82 71 83 72 84 51 85
REMARK SMILES IDX 52 86 60 87 53 88 59 89 61 90 58 91 54 92 55 93 56 94 57 95
REMARK H PARENT 15 9 81 48 49 59
REMARK Flexibility Score: inf
ROOT
ATOM      1  C   UNL A   1      32.038  30.163  25.812  1.00  0.00     0.274 C 
ENDROOT
BRANCH   1   2
ATOM      2  O   UNL A   1      31.315  28.721  25.646  1.00  0.00    -0.461 OA
BRANCH   2   3
ATOM      3  C   UNL A   1      31.358  27.449  26.292  1.00  0.00     0.329 C 
ATOM      4  O   UNL A   1      31.858  27.275  27.402  1.00  0.00    -0.250 OA
BRANCH   3   5
ATOM      5  C   UNL A   1      30.952  26.163  25.326  1.00  0.00     0.197 C 
BRANCH   5   6
ATOM      6  N   UNL A   1      30.511  25.133  26.226  1.00  0.00    -0.342 N 
ATOM      7  C   UNL A   1      31.253  24.037  26.535  1.00  0.00     0.225 C 
ATOM      8  O   UNL A   1      30.784  23.273  27.382  1.00  0.00    -0.275 OA
ATOM      9  H   UNL A   1      29.623  25.226  26.641  1.00  0.00     0.164 HD
BRANCH   7  10
ATOM     10  C   UNL A   1      32.603  23.720  25.836  1.00  0.00     0.098 C 
ATOM     11  N   UNL A   1      32.816  21.125  25.072  1.00  0.00    -0.324 N 
ATOM     12  C   UNL A   1      33.999  21.050  25.926  1.00  0.00     0.121 C 
ATOM     13  C   UNL A   1      32.751  22.669  24.725  1.00  0.00     0.134 C 
ATOM     14  C   UNL A   1      34.190  22.128  27.028  1.00  0.00     0.022 C 
ATOM     15  C   UNL A   1      33.823  23.584  26.714  1.00  0.00     0.017 C 
BRANCH  11  16
ATOM     16  C   UNL A   1      32.543  19.840  24.301  1.00  0.00     0.320 C 
ATOM     17  N   UNL A   1      33.078  18.540  24.777  1.00  0.00    -0.325 N 
ATOM     18  O   UNL A   1      32.146  19.889  23.131  1.00  0.00    -0.248 OA
BRANCH  17  19
ATOM     19  C   UNL A   1      34.369  18.027  24.247  1.00  0.00     0.118 C 
ATOM     20  C   UNL A   1      34.291  16.973  23.149  1.00  0.00     0.027 C 
ENDBRANCH  17  19
BRANCH  17  21
ATOM     21  C   UNL A   1      32.201  17.285  24.901  1.00  0.00     0.118 C 
ATOM     22  C   UNL A   1      32.652  16.303  26.033  1.00  0.00     0.027 C 
ENDBRANCH  17  21
ENDBRANCH  11  16
ENDBRANCH   7  10
ENDBRANCH   5   6
BRANCH   5  23
ATOM     23  C   UNL A   1      30.251  26.105  23.876  1.00  0.00    -0.007 C 
ATOM     24  C   UNL A   1      28.777  26.633  23.873  1.00  0.00     0.013 C 
ATOM     25  C   UNL A   1      30.943  27.096  22.887  1.00  0.00     0.013 C 
ATOM     26  C   UNL A   1      30.276  24.728  23.219  1.00  0.00     0.013 C 
ENDBRANCH   5  23
ENDBRANCH   3   5
ENDBRANCH   2   3
ENDBRANCH   1   2
BRANCH   1  27
ATOM     27  C   UNL A   1      31.520  31.481  26.755  1.00  0.00     0.275 C 
BRANCH  27  28
ATOM     28  O   UNL A   1      32.138  32.846  26.563  1.00  0.00    -0.458 OA
BRANCH  28  29
ATOM     29  C   UNL A   1      32.938  33.366  27.581  1.00  0.00     0.338 C 
ATOM     30  O   UNL A   1      32.589  34.337  28.245  1.00  0.00    -0.246 OA
BRANCH  29  31
ATOM     31  C   UNL A   1      34.200  32.570  27.992  1.00  0.00     0.060 A 
ATOM     32  C   UNL A   1      34.307  31.191  27.931  1.00  0.00     0.016 A 
ATOM     33  C   UNL A   1      35.310  33.212  28.573  1.00  0.00     0.016 A 
ATOM     34  C   UNL A   1      35.277  30.484  28.710  1.00  0.00     0.010 A 
ATOM     35  C   UNL A   1      36.395  32.490  29.177  1.00  0.00     0.010 A 
ATOM     36  C   UNL A   1      36.376  31.093  29.337  1.00  0.00    -0.014 A 
BRANCH  36  37
ATOM     37  C   UNL A   1      37.476  30.328  30.099  1.00  0.00     0.031 A 
ATOM     38  C   UNL A   1      37.741  30.589  31.589  1.00  0.00     0.074 A 
ATOM     39  C   UNL A   1      38.286  29.399  29.524  1.00  0.00     0.049 A 
ATOM     40  N   UNL A   1      38.831  30.406  32.301  1.00  0.00    -0.248 NA
ATOM     41  C   UNL A   1      36.621  31.128  32.373  1.00  0.00     0.031 C 
ATOM     42  C   UNL A   1      38.171  28.876  28.162  1.00  0.00     0.029 A 
ATOM     43  N   UNL A   1      39.401  28.728  30.013  1.00  0.00    -0.354 N 
ATOM     44  C   UNL A   1      38.564  30.906  33.581  1.00  0.00     0.074 A 
ATOM     45  C   UNL A   1      37.190  31.367  33.549  1.00  0.00     0.031 C 
ATOM     46  C   UNL A   1      39.120  27.958  27.940  1.00  0.00     0.029 A 
ATOM     47  C   UNL A   1      40.038  27.947  29.065  1.00  0.00     0.049 A 
ATOM     48  H   UNL A   1      39.708  28.802  30.945  1.00  0.00     0.167 HD
ATOM     49  C   UNL A   1      39.387  30.995  34.665  1.00  0.00     0.034 A 
ATOM     50  C   UNL A   1      41.262  27.373  29.016  1.00  0.00     0.034 A 
ATOM     51  C   UNL A   1      40.734  30.459  34.708  1.00  0.00     0.049 A 
ATOM     52  C   UNL A   1      42.207  27.559  30.172  1.00  0.00     0.074 A 
ATOM     53  C   UNL A   1      41.666  30.522  35.734  1.00  0.00     0.029 A 
ATOM     54  N   UNL A   1      41.334  29.735  33.686  1.00  0.00    -0.354 N 
ATOM     55  N   UNL A   1      42.011  28.199  31.301  1.00  0.00    -0.248 NA
ATOM     56  C   UNL A   1      43.546  26.970  30.037  1.00  0.00     0.031 C 
ATOM     57  C   UNL A   1      42.845  29.895  35.308  1.00  0.00     0.029 A 
ATOM     58  C   UNL A   1      42.625  29.369  34.047  1.00  0.00     0.049 A 
ATOM     59  H   UNL A   1      40.906  29.512  32.828  1.00  0.00     0.167 HD
ATOM     60  C   UNL A   1      43.201  28.078  32.013  1.00  0.00     0.074 A 
ATOM     61  C   UNL A   1      44.098  27.285  31.199  1.00  0.00     0.031 C 
ATOM     62  C   UNL A   1      43.520  28.586  33.230  1.00  0.00     0.034 A 
BRANCH  49  63
ATOM     63  C   UNL A   1      38.900  31.789  35.869  1.00  0.00     0.023 A 
ATOM     64  C   UNL A   1      38.250  31.199  36.966  1.00  0.00     0.031 A 
ATOM     65  C   UNL A   1      39.079  33.189  35.898  1.00  0.00     0.131 A 
ATOM     66  C   UNL A   1      37.731  32.008  37.995  1.00  0.00     0.055 A 
ATOM     67  C   UNL A   1      38.635  33.976  36.965  1.00  0.00     0.041 A 
ATOM     68  F   UNL A   1      39.684  33.822  34.881  1.00  0.00    -0.206 F 
ATOM     69  C   UNL A   1      37.939  33.388  38.014  1.00  0.00     0.022 A 
BRANCH  66  70
ATOM     70  S   UNL A   1      36.650  31.240  39.237  1.00  0.00     0.124 S 
ATOM     71  O   UNL A   1      36.373  29.937  38.612  1.00  0.00    -0.237 OA
ATOM     72  O   UNL A   1      37.470  31.224  40.416  1.00  0.00    -0.237 OA
ATOM     73  O   UNL A   1      35.486  32.143  39.280  1.00  0.00    -0.744 OA
ENDBRANCH  66  70
ENDBRANCH  49  63
BRANCH  50  74
ATOM     74  C   UNL A   1      41.727  26.687  27.765  1.00  0.00     0.023 A 
ATOM     75  C   UNL A   1      41.689  25.289  27.634  1.00  0.00     0.031 A 
ATOM     76  C   UNL A   1      42.242  27.430  26.682  1.00  0.00     0.131 A 
ATOM     77  C   UNL A   1      42.164  24.682  26.458  1.00  0.00     0.055 A 
ATOM     78  C   UNL A   1      42.650  26.826  25.493  1.00  0.00     0.041 A 
ATOM     79  F   UNL A   1      42.324  28.768  26.755  1.00  0.00    -0.206 F 
ATOM     80  C   UNL A   1      42.621  25.442  25.378  1.00  0.00     0.022 A 
BRANCH  77  81
ATOM     81  S   UNL A   1      42.247  22.870  26.380  1.00  0.00     0.124 S 
ATOM     82  O   UNL A   1      40.880  22.494  26.718  1.00  0.00    -0.237 OA
ATOM     83  O   UNL A   1      42.653  22.645  24.997  1.00  0.00    -0.237 OA
ATOM     84  O   UNL A   1      43.254  22.532  27.385  1.00  0.00    -0.744 OA
ENDBRANCH  77  81
ENDBRANCH  50  74
BRANCH  62  85
ATOM     85  C   UNL A   1      44.886  28.238  33.771  1.00  0.00     0.023 A 
ATOM     86  C   UNL A   1      45.101  27.091  34.555  1.00  0.00     0.031 A 
ATOM     87  C   UNL A   1      45.975  29.095  33.537  1.00  0.00     0.131 A 
ATOM     88  C   UNL A   1      46.361  26.866  35.130  1.00  0.00     0.055 A 
ATOM     89  C   UNL A   1      47.241  28.835  34.064  1.00  0.00     0.041 A 
ATOM     90  F   UNL A   1      45.823  30.208  32.803  1.00  0.00    -0.206 F 
ATOM     91  C   UNL A   1      47.436  27.721  34.877  1.00  0.00     0.022 A 
BRANCH  88  92
ATOM     92  S   UNL A   1      46.550  25.492  36.301  1.00  0.00     0.124 S 
ATOM     93  O   UNL A   1      47.938  25.646  36.726  1.00  0.00    -0.237 OA
ATOM     94  O   UNL A   1      45.537  25.795  37.306  1.00  0.00    -0.237 OA
ATOM     95  O   UNL A   1      46.280  24.308  35.487  1.00  0.00    -0.744 OA
ENDBRANCH  88  92
ENDBRANCH  62  85
ENDBRANCH  36  37
ENDBRANCH  29  31
ENDBRANCH  28  29
ENDBRANCH  27  28
ENDBRANCH   1  27
TORSDOF 20
ENDMDL
MODEL 2
REMARK VINA RESULT:     -12.2      2.011      7.871
REMARK SMILES CCN(CC)C(=O)N1CCC[C@H](C(=O)N[C@H](C(=O)OCCOC(=O)c2ccc(-c3c4nc(c(-c5cc(S(=O)(=O)[O-])ccc5F)c5ccc([nH]5)c(-c5cc(S(=O)(=O)[O-])ccc5F)c5nc(c(-c6cc(S(=O)(=O)[O-])ccc6F)c6ccc3[nH]6)C=C5)C=C4)cc2)C(C)(C)C)C1
REMARK SMILES IDX 20 1 19 2 17 3 18 4 16 5 15 6 13 7 14 8 12 10 8 11 9 12
REMARK SMILES IDX 92 13 10 14 11 15 6 16 3 17 7 18 2 19 1 20 4 21 5 22 88 23
REMARK SMILES IDX 89 24 90 25 91 26 21 27 22 28 23 29 24 30 25 31 26 32 87 33
REMARK SMILES IDX 27 34 86 35 28 36 29 37 30 38 80 39 31 40 85 41 79 42 81 43
REMARK SMILES IDX 32 44 84 45 78 46 77 47 33 49 65 50 45 51 64 52 46 53 49 54
REMARK SMILES IDX 63 55 82 56 47 57 48 58 62 60 83 61 50 62 34 63 35 64 43 65
REMARK SMILES IDX 36 66 42 67 44 68 41 69 37 70 38 71 39 72 40 73 66 74 67 75
REMARK SMILES IDX 75 76 68 77 74 78 76 79 73 80 69 81 70 82 71 83 72 84 51 85
REMARK SMILES IDX 52 86 60 87 53 88 59 89 61 90 58 91 54 92 55 93 56 94 57 95
REMARK H PARENT 15 9 81 48 49 59
REMARK Flexibility Score: inf
ROOT
ATOM      1  C   UNL A   1      30.726  30.792  24.978  1.00  0.00     0.274 C 
ENDROOT
BRANCH   1   2
ATOM      2  O   UNL A   1      30.190  29.505  24.150  1.00  0.00    -0.461 OA
BRANCH   2   3
ATOM      3  C   UNL A   1      30.596  28.753  23.007  1.00  0.00     0.329 C 
ATOM      4  O   UNL A   1      30.018  28.813  21.923  1.00  0.00    -0.250 OA
BRANCH   3   5
ATOM      5  C   UNL A   1      31.720  27.571  23.312  1.00  0.00     0.197 C 
BRANCH   5   6
ATOM      6  N   UNL A   1      31.112  26.344  22.879  1.00  0.00    -0.342 N 
ATOM      7  C   UNL A   1      30.743  25.348  23.727  1.00  0.00     0.225 C 
ATOM      8  O   UNL A   1      30.161  24.382  23.226  1.00  0.00    -0.275 OA
ATOM      9  H   UNL A   1      30.955  26.217  21.916  1.00  0.00     0.164 HD
BRANCH   7  10
ATOM     10  C   UNL A   1      31.068  25.383  25.245  1.00  0.00     0.098 C 
ATOM     11  N   UNL A   1      32.779  23.419  26.006  1.00  0.00    -0.324 N 
ATOM     12  C   UNL A   1      31.731  22.963  26.916  1.00  0.00     0.121 C 
ATOM     13  C   UNL A   1      32.423  24.952  25.827  1.00  0.00     0.134 C 
ATOM     14  C   UNL A   1      30.269  23.421  26.656  1.00  0.00     0.022 C 
ATOM     15  C   UNL A   1      30.015  24.861  26.193  1.00  0.00     0.017 C 
BRANCH  11  16
ATOM     16  C   UNL A   1      34.074  22.626  26.128  1.00  0.00     0.320 C 
ATOM     17  N   UNL A   1      34.510  21.711  25.043  1.00  0.00    -0.325 N 
ATOM     18  O   UNL A   1      34.619  22.491  27.229  1.00  0.00    -0.248 OA
BRANCH  17  19
ATOM     19  C   UNL A   1      34.171  20.265  25.108  1.00  0.00     0.118 C 
ATOM     20  C   UNL A   1      33.010  19.791  24.243  1.00  0.00     0.027 C 
ENDBRANCH  17  19
BRANCH  17  21
ATOM     21  C   UNL A   1      35.934  21.735  24.469  1.00  0.00     0.118 C 
ATOM     22  C   UNL A   1      36.206  22.922  23.487  1.00  0.00     0.027 C 
ENDBRANCH  17  21
ENDBRANCH  11  16
ENDBRANCH   7  10
ENDBRANCH   5   6
BRANCH   5  23
ATOM     23  C   UNL A   1      33.327  27.580  23.193  1.00  0.00    -0.007 C 
ATOM     24  C   UNL A   1      34.053  27.860  24.551  1.00  0.00     0.013 C 
ATOM     25  C   UNL A   1      33.862  26.155  22.837  1.00  0.00     0.013 C 
ATOM     26  C   UNL A   1      33.876  28.539  22.140  1.00  0.00     0.013 C 
ENDBRANCH   5  23
ENDBRANCH   3   5
ENDBRANCH   2   3
ENDBRANCH   1   2
BRANCH   1  27
ATOM     27  C   UNL A   1      31.404  30.813  26.538  1.00  0.00     0.275 C 
BRANCH  27  28
ATOM     28  O   UNL A   1      32.868  30.499  26.739  1.00  0.00    -0.458 OA
BRANCH  28  29
ATOM     29  C   UNL A   1      33.670  31.442  27.382  1.00  0.00     0.338 C 
ATOM     30  O   UNL A   1      33.212  32.495  27.812  1.00  0.00    -0.246 OA
BRANCH  29  31
ATOM     31  C   UNL A   1      35.128  31.047  27.719  1.00  0.00     0.060 A 
ATOM     32  C   UNL A   1      35.549  29.750  27.965  1.00  0.00     0.016 A 
ATOM     33  C   UNL A   1      36.124  32.024  27.909  1.00  0.00     0.016 A 
ATOM     34  C   UNL A   1      36.754  29.483  28.689  1.00  0.00     0.010 A 
ATOM     35  C   UNL A   1      37.419  31.717  28.447  1.00  0.00     0.010 A 
ATOM     36  C   UNL A   1      37.752  30.440  28.931  1.00  0.00    -0.014 A 
BRANCH  36  37
ATOM     37  C   UNL A   1      39.094  30.138  29.628  1.00  0.00     0.031 A 
ATOM     38  C   UNL A   1      40.109  29.163  29.013  1.00  0.00     0.074 A 
ATOM     39  C   UNL A   1      39.467  30.684  30.817  1.00  0.00     0.049 A 
ATOM     40  N   UNL A   1      41.054  28.450  29.586  1.00  0.00    -0.248 NA
ATOM     41  C   UNL A   1      40.041  28.974  27.557  1.00  0.00     0.031 C 
ATOM     42  C   UNL A   1      38.750  31.725  31.553  1.00  0.00     0.029 A 
ATOM     43  N   UNL A   1      40.553  30.422  31.643  1.00  0.00    -0.354 N 
ATOM     44  C   UNL A   1      41.617  27.651  28.584  1.00  0.00     0.074 A 
ATOM     45  C   UNL A   1      40.924  28.001  27.359  1.00  0.00     0.031 C 
ATOM     46  C   UNL A   1      39.415  32.041  32.670  1.00  0.00     0.029 A 
ATOM     47  C   UNL A   1      40.512  31.104  32.847  1.00  0.00     0.049 A 
ATOM     48  H   UNL A   1      41.282  29.809  31.397  1.00  0.00     0.167 HD
ATOM     49  C   UNL A   1      42.595  26.704  28.678  1.00  0.00     0.034 A 
ATOM     50  C   UNL A   1      41.172  30.949  34.017  1.00  0.00     0.034 A 
ATOM     51  C   UNL A   1      43.334  26.420  29.893  1.00  0.00     0.049 A 
ATOM     52  C   UNL A   1      42.178  29.838  34.151  1.00  0.00     0.074 A 
ATOM     53  C   UNL A   1      44.316  25.464  30.114  1.00  0.00     0.029 A 
ATOM     54  N   UNL A   1      43.193  27.110  31.090  1.00  0.00    -0.354 N 
ATOM     55  N   UNL A   1      42.564  28.964  33.251  1.00  0.00    -0.248 NA
ATOM     56  C   UNL A   1      42.816  29.675  35.464  1.00  0.00     0.031 C 
ATOM     57  C   UNL A   1      44.717  25.535  31.454  1.00  0.00     0.029 A 
ATOM     58  C   UNL A   1      44.047  26.587  32.053  1.00  0.00     0.049 A 
ATOM     59  H   UNL A   1      42.575  27.862  31.235  1.00  0.00     0.167 HD
ATOM     60  C   UNL A   1      43.499  28.155  33.890  1.00  0.00     0.074 A 
ATOM     61  C   UNL A   1      43.637  28.659  35.240  1.00  0.00     0.031 C 
ATOM     62  C   UNL A   1      44.177  27.086  33.400  1.00  0.00     0.034 A 
BRANCH  49  63
ATOM     63  C   UNL A   1      42.860  25.827  27.463  1.00  0.00     0.023 A 
ATOM     64  C   UNL A   1      42.301  24.547  27.303  1.00  0.00     0.031 A 
ATOM     65  C   UNL A   1      43.721  26.290  26.444  1.00  0.00     0.131 A 
ATOM     66  C   UNL A   1      42.675  23.749  26.205  1.00  0.00     0.055 A 
ATOM     67  C   UNL A   1      44.020  25.523  25.314  1.00  0.00     0.041 A 
ATOM     68  F   UNL A   1      44.297  27.499  26.533  1.00  0.00    -0.206 F 
ATOM     69  C   UNL A   1      43.511  24.236  25.199  1.00  0.00     0.022 A 
BRANCH  66  70
ATOM     70  S   UNL A   1      42.163  22.005  26.190  1.00  0.00     0.124 S 
ATOM     71  O   UNL A   1      40.708  22.134  26.009  1.00  0.00    -0.237 OA
ATOM     72  O   UNL A   1      42.901  21.460  25.086  1.00  0.00    -0.237 OA
ATOM     73  O   UNL A   1      42.561  21.524  27.525  1.00  0.00    -0.744 OA
ENDBRANCH  66  70
ENDBRANCH  49  63
BRANCH  50  74
ATOM     74  C   UNL A   1      40.800  31.777  35.212  1.00  0.00     0.023 A 
ATOM     75  C   UNL A   1      39.657  31.496  35.977  1.00  0.00     0.031 A 
ATOM     76  C   UNL A   1      41.582  32.889  35.591  1.00  0.00     0.131 A 
ATOM     77  C   UNL A   1      39.325  32.317  37.070  1.00  0.00     0.055 A 
ATOM     78  C   UNL A   1      41.284  33.659  36.715  1.00  0.00     0.041 A 
ATOM     79  F   UNL A   1      42.675  33.222  34.887  1.00  0.00    -0.206 F 
ATOM     80  C   UNL A   1      40.144  33.380  37.458  1.00  0.00     0.022 A 
BRANCH  77  81
ATOM     81  S   UNL A   1      37.761  32.021  37.943  1.00  0.00     0.124 S 
ATOM     82  O   UNL A   1      36.896  33.038  37.357  1.00  0.00    -0.237 OA
ATOM     83  O   UNL A   1      37.468  30.639  37.578  1.00  0.00    -0.237 OA
ATOM     84  O   UNL A   1      38.110  32.231  39.347  1.00  0.00    -0.744 OA
ENDBRANCH  77  81
ENDBRANCH  50  74
BRANCH  62  85
ATOM     85  C   UNL A   1      45.173  26.434  34.327  1.00  0.00     0.023 A 
ATOM     86  C   UNL A   1      46.514  26.853  34.384  1.00  0.00     0.031 A 
ATOM     87  C   UNL A   1      44.784  25.347  35.128  1.00  0.00     0.131 A 
ATOM     88  C   UNL A   1      47.432  26.148  35.176  1.00  0.00     0.055 A 
ATOM     89  C   UNL A   1      45.689  24.685  35.959  1.00  0.00     0.041 A 
ATOM     90  F   UNL A   1      43.518  24.901  35.106  1.00  0.00    -0.206 F 
ATOM     91  C   UNL A   1      47.026  25.077  35.976  1.00  0.00     0.022 A 
BRANCH  88  92
ATOM     92  S   UNL A   1      49.191  26.584  35.069  1.00  0.00     0.124 S 
ATOM     93  O   UNL A   1      49.814  25.526  35.858  1.00  0.00    -0.237 OA
ATOM     94  O   UNL A   1      49.438  26.539  33.632  1.00  0.00    -0.237 OA
ATOM     95  O   UNL A   1      49.250  27.917  35.666  1.00  0.00    -0.744 OA
ENDBRANCH  88  92
ENDBRANCH  62  85
ENDBRANCH  36  37
ENDBRANCH  29  31
ENDBRANCH  28  29
ENDBRANCH  27  28
ENDBRANCH   1  27
TORSDOF 20
ENDMDL
MODEL 3
REMARK VINA RESULT:     -12.0      2.332      8.715
REMARK SMILES CCN(CC)C(=O)N1CCC[C@H](C(=O)N[C@H](C(=O)OCCOC(=O)c2ccc(-c3c4nc(c(-c5cc(S(=O)(=O)[O-])ccc5F)c5ccc([nH]5)c(-c5cc(S(=O)(=O)[O-])ccc5F)c5nc(c(-c6cc(S(=O)(=O)[O-])ccc6F)c6ccc3[nH]6)C=C5)C=C4)cc2)C(C)(C)C)C1
REMARK SMILES IDX 20 1 19 2 17 3 18 4 16 5 15 6 13 7 14 8 12 10 8 11 9 12
REMARK SMILES IDX 92 13 10 14 11 15 6 16 3 17 7 18 2 19 1 20 4 21 5 22 88 23
REMARK SMILES IDX 89 24 90 25 91 26 21 27 22 28 23 29 24 30 25 31 26 32 87 33
REMARK SMILES IDX 27 34 86 35 28 36 29 37 30 38 80 39 31 40 85 41 79 42 81 43
REMARK SMILES IDX 32 44 84 45 78 46 77 47 33 49 65 50 45 51 64 52 46 53 49 54
REMARK SMILES IDX 63 55 82 56 47 57 48 58 62 60 83 61 50 62 34 63 35 64 43 65
REMARK SMILES IDX 36 66 42 67 44 68 41 69 37 70 38 71 39 72 40 73 66 74 67 75
REMARK SMILES IDX 75 76 68 77 74 78 76 79 73 80 69 81 70 82 71 83 72 84 51 85
REMARK SMILES IDX 52 86 60 87 53 88 59 89 61 90 58 91 54 92 55 93 56 94 57 95
REMARK H PARENT 15 9 81 48 49 59
REMARK Flexibility Score: inf
ROOT
ATOM      1  C   UNL A   1      31.838  27.802  27.769  1.00  0.00     0.274 C 
ENDROOT
BRANCH   1   2
ATOM      2  O   UNL A   1      32.049  26.399  26.984  1.00  0.00    -0.461 OA
BRANCH   2   3
ATOM      3  C   UNL A   1      31.226  25.420  26.351  1.00  0.00     0.329 C 
ATOM      4  O   UNL A   1      30.017  25.324  26.556  1.00  0.00    -0.250 OA
BRANCH   3   5
ATOM      5  C   UNL A   1      32.052  24.231  25.542  1.00  0.00     0.197 C 
BRANCH   5   6
ATOM      6  N   UNL A   1      31.556  24.269  24.194  1.00  0.00    -0.342 N 
ATOM      7  C   UNL A   1      31.554  25.389  23.426  1.00  0.00     0.225 C 
ATOM      8  O   UNL A   1      31.171  25.260  22.260  1.00  0.00    -0.275 OA
ATOM      9  H   UNL A   1      31.197  23.438  23.807  1.00  0.00     0.164 HD
BRANCH   7  10
ATOM     10  C   UNL A   1      31.966  26.780  23.979  1.00  0.00     0.098 C 
ATOM     11  N   UNL A   1      30.726  28.833  22.709  1.00  0.00    -0.324 N 
ATOM     12  C   UNL A   1      32.058  29.317  22.353  1.00  0.00     0.121 C 
ATOM     13  C   UNL A   1      31.016  27.988  24.017  1.00  0.00     0.134 C 
ATOM     14  C   UNL A   1      33.252  28.324  22.417  1.00  0.00     0.022 C 
ATOM     15  C   UNL A   1      33.317  27.317  23.571  1.00  0.00     0.017 C 
BRANCH  11  16
ATOM     16  C   UNL A   1      29.605  29.761  22.258  1.00  0.00     0.320 C 
ATOM     17  N   UNL A   1      28.382  29.932  23.083  1.00  0.00    -0.325 N 
ATOM     18  O   UNL A   1      29.547  30.141  21.084  1.00  0.00    -0.248 OA
BRANCH  17  19
ATOM     19  C   UNL A   1      27.176  29.109  22.805  1.00  0.00     0.118 C 
ATOM     20  C   UNL A   1      26.927  27.920  23.725  1.00  0.00     0.027 C 
ENDBRANCH  17  19
BRANCH  17  21
ATOM     21  C   UNL A   1      27.817  31.315  23.440  1.00  0.00     0.118 C 
ATOM     22  C   UNL A   1      28.870  32.469  23.377  1.00  0.00     0.027 C 
ENDBRANCH  17  21
ENDBRANCH  11  16
ENDBRANCH   7  10
ENDBRANCH   5   6
BRANCH   5  23
ATOM     23  C   UNL A   1      33.581  23.734  25.659  1.00  0.00    -0.007 C 
ATOM     24  C   UNL A   1      34.622  24.903  25.636  1.00  0.00     0.013 C 
ATOM     25  C   UNL A   1      33.851  23.099  27.061  1.00  0.00     0.013 C 
ATOM     26  C   UNL A   1      33.988  22.698  24.615  1.00  0.00     0.013 C 
ENDBRANCH   5  23
ENDBRANCH   3   5
ENDBRANCH   2   3
ENDBRANCH   1   2
BRANCH   1  27
ATOM     27  C   UNL A   1      31.652  29.351  27.092  1.00  0.00     0.275 C 
BRANCH  27  28
ATOM     28  O   UNL A   1      32.821  30.039  26.428  1.00  0.00    -0.458 OA
BRANCH  28  29
ATOM     29  C   UNL A   1      33.518  31.013  27.144  1.00  0.00     0.338 C 
ATOM     30  O   UNL A   1      32.952  31.986  27.632  1.00  0.00    -0.246 OA
BRANCH  29  31
ATOM     31  C   UNL A   1      35.004  30.742  27.482  1.00  0.00     0.060 A 
ATOM     32  C   UNL A   1      35.571  29.481  27.556  1.00  0.00     0.016 A 
ATOM     33  C   UNL A   1      35.870  31.789  27.853  1.00  0.00     0.016 A 
ATOM     34  C   UNL A   1      36.781  29.250  28.284  1.00  0.00     0.010 A 
ATOM     35  C   UNL A   1      37.179  31.557  28.396  1.00  0.00     0.010 A 
ATOM     36  C   UNL A   1      37.651  30.269  28.704  1.00  0.00    -0.014 A 
BRANCH  36  37
ATOM     37  C   UNL A   1      39.002  30.023  29.406  1.00  0.00     0.031 A 
ATOM     38  C   UNL A   1      40.035  29.048  28.826  1.00  0.00     0.074 A 
ATOM     39  C   UNL A   1      39.366  30.623  30.571  1.00  0.00     0.049 A 
ATOM     40  N   UNL A   1      40.998  28.378  29.421  1.00  0.00    -0.248 NA
ATOM     41  C   UNL A   1      39.967  28.801  27.378  1.00  0.00     0.031 C 
ATOM     42  C   UNL A   1      38.629  31.676  31.270  1.00  0.00     0.029 A 
ATOM     43  N   UNL A   1      40.461  30.417  31.403  1.00  0.00    -0.354 N 
ATOM     44  C   UNL A   1      41.575  27.554  28.448  1.00  0.00     0.074 A 
ATOM     45  C   UNL A   1      40.870  27.840  27.213  1.00  0.00     0.031 C 
ATOM     46  C   UNL A   1      39.291  32.049  32.371  1.00  0.00     0.029 A 
ATOM     47  C   UNL A   1      40.409  31.144  32.579  1.00  0.00     0.049 A 
ATOM     48  H   UNL A   1      41.203  29.811  31.177  1.00  0.00     0.167 HD
ATOM     49  C   UNL A   1      42.574  26.633  28.575  1.00  0.00     0.034 A 
ATOM     50  C   UNL A   1      41.077  31.049  33.751  1.00  0.00     0.034 A 
ATOM     51  C   UNL A   1      43.323  26.412  29.796  1.00  0.00     0.049 A 
ATOM     52  C   UNL A   1      42.107  29.967  33.924  1.00  0.00     0.074 A 
ATOM     53  C   UNL A   1      44.327  25.487  30.049  1.00  0.00     0.029 A 
ATOM     54  N   UNL A   1      43.171  27.145  30.966  1.00  0.00    -0.354 N 
ATOM     55  N   UNL A   1      42.509  29.067  33.057  1.00  0.00    -0.248 NA
ATOM     56  C   UNL A   1      42.754  29.868  35.240  1.00  0.00     0.031 C 
ATOM     57  C   UNL A   1      44.731  25.619  31.384  1.00  0.00     0.029 A 
ATOM     58  C   UNL A   1      44.040  26.678  31.945  1.00  0.00     0.049 A 
ATOM     59  H   UNL A   1      42.538  27.889  31.085  1.00  0.00     0.167 HD
ATOM     60  C   UNL A   1      43.464  28.304  33.722  1.00  0.00     0.074 A 
ATOM     61  C   UNL A   1      43.596  28.863  35.051  1.00  0.00     0.031 C 
ATOM     62  C   UNL A   1      44.163  27.232  33.272  1.00  0.00     0.034 A 
BRANCH  49  63
ATOM     63  C   UNL A   1      42.854  25.715  27.393  1.00  0.00     0.023 A 
ATOM     64  C   UNL A   1      42.311  24.424  27.278  1.00  0.00     0.031 A 
ATOM     65  C   UNL A   1      43.713  26.151  26.361  1.00  0.00     0.131 A 
ATOM     66  C   UNL A   1      42.698  23.590  26.211  1.00  0.00     0.055 A 
ATOM     67  C   UNL A   1      44.026  25.347  25.260  1.00  0.00     0.041 A 
ATOM     68  F   UNL A   1      44.274  27.369  26.408  1.00  0.00    -0.206 F 
ATOM     69  C   UNL A   1      43.532  24.051  25.191  1.00  0.00     0.022 A 
BRANCH  66  70
ATOM     70  S   UNL A   1      42.207  21.841  26.258  1.00  0.00     0.124 S 
ATOM     71  O   UNL A   1      43.089  21.267  25.230  1.00  0.00    -0.237 OA
ATOM     72  O   UNL A   1      42.478  21.465  27.617  1.00  0.00    -0.237 OA
ATOM     73  O   UNL A   1      40.785  21.878  25.876  1.00  0.00    -0.744 OA
ENDBRANCH  66  70
ENDBRANCH  49  63
BRANCH  50  74
ATOM     74  C   UNL A   1      40.691  31.915  34.915  1.00  0.00     0.023 A 
ATOM     75  C   UNL A   1      39.634  31.569  35.773  1.00  0.00     0.031 A 
ATOM     76  C   UNL A   1      41.369  33.125  35.170  1.00  0.00     0.131 A 
ATOM     77  C   UNL A   1      39.283  32.425  36.833  1.00  0.00     0.055 A 
ATOM     78  C   UNL A   1      41.059  33.937  36.262  1.00  0.00     0.041 A 
ATOM     79  F   UNL A   1      42.374  33.522  34.373  1.00  0.00    -0.206 F 
ATOM     80  C   UNL A   1      40.003  33.592  37.097  1.00  0.00     0.022 A 
BRANCH  77  81
ATOM     81  S   UNL A   1      37.816  32.028  37.827  1.00  0.00     0.124 S 
ATOM     82  O   UNL A   1      36.868  33.039  37.376  1.00  0.00    -0.237 OA
ATOM     83  O   UNL A   1      37.537  30.656  37.419  1.00  0.00    -0.237 OA
ATOM     84  O   UNL A   1      38.286  32.183  39.203  1.00  0.00    -0.744 OA
ENDBRANCH  77  81
ENDBRANCH  50  74
BRANCH  62  85
ATOM     85  C   UNL A   1      45.177  26.639  34.219  1.00  0.00     0.023 A 
ATOM     86  C   UNL A   1      46.511  27.082  34.246  1.00  0.00     0.031 A 
ATOM     87  C   UNL A   1      44.812  25.581  35.070  1.00  0.00     0.131 A 
ATOM     88  C   UNL A   1      47.447  26.428  35.062  1.00  0.00     0.055 A 
ATOM     89  C   UNL A   1      45.734  24.972  35.922  1.00  0.00     0.041 A 
ATOM     90  F   UNL A   1      43.554  25.113  35.077  1.00  0.00    -0.206 F 
ATOM     91  C   UNL A   1      47.064  25.386  35.911  1.00  0.00     0.022 A 
BRANCH  88  92
ATOM     92  S   UNL A   1      49.197  26.888  34.923  1.00  0.00     0.124 S 
ATOM     93  O   UNL A   1      49.438  27.551  36.200  1.00  0.00    -0.237 OA
ATOM     94  O   UNL A   1      49.847  25.595  34.741  1.00  0.00    -0.237 OA
ATOM     95  O   UNL A   1      49.228  27.765  33.754  1.00  0.00    -0.744 OA
ENDBRANCH  88  92
ENDBRANCH  62  85
ENDBRANCH  36  37
ENDBRANCH  29  31
ENDBRANCH  28  29
ENDBRANCH  27  28
ENDBRANCH   1  27
TORSDOF 20
ENDMDL
