MODEL 1
REMARK VINA RESULT:     -11.8      0.000      0.000
REMARK SMILES CCOc1cccc(-c2ccc([C@@H](C)C(=O)OCCOC(=O)c3ccc(-c4c5nc(c(-c6cc(S(=O)(=O)[O-])ccc6F)c6ccc([nH]6)c(-c6cc(S(=O)(=O)[O-])ccc6F)c6nc(c(-c7cc(S(=O)(=O)[O-])ccc7F)c7ccc4[nH]7)C=C6)C=C5)cc3)cc2F)c1
REMARK SMILES IDX 18 1 17 2 15 3 16 4 13 5 14 6 12 7 9 8 10 9 87 10 11 11
REMARK SMILES IDX 86 12 88 13 8 14 4 15 5 16 89 17 6 18 7 19 3 20 2 21 1 22
REMARK SMILES IDX 19 23 20 24 21 25 22 26 23 27 24 28 85 29 25 30 84 31 26 32
REMARK SMILES IDX 27 33 28 34 78 35 29 36 83 37 77 38 79 39 30 40 82 41 76 42
REMARK SMILES IDX 75 43 31 45 63 46 43 47 62 48 44 49 47 50 61 51 80 52 45 53
REMARK SMILES IDX 46 54 60 56 81 57 48 58 32 59 33 60 41 61 34 62 40 63 42 64
REMARK SMILES IDX 39 65 35 66 36 67 37 68 38 69 64 70 65 71 73 72 66 73 72 74
REMARK SMILES IDX 74 75 71 76 67 77 68 78 69 79 70 80 49 81 50 82 58 83 51 84
REMARK SMILES IDX 57 85 59 86 56 87 52 88 53 89 54 90 55 91
REMARK H PARENT 79 44 47 55
REMARK Flexibility Score: inf
ROOT
ATOM      1  C   UNL A   1      36.286  19.863  25.002  1.00  0.00     0.274 C 
ENDROOT
BRANCH   1   2
ATOM      2  O   UNL A   1      35.711  21.143  24.674  1.00  0.00    -0.462 OA
BRANCH   2   3
ATOM      3  C   UNL A   1      34.487  21.413  25.200  1.00  0.00     0.313 C 
ATOM      4  O   UNL A   1      33.437  20.946  24.766  1.00  0.00    -0.252 OA
BRANCH   3   5
ATOM      5  C   UNL A   1      34.511  22.419  26.345  1.00  0.00     0.126 C 
ATOM      6  C   UNL A   1      33.934  21.777  27.606  1.00  0.00     0.025 C 
BRANCH   5   7
ATOM      7  C   UNL A   1      33.899  23.782  26.066  1.00  0.00    -0.031 A 
ATOM      8  C   UNL A   1      32.673  26.305  25.524  1.00  0.00     0.018 A 
ATOM      9  C   UNL A   1      34.017  26.057  25.195  1.00  0.00     0.012 A 
ATOM     10  C   UNL A   1      31.967  25.259  26.135  1.00  0.00     0.131 A 
ATOM     11  C   UNL A   1      34.618  24.817  25.455  1.00  0.00     0.005 A 
ATOM     12  C   UNL A   1      32.559  24.024  26.401  1.00  0.00     0.044 A 
ATOM     13  F   UNL A   1      30.674  25.412  26.459  1.00  0.00    -0.206 F 
BRANCH   8  14
ATOM     14  C   UNL A   1      32.045  27.607  25.232  1.00  0.00    -0.012 A 
ATOM     15  C   UNL A   1      30.627  29.014  23.833  1.00  0.00     0.119 A 
ATOM     16  C   UNL A   1      30.879  30.112  24.649  1.00  0.00     0.046 A 
ATOM     17  C   UNL A   1      31.221  27.782  24.106  1.00  0.00     0.055 A 
ATOM     18  C   UNL A   1      31.695  29.966  25.768  1.00  0.00     0.004 A 
ATOM     19  C   UNL A   1      32.268  28.724  26.057  1.00  0.00     0.009 A 
BRANCH  15  20
ATOM     20  O   UNL A   1      29.890  29.216  22.701  1.00  0.00    -0.494 OA
BRANCH  20  21
ATOM     21  C   UNL A   1      28.485  29.023  22.895  1.00  0.00     0.226 C 
ATOM     22  C   UNL A   1      27.683  30.253  22.505  1.00  0.00     0.049 C 
ENDBRANCH  20  21
ENDBRANCH  15  20
ENDBRANCH   8  14
ENDBRANCH   5   7
ENDBRANCH   3   5
ENDBRANCH   2   3
ENDBRANCH   1   2
BRANCH   1  23
ATOM     23  C   UNL A   1      37.814  19.886  24.901  1.00  0.00     0.275 C 
BRANCH  23  24
ATOM     24  O   UNL A   1      38.363  21.114  25.412  1.00  0.00    -0.458 OA
BRANCH  24  25
ATOM     25  C   UNL A   1      39.483  20.960  26.158  1.00  0.00     0.338 C 
ATOM     26  O   UNL A   1      40.146  19.946  26.281  1.00  0.00    -0.246 OA
BRANCH  25  27
ATOM     27  C   UNL A   1      39.888  22.251  26.737  1.00  0.00     0.060 A 
ATOM     28  C   UNL A   1      39.275  23.405  26.244  1.00  0.00     0.016 A 
ATOM     29  C   UNL A   1      40.931  22.339  27.658  1.00  0.00     0.016 A 
ATOM     30  C   UNL A   1      39.729  24.660  26.635  1.00  0.00     0.010 A 
ATOM     31  C   UNL A   1      41.384  23.603  28.058  1.00  0.00     0.010 A 
ATOM     32  C   UNL A   1      40.803  24.769  27.526  1.00  0.00    -0.014 A 
BRANCH  32  33
ATOM     33  C   UNL A   1      41.389  26.105  27.799  1.00  0.00     0.031 A 
ATOM     34  C   UNL A   1      42.751  26.435  27.254  1.00  0.00     0.074 A 
ATOM     35  C   UNL A   1      40.688  27.027  28.483  1.00  0.00     0.049 A 
ATOM     36  N   UNL A   1      43.474  27.512  27.421  1.00  0.00    -0.248 NA
ATOM     37  C   UNL A   1      43.381  25.409  26.410  1.00  0.00     0.031 C 
ATOM     38  C   UNL A   1      39.334  26.838  29.009  1.00  0.00     0.029 A 
ATOM     39  N   UNL A   1      41.015  28.307  28.851  1.00  0.00    -0.354 N 
ATOM     40  C   UNL A   1      44.653  27.289  26.717  1.00  0.00     0.074 A 
ATOM     41  C   UNL A   1      44.555  25.962  26.145  1.00  0.00     0.031 C 
ATOM     42  C   UNL A   1      38.946  27.965  29.629  1.00  0.00     0.029 A 
ATOM     43  C   UNL A   1      40.036  28.937  29.585  1.00  0.00     0.049 A 
ATOM     44  H   UNL A   1      41.868  28.735  28.612  1.00  0.00     0.167 HD
ATOM     45  C   UNL A   1      45.716  28.118  26.558  1.00  0.00     0.034 A 
ATOM     46  C   UNL A   1      40.034  30.149  30.176  1.00  0.00     0.034 A 
ATOM     47  C   UNL A   1      45.793  29.439  27.133  1.00  0.00     0.049 A 
ATOM     48  C   UNL A   1      41.251  31.029  30.039  1.00  0.00     0.074 A 
ATOM     49  C   UNL A   1      46.826  30.359  27.053  1.00  0.00     0.029 A 
ATOM     50  N   UNL A   1      44.796  30.033  27.897  1.00  0.00    -0.354 N 
ATOM     51  N   UNL A   1      42.375  30.793  29.401  1.00  0.00    -0.248 NA
ATOM     52  C   UNL A   1      41.196  32.341  30.695  1.00  0.00     0.031 C 
ATOM     53  C   UNL A   1      46.475  31.483  27.811  1.00  0.00     0.029 A 
ATOM     54  C   UNL A   1      45.196  31.295  28.310  1.00  0.00     0.049 A 
ATOM     55  H   UNL A   1      43.931  29.617  28.115  1.00  0.00     0.167 HD
ATOM     56  C   UNL A   1      43.147  31.941  29.556  1.00  0.00     0.074 A 
ATOM     57  C   UNL A   1      42.357  32.870  30.338  1.00  0.00     0.031 C 
ATOM     58  C   UNL A   1      44.395  32.206  29.093  1.00  0.00     0.034 A 
BRANCH  45  59
ATOM     59  C   UNL A   1      46.895  27.586  25.782  1.00  0.00     0.023 A 
ATOM     60  C   UNL A   1      47.144  27.970  24.453  1.00  0.00     0.031 A 
ATOM     61  C   UNL A   1      47.759  26.644  26.369  1.00  0.00     0.131 A 
ATOM     62  C   UNL A   1      48.185  27.361  23.733  1.00  0.00     0.055 A 
ATOM     63  C   UNL A   1      48.840  26.100  25.672  1.00  0.00     0.041 A 
ATOM     64  F   UNL A   1      47.557  26.222  27.628  1.00  0.00    -0.206 F 
ATOM     65  C   UNL A   1      49.049  26.446  24.341  1.00  0.00     0.022 A 
BRANCH  62  66
ATOM     66  S   UNL A   1      48.309  27.674  21.951  1.00  0.00     0.124 S 
ATOM     67  O   UNL A   1      48.528  26.327  21.433  1.00  0.00    -0.237 OA
ATOM     68  O   UNL A   1      47.017  28.278  21.647  1.00  0.00    -0.237 OA
ATOM     69  O   UNL A   1      49.459  28.571  21.840  1.00  0.00    -0.744 OA
ENDBRANCH  62  66
ENDBRANCH  45  59
BRANCH  46  70
ATOM     70  C   UNL A   1      38.865  30.590  30.989  1.00  0.00     0.023 A 
ATOM     71  C   UNL A   1      37.891  31.448  30.457  1.00  0.00     0.031 A 
ATOM     72  C   UNL A   1      38.736  30.196  32.334  1.00  0.00     0.131 A 
ATOM     73  C   UNL A   1      36.854  31.921  31.277  1.00  0.00     0.055 A 
ATOM     74  C   UNL A   1      37.675  30.630  33.130  1.00  0.00     0.041 A 
ATOM     75  F   UNL A   1      39.641  29.376  32.892  1.00  0.00    -0.206 F 
ATOM     76  C   UNL A   1      36.733  31.508  32.606  1.00  0.00     0.022 A 
BRANCH  73  77
ATOM     77  S   UNL A   1      35.706  33.154  30.603  1.00  0.00     0.124 S 
ATOM     78  O   UNL A   1      35.784  34.212  31.603  1.00  0.00    -0.237 OA
ATOM     79  O   UNL A   1      36.307  33.450  29.306  1.00  0.00    -0.237 OA
ATOM     80  O   UNL A   1      34.432  32.438  30.548  1.00  0.00    -0.744 OA
ENDBRANCH  73  77
ENDBRANCH  46  70
BRANCH  58  81
ATOM     81  C   UNL A   1      44.949  33.580  29.375  1.00  0.00     0.023 A 
ATOM     82  C   UNL A   1      44.786  34.645  28.472  1.00  0.00     0.031 A 
ATOM     83  C   UNL A   1      45.666  33.819  30.560  1.00  0.00     0.131 A 
ATOM     84  C   UNL A   1      45.379  35.887  28.744  1.00  0.00     0.055 A 
ATOM     85  C   UNL A   1      46.210  35.071  30.850  1.00  0.00     0.041 A 
ATOM     86  F   UNL A   1      45.851  32.836  31.456  1.00  0.00    -0.206 F 
ATOM     87  C   UNL A   1      46.080  36.109  29.933  1.00  0.00     0.022 A 
BRANCH  84  88
ATOM     88  S   UNL A   1      45.299  37.187  27.482  1.00  0.00     0.124 S 
ATOM     89  O   UNL A   1      45.966  38.301  28.147  1.00  0.00    -0.237 OA
ATOM     90  O   UNL A   1      46.024  36.585  26.367  1.00  0.00    -0.237 OA
ATOM     91  O   UNL A   1      43.865  37.366  27.262  1.00  0.00    -0.744 OA
ENDBRANCH  84  88
ENDBRANCH  58  81
ENDBRANCH  32  33
ENDBRANCH  25  27
ENDBRANCH  24  25
ENDBRANCH  23  24
ENDBRANCH   1  23
TORSDOF 18
ENDMDL
MODEL 2
REMARK VINA RESULT:     -11.6      1.022      7.596
REMARK SMILES CCOc1cccc(-c2ccc([C@@H](C)C(=O)OCCOC(=O)c3ccc(-c4c5nc(c(-c6cc(S(=O)(=O)[O-])ccc6F)c6ccc([nH]6)c(-c6cc(S(=O)(=O)[O-])ccc6F)c6nc(c(-c7cc(S(=O)(=O)[O-])ccc7F)c7ccc4[nH]7)C=C6)C=C5)cc3)cc2F)c1
REMARK SMILES IDX 18 1 17 2 15 3 16 4 13 5 14 6 12 7 9 8 10 9 87 10 11 11
REMARK SMILES IDX 86 12 88 13 8 14 4 15 5 16 89 17 6 18 7 19 3 20 2 21 1 22
REMARK SMILES IDX 19 23 20 24 21 25 22 26 23 27 24 28 85 29 25 30 84 31 26 32
REMARK SMILES IDX 27 33 28 34 78 35 29 36 83 37 77 38 79 39 30 40 82 41 76 42
REMARK SMILES IDX 75 43 31 45 63 46 43 47 62 48 44 49 47 50 61 51 80 52 45 53
REMARK SMILES IDX 46 54 60 56 81 57 48 58 32 59 33 60 41 61 34 62 40 63 42 64
REMARK SMILES IDX 39 65 35 66 36 67 37 68 38 69 64 70 65 71 73 72 66 73 72 74
REMARK SMILES IDX 74 75 71 76 67 77 68 78 69 79 70 80 49 81 50 82 58 83 51 84
REMARK SMILES IDX 57 85 59 86 56 87 52 88 53 89 54 90 55 91
REMARK H PARENT 79 44 47 55
REMARK Flexibility Score: inf
ROOT
ATOM      1  C   UNL A   1      36.204  19.941  25.012  1.00  0.00     0.274 C 
ENDROOT
BRANCH   1   2
ATOM      2  O   UNL A   1      34.952  20.540  24.627  1.00  0.00    -0.462 OA
BRANCH   2   3
ATOM      3  C   UNL A   1      34.213  21.097  25.622  1.00  0.00     0.313 C 
ATOM      4  O   UNL A   1      34.651  21.354  26.740  1.00  0.00    -0.252 OA
BRANCH   3   5
ATOM      5  C   UNL A   1      32.747  21.314  25.260  1.00  0.00     0.126 C 
ATOM      6  C   UNL A   1      32.364  20.402  24.096  1.00  0.00     0.025 C 
BRANCH   5   7
ATOM      7  C   UNL A   1      32.310  22.752  25.030  1.00  0.00    -0.031 A 
ATOM      8  C   UNL A   1      31.570  25.475  24.587  1.00  0.00     0.018 A 
ATOM      9  C   UNL A   1      30.856  24.657  25.480  1.00  0.00     0.012 A 
ATOM     10  C   UNL A   1      32.656  24.889  23.922  1.00  0.00     0.131 A 
ATOM     11  C   UNL A   1      31.221  23.322  25.703  1.00  0.00     0.005 A 
ATOM     12  C   UNL A   1      33.023  23.560  24.134  1.00  0.00     0.044 A 
ATOM     13  F   UNL A   1      33.400  25.611  23.070  1.00  0.00    -0.206 F 
BRANCH   8  14
ATOM     14  C   UNL A   1      31.187  26.883  24.372  1.00  0.00    -0.012 A 
ATOM     15  C   UNL A   1      30.009  28.591  23.090  1.00  0.00     0.119 A 
ATOM     16  C   UNL A   1      30.491  29.584  23.936  1.00  0.00     0.046 A 
ATOM     17  C   UNL A   1      30.371  27.259  23.290  1.00  0.00     0.055 A 
ATOM     18  C   UNL A   1      31.304  29.239  25.012  1.00  0.00     0.004 A 
ATOM     19  C   UNL A   1      31.644  27.900  25.228  1.00  0.00     0.009 A 
BRANCH  15  20
ATOM     20  O   UNL A   1      29.283  28.978  22.000  1.00  0.00    -0.494 OA
BRANCH  20  21
ATOM     21  C   UNL A   1      28.107  29.724  22.335  1.00  0.00     0.226 C 
ATOM     22  C   UNL A   1      27.079  28.868  23.056  1.00  0.00     0.049 C 
ENDBRANCH  20  21
ENDBRANCH  15  20
ENDBRANCH   8  14
ENDBRANCH   5   7
ENDBRANCH   3   5
ENDBRANCH   2   3
ENDBRANCH   1   2
BRANCH   1  23
ATOM     23  C   UNL A   1      37.395  20.835  24.654  1.00  0.00     0.275 C 
BRANCH  23  24
ATOM     24  O   UNL A   1      37.802  21.650  25.768  1.00  0.00    -0.458 OA
BRANCH  24  25
ATOM     25  C   UNL A   1      39.071  21.432  26.188  1.00  0.00     0.338 C 
ATOM     26  O   UNL A   1      39.717  20.407  26.063  1.00  0.00    -0.246 OA
BRANCH  25  27
ATOM     27  C   UNL A   1      39.644  22.673  26.734  1.00  0.00     0.060 A 
ATOM     28  C   UNL A   1      39.176  23.885  26.223  1.00  0.00     0.016 A 
ATOM     29  C   UNL A   1      40.703  22.646  27.642  1.00  0.00     0.016 A 
ATOM     30  C   UNL A   1      39.790  25.080  26.583  1.00  0.00     0.010 A 
ATOM     31  C   UNL A   1      41.317  23.850  28.009  1.00  0.00     0.010 A 
ATOM     32  C   UNL A   1      40.882  25.070  27.459  1.00  0.00    -0.014 A 
BRANCH  32  33
ATOM     33  C   UNL A   1      41.635  26.325  27.696  1.00  0.00     0.031 A 
ATOM     34  C   UNL A   1      41.004  27.417  28.515  1.00  0.00     0.074 A 
ATOM     35  C   UNL A   1      42.888  26.465  27.228  1.00  0.00     0.049 A 
ATOM     36  N   UNL A   1      41.454  28.613  28.795  1.00  0.00    -0.248 NA
ATOM     37  C   UNL A   1      39.684  27.119  29.092  1.00  0.00     0.031 C 
ATOM     38  C   UNL A   1      43.624  25.450  26.472  1.00  0.00     0.029 A 
ATOM     39  N   UNL A   1      43.766  27.515  27.321  1.00  0.00    -0.354 N 
ATOM     40  C   UNL A   1      40.467  29.218  29.567  1.00  0.00     0.074 A 
ATOM     41  C   UNL A   1      39.384  28.264  29.686  1.00  0.00     0.031 C 
ATOM     42  C   UNL A   1      44.844  25.927  26.173  1.00  0.00     0.029 A 
ATOM     43  C   UNL A   1      44.960  27.294  26.674  1.00  0.00     0.049 A 
ATOM     44  H   UNL A   1      43.561  28.347  27.805  1.00  0.00     0.167 HD
ATOM     45  C   UNL A   1      40.469  30.453  30.129  1.00  0.00     0.034 A 
ATOM     46  C   UNL A   1      46.014  28.114  26.487  1.00  0.00     0.034 A 
ATOM     47  C   UNL A   1      41.560  31.389  30.002  1.00  0.00     0.049 A 
ATOM     48  C   UNL A   1      45.969  29.505  27.067  1.00  0.00     0.074 A 
ATOM     49  C   UNL A   1      41.663  32.673  30.513  1.00  0.00     0.029 A 
ATOM     50  N   UNL A   1      42.741  31.143  29.313  1.00  0.00    -0.354 N 
ATOM     51  N   UNL A   1      45.015  30.079  27.765  1.00  0.00    -0.248 NA
ATOM     52  C   UNL A   1      47.144  30.356  26.841  1.00  0.00     0.031 C 
ATOM     53  C   UNL A   1      42.881  33.219  30.089  1.00  0.00     0.029 A 
ATOM     54  C   UNL A   1      43.569  32.255  29.369  1.00  0.00     0.049 A 
ATOM     55  H   UNL A   1      42.959  30.302  28.851  1.00  0.00     0.167 HD
ATOM     56  C   UNL A   1      45.490  31.348  28.085  1.00  0.00     0.074 A 
ATOM     57  C   UNL A   1      46.818  31.450  27.513  1.00  0.00     0.031 C 
ATOM     58  C   UNL A   1      44.888  32.339  28.790  1.00  0.00     0.034 A 
BRANCH  45  59
ATOM     59  C   UNL A   1      39.227  30.873  30.875  1.00  0.00     0.023 A 
ATOM     60  C   UNL A   1      38.167  31.543  30.238  1.00  0.00     0.031 A 
ATOM     61  C   UNL A   1      39.121  30.639  32.258  1.00  0.00     0.131 A 
ATOM     62  C   UNL A   1      37.084  32.016  30.994  1.00  0.00     0.055 A 
ATOM     63  C   UNL A   1      38.004  31.045  32.991  1.00  0.00     0.041 A 
ATOM     64  F   UNL A   1      40.112  30.025  32.925  1.00  0.00    -0.206 F 
ATOM     65  C   UNL A   1      36.983  31.751  32.363  1.00  0.00     0.022 A 
BRANCH  62  66
ATOM     66  S   UNL A   1      35.874  33.106  30.194  1.00  0.00     0.124 S 
ATOM     67  O   UNL A   1      35.722  34.158  31.195  1.00  0.00    -0.237 OA
ATOM     68  O   UNL A   1      36.558  33.485  28.963  1.00  0.00    -0.237 OA
ATOM     69  O   UNL A   1      34.703  32.248  30.019  1.00  0.00    -0.744 OA
ENDBRANCH  62  66
ENDBRANCH  45  59
BRANCH  46  70
ATOM     70  C   UNL A   1      47.185  27.665  25.680  1.00  0.00     0.023 A 
ATOM     71  C   UNL A   1      47.281  27.959  24.311  1.00  0.00     0.031 A 
ATOM     72  C   UNL A   1      48.203  26.887  26.262  1.00  0.00     0.131 A 
ATOM     73  C   UNL A   1      48.348  27.442  23.560  1.00  0.00     0.055 A 
ATOM     74  C   UNL A   1      49.286  26.417  25.520  1.00  0.00     0.041 A 
ATOM     75  F   UNL A   1      48.158  26.576  27.567  1.00  0.00    -0.206 F 
ATOM     76  C   UNL A   1      49.357  26.683  24.157  1.00  0.00     0.022 A 
BRANCH  73  77
ATOM     77  S   UNL A   1      48.355  27.707  21.764  1.00  0.00     0.124 S 
ATOM     78  O   UNL A   1      47.029  28.273  21.541  1.00  0.00    -0.237 OA
ATOM     79  O   UNL A   1      49.481  28.620  21.597  1.00  0.00    -0.237 OA
ATOM     80  O   UNL A   1      48.559  26.363  21.223  1.00  0.00    -0.744 OA
ENDBRANCH  73  77
ENDBRANCH  46  70
BRANCH  58  81
ATOM     81  C   UNL A   1      45.692  33.593  29.026  1.00  0.00     0.023 A 
ATOM     82  C   UNL A   1      45.670  34.669  28.121  1.00  0.00     0.031 A 
ATOM     83  C   UNL A   1      46.505  33.702  30.166  1.00  0.00     0.131 A 
ATOM     84  C   UNL A   1      46.488  35.786  28.346  1.00  0.00     0.055 A 
ATOM     85  C   UNL A   1      47.278  34.837  30.412  1.00  0.00     0.041 A 
ATOM     86  F   UNL A   1      46.562  32.703  31.062  1.00  0.00    -0.206 F 
ATOM     87  C   UNL A   1      47.283  35.881  29.492  1.00  0.00     0.022 A 
BRANCH  84  88
ATOM     88  S   UNL A   1      46.570  37.078  27.076  1.00  0.00     0.124 S 
ATOM     89  O   UNL A   1      45.283  37.746  27.236  1.00  0.00    -0.237 OA
ATOM     90  O   UNL A   1      47.742  37.847  27.487  1.00  0.00    -0.237 OA
ATOM     91  O   UNL A   1      46.728  36.328  25.832  1.00  0.00    -0.744 OA
ENDBRANCH  84  88
ENDBRANCH  58  81
ENDBRANCH  32  33
ENDBRANCH  25  27
ENDBRANCH  24  25
ENDBRANCH  23  24
ENDBRANCH   1  23
TORSDOF 18
ENDMDL
MODEL 3
REMARK VINA RESULT:     -11.4      1.654      1.959
REMARK SMILES CCOc1cccc(-c2ccc([C@@H](C)C(=O)OCCOC(=O)c3ccc(-c4c5nc(c(-c6cc(S(=O)(=O)[O-])ccc6F)c6ccc([nH]6)c(-c6cc(S(=O)(=O)[O-])ccc6F)c6nc(c(-c7cc(S(=O)(=O)[O-])ccc7F)c7ccc4[nH]7)C=C6)C=C5)cc3)cc2F)c1
REMARK SMILES IDX 18 1 17 2 15 3 16 4 13 5 14 6 12 7 9 8 10 9 87 10 11 11
REMARK SMILES IDX 86 12 88 13 8 14 4 15 5 16 89 17 6 18 7 19 3 20 2 21 1 22
REMARK SMILES IDX 19 23 20 24 21 25 22 26 23 27 24 28 85 29 25 30 84 31 26 32
REMARK SMILES IDX 27 33 28 34 78 35 29 36 83 37 77 38 79 39 30 40 82 41 76 42
REMARK SMILES IDX 75 43 31 45 63 46 43 47 62 48 44 49 47 50 61 51 80 52 45 53
REMARK SMILES IDX 46 54 60 56 81 57 48 58 32 59 33 60 41 61 34 62 40 63 42 64
REMARK SMILES IDX 39 65 35 66 36 67 37 68 38 69 64 70 65 71 73 72 66 73 72 74
REMARK SMILES IDX 74 75 71 76 67 77 68 78 69 79 70 80 49 81 50 82 58 83 51 84
REMARK SMILES IDX 57 85 59 86 56 87 52 88 53 89 54 90 55 91
REMARK H PARENT 79 44 47 55
REMARK Flexibility Score: inf
ROOT
ATOM      1  C   UNL A   1      36.138  19.781  24.987  1.00  0.00     0.274 C 
ENDROOT
BRANCH   1   2
ATOM      2  O   UNL A   1      35.393  20.986  24.724  1.00  0.00    -0.462 OA
BRANCH   2   3
ATOM      3  C   UNL A   1      34.594  21.438  25.725  1.00  0.00     0.313 C 
ATOM      4  O   UNL A   1      34.912  21.435  26.911  1.00  0.00    -0.252 OA
BRANCH   3   5
ATOM      5  C   UNL A   1      33.214  21.892  25.261  1.00  0.00     0.126 C 
ATOM      6  C   UNL A   1      32.927  21.329  23.870  1.00  0.00     0.025 C 
BRANCH   5   7
ATOM      7  C   UNL A   1      32.924  23.383  25.346  1.00  0.00    -0.031 A 
ATOM      8  C   UNL A   1      32.463  26.197  25.490  1.00  0.00     0.018 A 
ATOM      9  C   UNL A   1      31.741  25.294  26.290  1.00  0.00     0.012 A 
ATOM     10  C   UNL A   1      33.413  25.651  24.617  1.00  0.00     0.131 A 
ATOM     11  C   UNL A   1      31.970  23.913  26.224  1.00  0.00     0.005 A 
ATOM     12  C   UNL A   1      33.644  24.277  24.542  1.00  0.00     0.044 A 
ATOM     13  F   UNL A   1      34.157  26.450  23.837  1.00  0.00    -0.206 F 
BRANCH   8  14
ATOM     14  C   UNL A   1      32.225  27.651  25.579  1.00  0.00    -0.012 A 
ATOM     15  C   UNL A   1      30.979  29.642  24.924  1.00  0.00     0.119 A 
ATOM     16  C   UNL A   1      31.800  30.438  25.716  1.00  0.00     0.046 A 
ATOM     17  C   UNL A   1      31.202  28.268  24.837  1.00  0.00     0.055 A 
ATOM     18  C   UNL A   1      32.822  29.852  26.457  1.00  0.00     0.004 A 
ATOM     19  C   UNL A   1      33.028  28.471  26.391  1.00  0.00     0.009 A 
BRANCH  15  20
ATOM     20  O   UNL A   1      30.042  30.263  24.148  1.00  0.00    -0.494 OA
BRANCH  20  21
ATOM     21  C   UNL A   1      29.814  29.606  22.897  1.00  0.00     0.226 C 
ATOM     22  C   UNL A   1      29.424  30.587  21.803  1.00  0.00     0.049 C 
ENDBRANCH  20  21
ENDBRANCH  15  20
ENDBRANCH   8  14
ENDBRANCH   5   7
ENDBRANCH   3   5
ENDBRANCH   2   3
ENDBRANCH   1   2
BRANCH   1  23
ATOM     23  C   UNL A   1      37.636  19.973  24.730  1.00  0.00     0.275 C 
BRANCH  23  24
ATOM     24  O   UNL A   1      38.140  21.155  25.376  1.00  0.00    -0.458 OA
BRANCH  24  25
ATOM     25  C   UNL A   1      39.286  20.969  26.073  1.00  0.00     0.338 C 
ATOM     26  O   UNL A   1      39.943  19.946  26.139  1.00  0.00    -0.246 OA
BRANCH  25  27
ATOM     27  C   UNL A   1      39.728  22.239  26.672  1.00  0.00     0.060 A 
ATOM     28  C   UNL A   1      39.155  23.418  26.191  1.00  0.00     0.016 A 
ATOM     29  C   UNL A   1      40.766  22.281  27.602  1.00  0.00     0.016 A 
ATOM     30  C   UNL A   1      39.646  24.653  26.604  1.00  0.00     0.010 A 
ATOM     31  C   UNL A   1      41.256  23.524  28.023  1.00  0.00     0.010 A 
ATOM     32  C   UNL A   1      40.716  24.715  27.504  1.00  0.00    -0.014 A 
BRANCH  32  33
ATOM     33  C   UNL A   1      41.341  26.028  27.800  1.00  0.00     0.031 A 
ATOM     34  C   UNL A   1      42.749  26.291  27.341  1.00  0.00     0.074 A 
ATOM     35  C   UNL A   1      40.639  26.989  28.427  1.00  0.00     0.049 A 
ATOM     36  N   UNL A   1      43.507  27.338  27.542  1.00  0.00    -0.248 NA
ATOM     37  C   UNL A   1      43.386  25.227  26.550  1.00  0.00     0.031 C 
ATOM     38  C   UNL A   1      39.248  26.867  28.865  1.00  0.00     0.029 A 
ATOM     39  N   UNL A   1      40.998  28.258  28.801  1.00  0.00    -0.354 N 
ATOM     40  C   UNL A   1      44.718  27.054  26.919  1.00  0.00     0.074 A 
ATOM     41  C   UNL A   1      44.598  25.725  26.357  1.00  0.00     0.031 C 
ATOM     42  C   UNL A   1      38.870  28.018  29.447  1.00  0.00     0.029 A 
ATOM     43  C   UNL A   1      40.003  28.940  29.464  1.00  0.00     0.049 A 
ATOM     44  H   UNL A   1      41.883  28.646  28.613  1.00  0.00     0.167 HD
ATOM     45  C   UNL A   1      45.824  27.835  26.821  1.00  0.00     0.034 A 
ATOM     46  C   UNL A   1      40.016  30.159  30.040  1.00  0.00     0.034 A 
ATOM     47  C   UNL A   1      45.923  29.159  27.386  1.00  0.00     0.049 A 
ATOM     48  C   UNL A   1      41.277  30.984  29.972  1.00  0.00     0.074 A 
ATOM     49  C   UNL A   1      46.998  30.031  27.363  1.00  0.00     0.029 A 
ATOM     50  N   UNL A   1      44.906  29.805  28.077  1.00  0.00    -0.354 N 
ATOM     51  N   UNL A   1      42.428  30.690  29.411  1.00  0.00    -0.248 NA
ATOM     52  C   UNL A   1      41.238  32.306  30.609  1.00  0.00     0.031 C 
ATOM     53  C   UNL A   1      46.649  31.179  28.084  1.00  0.00     0.029 A 
ATOM     54  C   UNL A   1      45.333  31.054  28.501  1.00  0.00     0.049 A 
ATOM     55  H   UNL A   1      44.010  29.430  28.242  1.00  0.00     0.167 HD
ATOM     56  C   UNL A   1      43.239  31.805  29.604  1.00  0.00     0.074 A 
ATOM     57  C   UNL A   1      42.443  32.779  30.323  1.00  0.00     0.031 C 
ATOM     58  C   UNL A   1      44.525  32.010  29.220  1.00  0.00     0.034 A 
BRANCH  45  59
ATOM     59  C   UNL A   1      47.026  27.241  26.129  1.00  0.00     0.023 A 
ATOM     60  C   UNL A   1      48.002  26.511  26.830  1.00  0.00     0.031 A 
ATOM     61  C   UNL A   1      47.222  27.449  24.752  1.00  0.00     0.131 A 
ATOM     62  C   UNL A   1      49.161  26.078  26.167  1.00  0.00     0.055 A 
ATOM     63  C   UNL A   1      48.341  26.949  24.082  1.00  0.00     0.041 A 
ATOM     64  F   UNL A   1      46.336  28.159  24.035  1.00  0.00    -0.206 F 
ATOM     65  C   UNL A   1      49.326  26.271  24.792  1.00  0.00     0.022 A 
BRANCH  62  66
ATOM     66  S   UNL A   1      50.518  25.382  27.151  1.00  0.00     0.124 S 
ATOM     67  O   UNL A   1      49.859  24.250  27.796  1.00  0.00    -0.237 OA
ATOM     68  O   UNL A   1      51.508  25.054  26.132  1.00  0.00    -0.237 OA
ATOM     69  O   UNL A   1      50.884  26.476  28.049  1.00  0.00    -0.744 OA
ENDBRANCH  62  66
ENDBRANCH  45  59
BRANCH  46  70
ATOM     70  C   UNL A   1      38.818  30.661  30.770  1.00  0.00     0.023 A 
ATOM     71  C   UNL A   1      37.729  31.221  30.084  1.00  0.00     0.031 A 
ATOM     72  C   UNL A   1      38.771  30.635  32.176  1.00  0.00     0.131 A 
ATOM     73  C   UNL A   1      36.658  31.770  30.805  1.00  0.00     0.055 A 
ATOM     74  C   UNL A   1      37.681  31.139  32.886  1.00  0.00     0.041 A 
ATOM     75  F   UNL A   1      39.787  30.112  32.881  1.00  0.00    -0.206 F 
ATOM     76  C   UNL A   1      36.620  31.723  32.201  1.00  0.00     0.022 A 
BRANCH  73  77
ATOM     77  S   UNL A   1      35.345  32.628  29.893  1.00  0.00     0.124 S 
ATOM     78  O   UNL A   1      34.380  32.908  30.950  1.00  0.00    -0.237 OA
ATOM     79  O   UNL A   1      36.056  33.781  29.350  1.00  0.00    -0.237 OA
ATOM     80  O   UNL A   1      34.917  31.640  28.903  1.00  0.00    -0.744 OA
ENDBRANCH  73  77
ENDBRANCH  46  70
BRANCH  58  81
ATOM     81  C   UNL A   1      45.120  33.362  29.523  1.00  0.00     0.023 A 
ATOM     82  C   UNL A   1      45.107  34.406  28.581  1.00  0.00     0.031 A 
ATOM     83  C   UNL A   1      45.724  33.601  30.769  1.00  0.00     0.131 A 
ATOM     84  C   UNL A   1      45.734  35.624  28.881  1.00  0.00     0.055 A 
ATOM     85  C   UNL A   1      46.302  34.832  31.081  1.00  0.00     0.041 A 
ATOM     86  F   UNL A   1      45.764  32.638  31.704  1.00  0.00    -0.206 F 
ATOM     87  C   UNL A   1      46.321  35.847  30.130  1.00  0.00     0.022 A 
BRANCH  84  88
ATOM     88  S   UNL A   1      45.853  36.887  27.584  1.00  0.00     0.124 S 
ATOM     89  O   UNL A   1      44.476  37.360  27.491  1.00  0.00    -0.237 OA
ATOM     90  O   UNL A   1      46.813  37.829  28.154  1.00  0.00    -0.237 OA
ATOM     91  O   UNL A   1      46.333  36.142  26.422  1.00  0.00    -0.744 OA
ENDBRANCH  84  88
ENDBRANCH  58  81
ENDBRANCH  32  33
ENDBRANCH  25  27
ENDBRANCH  24  25
ENDBRANCH  23  24
ENDBRANCH   1  23
TORSDOF 18
ENDMDL
