MODEL 1
REMARK VINA RESULT:     -13.9      0.000      0.000
REMARK SMILES Cc1cc2c(=O)cc(-c3ccc(F)cc3)oc2c(C(=O)OCCOC(=O)c2ccc(-c3c4nc(c(-c5cc(S(=O)(=O)[O-])ccc5F)c5ccc([nH]5)c(-c5cc(S(=O)(=O)[O-])ccc5F)c5nc(c(-c6cc(S(=O)(=O)[O-])ccc6F)c6ccc3[nH]6)C=C5)C=C4)cc2)c1C
REMARK SMILES IDX 23 1 22 2 21 3 19 4 20 5 18 6 1 7 2 8 3 9 90 10 4 11 91 12
REMARK SMILES IDX 5 13 17 14 6 15 7 16 16 17 8 18 9 19 10 20 15 21 11 22 14 23
REMARK SMILES IDX 12 24 13 25 24 26 25 27 26 28 27 29 28 30 89 31 29 32 88 33
REMARK SMILES IDX 30 34 31 35 32 36 82 37 33 38 87 39 81 40 83 41 34 42 86 43
REMARK SMILES IDX 80 44 79 45 35 47 67 48 47 49 66 50 48 51 51 52 65 53 84 54
REMARK SMILES IDX 49 55 50 56 64 58 85 59 52 60 36 61 37 62 45 63 38 64 44 65
REMARK SMILES IDX 46 66 43 67 39 68 40 69 41 70 42 71 68 72 69 73 77 74 70 75
REMARK SMILES IDX 76 76 78 77 75 78 71 79 72 80 73 81 74 82 53 83 54 84 62 85
REMARK SMILES IDX 55 86 61 87 63 88 60 89 56 90 57 91 58 92 59 93
REMARK H PARENT 83 46 51 57
REMARK Flexibility Score: inf
ROOT
ATOM      1  C   UNL A   1      33.131  29.431  24.893  1.00  0.00     0.275 C 
ENDROOT
BRANCH   1   2
ATOM      2  C   UNL A   1      34.017  28.443  24.126  1.00  0.00     0.275 C 
BRANCH   2   3
ATOM      3  O   UNL A   1      33.472  28.091  22.831  1.00  0.00    -0.458 OA
BRANCH   3   4
ATOM      4  C   UNL A   1      33.330  26.761  22.592  1.00  0.00     0.342 C 
ATOM      5  O   UNL A   1      33.655  26.150  21.588  1.00  0.00    -0.246 OA
BRANCH   4   6
ATOM      6  C   UNL A   1      32.391  26.197  23.578  1.00  0.00     0.106 A 
ATOM      7  C   UNL A   1      28.597  26.365  24.229  1.00  0.00     0.044 C 
ATOM      8  C   UNL A   1      30.061  26.024  24.310  1.00  0.00    -0.046 A 
ATOM      9  C   UNL A   1      30.477  25.087  25.260  1.00  0.00     0.019 A 
ATOM     10  C   UNL A   1      31.019  26.575  23.438  1.00  0.00    -0.030 A 
ATOM     11  C   UNL A   1      31.820  24.697  25.351  1.00  0.00     0.066 A 
ATOM     12  C   UNL A   1      30.609  27.563  22.368  1.00  0.00     0.046 C 
ATOM     13  C   UNL A   1      32.176  23.655  26.323  1.00  0.00     0.193 A 
ATOM     14  C   UNL A   1      32.802  25.240  24.522  1.00  0.00     0.153 A 
ATOM     15  O   UNL A   1      31.357  23.191  27.103  1.00  0.00    -0.289 OA
ATOM     16  C   UNL A   1      33.557  23.178  26.284  1.00  0.00     0.100 A 
ATOM     17  O   UNL A   1      34.123  24.834  24.606  1.00  0.00    -0.455 OA
ATOM     18  C   UNL A   1      34.423  23.764  25.449  1.00  0.00     0.138 A 
BRANCH  18  19
ATOM     19  C   UNL A   1      35.806  23.229  25.441  1.00  0.00     0.018 A 
ATOM     20  C   UNL A   1      37.218  24.115  26.287  1.00  0.00     0.015 A 
ATOM     21  C   UNL A   1      36.045  21.508  24.798  1.00  0.00     0.015 A 
ATOM     22  C   UNL A   1      38.854  23.258  26.511  1.00  0.00     0.040 A 
ATOM     23  C   UNL A   1      37.671  20.647  24.990  1.00  0.00     0.040 A 
ATOM     24  C   UNL A   1      39.093  21.546  25.856  1.00  0.00     0.123 A 
ATOM     25  F   UNL A   1      40.265  20.929  26.058  1.00  0.00    -0.207 F 
ENDBRANCH  18  19
ENDBRANCH   4   6
ENDBRANCH   3   4
ENDBRANCH   2   3
ENDBRANCH   1   2
BRANCH   1  26
ATOM     26  O   UNL A   1      33.488  29.381  26.276  1.00  0.00    -0.458 OA
BRANCH  26  27
ATOM     27  C   UNL A   1      33.494  30.575  26.918  1.00  0.00     0.338 C 
ATOM     28  O   UNL A   1      32.572  31.372  26.953  1.00  0.00    -0.246 OA
BRANCH  27  29
ATOM     29  C   UNL A   1      34.690  30.594  27.806  1.00  0.00     0.060 A 
ATOM     30  C   UNL A   1      35.036  29.433  28.493  1.00  0.00     0.016 A 
ATOM     31  C   UNL A   1      35.582  31.674  27.791  1.00  0.00     0.016 A 
ATOM     32  C   UNL A   1      36.325  29.311  29.020  1.00  0.00     0.010 A 
ATOM     33  C   UNL A   1      36.891  31.519  28.236  1.00  0.00     0.010 A 
ATOM     34  C   UNL A   1      37.313  30.293  28.765  1.00  0.00    -0.014 A 
BRANCH  34  35
ATOM     35  C   UNL A   1      38.973  29.964  29.135  1.00  0.00     0.031 A 
ATOM     36  C   UNL A   1      38.619  30.390  30.854  1.00  0.00     0.074 A 
ATOM     37  C   UNL A   1      40.491  29.308  28.273  1.00  0.00     0.049 A 
ATOM     38  N   UNL A   1      38.948  29.705  31.924  1.00  0.00    -0.248 NA
ATOM     39  C   UNL A   1      37.980  31.682  31.184  1.00  0.00     0.031 C 
ATOM     40  C   UNL A   1      40.946  28.861  26.711  1.00  0.00     0.029 A 
ATOM     41  N   UNL A   1      41.885  28.794  28.746  1.00  0.00    -0.354 N 
ATOM     42  C   UNL A   1      38.793  30.546  32.989  1.00  0.00     0.074 A 
ATOM     43  C   UNL A   1      38.015  31.671  32.517  1.00  0.00     0.031 C 
ATOM     44  C   UNL A   1      41.992  28.020  26.674  1.00  0.00     0.029 A 
ATOM     45  C   UNL A   1      42.481  27.817  27.999  1.00  0.00     0.049 A 
ATOM     46  H   UNL A   1      42.318  29.160  29.551  1.00  0.00     0.167 HD
ATOM     47  C   UNL A   1      39.467  30.490  34.159  1.00  0.00     0.034 A 
ATOM     48  C   UNL A   1      43.230  26.804  28.477  1.00  0.00     0.034 A 
ATOM     49  C   UNL A   1      40.588  29.605  34.413  1.00  0.00     0.049 A 
ATOM     50  C   UNL A   1      43.462  26.701  29.979  1.00  0.00     0.074 A 
ATOM     51  C   UNL A   1      41.349  29.537  35.566  1.00  0.00     0.029 A 
ATOM     52  N   UNL A   1      41.175  28.712  33.500  1.00  0.00    -0.354 N 
ATOM     53  N   UNL A   1      42.916  27.382  30.968  1.00  0.00    -0.248 NA
ATOM     54  C   UNL A   1      44.423  25.682  30.411  1.00  0.00     0.031 C 
ATOM     55  C   UNL A   1      42.427  28.677  35.329  1.00  0.00     0.029 A 
ATOM     56  C   UNL A   1      42.331  28.157  34.042  1.00  0.00     0.049 A 
ATOM     57  H   UNL A   1      40.819  28.510  32.604  1.00  0.00     0.167 HD
ATOM     58  C   UNL A   1      43.425  26.843  32.148  1.00  0.00     0.074 A 
ATOM     59  C   UNL A   1      44.347  25.791  31.731  1.00  0.00     0.031 C 
ATOM     60  C   UNL A   1      43.209  27.155  33.458  1.00  0.00     0.034 A 
BRANCH  47  61
ATOM     61  C   UNL A   1      39.101  31.541  35.163  1.00  0.00     0.023 A 
ATOM     62  C   UNL A   1      38.321  31.215  36.291  1.00  0.00     0.031 A 
ATOM     63  C   UNL A   1      39.582  32.857  35.018  1.00  0.00     0.131 A 
ATOM     64  C   UNL A   1      38.064  32.198  37.248  1.00  0.00     0.055 A 
ATOM     65  C   UNL A   1      39.307  33.839  35.968  1.00  0.00     0.041 A 
ATOM     66  F   UNL A   1      40.349  33.198  33.966  1.00  0.00    -0.206 F 
ATOM     67  C   UNL A   1      38.547  33.506  37.090  1.00  0.00     0.022 A 
BRANCH  64  68
ATOM     68  S   UNL A   1      37.140  31.806  38.764  1.00  0.00     0.124 S 
ATOM     69  O   UNL A   1      36.820  30.397  38.548  1.00  0.00    -0.237 OA
ATOM     70  O   UNL A   1      38.132  32.078  39.799  1.00  0.00    -0.237 OA
ATOM     71  O   UNL A   1      35.997  32.711  38.739  1.00  0.00    -0.744 OA
ENDBRANCH  64  68
ENDBRANCH  47  61
BRANCH  48  72
ATOM     72  C   UNL A   1      43.573  25.673  27.578  1.00  0.00     0.023 A 
ATOM     73  C   UNL A   1      44.781  25.620  26.869  1.00  0.00     0.031 A 
ATOM     74  C   UNL A   1      42.628  24.652  27.369  1.00  0.00     0.131 A 
ATOM     75  C   UNL A   1      45.012  24.562  25.975  1.00  0.00     0.055 A 
ATOM     76  C   UNL A   1      42.869  23.594  26.493  1.00  0.00     0.041 A 
ATOM     77  F   UNL A   1      41.448  24.684  28.009  1.00  0.00    -0.206 F 
ATOM     78  C   UNL A   1      44.066  23.551  25.783  1.00  0.00     0.022 A 
BRANCH  75  79
ATOM     79  S   UNL A   1      46.518  24.550  24.961  1.00  0.00     0.124 S 
ATOM     80  O   UNL A   1      46.173  23.581  23.927  1.00  0.00    -0.237 OA
ATOM     81  O   UNL A   1      46.621  25.939  24.516  1.00  0.00    -0.237 OA
ATOM     82  O   UNL A   1      47.547  24.133  25.909  1.00  0.00    -0.744 OA
ENDBRANCH  75  79
ENDBRANCH  48  72
BRANCH  60  83
ATOM     83  C   UNL A   1      44.103  26.432  34.442  1.00  0.00     0.023 A 
ATOM     84  C   UNL A   1      45.412  26.880  34.700  1.00  0.00     0.031 A 
ATOM     85  C   UNL A   1      43.653  25.243  35.057  1.00  0.00     0.131 A 
ATOM     86  C   UNL A   1      46.225  26.146  35.570  1.00  0.00     0.055 A 
ATOM     87  C   UNL A   1      44.468  24.518  35.921  1.00  0.00     0.041 A 
ATOM     88  F   UNL A   1      42.416  24.777  34.816  1.00  0.00    -0.206 F 
ATOM     89  C   UNL A   1      45.761  24.972  36.179  1.00  0.00     0.022 A 
BRANCH  86  90
ATOM     90  S   UNL A   1      47.927  26.668  35.934  1.00  0.00     0.124 S 
ATOM     91  O   UNL A   1      48.172  27.634  34.866  1.00  0.00    -0.237 OA
ATOM     92  O   UNL A   1      47.794  27.234  37.275  1.00  0.00    -0.237 OA
ATOM     93  O   UNL A   1      48.710  25.439  35.854  1.00  0.00    -0.744 OA
ENDBRANCH  86  90
ENDBRANCH  60  83
ENDBRANCH  34  35
ENDBRANCH  27  29
ENDBRANCH  26  27
ENDBRANCH   1  26
TORSDOF 15
ENDMDL
MODEL 2
REMARK VINA RESULT:     -13.3      1.825      2.244
REMARK SMILES Cc1cc2c(=O)cc(-c3ccc(F)cc3)oc2c(C(=O)OCCOC(=O)c2ccc(-c3c4nc(c(-c5cc(S(=O)(=O)[O-])ccc5F)c5ccc([nH]5)c(-c5cc(S(=O)(=O)[O-])ccc5F)c5nc(c(-c6cc(S(=O)(=O)[O-])ccc6F)c6ccc3[nH]6)C=C5)C=C4)cc2)c1C
REMARK SMILES IDX 23 1 22 2 21 3 19 4 20 5 18 6 1 7 2 8 3 9 90 10 4 11 91 12
REMARK SMILES IDX 5 13 17 14 6 15 7 16 16 17 8 18 9 19 10 20 15 21 11 22 14 23
REMARK SMILES IDX 12 24 13 25 24 26 25 27 26 28 27 29 28 30 89 31 29 32 88 33
REMARK SMILES IDX 30 34 31 35 32 36 82 37 33 38 87 39 81 40 83 41 34 42 86 43
REMARK SMILES IDX 80 44 79 45 35 47 67 48 47 49 66 50 48 51 51 52 65 53 84 54
REMARK SMILES IDX 49 55 50 56 64 58 85 59 52 60 36 61 37 62 45 63 38 64 44 65
REMARK SMILES IDX 46 66 43 67 39 68 40 69 41 70 42 71 68 72 69 73 77 74 70 75
REMARK SMILES IDX 76 76 78 77 75 78 71 79 72 80 73 81 74 82 53 83 54 84 62 85
REMARK SMILES IDX 55 86 61 87 63 88 60 89 56 90 57 91 58 92 59 93
REMARK H PARENT 83 46 51 57
REMARK Flexibility Score: inf
ROOT
ATOM      1  C   UNL A   1      32.838  29.102  24.989  1.00  0.00     0.275 C 
ENDROOT
BRANCH   1   2
ATOM      2  C   UNL A   1      33.741  28.169  24.174  1.00  0.00     0.275 C 
BRANCH   2   3
ATOM      3  O   UNL A   1      33.258  27.960  22.825  1.00  0.00    -0.458 OA
BRANCH   3   4
ATOM      4  C   UNL A   1      32.800  26.711  22.549  1.00  0.00     0.342 C 
ATOM      5  O   UNL A   1      32.998  26.055  21.540  1.00  0.00    -0.246 OA
BRANCH   4   6
ATOM      6  C   UNL A   1      31.718  26.380  23.492  1.00  0.00     0.106 A 
ATOM      7  C   UNL A   1      28.006  27.322  23.920  1.00  0.00     0.044 C 
ATOM      8  C   UNL A   1      29.365  26.700  24.093  1.00  0.00    -0.046 A 
ATOM      9  C   UNL A   1      29.535  25.732  25.087  1.00  0.00     0.019 A 
ATOM     10  C   UNL A   1      30.458  27.018  23.264  1.00  0.00    -0.030 A 
ATOM     11  C   UNL A   1      30.767  25.087  25.265  1.00  0.00     0.066 A 
ATOM     12  C   UNL A   1      30.310  28.029  22.148  1.00  0.00     0.046 C 
ATOM     13  C   UNL A   1      30.856  24.030  26.281  1.00  0.00     0.193 A 
ATOM     14  C   UNL A   1      31.879  25.394  24.481  1.00  0.00     0.153 A 
ATOM     15  O   UNL A   1      29.921  23.766  27.024  1.00  0.00    -0.289 OA
ATOM     16  C   UNL A   1      32.114  23.287  26.334  1.00  0.00     0.100 A 
ATOM     17  O   UNL A   1      33.086  24.737  24.652  1.00  0.00    -0.455 OA
ATOM     18  C   UNL A   1      33.122  23.659  25.536  1.00  0.00     0.138 A 
BRANCH  18  19
ATOM     19  C   UNL A   1      34.368  22.860  25.621  1.00  0.00     0.018 A 
ATOM     20  C   UNL A   1      34.418  21.050  25.153  1.00  0.00     0.015 A 
ATOM     21  C   UNL A   1      35.944  23.777  25.945  1.00  0.00     0.015 A 
ATOM     22  C   UNL A   1      36.053  20.179  24.983  1.00  0.00     0.040 A 
ATOM     23  C   UNL A   1      37.579  22.923  25.803  1.00  0.00     0.040 A 
ATOM     24  C   UNL A   1      37.623  21.095  25.320  1.00  0.00     0.123 A 
ATOM     25  F   UNL A   1      38.794  20.462  25.157  1.00  0.00    -0.207 F 
ENDBRANCH  18  19
ENDBRANCH   4   6
ENDBRANCH   3   4
ENDBRANCH   2   3
ENDBRANCH   1   2
BRANCH   1  26
ATOM     26  O   UNL A   1      33.652  30.119  25.579  1.00  0.00    -0.458 OA
BRANCH  26  27
ATOM     27  C   UNL A   1      33.308  30.480  26.839  1.00  0.00     0.338 C 
ATOM     28  O   UNL A   1      32.172  30.560  27.275  1.00  0.00    -0.246 OA
BRANCH  27  29
ATOM     29  C   UNL A   1      34.551  30.460  27.659  1.00  0.00     0.060 A 
ATOM     30  C   UNL A   1      35.011  29.241  28.154  1.00  0.00     0.016 A 
ATOM     31  C   UNL A   1      35.370  31.593  27.756  1.00  0.00     0.016 A 
ATOM     32  C   UNL A   1      36.335  29.140  28.592  1.00  0.00     0.010 A 
ATOM     33  C   UNL A   1      36.710  31.471  28.108  1.00  0.00     0.010 A 
ATOM     34  C   UNL A   1      37.240  30.216  28.433  1.00  0.00    -0.014 A 
BRANCH  34  35
ATOM     35  C   UNL A   1      38.937  29.959  28.668  1.00  0.00     0.031 A 
ATOM     36  C   UNL A   1      38.710  30.405  30.403  1.00  0.00     0.074 A 
ATOM     37  C   UNL A   1      40.404  29.345  27.693  1.00  0.00     0.049 A 
ATOM     38  N   UNL A   1      39.154  29.754  31.453  1.00  0.00    -0.248 NA
ATOM     39  C   UNL A   1      38.050  31.677  30.764  1.00  0.00     0.031 C 
ATOM     40  C   UNL A   1      40.745  28.885  26.106  1.00  0.00     0.029 A 
ATOM     41  N   UNL A   1      41.852  28.895  28.056  1.00  0.00    -0.354 N 
ATOM     42  C   UNL A   1      39.055  30.609  32.514  1.00  0.00     0.074 A 
ATOM     43  C   UNL A   1      38.196  31.694  32.089  1.00  0.00     0.031 C 
ATOM     44  C   UNL A   1      41.817  28.085  25.995  1.00  0.00     0.029 A 
ATOM     45  C   UNL A   1      42.422  27.926  27.277  1.00  0.00     0.049 A 
ATOM     46  H   UNL A   1      42.335  29.292  28.816  1.00  0.00     0.167 HD
ATOM     47  C   UNL A   1      39.825  30.603  33.624  1.00  0.00     0.034 A 
ATOM     48  C   UNL A   1      43.249  26.952  27.708  1.00  0.00     0.034 A 
ATOM     49  C   UNL A   1      40.998  29.766  33.797  1.00  0.00     0.049 A 
ATOM     50  C   UNL A   1      43.608  26.888  29.187  1.00  0.00     0.074 A 
ATOM     51  C   UNL A   1      41.854  29.750  34.883  1.00  0.00     0.029 A 
ATOM     52  N   UNL A   1      41.542  28.879  32.853  1.00  0.00    -0.354 N 
ATOM     53  N   UNL A   1      43.119  27.567  30.206  1.00  0.00    -0.248 NA
ATOM     54  C   UNL A   1      44.641  25.916  29.554  1.00  0.00     0.031 C 
ATOM     55  C   UNL A   1      42.943  28.928  34.571  1.00  0.00     0.029 A 
ATOM     56  C   UNL A   1      42.761  28.379  33.305  1.00  0.00     0.049 A 
ATOM     57  H   UNL A   1      41.122  28.645  31.993  1.00  0.00     0.167 HD
ATOM     58  C   UNL A   1      43.745  27.071  31.348  1.00  0.00     0.074 A 
ATOM     59  C   UNL A   1      44.671  26.048  30.874  1.00  0.00     0.031 C 
ATOM     60  C   UNL A   1      43.627  27.401  32.666  1.00  0.00     0.034 A 
BRANCH  47  61
ATOM     61  C   UNL A   1      39.502  31.659  34.637  1.00  0.00     0.023 A 
ATOM     62  C   UNL A   1      38.688  31.360  35.748  1.00  0.00     0.031 A 
ATOM     63  C   UNL A   1      40.057  32.948  34.518  1.00  0.00     0.131 A 
ATOM     64  C   UNL A   1      38.470  32.342  36.715  1.00  0.00     0.055 A 
ATOM     65  C   UNL A   1      39.822  33.930  35.478  1.00  0.00     0.041 A 
ATOM     66  F   UNL A   1      40.858  33.260  33.483  1.00  0.00    -0.206 F 
ATOM     67  C   UNL A   1      39.027  33.624  36.584  1.00  0.00     0.022 A 
BRANCH  64  68
ATOM     68  S   UNL A   1      37.503  31.982  38.212  1.00  0.00     0.124 S 
ATOM     69  O   UNL A   1      36.388  32.916  38.064  1.00  0.00    -0.237 OA
ATOM     70  O   UNL A   1      37.176  30.572  38.026  1.00  0.00    -0.237 OA
ATOM     71  O   UNL A   1      38.412  32.274  39.314  1.00  0.00    -0.744 OA
ENDBRANCH  64  68
ENDBRANCH  47  61
BRANCH  48  72
ATOM     72  C   UNL A   1      43.560  25.818  26.802  1.00  0.00     0.023 A 
ATOM     73  C   UNL A   1      42.880  24.595  26.873  1.00  0.00     0.031 A 
ATOM     74  C   UNL A   1      44.623  25.941  25.888  1.00  0.00     0.131 A 
ATOM     75  C   UNL A   1      43.274  23.534  26.042  1.00  0.00     0.055 A 
ATOM     76  C   UNL A   1      45.001  24.891  25.053  1.00  0.00     0.041 A 
ATOM     77  F   UNL A   1      45.317  27.088  25.812  1.00  0.00    -0.206 F 
ATOM     78  C   UNL A   1      44.328  23.675  25.134  1.00  0.00     0.022 A 
BRANCH  75  79
ATOM     79  S   UNL A   1      42.481  21.910  26.212  1.00  0.00     0.124 S 
ATOM     80  O   UNL A   1      41.096  22.218  25.875  1.00  0.00    -0.237 OA
ATOM     81  O   UNL A   1      43.202  21.093  25.238  1.00  0.00    -0.237 OA
ATOM     82  O   UNL A   1      42.737  21.567  27.608  1.00  0.00    -0.744 OA
ENDBRANCH  75  79
ENDBRANCH  48  72
BRANCH  60  83
ATOM     83  C   UNL A   1      44.628  26.732  33.585  1.00  0.00     0.023 A 
ATOM     84  C   UNL A   1      44.318  25.526  34.241  1.00  0.00     0.031 A 
ATOM     85  C   UNL A   1      45.863  27.361  33.854  1.00  0.00     0.131 A 
ATOM     86  C   UNL A   1      45.249  24.975  35.129  1.00  0.00     0.055 A 
ATOM     87  C   UNL A   1      46.783  26.806  34.738  1.00  0.00     0.041 A 
ATOM     88  F   UNL A   1      46.180  28.523  33.258  1.00  0.00    -0.206 F 
ATOM     89  C   UNL A   1      46.474  25.607  35.379  1.00  0.00     0.022 A 
BRANCH  86  90
ATOM     90  S   UNL A   1      44.903  23.427  36.014  1.00  0.00     0.124 S 
ATOM     91  O   UNL A   1      44.862  23.885  37.401  1.00  0.00    -0.237 OA
ATOM     92  O   UNL A   1      43.616  23.030  35.446  1.00  0.00    -0.237 OA
ATOM     93  O   UNL A   1      46.024  22.556  35.679  1.00  0.00    -0.744 OA
ENDBRANCH  86  90
ENDBRANCH  60  83
ENDBRANCH  34  35
ENDBRANCH  27  29
ENDBRANCH  26  27
ENDBRANCH   1  26
TORSDOF 15
ENDMDL
MODEL 3
REMARK VINA RESULT:     -13.2      2.548      4.554
REMARK SMILES Cc1cc2c(=O)cc(-c3ccc(F)cc3)oc2c(C(=O)OCCOC(=O)c2ccc(-c3c4nc(c(-c5cc(S(=O)(=O)[O-])ccc5F)c5ccc([nH]5)c(-c5cc(S(=O)(=O)[O-])ccc5F)c5nc(c(-c6cc(S(=O)(=O)[O-])ccc6F)c6ccc3[nH]6)C=C5)C=C4)cc2)c1C
REMARK SMILES IDX 23 1 22 2 21 3 19 4 20 5 18 6 1 7 2 8 3 9 90 10 4 11 91 12
REMARK SMILES IDX 5 13 17 14 6 15 7 16 16 17 8 18 9 19 10 20 15 21 11 22 14 23
REMARK SMILES IDX 12 24 13 25 24 26 25 27 26 28 27 29 28 30 89 31 29 32 88 33
REMARK SMILES IDX 30 34 31 35 32 36 82 37 33 38 87 39 81 40 83 41 34 42 86 43
REMARK SMILES IDX 80 44 79 45 35 47 67 48 47 49 66 50 48 51 51 52 65 53 84 54
REMARK SMILES IDX 49 55 50 56 64 58 85 59 52 60 36 61 37 62 45 63 38 64 44 65
REMARK SMILES IDX 46 66 43 67 39 68 40 69 41 70 42 71 68 72 69 73 77 74 70 75
REMARK SMILES IDX 76 76 78 77 75 78 71 79 72 80 73 81 74 82 53 83 54 84 62 85
REMARK SMILES IDX 55 86 61 87 63 88 60 89 56 90 57 91 58 92 59 93
REMARK H PARENT 83 46 51 57
REMARK Flexibility Score: inf
ROOT
ATOM      1  C   UNL A   1      32.007  29.085  26.860  1.00  0.00     0.275 C 
ENDROOT
BRANCH   1   2
ATOM      2  C   UNL A   1      31.723  27.625  27.233  1.00  0.00     0.275 C 
BRANCH   2   3
ATOM      3  O   UNL A   1      32.758  26.719  26.779  1.00  0.00    -0.458 OA
BRANCH   3   4
ATOM      4  C   UNL A   1      32.366  25.437  26.560  1.00  0.00     0.342 C 
ATOM      5  O   UNL A   1      31.862  24.669  27.363  1.00  0.00    -0.246 OA
BRANCH   4   6
ATOM      6  C   UNL A   1      32.962  24.963  25.299  1.00  0.00     0.106 A 
ATOM      7  C   UNL A   1      35.340  22.125  24.233  1.00  0.00     0.044 C 
ATOM      8  C   UNL A   1      34.404  23.303  24.221  1.00  0.00    -0.046 A 
ATOM      9  C   UNL A   1      34.037  23.852  22.989  1.00  0.00     0.019 A 
ATOM     10  C   UNL A   1      33.847  23.844  25.396  1.00  0.00    -0.030 A 
ATOM     11  C   UNL A   1      33.134  24.921  22.914  1.00  0.00     0.066 A 
ATOM     12  C   UNL A   1      34.183  23.256  26.749  1.00  0.00     0.046 C 
ATOM     13  C   UNL A   1      32.737  25.403  21.585  1.00  0.00     0.193 A 
ATOM     14  C   UNL A   1      32.582  25.499  24.057  1.00  0.00     0.153 A 
ATOM     15  O   UNL A   1      33.236  24.958  20.560  1.00  0.00    -0.289 OA
ATOM     16  C   UNL A   1      31.687  26.419  21.550  1.00  0.00     0.100 A 
ATOM     17  O   UNL A   1      31.675  26.543  23.972  1.00  0.00    -0.455 OA
ATOM     18  C   UNL A   1      31.220  26.909  22.706  1.00  0.00     0.138 A 
BRANCH  18  19
ATOM     19  C   UNL A   1      30.145  27.926  22.611  1.00  0.00     0.018 A 
ATOM     20  C   UNL A   1      28.426  27.617  23.279  1.00  0.00     0.015 A 
ATOM     21  C   UNL A   1      30.630  29.623  22.051  1.00  0.00     0.015 A 
ATOM     22  C   UNL A   1      27.214  29.021  23.412  1.00  0.00     0.040 A 
ATOM     23  C   UNL A   1      29.432  31.029  22.154  1.00  0.00     0.040 A 
ATOM     24  C   UNL A   1      27.698  30.712  22.841  1.00  0.00     0.123 A 
ATOM     25  F   UNL A   1      26.825  31.720  22.978  1.00  0.00    -0.207 F 
ENDBRANCH  18  19
ENDBRANCH   4   6
ENDBRANCH   3   4
ENDBRANCH   2   3
ENDBRANCH   1   2
BRANCH   1  26
ATOM     26  O   UNL A   1      33.387  29.357  27.114  1.00  0.00    -0.458 OA
BRANCH  26  27
ATOM     27  C   UNL A   1      33.687  30.654  27.364  1.00  0.00     0.338 C 
ATOM     28  O   UNL A   1      32.926  31.600  27.241  1.00  0.00    -0.246 OA
BRANCH  27  29
ATOM     29  C   UNL A   1      34.984  30.676  28.095  1.00  0.00     0.060 A 
ATOM     30  C   UNL A   1      35.335  29.576  28.875  1.00  0.00     0.016 A 
ATOM     31  C   UNL A   1      35.938  31.670  27.843  1.00  0.00     0.016 A 
ATOM     32  C   UNL A   1      36.669  29.409  29.257  1.00  0.00     0.010 A 
ATOM     33  C   UNL A   1      37.279  31.459  28.145  1.00  0.00     0.010 A 
ATOM     34  C   UNL A   1      37.681  30.271  28.768  1.00  0.00    -0.014 A 
BRANCH  34  35
ATOM     35  C   UNL A   1      39.348  29.850  28.977  1.00  0.00     0.031 A 
ATOM     36  C   UNL A   1      39.174  30.250  30.730  1.00  0.00     0.074 A 
ATOM     37  C   UNL A   1      40.746  29.141  27.966  1.00  0.00     0.049 A 
ATOM     38  N   UNL A   1      39.563  29.522  31.751  1.00  0.00    -0.248 NA
ATOM     39  C   UNL A   1      38.637  31.563  31.143  1.00  0.00     0.031 C 
ATOM     40  C   UNL A   1      41.033  28.712  26.360  1.00  0.00     0.029 A 
ATOM     41  N   UNL A   1      42.149  28.547  28.298  1.00  0.00    -0.354 N 
ATOM     42  C   UNL A   1      39.550  30.343  32.842  1.00  0.00     0.074 A 
ATOM     43  C   UNL A   1      38.792  31.518  32.467  1.00  0.00     0.031 C 
ATOM     44  C   UNL A   1      42.027  27.821  26.209  1.00  0.00     0.029 A 
ATOM     45  C   UNL A   1      42.622  27.559  27.479  1.00  0.00     0.049 A 
ATOM     46  H   UNL A   1      42.671  28.870  29.067  1.00  0.00     0.167 HD
ATOM     47  C   UNL A   1      40.323  30.225  33.944  1.00  0.00     0.034 A 
ATOM     48  C   UNL A   1      43.358  26.499  27.865  1.00  0.00     0.034 A 
ATOM     49  C   UNL A   1      41.416  29.278  34.075  1.00  0.00     0.049 A 
ATOM     50  C   UNL A   1      43.720  26.347  29.338  1.00  0.00     0.074 A 
ATOM     51  C   UNL A   1      42.273  29.143  35.152  1.00  0.00     0.029 A 
ATOM     52  N   UNL A   1      41.869  28.381  33.094  1.00  0.00    -0.354 N 
ATOM     53  N   UNL A   1      43.302  27.029  30.386  1.00  0.00    -0.248 NA
ATOM     54  C   UNL A   1      44.662  25.271  29.658  1.00  0.00     0.031 C 
ATOM     55  C   UNL A   1      43.279  28.237  34.799  1.00  0.00     0.029 A 
ATOM     56  C   UNL A   1      43.040  27.754  33.516  1.00  0.00     0.049 A 
ATOM     57  H   UNL A   1      41.424  28.218  32.231  1.00  0.00     0.167 HD
ATOM     58  C   UNL A   1      43.888  26.436  31.503  1.00  0.00     0.074 A 
ATOM     59  C   UNL A   1      44.712  25.350  30.982  1.00  0.00     0.031 C 
ATOM     60  C   UNL A   1      43.808  26.725  32.833  1.00  0.00     0.034 A 
BRANCH  47  61
ATOM     61  C   UNL A   1      40.105  31.267  34.999  1.00  0.00     0.023 A 
ATOM     62  C   UNL A   1      39.038  31.150  35.912  1.00  0.00     0.031 A 
ATOM     63  C   UNL A   1      41.001  32.347  35.123  1.00  0.00     0.131 A 
ATOM     64  C   UNL A   1      38.908  32.095  36.931  1.00  0.00     0.055 A 
ATOM     65  C   UNL A   1      40.856  33.297  36.132  1.00  0.00     0.041 A 
ATOM     66  F   UNL A   1      42.044  32.477  34.283  1.00  0.00    -0.206 F 
ATOM     67  C   UNL A   1      39.807  33.167  37.042  1.00  0.00     0.022 A 
BRANCH  64  68
ATOM     68  S   UNL A   1      37.604  31.940  38.188  1.00  0.00     0.124 S 
ATOM     69  O   UNL A   1      38.344  32.254  39.408  1.00  0.00    -0.237 OA
ATOM     70  O   UNL A   1      36.645  32.950  37.752  1.00  0.00    -0.237 OA
ATOM     71  O   UNL A   1      37.151  30.558  38.077  1.00  0.00    -0.744 OA
ENDBRANCH  64  68
ENDBRANCH  47  61
BRANCH  48  72
ATOM     72  C   UNL A   1      43.559  25.375  26.916  1.00  0.00     0.023 A 
ATOM     73  C   UNL A   1      42.793  24.203  26.971  1.00  0.00     0.031 A 
ATOM     74  C   UNL A   1      44.600  25.451  25.973  1.00  0.00     0.131 A 
ATOM     75  C   UNL A   1      43.083  23.144  26.096  1.00  0.00     0.055 A 
ATOM     76  C   UNL A   1      44.874  24.404  25.093  1.00  0.00     0.041 A 
ATOM     77  F   UNL A   1      45.373  26.546  25.909  1.00  0.00    -0.206 F 
ATOM     78  C   UNL A   1      44.117  23.238  25.159  1.00  0.00     0.022 A 
BRANCH  75  79
ATOM     79  S   UNL A   1      42.178  21.577  26.242  1.00  0.00     0.124 S 
ATOM     80  O   UNL A   1      42.799  20.776  25.193  1.00  0.00    -0.237 OA
ATOM     81  O   UNL A   1      42.471  21.160  27.612  1.00  0.00    -0.237 OA
ATOM     82  O   UNL A   1      40.794  21.976  26.006  1.00  0.00    -0.744 OA
ENDBRANCH  75  79
ENDBRANCH  48  72
BRANCH  60  83
ATOM     83  C   UNL A   1      44.749  25.934  33.717  1.00  0.00     0.023 A 
ATOM     84  C   UNL A   1      46.117  26.253  33.790  1.00  0.00     0.031 A 
ATOM     85  C   UNL A   1      44.270  24.807  34.420  1.00  0.00     0.131 A 
ATOM     86  C   UNL A   1      46.962  25.457  34.570  1.00  0.00     0.055 A 
ATOM     87  C   UNL A   1      45.117  24.020  35.194  1.00  0.00     0.041 A 
ATOM     88  F   UNL A   1      42.973  24.463  34.355  1.00  0.00    -0.206 F 
ATOM     89  C   UNL A   1      46.471  24.347  35.269  1.00  0.00     0.022 A 
BRANCH  86  90
ATOM     90  S   UNL A   1      48.740  25.812  34.696  1.00  0.00     0.124 S 
ATOM     91  O   UNL A   1      49.102  25.076  35.904  1.00  0.00    -0.237 OA
ATOM     92  O   UNL A   1      49.253  25.257  33.445  1.00  0.00    -0.237 OA
ATOM     93  O   UNL A   1      48.814  27.265  34.806  1.00  0.00    -0.744 OA
ENDBRANCH  86  90
ENDBRANCH  60  83
ENDBRANCH  34  35
ENDBRANCH  27  29
ENDBRANCH  26  27
ENDBRANCH   1  26
TORSDOF 15
ENDMDL
