MODEL 1
REMARK VINA RESULT:     -12.6      0.000      0.000
REMARK SMILES Cc1ccccc1OCCN1C(=O)CC[C@H](C(=O)OCCOC(=O)c2ccc(-c3c4nc(c(-c5cc(S(=O)(=O)[O-])ccc5F)c5ccc([nH]5)c(-c5cc(S(=O)(=O)[O-])ccc5F)c5nc(c(-c6cc(S(=O)(=O)[O-])ccc6F)c6ccc3[nH]6)C=C5)C=C4)cc2)[C@@H]1c1ccco1
REMARK SMILES IDX 20 1 19 2 17 3 18 4 16 5 11 6 12 7 88 8 13 9 14 10 15 11
REMARK SMILES IDX 10 12 9 13 8 14 7 15 1 16 2 17 3 18 4 19 6 20 5 21 89 22
REMARK SMILES IDX 90 23 93 24 91 25 92 26 21 27 22 28 23 29 24 30 25 31 26 32
REMARK SMILES IDX 87 33 27 34 86 35 28 36 29 37 30 38 80 39 31 40 85 41 79 42
REMARK SMILES IDX 81 43 32 44 84 45 78 46 77 47 33 49 65 50 45 51 64 52 46 53
REMARK SMILES IDX 49 54 63 55 82 56 47 57 48 58 62 60 83 61 50 62 34 63 35 64
REMARK SMILES IDX 43 65 36 66 42 67 44 68 41 69 37 70 38 71 39 72 40 73 66 74
REMARK SMILES IDX 67 75 75 76 68 77 74 78 76 79 73 80 69 81 70 82 71 83 72 84
REMARK SMILES IDX 51 85 52 86 60 87 53 88 59 89 61 90 58 91 54 92 55 93 56 94
REMARK SMILES IDX 57 95
REMARK H PARENT 81 48 49 59
REMARK Flexibility Score: inf
ROOT
ATOM      1  C   UNL A   1      33.239  30.226  26.878  1.00  0.00     0.274 C 
ENDROOT
BRANCH   1   2
ATOM      2  O   UNL A   1      33.000  29.063  26.068  1.00  0.00    -0.462 OA
BRANCH   2   3
ATOM      3  C   UNL A   1      31.971  28.287  26.513  1.00  0.00     0.311 C 
ATOM      4  O   UNL A   1      31.261  28.586  27.445  1.00  0.00    -0.252 OA
BRANCH   3   5
ATOM      5  C   UNL A   1      31.755  27.030  25.699  1.00  0.00     0.130 C 
ATOM      6  N   UNL A   1      31.454  26.161  23.381  1.00  0.00    -0.328 N 
ATOM      7  C   UNL A   1      30.608  25.142  23.793  1.00  0.00     0.223 C 
ATOM      8  C   UNL A   1      31.628  27.377  24.200  1.00  0.00     0.166 C 
ATOM      9  O   UNL A   1      30.124  24.310  23.022  1.00  0.00    -0.275 OA
ATOM     10  C   UNL A   1      30.396  24.983  25.289  1.00  0.00     0.101 C 
ATOM     11  C   UNL A   1      30.539  26.231  26.136  1.00  0.00     0.028 C 
BRANCH   6  12
ATOM     12  C   UNL A   1      31.866  26.203  21.968  1.00  0.00     0.162 C 
BRANCH  12  13
ATOM     13  C   UNL A   1      33.227  25.561  21.639  1.00  0.00     0.251 C 
BRANCH  13  14
ATOM     14  O   UNL A   1      33.267  24.133  21.635  1.00  0.00    -0.491 OA
BRANCH  14  15
ATOM     15  C   UNL A   1      33.684  23.464  22.753  1.00  0.00     0.122 A 
ATOM     16  C   UNL A   1      32.107  21.442  22.615  1.00  0.00     0.048 C 
ATOM     17  C   UNL A   1      33.228  22.227  23.230  1.00  0.00    -0.009 A 
ATOM     18  C   UNL A   1      33.832  21.686  24.384  1.00  0.00     0.007 A 
ATOM     19  C   UNL A   1      34.801  22.392  25.096  1.00  0.00     0.001 A 
ATOM     20  C   UNL A   1      34.625  24.185  23.505  1.00  0.00     0.047 A 
ATOM     21  C   UNL A   1      35.184  23.656  24.669  1.00  0.00     0.004 A 
ENDBRANCH  14  15
ENDBRANCH  13  14
ENDBRANCH  12  13
ENDBRANCH   6  12
BRANCH   8  22
ATOM     22  C   UNL A   1      30.499  28.362  23.882  1.00  0.00     0.127 A 
ATOM     23  C   UNL A   1      30.362  29.740  23.957  1.00  0.00     0.048 A 
ATOM     24  O   UNL A   1      29.346  27.849  23.343  1.00  0.00    -0.467 OA
ATOM     25  C   UNL A   1      29.110  30.079  23.401  1.00  0.00     0.042 A 
ATOM     26  C   UNL A   1      28.531  28.891  23.041  1.00  0.00     0.195 A 
ENDBRANCH   8  22
ENDBRANCH   3   5
ENDBRANCH   2   3
ENDBRANCH   1   2
BRANCH   1  27
ATOM     27  C   UNL A   1      34.689  30.340  27.352  1.00  0.00     0.275 C 
BRANCH  27  28
ATOM     28  O   UNL A   1      34.981  30.970  28.630  1.00  0.00    -0.458 OA
BRANCH  28  29
ATOM     29  C   UNL A   1      36.144  30.954  29.332  1.00  0.00     0.338 C 
ATOM     30  O   UNL A   1      36.305  31.712  30.284  1.00  0.00    -0.246 OA
BRANCH  29  31
ATOM     31  C   UNL A   1      37.162  29.929  28.998  1.00  0.00     0.060 A 
ATOM     32  C   UNL A   1      38.016  30.145  27.899  1.00  0.00     0.016 A 
ATOM     33  C   UNL A   1      37.376  28.842  29.832  1.00  0.00     0.016 A 
ATOM     34  C   UNL A   1      39.185  29.385  27.746  1.00  0.00     0.010 A 
ATOM     35  C   UNL A   1      38.579  28.168  29.746  1.00  0.00     0.010 A 
ATOM     36  C   UNL A   1      39.510  28.442  28.722  1.00  0.00    -0.014 A 
BRANCH  36  37
ATOM     37  C   UNL A   1      40.726  27.610  28.737  1.00  0.00     0.031 A 
ATOM     38  C   UNL A   1      40.764  26.136  28.571  1.00  0.00     0.074 A 
ATOM     39  C   UNL A   1      41.873  28.300  28.923  1.00  0.00     0.049 A 
ATOM     40  N   UNL A   1      41.826  25.414  28.689  1.00  0.00    -0.248 NA
ATOM     41  C   UNL A   1      39.603  25.317  28.267  1.00  0.00     0.031 C 
ATOM     42  C   UNL A   1      43.262  27.870  28.892  1.00  0.00     0.029 A 
ATOM     43  N   UNL A   1      41.921  29.548  29.529  1.00  0.00    -0.354 N 
ATOM     44  C   UNL A   1      41.548  24.114  28.316  1.00  0.00     0.074 A 
ATOM     45  C   UNL A   1      40.137  24.107  28.043  1.00  0.00     0.031 C 
ATOM     46  C   UNL A   1      43.963  28.664  29.723  1.00  0.00     0.029 A 
ATOM     47  C   UNL A   1      43.000  29.526  30.402  1.00  0.00     0.049 A 
ATOM     48  H   UNL A   1      41.308  30.302  29.372  1.00  0.00     0.167 HD
ATOM     49  C   UNL A   1      42.586  23.233  28.245  1.00  0.00     0.034 A 
ATOM     50  C   UNL A   1      42.733  29.521  31.742  1.00  0.00     0.034 A 
ATOM     51  C   UNL A   1      43.709  23.752  29.016  1.00  0.00     0.049 A 
ATOM     52  C   UNL A   1      43.291  28.289  32.410  1.00  0.00     0.074 A 
ATOM     53  C   UNL A   1      44.865  24.439  28.696  1.00  0.00     0.029 A 
ATOM     54  N   UNL A   1      43.536  23.875  30.390  1.00  0.00    -0.354 N 
ATOM     55  N   UNL A   1      43.401  27.111  31.854  1.00  0.00    -0.248 NA
ATOM     56  C   UNL A   1      43.860  28.350  33.746  1.00  0.00     0.031 C 
ATOM     57  C   UNL A   1      45.328  25.068  29.887  1.00  0.00     0.029 A 
ATOM     58  C   UNL A   1      44.480  24.722  30.927  1.00  0.00     0.049 A 
ATOM     59  H   UNL A   1      42.835  23.419  30.908  1.00  0.00     0.167 HD
ATOM     60  C   UNL A   1      44.113  26.286  32.695  1.00  0.00     0.074 A 
ATOM     61  C   UNL A   1      44.365  27.113  33.866  1.00  0.00     0.031 C 
ATOM     62  C   UNL A   1      44.485  25.009  32.355  1.00  0.00     0.034 A 
BRANCH  49  63
ATOM     63  C   UNL A   1      42.693  21.991  27.385  1.00  0.00     0.023 A 
ATOM     64  C   UNL A   1      43.759  21.921  26.452  1.00  0.00     0.031 A 
ATOM     65  C   UNL A   1      41.787  20.918  27.335  1.00  0.00     0.131 A 
ATOM     66  C   UNL A   1      43.859  20.883  25.504  1.00  0.00     0.055 A 
ATOM     67  C   UNL A   1      41.886  19.879  26.391  1.00  0.00     0.041 A 
ATOM     68  F   UNL A   1      40.769  20.808  28.196  1.00  0.00    -0.206 F 
ATOM     69  C   UNL A   1      42.918  19.861  25.463  1.00  0.00     0.022 A 
BRANCH  66  70
ATOM     70  S   UNL A   1      45.205  20.923  24.285  1.00  0.00     0.124 S 
ATOM     71  O   UNL A   1      44.684  21.841  23.277  1.00  0.00    -0.237 OA
ATOM     72  O   UNL A   1      46.331  21.405  25.078  1.00  0.00    -0.237 OA
ATOM     73  O   UNL A   1      45.311  19.530  23.849  1.00  0.00    -0.744 OA
ENDBRANCH  66  70
ENDBRANCH  49  63
BRANCH  50  74
ATOM     74  C   UNL A   1      41.461  30.233  32.130  1.00  0.00     0.023 A 
ATOM     75  C   UNL A   1      41.321  31.591  31.746  1.00  0.00     0.031 A 
ATOM     76  C   UNL A   1      40.303  29.576  32.563  1.00  0.00     0.131 A 
ATOM     77  C   UNL A   1      40.054  32.179  31.619  1.00  0.00     0.055 A 
ATOM     78  C   UNL A   1      39.046  30.204  32.532  1.00  0.00     0.041 A 
ATOM     79  F   UNL A   1      40.343  28.290  32.941  1.00  0.00    -0.206 F 
ATOM     80  C   UNL A   1      38.908  31.495  32.019  1.00  0.00     0.022 A 
BRANCH  77  81
ATOM     81  S   UNL A   1      39.914  33.716  30.653  1.00  0.00     0.124 S 
ATOM     82  O   UNL A   1      39.475  34.673  31.662  1.00  0.00    -0.237 OA
ATOM     83  O   UNL A   1      41.274  33.902  30.147  1.00  0.00    -0.237 OA
ATOM     84  O   UNL A   1      38.929  33.388  29.624  1.00  0.00    -0.744 OA
ENDBRANCH  77  81
ENDBRANCH  50  74
BRANCH  62  85
ATOM     85  C   UNL A   1      45.004  23.940  33.307  1.00  0.00     0.023 A 
ATOM     86  C   UNL A   1      46.316  23.909  33.789  1.00  0.00     0.031 A 
ATOM     87  C   UNL A   1      44.159  22.922  33.821  1.00  0.00     0.131 A 
ATOM     88  C   UNL A   1      46.779  22.874  34.619  1.00  0.00     0.055 A 
ATOM     89  C   UNL A   1      44.597  21.934  34.712  1.00  0.00     0.041 A 
ATOM     90  F   UNL A   1      42.857  22.848  33.509  1.00  0.00    -0.206 F 
ATOM     91  C   UNL A   1      45.926  21.891  35.099  1.00  0.00     0.022 A 
BRANCH  88  92
ATOM     92  S   UNL A   1      48.551  22.827  34.984  1.00  0.00     0.124 S 
ATOM     93  O   UNL A   1      48.891  21.448  34.642  1.00  0.00    -0.237 OA
ATOM     94  O   UNL A   1      49.081  23.847  34.085  1.00  0.00    -0.237 OA
ATOM     95  O   UNL A   1      48.619  23.151  36.406  1.00  0.00    -0.744 OA
ENDBRANCH  88  92
ENDBRANCH  62  85
ENDBRANCH  36  37
ENDBRANCH  29  31
ENDBRANCH  28  29
ENDBRANCH  27  28
ENDBRANCH   1  27
TORSDOF 19
ENDMDL
MODEL 2
REMARK VINA RESULT:     -12.4      1.854      2.344
REMARK SMILES Cc1ccccc1OCCN1C(=O)CC[C@H](C(=O)OCCOC(=O)c2ccc(-c3c4nc(c(-c5cc(S(=O)(=O)[O-])ccc5F)c5ccc([nH]5)c(-c5cc(S(=O)(=O)[O-])ccc5F)c5nc(c(-c6cc(S(=O)(=O)[O-])ccc6F)c6ccc3[nH]6)C=C5)C=C4)cc2)[C@@H]1c1ccco1
REMARK SMILES IDX 20 1 19 2 17 3 18 4 16 5 11 6 12 7 88 8 13 9 14 10 15 11
REMARK SMILES IDX 10 12 9 13 8 14 7 15 1 16 2 17 3 18 4 19 6 20 5 21 89 22
REMARK SMILES IDX 90 23 93 24 91 25 92 26 21 27 22 28 23 29 24 30 25 31 26 32
REMARK SMILES IDX 87 33 27 34 86 35 28 36 29 37 30 38 80 39 31 40 85 41 79 42
REMARK SMILES IDX 81 43 32 44 84 45 78 46 77 47 33 49 65 50 45 51 64 52 46 53
REMARK SMILES IDX 49 54 63 55 82 56 47 57 48 58 62 60 83 61 50 62 34 63 35 64
REMARK SMILES IDX 43 65 36 66 42 67 44 68 41 69 37 70 38 71 39 72 40 73 66 74
REMARK SMILES IDX 67 75 75 76 68 77 74 78 76 79 73 80 69 81 70 82 71 83 72 84
REMARK SMILES IDX 51 85 52 86 60 87 53 88 59 89 61 90 58 91 54 92 55 93 56 94
REMARK SMILES IDX 57 95
REMARK H PARENT 81 48 49 59
REMARK Flexibility Score: inf
ROOT
ATOM      1  C   UNL A   1      33.644  29.673  26.277  1.00  0.00     0.274 C 
ENDROOT
BRANCH   1   2
ATOM      2  O   UNL A   1      33.481  28.386  26.895  1.00  0.00    -0.462 OA
BRANCH   2   3
ATOM      3  C   UNL A   1      32.191  27.943  26.910  1.00  0.00     0.311 C 
ATOM      4  O   UNL A   1      31.278  28.561  27.406  1.00  0.00    -0.252 OA
BRANCH   3   5
ATOM      5  C   UNL A   1      31.987  26.624  26.199  1.00  0.00     0.130 C 
ATOM      6  N   UNL A   1      31.891  25.541  23.954  1.00  0.00    -0.328 N 
ATOM      7  C   UNL A   1      30.940  24.615  24.359  1.00  0.00     0.223 C 
ATOM      8  C   UNL A   1      32.051  26.823  24.670  1.00  0.00     0.166 C 
ATOM      9  O   UNL A   1      30.493  23.736  23.619  1.00  0.00    -0.275 OA
ATOM     10  C   UNL A   1      30.554  24.621  25.828  1.00  0.00     0.101 C 
ATOM     11  C   UNL A   1      30.681  25.939  26.564  1.00  0.00     0.028 C 
BRANCH   6  12
ATOM     12  C   UNL A   1      32.460  25.417  22.602  1.00  0.00     0.162 C 
BRANCH  12  13
ATOM     13  C   UNL A   1      33.594  24.389  22.435  1.00  0.00     0.251 C 
BRANCH  13  14
ATOM     14  O   UNL A   1      34.429  24.178  23.574  1.00  0.00    -0.491 OA
BRANCH  14  15
ATOM     15  C   UNL A   1      34.623  22.909  24.046  1.00  0.00     0.122 A 
ATOM     16  C   UNL A   1      37.107  23.096  24.672  1.00  0.00     0.048 C 
ATOM     17  C   UNL A   1      35.797  22.369  24.589  1.00  0.00    -0.009 A 
ATOM     18  C   UNL A   1      35.770  21.043  25.068  1.00  0.00     0.007 A 
ATOM     19  C   UNL A   1      34.635  20.243  24.930  1.00  0.00     0.001 A 
ATOM     20  C   UNL A   1      33.504  22.080  23.871  1.00  0.00     0.047 A 
ATOM     21  C   UNL A   1      33.504  20.756  24.310  1.00  0.00     0.004 A 
ENDBRANCH  14  15
ENDBRANCH  13  14
ENDBRANCH  12  13
ENDBRANCH   6  12
BRANCH   8  22
ATOM     22  C   UNL A   1      31.030  27.829  24.129  1.00  0.00     0.127 A 
ATOM     23  C   UNL A   1      31.080  29.170  23.778  1.00  0.00     0.048 A 
ATOM     24  O   UNL A   1      29.770  27.363  23.849  1.00  0.00    -0.467 OA
ATOM     25  C   UNL A   1      29.830  29.516  23.221  1.00  0.00     0.042 A 
ATOM     26  C   UNL A   1      29.068  28.379  23.287  1.00  0.00     0.195 A 
ENDBRANCH   8  22
ENDBRANCH   3   5
ENDBRANCH   2   3
ENDBRANCH   1   2
BRANCH   1  27
ATOM     27  C   UNL A   1      33.576  30.830  27.276  1.00  0.00     0.275 C 
BRANCH  27  28
ATOM     28  O   UNL A   1      34.268  30.724  28.550  1.00  0.00    -0.458 OA
BRANCH  28  29
ATOM     29  C   UNL A   1      35.556  31.045  28.841  1.00  0.00     0.338 C 
ATOM     30  O   UNL A   1      35.819  32.100  29.411  1.00  0.00    -0.246 OA
BRANCH  29  31
ATOM     31  C   UNL A   1      36.618  30.050  28.557  1.00  0.00     0.060 A 
ATOM     32  C   UNL A   1      37.248  30.061  27.298  1.00  0.00     0.016 A 
ATOM     33  C   UNL A   1      37.092  29.214  29.556  1.00  0.00     0.016 A 
ATOM     34  C   UNL A   1      38.457  29.377  27.101  1.00  0.00     0.010 A 
ATOM     35  C   UNL A   1      38.335  28.631  29.398  1.00  0.00     0.010 A 
ATOM     36  C   UNL A   1      39.046  28.721  28.184  1.00  0.00    -0.014 A 
BRANCH  36  37
ATOM     37  C   UNL A   1      40.337  28.012  28.155  1.00  0.00     0.031 A 
ATOM     38  C   UNL A   1      40.512  26.539  28.194  1.00  0.00     0.074 A 
ATOM     39  C   UNL A   1      41.417  28.820  28.088  1.00  0.00     0.049 A 
ATOM     40  N   UNL A   1      41.651  25.940  28.271  1.00  0.00    -0.248 NA
ATOM     41  C   UNL A   1      39.417  25.584  28.164  1.00  0.00     0.031 C 
ATOM     42  C   UNL A   1      42.831  28.514  27.935  1.00  0.00     0.029 A 
ATOM     43  N   UNL A   1      41.404  30.146  28.502  1.00  0.00    -0.354 N 
ATOM     44  C   UNL A   1      41.471  24.579  28.125  1.00  0.00     0.074 A 
ATOM     45  C   UNL A   1      40.046  24.405  28.045  1.00  0.00     0.031 C 
ATOM     46  C   UNL A   1      43.537  29.484  28.546  1.00  0.00     0.029 A 
ATOM     47  C   UNL A   1      42.575  30.351  29.219  1.00  0.00     0.049 A 
ATOM     48  H   UNL A   1      40.700  30.810  28.322  1.00  0.00     0.167 HD
ATOM     49  C   UNL A   1      42.581  23.791  28.042  1.00  0.00     0.034 A 
ATOM     50  C   UNL A   1      42.469  30.528  30.569  1.00  0.00     0.034 A 
ATOM     51  C   UNL A   1      43.725  24.519  28.577  1.00  0.00     0.049 A 
ATOM     52  C   UNL A   1      43.229  29.467  31.324  1.00  0.00     0.074 A 
ATOM     53  C   UNL A   1      44.756  25.247  28.014  1.00  0.00     0.029 A 
ATOM     54  N   UNL A   1      43.703  24.835  29.931  1.00  0.00    -0.354 N 
ATOM     55  N   UNL A   1      43.398  28.231  30.930  1.00  0.00    -0.248 NA
ATOM     56  C   UNL A   1      43.942  29.781  32.551  1.00  0.00     0.031 C 
ATOM     57  C   UNL A   1      45.286  26.089  29.032  1.00  0.00     0.029 A 
ATOM     58  C   UNL A   1      44.608  25.833  30.214  1.00  0.00     0.049 A 
ATOM     59  H   UNL A   1      43.120  24.404  30.596  1.00  0.00     0.167 HD
ATOM     60  C   UNL A   1      44.288  27.611  31.777  1.00  0.00     0.074 A 
ATOM     61  C   UNL A   1      44.586  28.626  32.776  1.00  0.00     0.031 C 
ATOM     62  C   UNL A   1      44.750  26.334  31.574  1.00  0.00     0.034 A 
BRANCH  49  63
ATOM     63  C   UNL A   1      42.717  22.446  27.359  1.00  0.00     0.023 A 
ATOM     64  C   UNL A   1      43.746  22.295  26.394  1.00  0.00     0.031 A 
ATOM     65  C   UNL A   1      41.867  21.336  27.502  1.00  0.00     0.131 A 
ATOM     66  C   UNL A   1      43.860  21.139  25.596  1.00  0.00     0.055 A 
ATOM     67  C   UNL A   1      41.982  20.180  26.709  1.00  0.00     0.041 A 
ATOM     68  F   UNL A   1      40.893  21.302  28.418  1.00  0.00    -0.206 F 
ATOM     69  C   UNL A   1      42.973  20.079  25.743  1.00  0.00     0.022 A 
BRANCH  66  70
ATOM     70  S   UNL A   1      45.151  21.069  24.319  1.00  0.00     0.124 S 
ATOM     71  O   UNL A   1      44.599  21.923  23.272  1.00  0.00    -0.237 OA
ATOM     72  O   UNL A   1      46.318  21.585  25.025  1.00  0.00    -0.237 OA
ATOM     73  O   UNL A   1      45.216  19.647  23.979  1.00  0.00    -0.744 OA
ENDBRANCH  66  70
ENDBRANCH  49  63
BRANCH  50  74
ATOM     74  C   UNL A   1      41.184  31.178  31.018  1.00  0.00     0.023 A 
ATOM     75  C   UNL A   1      40.156  30.337  31.515  1.00  0.00     0.031 A 
ATOM     76  C   UNL A   1      41.051  32.550  31.263  1.00  0.00     0.131 A 
ATOM     77  C   UNL A   1      39.167  30.834  32.375  1.00  0.00     0.055 A 
ATOM     78  C   UNL A   1      39.997  33.059  32.043  1.00  0.00     0.041 A 
ATOM     79  F   UNL A   1      41.978  33.418  30.834  1.00  0.00    -0.206 F 
ATOM     80  C   UNL A   1      39.073  32.198  32.639  1.00  0.00     0.022 A 
BRANCH  77  81
ATOM     81  S   UNL A   1      38.211  29.641  33.364  1.00  0.00     0.124 S 
ATOM     82  O   UNL A   1      36.850  29.876  32.894  1.00  0.00    -0.237 OA
ATOM     83  O   UNL A   1      38.803  28.359  32.982  1.00  0.00    -0.237 OA
ATOM     84  O   UNL A   1      38.480  30.042  34.743  1.00  0.00    -0.744 OA
ENDBRANCH  77  81
ENDBRANCH  50  74
BRANCH  62  85
ATOM     85  C   UNL A   1      45.488  25.473  32.590  1.00  0.00     0.023 A 
ATOM     86  C   UNL A   1      44.867  24.481  33.354  1.00  0.00     0.031 A 
ATOM     87  C   UNL A   1      46.890  25.585  32.787  1.00  0.00     0.131 A 
ATOM     88  C   UNL A   1      45.566  23.745  34.326  1.00  0.00     0.055 A 
ATOM     89  C   UNL A   1      47.603  24.796  33.699  1.00  0.00     0.041 A 
ATOM     90  F   UNL A   1      47.644  26.442  32.087  1.00  0.00    -0.206 F 
ATOM     91  C   UNL A   1      46.936  23.882  34.497  1.00  0.00     0.022 A 
BRANCH  88  92
ATOM     92  S   UNL A   1      44.599  22.657  35.403  1.00  0.00     0.124 S 
ATOM     93  O   UNL A   1      43.230  22.998  35.023  1.00  0.00    -0.237 OA
ATOM     94  O   UNL A   1      45.054  21.332  34.996  1.00  0.00    -0.237 OA
ATOM     95  O   UNL A   1      44.991  23.068  36.749  1.00  0.00    -0.744 OA
ENDBRANCH  88  92
ENDBRANCH  62  85
ENDBRANCH  36  37
ENDBRANCH  29  31
ENDBRANCH  28  29
ENDBRANCH  27  28
ENDBRANCH   1  27
TORSDOF 19
ENDMDL
MODEL 3
REMARK VINA RESULT:     -12.3      1.698      2.158
REMARK SMILES Cc1ccccc1OCCN1C(=O)CC[C@H](C(=O)OCCOC(=O)c2ccc(-c3c4nc(c(-c5cc(S(=O)(=O)[O-])ccc5F)c5ccc([nH]5)c(-c5cc(S(=O)(=O)[O-])ccc5F)c5nc(c(-c6cc(S(=O)(=O)[O-])ccc6F)c6ccc3[nH]6)C=C5)C=C4)cc2)[C@@H]1c1ccco1
REMARK SMILES IDX 20 1 19 2 17 3 18 4 16 5 11 6 12 7 88 8 13 9 14 10 15 11
REMARK SMILES IDX 10 12 9 13 8 14 7 15 1 16 2 17 3 18 4 19 6 20 5 21 89 22
REMARK SMILES IDX 90 23 93 24 91 25 92 26 21 27 22 28 23 29 24 30 25 31 26 32
REMARK SMILES IDX 87 33 27 34 86 35 28 36 29 37 30 38 80 39 31 40 85 41 79 42
REMARK SMILES IDX 81 43 32 44 84 45 78 46 77 47 33 49 65 50 45 51 64 52 46 53
REMARK SMILES IDX 49 54 63 55 82 56 47 57 48 58 62 60 83 61 50 62 34 63 35 64
REMARK SMILES IDX 43 65 36 66 42 67 44 68 41 69 37 70 38 71 39 72 40 73 66 74
REMARK SMILES IDX 67 75 75 76 68 77 74 78 76 79 73 80 69 81 70 82 71 83 72 84
REMARK SMILES IDX 51 85 52 86 60 87 53 88 59 89 61 90 58 91 54 92 55 93 56 94
REMARK SMILES IDX 57 95
REMARK H PARENT 81 48 49 59
REMARK Flexibility Score: inf
ROOT
ATOM      1  C   UNL A   1      32.827  30.150  26.665  1.00  0.00     0.274 C 
ENDROOT
BRANCH   1   2
ATOM      2  O   UNL A   1      33.178  28.768  26.848  1.00  0.00    -0.462 OA
BRANCH   2   3
ATOM      3  C   UNL A   1      33.600  28.153  25.706  1.00  0.00     0.311 C 
ATOM      4  O   UNL A   1      34.322  28.678  24.891  1.00  0.00    -0.252 OA
BRANCH   3   5
ATOM      5  C   UNL A   1      33.127  26.723  25.570  1.00  0.00     0.130 C 
ATOM      6  N   UNL A   1      32.197  25.056  23.964  1.00  0.00    -0.328 N 
ATOM      7  C   UNL A   1      31.445  24.422  24.943  1.00  0.00     0.223 C 
ATOM      8  C   UNL A   1      32.629  26.457  24.133  1.00  0.00     0.166 C 
ATOM      9  O   UNL A   1      30.743  23.433  24.723  1.00  0.00    -0.275 OA
ATOM     10  C   UNL A   1      31.623  24.906  26.372  1.00  0.00     0.101 C 
ATOM     11  C   UNL A   1      32.034  26.353  26.557  1.00  0.00     0.028 C 
BRANCH   6  12
ATOM     12  C   UNL A   1      32.228  24.470  22.614  1.00  0.00     0.162 C 
BRANCH  12  13
ATOM     13  C   UNL A   1      33.406  23.524  22.313  1.00  0.00     0.251 C 
BRANCH  13  14
ATOM     14  O   UNL A   1      33.511  22.363  23.139  1.00  0.00    -0.491 OA
BRANCH  14  15
ATOM     15  C   UNL A   1      34.624  22.182  23.913  1.00  0.00     0.122 A 
ATOM     16  C   UNL A   1      33.642  20.561  25.645  1.00  0.00     0.048 C 
ATOM     17  C   UNL A   1      34.760  21.353  25.035  1.00  0.00    -0.009 A 
ATOM     18  C   UNL A   1      36.019  21.271  25.664  1.00  0.00     0.007 A 
ATOM     19  C   UNL A   1      37.093  22.058  25.246  1.00  0.00     0.001 A 
ATOM     20  C   UNL A   1      35.698  23.002  23.532  1.00  0.00     0.047 A 
ATOM     21  C   UNL A   1      36.927  22.942  24.190  1.00  0.00     0.004 A 
ENDBRANCH  14  15
ENDBRANCH  13  14
ENDBRANCH  12  13
ENDBRANCH   6  12
BRANCH   8  22
ATOM     22  C   UNL A   1      31.499  27.388  23.683  1.00  0.00     0.127 A 
ATOM     23  C   UNL A   1      30.211  27.641  24.133  1.00  0.00     0.048 A 
ATOM     24  O   UNL A   1      31.758  28.239  22.638  1.00  0.00    -0.467 OA
ATOM     25  C   UNL A   1      29.691  28.711  23.373  1.00  0.00     0.042 A 
ATOM     26  C   UNL A   1      30.673  29.038  22.476  1.00  0.00     0.195 A 
ENDBRANCH   8  22
ENDBRANCH   3   5
ENDBRANCH   2   3
ENDBRANCH   1   2
BRANCH   1  27
ATOM     27  C   UNL A   1      33.698  31.103  27.486  1.00  0.00     0.275 C 
BRANCH  27  28
ATOM     28  O   UNL A   1      34.868  30.592  28.181  1.00  0.00    -0.458 OA
BRANCH  28  29
ATOM     29  C   UNL A   1      35.653  31.225  29.090  1.00  0.00     0.338 C 
ATOM     30  O   UNL A   1      35.261  32.248  29.645  1.00  0.00    -0.246 OA
BRANCH  29  31
ATOM     31  C   UNL A   1      36.938  30.597  29.481  1.00  0.00     0.060 A 
ATOM     32  C   UNL A   1      36.927  29.296  30.023  1.00  0.00     0.016 A 
ATOM     33  C   UNL A   1      38.147  31.209  29.189  1.00  0.00     0.016 A 
ATOM     34  C   UNL A   1      38.110  28.546  30.096  1.00  0.00     0.010 A 
ATOM     35  C   UNL A   1      39.291  30.436  29.158  1.00  0.00     0.010 A 
ATOM     36  C   UNL A   1      39.289  29.093  29.586  1.00  0.00    -0.014 A 
BRANCH  36  37
ATOM     37  C   UNL A   1      40.595  28.412  29.534  1.00  0.00     0.031 A 
ATOM     38  C   UNL A   1      40.827  27.027  29.055  1.00  0.00     0.074 A 
ATOM     39  C   UNL A   1      41.632  29.159  29.973  1.00  0.00     0.049 A 
ATOM     40  N   UNL A   1      41.959  26.414  29.113  1.00  0.00    -0.248 NA
ATOM     41  C   UNL A   1      39.800  26.181  28.470  1.00  0.00     0.031 C 
ATOM     42  C   UNL A   1      43.062  28.896  29.981  1.00  0.00     0.029 A 
ATOM     43  N   UNL A   1      41.483  30.234  30.840  1.00  0.00    -0.354 N 
ATOM     44  C   UNL A   1      41.871  25.211  28.441  1.00  0.00     0.074 A 
ATOM     45  C   UNL A   1      40.494  25.117  28.040  1.00  0.00     0.031 C 
ATOM     46  C   UNL A   1      43.601  29.550  31.028  1.00  0.00     0.029 A 
ATOM     47  C   UNL A   1      42.495  30.127  31.785  1.00  0.00     0.049 A 
ATOM     48  H   UNL A   1      40.794  30.935  30.793  1.00  0.00     0.167 HD
ATOM     49  C   UNL A   1      43.013  24.483  28.277  1.00  0.00     0.034 A 
ATOM     50  C   UNL A   1      42.139  29.789  33.059  1.00  0.00     0.034 A 
ATOM     51  C   UNL A   1      44.007  24.928  29.246  1.00  0.00     0.049 A 
ATOM     52  C   UNL A   1      42.798  28.504  33.492  1.00  0.00     0.074 A 
ATOM     53  C   UNL A   1      45.088  25.788  29.194  1.00  0.00     0.029 A 
ATOM     54  N   UNL A   1      43.726  24.717  30.591  1.00  0.00    -0.354 N 
ATOM     55  N   UNL A   1      43.091  27.501  32.706  1.00  0.00    -0.248 NA
ATOM     56  C   UNL A   1      43.262  28.318  34.857  1.00  0.00     0.031 C 
ATOM     57  C   UNL A   1      45.386  26.175  30.532  1.00  0.00     0.029 A 
ATOM     58  C   UNL A   1      44.519  25.514  31.386  1.00  0.00     0.049 A 
ATOM     59  H   UNL A   1      43.053  24.084  30.928  1.00  0.00     0.167 HD
ATOM     60  C   UNL A   1      43.840  26.586  33.410  1.00  0.00     0.074 A 
ATOM     61  C   UNL A   1      43.907  27.147  34.752  1.00  0.00     0.031 C 
ATOM     62  C   UNL A   1      44.390  25.467  32.837  1.00  0.00     0.034 A 
BRANCH  49  63
ATOM     63  C   UNL A   1      43.331  23.488  27.181  1.00  0.00     0.023 A 
ATOM     64  C   UNL A   1      42.570  22.292  27.131  1.00  0.00     0.031 A 
ATOM     65  C   UNL A   1      44.377  23.567  26.245  1.00  0.00     0.131 A 
ATOM     66  C   UNL A   1      42.885  21.239  26.250  1.00  0.00     0.055 A 
ATOM     67  C   UNL A   1      44.691  22.518  25.362  1.00  0.00     0.041 A 
ATOM     68  F   UNL A   1      45.139  24.660  26.125  1.00  0.00    -0.206 F 
ATOM     69  C   UNL A   1      43.953  21.343  25.367  1.00  0.00     0.022 A 
BRANCH  66  70
ATOM     70  S   UNL A   1      41.914  19.705  26.318  1.00  0.00     0.124 S 
ATOM     71  O   UNL A   1      40.543  20.203  26.261  1.00  0.00    -0.237 OA
ATOM     72  O   UNL A   1      42.388  18.982  25.143  1.00  0.00    -0.237 OA
ATOM     73  O   UNL A   1      42.299  19.115  27.601  1.00  0.00    -0.744 OA
ENDBRANCH  66  70
ENDBRANCH  49  63
BRANCH  50  74
ATOM     74  C   UNL A   1      40.765  30.257  33.471  1.00  0.00     0.023 A 
ATOM     75  C   UNL A   1      40.590  31.638  33.741  1.00  0.00     0.031 A 
ATOM     76  C   UNL A   1      39.603  29.492  33.309  1.00  0.00     0.131 A 
ATOM     77  C   UNL A   1      39.325  32.237  33.651  1.00  0.00     0.055 A 
ATOM     78  C   UNL A   1      38.326  30.082  33.323  1.00  0.00     0.041 A 
ATOM     79  F   UNL A   1      39.675  28.179  33.048  1.00  0.00    -0.206 F 
ATOM     80  C   UNL A   1      38.184  31.465  33.452  1.00  0.00     0.022 A 
BRANCH  77  81
ATOM     81  S   UNL A   1      39.244  34.050  33.502  1.00  0.00     0.124 S 
ATOM     82  O   UNL A   1      37.873  34.258  33.048  1.00  0.00    -0.237 OA
ATOM     83  O   UNL A   1      39.538  34.498  34.863  1.00  0.00    -0.237 OA
ATOM     84  O   UNL A   1      40.285  34.363  32.527  1.00  0.00    -0.744 OA
ENDBRANCH  77  81
ENDBRANCH  50  74
BRANCH  62  85
ATOM     85  C   UNL A   1      44.970  24.270  33.577  1.00  0.00     0.023 A 
ATOM     86  C   UNL A   1      46.304  24.194  33.991  1.00  0.00     0.031 A 
ATOM     87  C   UNL A   1      44.168  23.161  33.952  1.00  0.00     0.131 A 
ATOM     88  C   UNL A   1      46.822  23.049  34.620  1.00  0.00     0.055 A 
ATOM     89  C   UNL A   1      44.664  22.052  34.650  1.00  0.00     0.041 A 
ATOM     90  F   UNL A   1      42.855  23.106  33.687  1.00  0.00    -0.206 F 
ATOM     91  C   UNL A   1      46.010  21.979  34.968  1.00  0.00     0.022 A 
BRANCH  88  92
ATOM     92  S   UNL A   1      48.610  22.987  34.897  1.00  0.00     0.124 S 
ATOM     93  O   UNL A   1      49.108  23.861  33.837  1.00  0.00    -0.237 OA
ATOM     94  O   UNL A   1      48.733  23.510  36.253  1.00  0.00    -0.237 OA
ATOM     95  O   UNL A   1      48.934  21.571  34.741  1.00  0.00    -0.744 OA
ENDBRANCH  88  92
ENDBRANCH  62  85
ENDBRANCH  36  37
ENDBRANCH  29  31
ENDBRANCH  28  29
ENDBRANCH  27  28
ENDBRANCH   1  27
TORSDOF 19
ENDMDL
