MODEL 1
REMARK VINA RESULT:     -12.1      0.000      0.000
REMARK SMILES Cc1nc(Oc2ccc(F)cc2)c(C(=O)OCCOC(=O)c2ccc(-c3c4nc(c(-c5cc(S(=O)(=O)[O-])ccc5F)c5ccc([nH]5)c(-c5cc(S(=O)(=O)[O-])ccc5F)c5nc(c(-c6cc(S(=O)(=O)[O-])ccc6F)c6ccc3[nH]6)C=C5)C=C4)cc2)c(C)c1Cl
REMARK SMILES IDX 18 1 17 2 16 3 14 4 15 5 13 6 1 7 2 8 3 9 87 10 4 11 85 12
REMARK SMILES IDX 88 13 86 14 5 15 6 16 7 17 12 18 8 19 11 20 9 21 10 22 19 23
REMARK SMILES IDX 20 24 21 25 22 26 23 27 84 28 24 29 83 30 25 31 26 32 27 33
REMARK SMILES IDX 77 34 28 35 82 36 76 37 78 38 29 39 81 40 75 41 74 42 30 44
REMARK SMILES IDX 62 45 42 46 61 47 43 48 46 49 60 50 79 51 44 52 45 53 59 55
REMARK SMILES IDX 80 56 47 57 31 58 32 59 40 60 33 61 39 62 41 63 38 64 34 65
REMARK SMILES IDX 35 66 36 67 37 68 63 69 64 70 72 71 65 72 71 73 73 74 70 75
REMARK SMILES IDX 66 76 67 77 68 78 69 79 48 80 49 81 57 82 50 83 56 84 58 85
REMARK SMILES IDX 55 86 51 87 52 88 53 89 54 90
REMARK H PARENT 78 43 46 54
REMARK Flexibility Score: inf
ROOT
ATOM      1  C   UNL A   1      37.647  20.395  24.660  1.00  0.00     0.275 C 
ENDROOT
BRANCH   1   2
ATOM      2  C   UNL A   1      36.226  19.927  25.006  1.00  0.00     0.275 C 
BRANCH   2   3
ATOM      3  O   UNL A   1      35.306  20.963  24.635  1.00  0.00    -0.458 OA
BRANCH   3   4
ATOM      4  C   UNL A   1      34.623  21.591  25.628  1.00  0.00     0.344 C 
ATOM      5  O   UNL A   1      34.828  21.553  26.818  1.00  0.00    -0.246 OA
BRANCH   4   6
ATOM      6  C   UNL A   1      33.552  22.320  24.930  1.00  0.00     0.127 A 
ATOM      7  C   UNL A   1      30.343  24.688  23.466  1.00  0.00     0.068 C 
ATOM      8  C   UNL A   1      31.532  23.887  23.920  1.00  0.00     0.060 A 
ATOM      9  N   UNL A   1      31.240  22.650  24.411  1.00  0.00    -0.216 NA
ATOM     10  C   UNL A   1      32.837  24.383  23.876  1.00  0.00     0.066 A 
ATOM     11  C   UNL A   1      32.232  21.871  24.920  1.00  0.00     0.234 A 
ATOM     12  C   UNL A   1      33.881  23.574  24.350  1.00  0.00    -0.011 A 
ATOM     13  Cl  UNL A   1      33.164  25.973  23.265  1.00  0.00    -0.082 Cl
ATOM     14  C   UNL A   1      35.320  24.029  24.293  1.00  0.00     0.047 C 
BRANCH  11  15
ATOM     15  O   UNL A   1      31.777  20.601  25.194  1.00  0.00    -0.438 OA
BRANCH  15  16
ATOM     16  C   UNL A   1      32.336  19.453  24.695  1.00  0.00     0.129 A 
ATOM     17  C   UNL A   1      32.301  19.297  23.308  1.00  0.00     0.050 A 
ATOM     18  C   UNL A   1      32.863  18.425  25.461  1.00  0.00     0.050 A 
ATOM     19  C   UNL A   1      32.877  18.172  22.704  1.00  0.00     0.043 A 
ATOM     20  C   UNL A   1      33.448  17.301  24.871  1.00  0.00     0.043 A 
ATOM     21  C   UNL A   1      33.470  17.195  23.492  1.00  0.00     0.123 A 
ATOM     22  F   UNL A   1      34.077  16.147  22.922  1.00  0.00    -0.207 F 
ENDBRANCH  15  16
ENDBRANCH  11  15
ENDBRANCH   4   6
ENDBRANCH   3   4
ENDBRANCH   2   3
ENDBRANCH   1   2
BRANCH   1  23
ATOM     23  O   UNL A   1      38.141  21.334  25.641  1.00  0.00    -0.458 OA
BRANCH  23  24
ATOM     24  C   UNL A   1      39.361  21.066  26.185  1.00  0.00     0.338 C 
ATOM     25  O   UNL A   1      39.957  20.004  26.138  1.00  0.00    -0.246 OA
BRANCH  24  26
ATOM     26  C   UNL A   1      39.973  22.342  26.649  1.00  0.00     0.060 A 
ATOM     27  C   UNL A   1      39.468  23.541  26.124  1.00  0.00     0.016 A 
ATOM     28  C   UNL A   1      40.918  22.379  27.681  1.00  0.00     0.016 A 
ATOM     29  C   UNL A   1      39.878  24.772  26.650  1.00  0.00     0.010 A 
ATOM     30  C   UNL A   1      41.361  23.613  28.177  1.00  0.00     0.010 A 
ATOM     31  C   UNL A   1      40.854  24.817  27.658  1.00  0.00    -0.014 A 
BRANCH  31  32
ATOM     32  C   UNL A   1      41.545  26.098  27.964  1.00  0.00     0.031 A 
ATOM     33  C   UNL A   1      40.745  27.152  28.681  1.00  0.00     0.074 A 
ATOM     34  C   UNL A   1      42.821  26.354  27.616  1.00  0.00     0.049 A 
ATOM     35  N   UNL A   1      41.097  28.356  29.045  1.00  0.00    -0.248 NA
ATOM     36  C   UNL A   1      39.361  26.794  29.041  1.00  0.00     0.031 C 
ATOM     37  C   UNL A   1      43.731  25.415  26.966  1.00  0.00     0.029 A 
ATOM     38  N   UNL A   1      43.570  27.502  27.761  1.00  0.00    -0.354 N 
ATOM     39  C   UNL A   1      39.990  28.886  29.693  1.00  0.00     0.074 A 
ATOM     40  C   UNL A   1      38.946  27.889  29.655  1.00  0.00     0.031 C 
ATOM     41  C   UNL A   1      44.911  26.029  26.754  1.00  0.00     0.029 A 
ATOM     42  C   UNL A   1      44.835  27.416  27.223  1.00  0.00     0.049 A 
ATOM     43  H   UNL A   1      43.231  28.310  28.209  1.00  0.00     0.167 HD
ATOM     44  C   UNL A   1      39.847  30.098  30.271  1.00  0.00     0.034 A 
ATOM     45  C   UNL A   1      45.807  28.350  27.108  1.00  0.00     0.034 A 
ATOM     46  C   UNL A   1      40.851  31.121  30.265  1.00  0.00     0.049 A 
ATOM     47  C   UNL A   1      45.575  29.748  27.650  1.00  0.00     0.074 A 
ATOM     48  C   UNL A   1      40.772  32.390  30.809  1.00  0.00     0.029 A 
ATOM     49  N   UNL A   1      42.095  31.009  29.671  1.00  0.00    -0.354 N 
ATOM     50  N   UNL A   1      44.550  30.214  28.321  1.00  0.00    -0.248 NA
ATOM     51  C   UNL A   1      46.630  30.750  27.413  1.00  0.00     0.031 C 
ATOM     52  C   UNL A   1      41.947  33.069  30.490  1.00  0.00     0.029 A 
ATOM     53  C   UNL A   1      42.784  32.201  29.805  1.00  0.00     0.049 A 
ATOM     54  H   UNL A   1      42.439  30.203  29.221  1.00  0.00     0.167 HD
ATOM     55  C   UNL A   1      44.850  31.545  28.615  1.00  0.00     0.074 A 
ATOM     56  C   UNL A   1      46.154  31.813  28.054  1.00  0.00     0.031 C 
ATOM     57  C   UNL A   1      44.105  32.458  29.286  1.00  0.00     0.034 A 
BRANCH  44  58
ATOM     58  C   UNL A   1      38.543  30.404  30.947  1.00  0.00     0.023 A 
ATOM     59  C   UNL A   1      37.569  31.163  30.278  1.00  0.00     0.031 A 
ATOM     60  C   UNL A   1      38.311  30.026  32.280  1.00  0.00     0.131 A 
ATOM     61  C   UNL A   1      36.415  31.555  30.960  1.00  0.00     0.055 A 
ATOM     62  C   UNL A   1      37.143  30.394  32.946  1.00  0.00     0.041 A 
ATOM     63  F   UNL A   1      39.213  29.286  32.946  1.00  0.00    -0.206 F 
ATOM     64  C   UNL A   1      36.193  31.171  32.288  1.00  0.00     0.022 A 
BRANCH  61  65
ATOM     65  S   UNL A   1      35.173  32.603  30.159  1.00  0.00     0.124 S 
ATOM     66  O   UNL A   1      34.225  32.834  31.248  1.00  0.00    -0.237 OA
ATOM     67  O   UNL A   1      35.965  33.763  29.763  1.00  0.00    -0.237 OA
ATOM     68  O   UNL A   1      34.669  31.776  29.067  1.00  0.00    -0.744 OA
ENDBRANCH  61  65
ENDBRANCH  44  58
BRANCH  45  69
ATOM     69  C   UNL A   1      47.105  27.999  26.457  1.00  0.00     0.023 A 
ATOM     70  C   UNL A   1      47.249  28.021  25.058  1.00  0.00     0.031 A 
ATOM     71  C   UNL A   1      48.218  27.618  27.228  1.00  0.00     0.131 A 
ATOM     72  C   UNL A   1      48.462  27.628  24.475  1.00  0.00     0.055 A 
ATOM     73  C   UNL A   1      49.441  27.283  26.645  1.00  0.00     0.041 A 
ATOM     74  F   UNL A   1      48.132  27.587  28.567  1.00  0.00    -0.206 F 
ATOM     75  C   UNL A   1      49.566  27.278  25.259  1.00  0.00     0.022 A 
BRANCH  72  76
ATOM     76  S   UNL A   1      48.634  27.508  22.672  1.00  0.00     0.124 S 
ATOM     77  O   UNL A   1      48.592  26.065  22.452  1.00  0.00    -0.237 OA
ATOM     78  O   UNL A   1      47.461  28.248  22.215  1.00  0.00    -0.237 OA
ATOM     79  O   UNL A   1      49.919  28.145  22.405  1.00  0.00    -0.744 OA
ENDBRANCH  72  76
ENDBRANCH  45  69
BRANCH  57  80
ATOM     80  C   UNL A   1      44.638  33.852  29.510  1.00  0.00     0.023 A 
ATOM     81  C   UNL A   1      44.458  34.831  28.512  1.00  0.00     0.031 A 
ATOM     82  C   UNL A   1      45.522  34.130  30.564  1.00  0.00     0.131 A 
ATOM     83  C   UNL A   1      45.210  36.012  28.551  1.00  0.00     0.055 A 
ATOM     84  C   UNL A   1      46.233  35.330  30.623  1.00  0.00     0.041 A 
ATOM     85  F   UNL A   1      45.738  33.222  31.530  1.00  0.00    -0.206 F 
ATOM     86  C   UNL A   1      46.094  36.268  29.604  1.00  0.00     0.022 A 
BRANCH  83  87
ATOM     87  S   UNL A   1      45.140  37.208  27.187  1.00  0.00     0.124 S 
ATOM     88  O   UNL A   1      45.988  36.575  26.181  1.00  0.00    -0.237 OA
ATOM     89  O   UNL A   1      43.713  37.232  26.875  1.00  0.00    -0.237 OA
ATOM     90  O   UNL A   1      45.679  38.433  27.767  1.00  0.00    -0.744 OA
ENDBRANCH  83  87
ENDBRANCH  57  80
ENDBRANCH  31  32
ENDBRANCH  24  26
ENDBRANCH  23  24
ENDBRANCH   1  23
TORSDOF 16
ENDMDL
MODEL 2
REMARK VINA RESULT:     -11.9      5.642     10.693
REMARK SMILES Cc1nc(Oc2ccc(F)cc2)c(C(=O)OCCOC(=O)c2ccc(-c3c4nc(c(-c5cc(S(=O)(=O)[O-])ccc5F)c5ccc([nH]5)c(-c5cc(S(=O)(=O)[O-])ccc5F)c5nc(c(-c6cc(S(=O)(=O)[O-])ccc6F)c6ccc3[nH]6)C=C5)C=C4)cc2)c(C)c1Cl
REMARK SMILES IDX 18 1 17 2 16 3 14 4 15 5 13 6 1 7 2 8 3 9 87 10 4 11 85 12
REMARK SMILES IDX 88 13 86 14 5 15 6 16 7 17 12 18 8 19 11 20 9 21 10 22 19 23
REMARK SMILES IDX 20 24 21 25 22 26 23 27 84 28 24 29 83 30 25 31 26 32 27 33
REMARK SMILES IDX 77 34 28 35 82 36 76 37 78 38 29 39 81 40 75 41 74 42 30 44
REMARK SMILES IDX 62 45 42 46 61 47 43 48 46 49 60 50 79 51 44 52 45 53 59 55
REMARK SMILES IDX 80 56 47 57 31 58 32 59 40 60 33 61 39 62 41 63 38 64 34 65
REMARK SMILES IDX 35 66 36 67 37 68 63 69 64 70 72 71 65 72 71 73 73 74 70 75
REMARK SMILES IDX 66 76 67 77 68 78 69 79 48 80 49 81 57 82 50 83 56 84 58 85
REMARK SMILES IDX 55 86 51 87 52 88 53 89 54 90
REMARK H PARENT 78 43 46 54
REMARK Flexibility Score: inf
ROOT
ATOM      1  C   UNL A   1      31.674  31.007  26.372  1.00  0.00     0.275 C 
ENDROOT
BRANCH   1   2
ATOM      2  C   UNL A   1      31.461  29.995  25.237  1.00  0.00     0.275 C 
BRANCH   2   3
ATOM      3  O   UNL A   1      32.694  29.297  25.015  1.00  0.00    -0.458 OA
BRANCH   3   4
ATOM      4  C   UNL A   1      32.920  28.786  23.776  1.00  0.00     0.344 C 
ATOM      5  O   UNL A   1      33.487  29.303  22.843  1.00  0.00    -0.246 OA
BRANCH   4   6
ATOM      6  C   UNL A   1      32.295  27.454  23.813  1.00  0.00     0.127 A 
ATOM      7  C   UNL A   1      30.947  23.435  23.531  1.00  0.00     0.068 C 
ATOM      8  C   UNL A   1      31.427  24.847  23.721  1.00  0.00     0.060 A 
ATOM      9  N   UNL A   1      30.952  25.745  22.813  1.00  0.00    -0.216 NA
ATOM     10  C   UNL A   1      32.322  25.210  24.731  1.00  0.00     0.066 A 
ATOM     11  C   UNL A   1      31.382  27.035  22.845  1.00  0.00     0.234 A 
ATOM     12  C   UNL A   1      32.737  26.547  24.813  1.00  0.00    -0.011 A 
ATOM     13  Cl  UNL A   1      32.922  24.032  25.853  1.00  0.00    -0.082 Cl
ATOM     14  C   UNL A   1      33.669  27.018  25.904  1.00  0.00     0.047 C 
BRANCH  11  15
ATOM     15  O   UNL A   1      30.659  27.823  21.979  1.00  0.00    -0.438 OA
BRANCH  15  16
ATOM     16  C   UNL A   1      29.712  28.734  22.366  1.00  0.00     0.129 A 
ATOM     17  C   UNL A   1      29.944  30.063  22.008  1.00  0.00     0.050 A 
ATOM     18  C   UNL A   1      28.592  28.444  23.131  1.00  0.00     0.050 A 
ATOM     19  C   UNL A   1      29.015  31.060  22.329  1.00  0.00     0.043 A 
ATOM     20  C   UNL A   1      27.654  29.428  23.453  1.00  0.00     0.043 A 
ATOM     21  C   UNL A   1      27.863  30.727  23.029  1.00  0.00     0.123 A 
ATOM     22  F   UNL A   1      26.939  31.661  23.288  1.00  0.00    -0.207 F 
ENDBRANCH  15  16
ENDBRANCH  11  15
ENDBRANCH   4   6
ENDBRANCH   3   4
ENDBRANCH   2   3
ENDBRANCH   1   2
BRANCH   1  23
ATOM     23  O   UNL A   1      32.951  30.804  27.019  1.00  0.00    -0.458 OA
BRANCH  23  24
ATOM     24  C   UNL A   1      33.592  31.917  27.469  1.00  0.00     0.338 C 
ATOM     25  O   UNL A   1      33.130  33.044  27.530  1.00  0.00    -0.246 OA
BRANCH  24  26
ATOM     26  C   UNL A   1      34.876  31.512  28.105  1.00  0.00     0.060 A 
ATOM     27  C   UNL A   1      35.027  30.167  28.479  1.00  0.00     0.016 A 
ATOM     28  C   UNL A   1      35.965  32.386  28.202  1.00  0.00     0.016 A 
ATOM     29  C   UNL A   1      36.268  29.690  28.915  1.00  0.00     0.010 A 
ATOM     30  C   UNL A   1      37.196  31.916  28.681  1.00  0.00     0.010 A 
ATOM     31  C   UNL A   1      37.353  30.569  29.051  1.00  0.00    -0.014 A 
BRANCH  31  32
ATOM     32  C   UNL A   1      38.547  30.158  29.839  1.00  0.00     0.031 A 
ATOM     33  C   UNL A   1      39.438  29.109  29.230  1.00  0.00     0.074 A 
ATOM     34  C   UNL A   1      38.842  30.660  31.053  1.00  0.00     0.049 A 
ATOM     35  N   UNL A   1      40.522  28.562  29.711  1.00  0.00    -0.248 NA
ATOM     36  C   UNL A   1      39.058  28.620  27.893  1.00  0.00     0.031 C 
ATOM     37  C   UNL A   1      38.103  31.712  31.744  1.00  0.00     0.029 A 
ATOM     38  N   UNL A   1      39.856  30.333  31.928  1.00  0.00    -0.354 N 
ATOM     39  C   UNL A   1      40.961  27.683  28.730  1.00  0.00     0.074 A 
ATOM     40  C   UNL A   1      40.021  27.749  27.637  1.00  0.00     0.031 C 
ATOM     41  C   UNL A   1      38.677  31.935  32.941  1.00  0.00     0.029 A 
ATOM     42  C   UNL A   1      39.809  31.019  33.121  1.00  0.00     0.049 A 
ATOM     43  H   UNL A   1      40.552  29.669  31.719  1.00  0.00     0.167 HD
ATOM     44  C   UNL A   1      42.051  26.886  28.733  1.00  0.00     0.034 A 
ATOM     45  C   UNL A   1      40.575  30.909  34.231  1.00  0.00     0.034 A 
ATOM     46  C   UNL A   1      42.960  26.764  29.834  1.00  0.00     0.049 A 
ATOM     47  C   UNL A   1      41.717  29.912  34.260  1.00  0.00     0.074 A 
ATOM     48  C   UNL A   1      44.079  25.955  29.924  1.00  0.00     0.029 A 
ATOM     49  N   UNL A   1      42.849  27.440  31.036  1.00  0.00    -0.354 N 
ATOM     50  N   UNL A   1      42.162  29.137  33.300  1.00  0.00    -0.248 NA
ATOM     51  C   UNL A   1      42.458  29.767  35.526  1.00  0.00     0.031 C 
ATOM     52  C   UNL A   1      44.609  26.095  31.205  1.00  0.00     0.029 A 
ATOM     53  C   UNL A   1      43.861  27.040  31.890  1.00  0.00     0.049 A 
ATOM     54  H   UNL A   1      42.155  28.104  31.251  1.00  0.00     0.167 HD
ATOM     55  C   UNL A   1      43.250  28.443  33.833  1.00  0.00     0.074 A 
ATOM     56  C   UNL A   1      43.403  28.890  35.198  1.00  0.00     0.031 C 
ATOM     57  C   UNL A   1      44.044  27.518  33.238  1.00  0.00     0.034 A 
BRANCH  44  58
ATOM     58  C   UNL A   1      42.317  26.057  27.512  1.00  0.00     0.023 A 
ATOM     59  C   UNL A   1      41.922  24.710  27.481  1.00  0.00     0.031 A 
ATOM     60  C   UNL A   1      43.044  26.575  26.428  1.00  0.00     0.131 A 
ATOM     61  C   UNL A   1      42.290  23.910  26.396  1.00  0.00     0.055 A 
ATOM     62  C   UNL A   1      43.381  25.781  25.334  1.00  0.00     0.041 A 
ATOM     63  F   UNL A   1      43.425  27.863  26.416  1.00  0.00    -0.206 F 
ATOM     64  C   UNL A   1      43.012  24.438  25.320  1.00  0.00     0.022 A 
BRANCH  61  65
ATOM     65  S   UNL A   1      41.870  22.148  26.356  1.00  0.00     0.124 S 
ATOM     66  O   UNL A   1      42.731  21.657  25.281  1.00  0.00    -0.237 OA
ATOM     67  O   UNL A   1      42.239  21.718  27.700  1.00  0.00    -0.237 OA
ATOM     68  O   UNL A   1      40.441  22.136  26.056  1.00  0.00    -0.744 OA
ENDBRANCH  61  65
ENDBRANCH  44  58
BRANCH  45  69
ATOM     69  C   UNL A   1      40.299  31.775  35.417  1.00  0.00     0.023 A 
ATOM     70  C   UNL A   1      39.225  31.504  36.284  1.00  0.00     0.031 A 
ATOM     71  C   UNL A   1      41.098  32.900  35.688  1.00  0.00     0.131 A 
ATOM     72  C   UNL A   1      38.957  32.370  37.354  1.00  0.00     0.055 A 
ATOM     73  C   UNL A   1      40.861  33.727  36.788  1.00  0.00     0.041 A 
ATOM     74  F   UNL A   1      42.138  33.197  34.893  1.00  0.00    -0.206 F 
ATOM     75  C   UNL A   1      39.779  33.469  37.623  1.00  0.00     0.022 A 
BRANCH  72  76
ATOM     76  S   UNL A   1      37.496  32.129  38.403  1.00  0.00     0.124 S 
ATOM     77  O   UNL A   1      37.195  30.716  38.197  1.00  0.00    -0.237 OA
ATOM     78  O   UNL A   1      38.021  32.476  39.721  1.00  0.00    -0.237 OA
ATOM     79  O   UNL A   1      36.520  33.064  37.853  1.00  0.00    -0.744 OA
ENDBRANCH  72  76
ENDBRANCH  45  69
BRANCH  57  80
ATOM     80  C   UNL A   1      45.190  26.903  34.003  1.00  0.00     0.023 A 
ATOM     81  C   UNL A   1      44.953  25.782  34.825  1.00  0.00     0.031 A 
ATOM     82  C   UNL A   1      46.424  27.563  34.116  1.00  0.00     0.131 A 
ATOM     83  C   UNL A   1      45.907  25.402  35.776  1.00  0.00     0.055 A 
ATOM     84  C   UNL A   1      47.391  27.149  35.035  1.00  0.00     0.041 A 
ATOM     85  F   UNL A   1      46.689  28.644  33.365  1.00  0.00    -0.206 F 
ATOM     86  C   UNL A   1      47.127  26.077  35.883  1.00  0.00     0.022 A 
BRANCH  83  87
ATOM     87  S   UNL A   1      45.557  24.082  36.973  1.00  0.00     0.124 S 
ATOM     88  O   UNL A   1      44.629  24.739  37.890  1.00  0.00    -0.237 OA
ATOM     89  O   UNL A   1      44.969  23.049  36.125  1.00  0.00    -0.237 OA
ATOM     90  O   UNL A   1      46.864  23.766  37.539  1.00  0.00    -0.744 OA
ENDBRANCH  83  87
ENDBRANCH  57  80
ENDBRANCH  31  32
ENDBRANCH  24  26
ENDBRANCH  23  24
ENDBRANCH   1  23
TORSDOF 16
ENDMDL
MODEL 3
REMARK VINA RESULT:     -11.8      0.671      7.543
REMARK SMILES Cc1nc(Oc2ccc(F)cc2)c(C(=O)OCCOC(=O)c2ccc(-c3c4nc(c(-c5cc(S(=O)(=O)[O-])ccc5F)c5ccc([nH]5)c(-c5cc(S(=O)(=O)[O-])ccc5F)c5nc(c(-c6cc(S(=O)(=O)[O-])ccc6F)c6ccc3[nH]6)C=C5)C=C4)cc2)c(C)c1Cl
REMARK SMILES IDX 18 1 17 2 16 3 14 4 15 5 13 6 1 7 2 8 3 9 87 10 4 11 85 12
REMARK SMILES IDX 88 13 86 14 5 15 6 16 7 17 12 18 8 19 11 20 9 21 10 22 19 23
REMARK SMILES IDX 20 24 21 25 22 26 23 27 84 28 24 29 83 30 25 31 26 32 27 33
REMARK SMILES IDX 77 34 28 35 82 36 76 37 78 38 29 39 81 40 75 41 74 42 30 44
REMARK SMILES IDX 62 45 42 46 61 47 43 48 46 49 60 50 79 51 44 52 45 53 59 55
REMARK SMILES IDX 80 56 47 57 31 58 32 59 40 60 33 61 39 62 41 63 38 64 34 65
REMARK SMILES IDX 35 66 36 67 37 68 63 69 64 70 72 71 65 72 71 73 73 74 70 75
REMARK SMILES IDX 66 76 67 77 68 78 69 79 48 80 49 81 57 82 50 83 56 84 58 85
REMARK SMILES IDX 55 86 51 87 52 88 53 89 54 90
REMARK H PARENT 78 43 46 54
REMARK Flexibility Score: inf
ROOT
ATOM      1  C   UNL A   1      37.480  20.075  25.001  1.00  0.00     0.275 C 
ENDROOT
BRANCH   1   2
ATOM      2  C   UNL A   1      35.963  20.314  25.040  1.00  0.00     0.275 C 
BRANCH   2   3
ATOM      3  O   UNL A   1      35.722  21.597  25.635  1.00  0.00    -0.458 OA
BRANCH   3   4
ATOM      4  C   UNL A   1      34.568  21.765  26.333  1.00  0.00     0.344 C 
ATOM      5  O   UNL A   1      34.327  21.440  27.472  1.00  0.00    -0.246 OA
BRANCH   4   6
ATOM      6  C   UNL A   1      33.657  22.419  25.381  1.00  0.00     0.127 A 
ATOM      7  C   UNL A   1      30.793  24.601  23.125  1.00  0.00     0.068 C 
ATOM      8  C   UNL A   1      31.871  23.863  23.869  1.00  0.00     0.060 A 
ATOM      9  N   UNL A   1      31.501  22.651  24.371  1.00  0.00    -0.216 NA
ATOM     10  C   UNL A   1      33.150  24.391  24.065  1.00  0.00     0.066 A 
ATOM     11  C   UNL A   1      32.375  21.933  25.127  1.00  0.00     0.234 A 
ATOM     12  C   UNL A   1      34.082  23.643  24.798  1.00  0.00    -0.011 A 
ATOM     13  Cl  UNL A   1      33.575  25.948  23.431  1.00  0.00    -0.082 Cl
ATOM     14  C   UNL A   1      35.495  24.133  25.012  1.00  0.00     0.047 C 
BRANCH  11  15
ATOM     15  O   UNL A   1      31.891  20.671  25.384  1.00  0.00    -0.438 OA
BRANCH  15  16
ATOM     16  C   UNL A   1      32.409  19.519  24.854  1.00  0.00     0.129 A 
ATOM     17  C   UNL A   1      32.367  19.401  23.463  1.00  0.00     0.050 A 
ATOM     18  C   UNL A   1      32.903  18.453  25.590  1.00  0.00     0.050 A 
ATOM     19  C   UNL A   1      32.904  18.274  22.827  1.00  0.00     0.043 A 
ATOM     20  C   UNL A   1      33.448  17.326  24.969  1.00  0.00     0.043 A 
ATOM     21  C   UNL A   1      33.464  17.257  23.587  1.00  0.00     0.123 A 
ATOM     22  F   UNL A   1      34.034  16.204  22.988  1.00  0.00    -0.207 F 
ENDBRANCH  15  16
ENDBRANCH  11  15
ENDBRANCH   4   6
ENDBRANCH   3   4
ENDBRANCH   2   3
ENDBRANCH   1   2
BRANCH   1  23
ATOM     23  O   UNL A   1      38.206  21.275  25.354  1.00  0.00    -0.458 OA
BRANCH  23  24
ATOM     24  C   UNL A   1      39.350  21.108  26.073  1.00  0.00     0.338 C 
ATOM     25  O   UNL A   1      40.009  20.086  26.158  1.00  0.00    -0.246 OA
BRANCH  24  26
ATOM     26  C   UNL A   1      39.814  22.437  26.558  1.00  0.00     0.060 A 
ATOM     27  C   UNL A   1      39.112  23.574  26.128  1.00  0.00     0.016 A 
ATOM     28  C   UNL A   1      40.818  22.566  27.525  1.00  0.00     0.016 A 
ATOM     29  C   UNL A   1      39.386  24.828  26.686  1.00  0.00     0.010 A 
ATOM     30  C   UNL A   1      41.122  23.829  28.050  1.00  0.00     0.010 A 
ATOM     31  C   UNL A   1      40.418  24.970  27.627  1.00  0.00    -0.014 A 
BRANCH  31  32
ATOM     32  C   UNL A   1      40.948  26.322  27.949  1.00  0.00     0.031 A 
ATOM     33  C   UNL A   1      42.395  26.583  27.628  1.00  0.00     0.074 A 
ATOM     34  C   UNL A   1      40.208  27.291  28.522  1.00  0.00     0.049 A 
ATOM     35  N   UNL A   1      43.107  27.660  27.825  1.00  0.00    -0.248 NA
ATOM     36  C   UNL A   1      43.135  25.480  26.990  1.00  0.00     0.031 C 
ATOM     37  C   UNL A   1      38.787  27.201  28.843  1.00  0.00     0.029 A 
ATOM     38  N   UNL A   1      40.568  28.553  28.943  1.00  0.00    -0.354 N 
ATOM     39  C   UNL A   1      44.366  27.370  27.318  1.00  0.00     0.074 A 
ATOM     40  C   UNL A   1      44.333  26.014  26.824  1.00  0.00     0.031 C 
ATOM     41  C   UNL A   1      38.397  28.352  29.424  1.00  0.00     0.029 A 
ATOM     42  C   UNL A   1      39.547  29.252  29.549  1.00  0.00     0.049 A 
ATOM     43  H   UNL A   1      41.472  28.922  28.822  1.00  0.00     0.167 HD
ATOM     44  C   UNL A   1      45.460  28.161  27.265  1.00  0.00     0.034 A 
ATOM     45  C   UNL A   1      39.547  30.466  30.147  1.00  0.00     0.034 A 
ATOM     46  C   UNL A   1      45.526  29.487  27.804  1.00  0.00     0.049 A 
ATOM     47  C   UNL A   1      40.824  31.284  30.191  1.00  0.00     0.074 A 
ATOM     48  C   UNL A   1      46.611  30.345  27.813  1.00  0.00     0.029 A 
ATOM     49  N   UNL A   1      44.488  30.136  28.447  1.00  0.00    -0.354 N 
ATOM     50  N   UNL A   1      41.989  31.026  29.646  1.00  0.00    -0.248 NA
ATOM     51  C   UNL A   1      40.790  32.555  30.937  1.00  0.00     0.031 C 
ATOM     52  C   UNL A   1      46.248  31.491  28.517  1.00  0.00     0.029 A 
ATOM     53  C   UNL A   1      44.917  31.375  28.889  1.00  0.00     0.049 A 
ATOM     54  H   UNL A   1      43.582  29.772  28.572  1.00  0.00     0.167 HD
ATOM     55  C   UNL A   1      42.810  32.112  29.953  1.00  0.00     0.074 A 
ATOM     56  C   UNL A   1      42.011  33.035  30.727  1.00  0.00     0.031 C 
ATOM     57  C   UNL A   1      44.109  32.318  29.622  1.00  0.00     0.034 A 
BRANCH  44  58
ATOM     58  C   UNL A   1      46.695  27.606  26.618  1.00  0.00     0.023 A 
ATOM     59  C   UNL A   1      46.946  27.856  25.260  1.00  0.00     0.031 A 
ATOM     60  C   UNL A   1      47.562  26.755  27.323  1.00  0.00     0.131 A 
ATOM     61  C   UNL A   1      48.025  27.229  24.633  1.00  0.00     0.055 A 
ATOM     62  C   UNL A   1      48.656  26.157  26.701  1.00  0.00     0.041 A 
ATOM     63  F   UNL A   1      47.362  26.506  28.628  1.00  0.00    -0.206 F 
ATOM     64  C   UNL A   1      48.885  26.385  25.347  1.00  0.00     0.022 A 
BRANCH  61  65
ATOM     65  S   UNL A   1      48.336  27.461  22.864  1.00  0.00     0.124 S 
ATOM     66  O   UNL A   1      48.410  26.081  22.386  1.00  0.00    -0.237 OA
ATOM     67  O   UNL A   1      47.153  28.205  22.444  1.00  0.00    -0.237 OA
ATOM     68  O   UNL A   1      49.596  28.196  22.823  1.00  0.00    -0.744 OA
ENDBRANCH  61  65
ENDBRANCH  44  58
BRANCH  45  69
ATOM     69  C   UNL A   1      38.289  30.999  30.752  1.00  0.00     0.023 A 
ATOM     70  C   UNL A   1      37.318  31.645  29.966  1.00  0.00     0.031 A 
ATOM     71  C   UNL A   1      38.050  30.885  32.133  1.00  0.00     0.131 A 
ATOM     72  C   UNL A   1      36.176  32.187  30.573  1.00  0.00     0.055 A 
ATOM     73  C   UNL A   1      36.884  31.376  32.725  1.00  0.00     0.041 A 
ATOM     74  F   UNL A   1      38.943  30.272  32.925  1.00  0.00    -0.206 F 
ATOM     75  C   UNL A   1      35.943  32.040  31.944  1.00  0.00     0.022 A 
BRANCH  72  76
ATOM     76  S   UNL A   1      34.977  33.150  29.610  1.00  0.00     0.124 S 
ATOM     77  O   UNL A   1      34.029  33.579  30.633  1.00  0.00    -0.237 OA
ATOM     78  O   UNL A   1      35.824  34.203  29.055  1.00  0.00    -0.237 OA
ATOM     79  O   UNL A   1      34.461  32.188  28.641  1.00  0.00    -0.744 OA
ENDBRANCH  72  76
ENDBRANCH  45  69
BRANCH  57  80
ATOM     80  C   UNL A   1      44.805  33.588  30.046  1.00  0.00     0.023 A 
ATOM     81  C   UNL A   1      44.855  34.681  29.157  1.00  0.00     0.031 A 
ATOM     82  C   UNL A   1      45.614  33.624  31.192  1.00  0.00     0.131 A 
ATOM     83  C   UNL A   1      45.754  35.729  29.391  1.00  0.00     0.055 A 
ATOM     84  C   UNL A   1      46.475  34.695  31.445  1.00  0.00     0.041 A 
ATOM     85  F   UNL A   1      45.612  32.599  32.060  1.00  0.00    -0.206 F 
ATOM     86  C   UNL A   1      46.561  35.743  30.532  1.00  0.00     0.022 A 
BRANCH  83  87
ATOM     87  S   UNL A   1      45.977  37.057  28.173  1.00  0.00     0.124 S 
ATOM     88  O   UNL A   1      45.003  38.050  28.621  1.00  0.00    -0.237 OA
ATOM     89  O   UNL A   1      47.377  37.422  28.374  1.00  0.00    -0.237 OA
ATOM     90  O   UNL A   1      45.667  36.419  26.898  1.00  0.00    -0.744 OA
ENDBRANCH  83  87
ENDBRANCH  57  80
ENDBRANCH  31  32
ENDBRANCH  24  26
ENDBRANCH  23  24
ENDBRANCH   1  23
TORSDOF 16
ENDMDL
