MODEL 1
REMARK VINA RESULT:     -10.5      0.000      0.000
REMARK SMILES Cc1cc(NC(=O)CCC(=O)OCCOC(=O)c2ccc(-c3c4nc(c(-c5cc(S(=O)(=O)[O-])ccc5F)c5ccc([nH]5)c(-c5cc(S(=O)(=O)[O-])ccc5F)c5nc(c(-c6cc(S(=O)(=O)[O-])ccc6F)c6ccc3[nH]6)C=C5)C=C4)cc2)ccc1S(=O)(=O)[O-]
REMARK SMILES IDX 13 1 12 2 10 3 11 4 9 5 8 6 6 7 5 8 7 10 4 11 1 12 2 13 3 14
REMARK SMILES IDX 83 15 82 16 81 17 84 18 85 19 86 20 87 21 14 22 15 23 16 24
REMARK SMILES IDX 17 25 18 26 19 27 80 28 20 29 79 30 21 31 22 32 23 33 73 34
REMARK SMILES IDX 24 35 78 36 72 37 74 38 25 39 77 40 71 41 70 42 26 44 58 45
REMARK SMILES IDX 38 46 57 47 39 48 42 49 56 50 75 51 40 52 41 53 55 55 76 56
REMARK SMILES IDX 43 57 27 58 28 59 36 60 29 61 35 62 37 63 34 64 30 65 31 66
REMARK SMILES IDX 32 67 33 68 59 69 60 70 68 71 61 72 67 73 69 74 66 75 62 76
REMARK SMILES IDX 63 77 64 78 65 79 44 80 45 81 53 82 46 83 52 84 54 85 51 86
REMARK SMILES IDX 47 87 48 88 49 89 50 90
REMARK H PARENT 5 9 74 43 42 54
REMARK Flexibility Score: inf
ROOT
ATOM      1  C   UNL A   1      34.985  31.645  29.275  1.00  0.00     0.274 C 
ENDROOT
BRANCH   1   2
ATOM      2  O   UNL A   1      35.167  32.794  28.461  1.00  0.00    -0.462 OA
BRANCH   2   3
ATOM      3  C   UNL A   1      35.349  33.906  29.212  1.00  0.00     0.306 C 
ATOM      4  O   UNL A   1      36.382  34.557  29.217  1.00  0.00    -0.252 OA
BRANCH   3   5
ATOM      5  C   UNL A   1      34.130  34.198  30.041  1.00  0.00     0.132 C 
BRANCH   5   6
ATOM      6  C   UNL A   1      34.468  34.955  31.330  1.00  0.00     0.112 C 
BRANCH   6   7
ATOM      7  C   UNL A   1      33.589  34.556  32.493  1.00  0.00     0.224 C 
ATOM      8  N   UNL A   1      34.064  33.938  33.621  1.00  0.00    -0.326 N 
ATOM      9  H   UNL A   1      33.376  33.818  34.313  1.00  0.00     0.169 HD
ATOM     10  O   UNL A   1      32.409  34.931  32.497  1.00  0.00    -0.275 OA
BRANCH   8  11
ATOM     11  C   UNL A   1      35.326  33.434  34.001  1.00  0.00     0.041 A 
ATOM     12  C   UNL A   1      37.964  33.622  36.755  1.00  0.00     0.046 C 
ATOM     13  C   UNL A   1      37.268  33.195  35.491  1.00  0.00    -0.032 A 
ATOM     14  C   UNL A   1      36.061  33.851  35.112  1.00  0.00     0.030 A 
ATOM     15  C   UNL A   1      37.694  32.081  34.742  1.00  0.00     0.057 A 
ATOM     16  C   UNL A   1      37.032  31.748  33.551  1.00  0.00     0.021 A 
ATOM     17  C   UNL A   1      35.871  32.437  33.179  1.00  0.00     0.027 A 
BRANCH  15  18
ATOM     18  S   UNL A   1      38.838  30.852  35.424  1.00  0.00     0.124 S 
ATOM     19  O   UNL A   1      40.138  31.482  35.458  1.00  0.00    -0.237 OA
ATOM     20  O   UNL A   1      38.210  30.325  36.621  1.00  0.00    -0.237 OA
ATOM     21  O   UNL A   1      38.902  29.697  34.302  1.00  0.00    -0.744 OA
ENDBRANCH  15  18
ENDBRANCH   8  11
ENDBRANCH   6   7
ENDBRANCH   5   6
ENDBRANCH   3   5
ENDBRANCH   2   3
ENDBRANCH   1   2
BRANCH   1  22
ATOM     22  C   UNL A   1      36.350  31.233  29.852  1.00  0.00     0.275 C 
BRANCH  22  23
ATOM     23  O   UNL A   1      36.593  29.744  30.017  1.00  0.00    -0.458 OA
BRANCH  23  24
ATOM     24  C   UNL A   1      37.655  28.854  30.117  1.00  0.00     0.338 C 
ATOM     25  O   UNL A   1      37.980  28.311  31.167  1.00  0.00    -0.246 OA
BRANCH  24  26
ATOM     26  C   UNL A   1      38.366  28.456  28.901  1.00  0.00     0.060 A 
ATOM     27  C   UNL A   1      39.012  29.325  27.995  1.00  0.00     0.016 A 
ATOM     28  C   UNL A   1      38.833  27.219  29.042  1.00  0.00     0.016 A 
ATOM     29  C   UNL A   1      40.293  28.959  27.529  1.00  0.00     0.010 A 
ATOM     30  C   UNL A   1      40.150  27.354  29.214  1.00  0.00     0.010 A 
ATOM     31  C   UNL A   1      40.909  27.942  28.237  1.00  0.00    -0.014 A 
BRANCH  31  32
ATOM     32  C   UNL A   1      42.240  27.323  28.295  1.00  0.00     0.031 A 
ATOM     33  C   UNL A   1      42.388  25.996  27.693  1.00  0.00     0.074 A 
ATOM     34  C   UNL A   1      43.260  28.191  28.600  1.00  0.00     0.049 A 
ATOM     35  N   UNL A   1      42.579  24.874  28.304  1.00  0.00    -0.248 NA
ATOM     36  C   UNL A   1      42.216  25.841  26.242  1.00  0.00     0.031 C 
ATOM     37  C   UNL A   1      44.705  28.154  28.530  1.00  0.00     0.029 A 
ATOM     38  N   UNL A   1      43.059  29.507  29.088  1.00  0.00    -0.354 N 
ATOM     39  C   UNL A   1      43.075  24.046  27.307  1.00  0.00     0.074 A 
ATOM     40  C   UNL A   1      42.510  24.549  26.070  1.00  0.00     0.031 C 
ATOM     41  C   UNL A   1      45.196  29.155  29.306  1.00  0.00     0.029 A 
ATOM     42  C   UNL A   1      44.092  29.910  29.901  1.00  0.00     0.049 A 
ATOM     43  H   UNL A   1      42.276  30.063  28.872  1.00  0.00     0.167 HD
ATOM     44  C   UNL A   1      44.358  23.570  27.386  1.00  0.00     0.034 A 
ATOM     45  C   UNL A   1      43.681  30.080  31.189  1.00  0.00     0.034 A 
ATOM     46  C   UNL A   1      45.134  24.278  28.417  1.00  0.00     0.049 A 
ATOM     47  C   UNL A   1      43.933  28.787  31.916  1.00  0.00     0.074 A 
ATOM     48  C   UNL A   1      46.244  25.106  28.384  1.00  0.00     0.029 A 
ATOM     49  N   UNL A   1      44.611  24.422  29.695  1.00  0.00    -0.354 N 
ATOM     50  N   UNL A   1      44.374  27.698  31.347  1.00  0.00    -0.248 NA
ATOM     51  C   UNL A   1      43.751  28.636  33.342  1.00  0.00     0.031 C 
ATOM     52  C   UNL A   1      46.385  25.720  29.666  1.00  0.00     0.029 A 
ATOM     53  C   UNL A   1      45.356  25.279  30.478  1.00  0.00     0.049 A 
ATOM     54  H   UNL A   1      43.798  23.963  30.008  1.00  0.00     0.167 HD
ATOM     55  C   UNL A   1      44.541  26.705  32.263  1.00  0.00     0.074 A 
ATOM     56  C   UNL A   1      44.145  27.362  33.509  1.00  0.00     0.031 C 
ATOM     57  C   UNL A   1      44.982  25.458  31.884  1.00  0.00     0.034 A 
BRANCH  44  58
ATOM     58  C   UNL A   1      44.989  22.715  26.300  1.00  0.00     0.023 A 
ATOM     59  C   UNL A   1      44.606  21.369  26.156  1.00  0.00     0.031 A 
ATOM     60  C   UNL A   1      45.888  23.197  25.322  1.00  0.00     0.131 A 
ATOM     61  C   UNL A   1      45.135  20.554  25.139  1.00  0.00     0.055 A 
ATOM     62  C   UNL A   1      46.444  22.376  24.327  1.00  0.00     0.041 A 
ATOM     63  F   UNL A   1      46.237  24.493  25.268  1.00  0.00    -0.206 F 
ATOM     64  C   UNL A   1      46.068  21.043  24.232  1.00  0.00     0.022 A 
BRANCH  61  65
ATOM     65  S   UNL A   1      44.527  18.851  24.994  1.00  0.00     0.124 S 
ATOM     66  O   UNL A   1      44.532  18.650  23.548  1.00  0.00    -0.237 OA
ATOM     67  O   UNL A   1      45.521  18.100  25.751  1.00  0.00    -0.237 OA
ATOM     68  O   UNL A   1      43.201  18.911  25.607  1.00  0.00    -0.744 OA
ENDBRANCH  61  65
ENDBRANCH  44  58
BRANCH  45  69
ATOM     69  C   UNL A   1      42.435  30.962  31.272  1.00  0.00     0.023 A 
ATOM     70  C   UNL A   1      42.580  32.302  30.836  1.00  0.00     0.031 A 
ATOM     71  C   UNL A   1      41.115  30.474  31.343  1.00  0.00     0.131 A 
ATOM     72  C   UNL A   1      41.479  33.053  30.366  1.00  0.00     0.055 A 
ATOM     73  C   UNL A   1      40.010  31.244  30.910  1.00  0.00     0.041 A 
ATOM     74  F   UNL A   1      40.872  29.203  31.698  1.00  0.00    -0.206 F 
ATOM     75  C   UNL A   1      40.193  32.521  30.372  1.00  0.00     0.022 A 
BRANCH  72  76
ATOM     76  S   UNL A   1      41.809  34.643  29.543  1.00  0.00     0.124 S 
ATOM     77  O   UNL A   1      40.475  35.061  29.134  1.00  0.00    -0.237 OA
ATOM     78  O   UNL A   1      42.439  35.420  30.603  1.00  0.00    -0.237 OA
ATOM     79  O   UNL A   1      42.735  34.304  28.457  1.00  0.00    -0.744 OA
ENDBRANCH  72  76
ENDBRANCH  45  69
BRANCH  57  80
ATOM     80  C   UNL A   1      45.117  24.250  32.791  1.00  0.00     0.023 A 
ATOM     81  C   UNL A   1      46.214  24.070  33.625  1.00  0.00     0.031 A 
ATOM     82  C   UNL A   1      44.156  23.207  32.848  1.00  0.00     0.131 A 
ATOM     83  C   UNL A   1      46.328  22.974  34.488  1.00  0.00     0.055 A 
ATOM     84  C   UNL A   1      44.256  22.116  33.715  1.00  0.00     0.041 A 
ATOM     85  F   UNL A   1      43.070  23.174  32.066  1.00  0.00    -0.206 F 
ATOM     86  C   UNL A   1      45.350  21.994  34.551  1.00  0.00     0.022 A 
BRANCH  83  87
ATOM     87  S   UNL A   1      47.827  22.890  35.490  1.00  0.00     0.124 S 
ATOM     88  O   UNL A   1      47.370  23.428  36.769  1.00  0.00    -0.237 OA
ATOM     89  O   UNL A   1      48.118  21.460  35.479  1.00  0.00    -0.237 OA
ATOM     90  O   UNL A   1      48.773  23.729  34.760  1.00  0.00    -0.744 OA
ENDBRANCH  83  87
ENDBRANCH  57  80
ENDBRANCH  31  32
ENDBRANCH  24  26
ENDBRANCH  23  24
ENDBRANCH  22  23
ENDBRANCH   1  22
TORSDOF 18
ENDMDL
MODEL 2
REMARK VINA RESULT:     -10.0      3.334      5.498
REMARK SMILES Cc1cc(NC(=O)CCC(=O)OCCOC(=O)c2ccc(-c3c4nc(c(-c5cc(S(=O)(=O)[O-])ccc5F)c5ccc([nH]5)c(-c5cc(S(=O)(=O)[O-])ccc5F)c5nc(c(-c6cc(S(=O)(=O)[O-])ccc6F)c6ccc3[nH]6)C=C5)C=C4)cc2)ccc1S(=O)(=O)[O-]
REMARK SMILES IDX 13 1 12 2 10 3 11 4 9 5 8 6 6 7 5 8 7 10 4 11 1 12 2 13 3 14
REMARK SMILES IDX 83 15 82 16 81 17 84 18 85 19 86 20 87 21 14 22 15 23 16 24
REMARK SMILES IDX 17 25 18 26 19 27 80 28 20 29 79 30 21 31 22 32 23 33 73 34
REMARK SMILES IDX 24 35 78 36 72 37 74 38 25 39 77 40 71 41 70 42 26 44 58 45
REMARK SMILES IDX 38 46 57 47 39 48 42 49 56 50 75 51 40 52 41 53 55 55 76 56
REMARK SMILES IDX 43 57 27 58 28 59 36 60 29 61 35 62 37 63 34 64 30 65 31 66
REMARK SMILES IDX 32 67 33 68 59 69 60 70 68 71 61 72 67 73 69 74 66 75 62 76
REMARK SMILES IDX 63 77 64 78 65 79 44 80 45 81 53 82 46 83 52 84 54 85 51 86
REMARK SMILES IDX 47 87 48 88 49 89 50 90
REMARK H PARENT 5 9 74 43 42 54
REMARK Flexibility Score: inf
ROOT
ATOM      1  C   UNL A   1      35.397  32.361  30.613  1.00  0.00     0.274 C 
ENDROOT
BRANCH   1   2
ATOM      2  O   UNL A   1      36.111  32.686  29.429  1.00  0.00    -0.462 OA
BRANCH   2   3
ATOM      3  C   UNL A   1      35.327  32.569  28.332  1.00  0.00     0.306 C 
ATOM      4  O   UNL A   1      35.502  33.206  27.305  1.00  0.00    -0.252 OA
BRANCH   3   5
ATOM      5  C   UNL A   1      34.218  31.584  28.569  1.00  0.00     0.132 C 
BRANCH   5   6
ATOM      6  C   UNL A   1      34.040  30.611  27.398  1.00  0.00     0.112 C 
BRANCH   6   7
ATOM      7  C   UNL A   1      32.842  30.940  26.537  1.00  0.00     0.224 C 
ATOM      8  N   UNL A   1      32.407  30.141  25.512  1.00  0.00    -0.326 N 
ATOM      9  H   UNL A   1      31.571  30.458  25.103  1.00  0.00     0.169 HD
ATOM     10  O   UNL A   1      32.130  31.901  26.858  1.00  0.00    -0.275 OA
BRANCH   8  11
ATOM     11  C   UNL A   1      32.902  28.961  24.916  1.00  0.00     0.041 A 
ATOM     12  C   UNL A   1      33.701  25.298  25.641  1.00  0.00     0.046 C 
ATOM     13  C   UNL A   1      33.535  26.585  24.878  1.00  0.00    -0.032 A 
ATOM     14  C   UNL A   1      33.159  27.763  25.585  1.00  0.00     0.030 A 
ATOM     15  C   UNL A   1      33.607  26.636  23.472  1.00  0.00     0.057 A 
ATOM     16  C   UNL A   1      33.481  27.867  22.812  1.00  0.00     0.021 A 
ATOM     17  C   UNL A   1      33.154  29.020  23.537  1.00  0.00     0.027 A 
BRANCH  15  18
ATOM     18  S   UNL A   1      33.506  25.139  22.455  1.00  0.00     0.124 S 
ATOM     19  O   UNL A   1      33.293  25.584  21.097  1.00  0.00    -0.237 OA
ATOM     20  O   UNL A   1      34.644  24.316  22.822  1.00  0.00    -0.237 OA
ATOM     21  O   UNL A   1      32.148  24.418  22.935  1.00  0.00    -0.744 OA
ENDBRANCH  15  18
ENDBRANCH   8  11
ENDBRANCH   6   7
ENDBRANCH   5   6
ENDBRANCH   3   5
ENDBRANCH   2   3
ENDBRANCH   1   2
BRANCH   1  22
ATOM     22  C   UNL A   1      36.378  31.740  31.622  1.00  0.00     0.275 C 
BRANCH  22  23
ATOM     23  O   UNL A   1      37.343  30.704  31.078  1.00  0.00    -0.458 OA
BRANCH  23  24
ATOM     24  C   UNL A   1      37.509  29.325  31.057  1.00  0.00     0.338 C 
ATOM     25  O   UNL A   1      37.146  28.590  31.969  1.00  0.00    -0.246 OA
BRANCH  24  26
ATOM     26  C   UNL A   1      38.049  28.692  29.853  1.00  0.00     0.060 A 
ATOM     27  C   UNL A   1      38.453  29.357  28.675  1.00  0.00     0.016 A 
ATOM     28  C   UNL A   1      38.651  27.552  30.181  1.00  0.00     0.016 A 
ATOM     29  C   UNL A   1      39.671  28.965  28.080  1.00  0.00     0.010 A 
ATOM     30  C   UNL A   1      39.960  27.800  30.078  1.00  0.00     0.010 A 
ATOM     31  C   UNL A   1      40.489  28.181  28.874  1.00  0.00    -0.014 A 
BRANCH  31  32
ATOM     32  C   UNL A   1      41.867  27.672  28.829  1.00  0.00     0.031 A 
ATOM     33  C   UNL A   1      42.087  26.399  28.138  1.00  0.00     0.074 A 
ATOM     34  C   UNL A   1      42.829  28.601  29.138  1.00  0.00     0.049 A 
ATOM     35  N   UNL A   1      42.398  25.263  28.668  1.00  0.00    -0.248 NA
ATOM     36  C   UNL A   1      41.850  26.316  26.690  1.00  0.00     0.031 C 
ATOM     37  C   UNL A   1      44.267  28.687  28.995  1.00  0.00     0.029 A 
ATOM     38  N   UNL A   1      42.552  29.865  29.717  1.00  0.00    -0.354 N 
ATOM     39  C   UNL A   1      42.904  24.538  27.597  1.00  0.00     0.074 A 
ATOM     40  C   UNL A   1      42.235  25.065  26.424  1.00  0.00     0.031 C 
ATOM     41  C   UNL A   1      44.718  29.678  29.808  1.00  0.00     0.029 A 
ATOM     42  C   UNL A   1      43.591  30.304  30.502  1.00  0.00     0.049 A 
ATOM     43  H   UNL A   1      41.717  30.367  29.575  1.00  0.00     0.167 HD
ATOM     44  C   UNL A   1      44.223  24.165  27.584  1.00  0.00     0.034 A 
ATOM     45  C   UNL A   1      43.238  30.363  31.816  1.00  0.00     0.034 A 
ATOM     46  C   UNL A   1      44.994  24.873  28.619  1.00  0.00     0.049 A 
ATOM     47  C   UNL A   1      43.630  29.055  32.448  1.00  0.00     0.074 A 
ATOM     48  C   UNL A   1      46.033  25.790  28.583  1.00  0.00     0.029 A 
ATOM     49  N   UNL A   1      44.531  24.898  29.927  1.00  0.00    -0.354 N 
ATOM     50  N   UNL A   1      44.125  28.041  31.791  1.00  0.00    -0.248 NA
ATOM     51  C   UNL A   1      43.537  28.806  33.869  1.00  0.00     0.031 C 
ATOM     52  C   UNL A   1      46.193  26.338  29.893  1.00  0.00     0.029 A 
ATOM     53  C   UNL A   1      45.247  25.767  30.725  1.00  0.00     0.049 A 
ATOM     54  H   UNL A   1      43.775  24.357  30.249  1.00  0.00     0.167 HD
ATOM     55  C   UNL A   1      44.419  27.013  32.634  1.00  0.00     0.074 A 
ATOM     56  C   UNL A   1      44.039  27.562  33.936  1.00  0.00     0.031 C 
ATOM     57  C   UNL A   1      44.936  25.831  32.156  1.00  0.00     0.034 A 
BRANCH  44  58
ATOM     58  C   UNL A   1      44.861  23.430  26.417  1.00  0.00     0.023 A 
ATOM     59  C   UNL A   1      44.529  22.086  26.170  1.00  0.00     0.031 A 
ATOM     60  C   UNL A   1      45.714  24.029  25.463  1.00  0.00     0.131 A 
ATOM     61  C   UNL A   1      45.065  21.380  25.078  1.00  0.00     0.055 A 
ATOM     62  C   UNL A   1      46.278  23.318  24.391  1.00  0.00     0.041 A 
ATOM     63  F   UNL A   1      46.008  25.340  25.510  1.00  0.00    -0.206 F 
ATOM     64  C   UNL A   1      45.954  21.982  24.194  1.00  0.00     0.022 A 
BRANCH  61  65
ATOM     65  S   UNL A   1      44.525  19.670  24.805  1.00  0.00     0.124 S 
ATOM     66  O   UNL A   1      43.125  19.726  25.216  1.00  0.00    -0.237 OA
ATOM     67  O   UNL A   1      44.770  19.491  23.379  1.00  0.00    -0.237 OA
ATOM     68  O   UNL A   1      45.398  18.894  25.683  1.00  0.00    -0.744 OA
ENDBRANCH  61  65
ENDBRANCH  44  58
BRANCH  45  69
ATOM     69  C   UNL A   1      41.932  31.133  32.015  1.00  0.00     0.023 A 
ATOM     70  C   UNL A   1      41.034  30.616  32.980  1.00  0.00     0.031 A 
ATOM     71  C   UNL A   1      41.735  32.480  31.646  1.00  0.00     0.131 A 
ATOM     72  C   UNL A   1      40.092  31.440  33.636  1.00  0.00     0.055 A 
ATOM     73  C   UNL A   1      40.763  33.291  32.276  1.00  0.00     0.041 A 
ATOM     74  F   UNL A   1      42.561  33.080  30.776  1.00  0.00    -0.206 F 
ATOM     75  C   UNL A   1      39.969  32.788  33.310  1.00  0.00     0.022 A 
BRANCH  72  76
ATOM     76  S   UNL A   1      39.202  30.758  35.071  1.00  0.00     0.124 S 
ATOM     77  O   UNL A   1      40.293  30.370  35.954  1.00  0.00    -0.237 OA
ATOM     78  O   UNL A   1      38.387  31.889  35.499  1.00  0.00    -0.237 OA
ATOM     79  O   UNL A   1      38.406  29.659  34.515  1.00  0.00    -0.744 OA
ENDBRANCH  72  76
ENDBRANCH  45  69
BRANCH  57  80
ATOM     80  C   UNL A   1      45.214  24.588  32.978  1.00  0.00     0.023 A 
ATOM     81  C   UNL A   1      46.341  24.469  33.782  1.00  0.00     0.031 A 
ATOM     82  C   UNL A   1      44.368  23.448  32.978  1.00  0.00     0.131 A 
ATOM     83  C   UNL A   1      46.587  23.337  34.568  1.00  0.00     0.055 A 
ATOM     84  C   UNL A   1      44.599  22.319  33.769  1.00  0.00     0.041 A 
ATOM     85  F   UNL A   1      43.275  23.353  32.211  1.00  0.00    -0.206 F 
ATOM     86  C   UNL A   1      45.717  22.258  34.579  1.00  0.00     0.022 A 
BRANCH  83  87
ATOM     87  S   UNL A   1      48.107  23.345  35.540  1.00  0.00     0.124 S 
ATOM     88  O   UNL A   1      48.514  21.943  35.481  1.00  0.00    -0.237 OA
ATOM     89  O   UNL A   1      48.944  24.273  34.786  1.00  0.00    -0.237 OA
ATOM     90  O   UNL A   1      47.672  23.815  36.852  1.00  0.00    -0.744 OA
ENDBRANCH  83  87
ENDBRANCH  57  80
ENDBRANCH  31  32
ENDBRANCH  24  26
ENDBRANCH  23  24
ENDBRANCH  22  23
ENDBRANCH   1  22
TORSDOF 18
ENDMDL
MODEL 3
REMARK VINA RESULT:      -9.8      4.650      7.147
REMARK SMILES Cc1cc(NC(=O)CCC(=O)OCCOC(=O)c2ccc(-c3c4nc(c(-c5cc(S(=O)(=O)[O-])ccc5F)c5ccc([nH]5)c(-c5cc(S(=O)(=O)[O-])ccc5F)c5nc(c(-c6cc(S(=O)(=O)[O-])ccc6F)c6ccc3[nH]6)C=C5)C=C4)cc2)ccc1S(=O)(=O)[O-]
REMARK SMILES IDX 13 1 12 2 10 3 11 4 9 5 8 6 6 7 5 8 7 10 4 11 1 12 2 13 3 14
REMARK SMILES IDX 83 15 82 16 81 17 84 18 85 19 86 20 87 21 14 22 15 23 16 24
REMARK SMILES IDX 17 25 18 26 19 27 80 28 20 29 79 30 21 31 22 32 23 33 73 34
REMARK SMILES IDX 24 35 78 36 72 37 74 38 25 39 77 40 71 41 70 42 26 44 58 45
REMARK SMILES IDX 38 46 57 47 39 48 42 49 56 50 75 51 40 52 41 53 55 55 76 56
REMARK SMILES IDX 43 57 27 58 28 59 36 60 29 61 35 62 37 63 34 64 30 65 31 66
REMARK SMILES IDX 32 67 33 68 59 69 60 70 68 71 61 72 67 73 69 74 66 75 62 76
REMARK SMILES IDX 63 77 64 78 65 79 44 80 45 81 53 82 46 83 52 84 54 85 51 86
REMARK SMILES IDX 47 87 48 88 49 89 50 90
REMARK H PARENT 5 9 74 43 42 54
REMARK Flexibility Score: inf
ROOT
ATOM      1  C   UNL A   1      33.332  30.503  27.391  1.00  0.00     0.274 C 
ENDROOT
BRANCH   1   2
ATOM      2  O   UNL A   1      33.329  29.087  27.281  1.00  0.00    -0.462 OA
BRANCH   2   3
ATOM      3  C   UNL A   1      33.139  28.692  26.000  1.00  0.00     0.306 C 
ATOM      4  O   UNL A   1      33.939  28.012  25.375  1.00  0.00    -0.252 OA
BRANCH   3   5
ATOM      5  C   UNL A   1      31.841  29.225  25.462  1.00  0.00     0.132 C 
BRANCH   5   6
ATOM      6  C   UNL A   1      31.669  28.943  23.966  1.00  0.00     0.112 C 
BRANCH   6   7
ATOM      7  C   UNL A   1      30.234  28.669  23.580  1.00  0.00     0.224 C 
ATOM      8  N   UNL A   1      29.626  27.452  23.750  1.00  0.00    -0.326 N 
ATOM      9  H   UNL A   1      28.670  27.463  23.520  1.00  0.00     0.169 HD
ATOM     10  O   UNL A   1      29.525  29.621  23.226  1.00  0.00    -0.275 OA
BRANCH   8  11
ATOM     11  C   UNL A   1      30.078  26.186  24.181  1.00  0.00     0.041 A 
ATOM     12  C   UNL A   1      32.036  23.112  23.043  1.00  0.00     0.046 C 
ATOM     13  C   UNL A   1      31.260  24.044  23.935  1.00  0.00    -0.032 A 
ATOM     14  C   UNL A   1      30.725  25.243  23.382  1.00  0.00     0.030 A 
ATOM     15  C   UNL A   1      31.161  23.839  25.325  1.00  0.00     0.057 A 
ATOM     16  C   UNL A   1      30.395  24.718  26.105  1.00  0.00     0.021 A 
ATOM     17  C   UNL A   1      29.842  25.868  25.527  1.00  0.00     0.027 A 
BRANCH  15  18
ATOM     18  S   UNL A   1      32.257  22.695  26.204  1.00  0.00     0.124 S 
ATOM     19  O   UNL A   1      32.058  22.943  27.614  1.00  0.00    -0.237 OA
ATOM     20  O   UNL A   1      32.039  21.386  25.618  1.00  0.00    -0.237 OA
ATOM     21  O   UNL A   1      33.742  23.203  25.840  1.00  0.00    -0.744 OA
ENDBRANCH  15  18
ENDBRANCH   8  11
ENDBRANCH   6   7
ENDBRANCH   5   6
ENDBRANCH   3   5
ENDBRANCH   2   3
ENDBRANCH   1   2
BRANCH   1  22
ATOM     22  C   UNL A   1      34.781  30.975  27.597  1.00  0.00     0.275 C 
BRANCH  22  23
ATOM     23  O   UNL A   1      35.084  31.677  28.907  1.00  0.00    -0.458 OA
BRANCH  23  24
ATOM     24  C   UNL A   1      35.754  32.802  29.370  1.00  0.00     0.338 C 
ATOM     25  O   UNL A   1      35.501  33.940  28.991  1.00  0.00    -0.246 OA
BRANCH  24  26
ATOM     26  C   UNL A   1      36.744  32.650  30.438  1.00  0.00     0.060 A 
ATOM     27  C   UNL A   1      36.676  31.732  31.509  1.00  0.00     0.016 A 
ATOM     28  C   UNL A   1      37.940  33.026  29.994  1.00  0.00     0.016 A 
ATOM     29  C   UNL A   1      37.848  31.019  31.842  1.00  0.00     0.010 A 
ATOM     30  C   UNL A   1      38.628  31.893  29.827  1.00  0.00     0.010 A 
ATOM     31  C   UNL A   1      38.857  31.070  30.897  1.00  0.00    -0.014 A 
BRANCH  31  32
ATOM     32  C   UNL A   1      40.144  30.402  30.659  1.00  0.00     0.031 A 
ATOM     33  C   UNL A   1      40.126  29.186  29.843  1.00  0.00     0.074 A 
ATOM     34  C   UNL A   1      41.246  31.172  30.938  1.00  0.00     0.049 A 
ATOM     35  N   UNL A   1      40.335  27.974  30.237  1.00  0.00    -0.248 NA
ATOM     36  C   UNL A   1      39.741  29.275  28.428  1.00  0.00     0.031 C 
ATOM     37  C   UNL A   1      42.662  31.096  30.648  1.00  0.00     0.029 A 
ATOM     38  N   UNL A   1      41.196  32.398  31.650  1.00  0.00    -0.354 N 
ATOM     39  C   UNL A   1      40.634  27.302  29.060  1.00  0.00     0.074 A 
ATOM     40  C   UNL A   1      39.930  28.018  28.016  1.00  0.00     0.031 C 
ATOM     41  C   UNL A   1      43.317  31.939  31.488  1.00  0.00     0.029 A 
ATOM     42  C   UNL A   1      42.355  32.627  32.351  1.00  0.00     0.049 A 
ATOM     43  H   UNL A   1      40.424  33.009  31.642  1.00  0.00     0.167 HD
ATOM     44  C   UNL A   1      41.885  26.773  28.871  1.00  0.00     0.034 A 
ATOM     45  C   UNL A   1      42.142  32.600  33.696  1.00  0.00     0.034 A 
ATOM     46  C   UNL A   1      42.840  27.276  29.872  1.00  0.00     0.049 A 
ATOM     47  C   UNL A   1      42.418  31.198  34.168  1.00  0.00     0.074 A 
ATOM     48  C   UNL A   1      43.982  28.059  29.802  1.00  0.00     0.029 A 
ATOM     49  N   UNL A   1      42.514  27.230  31.220  1.00  0.00    -0.354 N 
ATOM     50  N   UNL A   1      42.709  30.201  33.377  1.00  0.00    -0.248 NA
ATOM     51  C   UNL A   1      42.432  30.825  35.564  1.00  0.00     0.031 C 
ATOM     52  C   UNL A   1      44.340  28.452  31.128  1.00  0.00     0.029 A 
ATOM     53  C   UNL A   1      43.412  27.922  32.006  1.00  0.00     0.049 A 
ATOM     54  H   UNL A   1      41.728  26.756  31.576  1.00  0.00     0.167 HD
ATOM     55  C   UNL A   1      42.945  29.067  34.093  1.00  0.00     0.074 A 
ATOM     56  C   UNL A   1      42.770  29.528  35.470  1.00  0.00     0.031 C 
ATOM     57  C   UNL A   1      43.253  27.883  33.463  1.00  0.00     0.034 A 
BRANCH  44  58
ATOM     58  C   UNL A   1      42.304  26.084  27.584  1.00  0.00     0.023 A 
ATOM     59  C   UNL A   1      42.141  24.693  27.448  1.00  0.00     0.031 A 
ATOM     60  C   UNL A   1      42.768  26.755  26.430  1.00  0.00     0.131 A 
ATOM     61  C   UNL A   1      42.478  24.021  26.260  1.00  0.00     0.055 A 
ATOM     62  C   UNL A   1      43.137  26.082  25.254  1.00  0.00     0.041 A 
ATOM     63  F   UNL A   1      42.848  28.095  26.383  1.00  0.00    -0.206 F 
ATOM     64  C   UNL A   1      42.994  24.704  25.164  1.00  0.00     0.022 A 
BRANCH  61  65
ATOM     65  S   UNL A   1      42.167  22.236  26.159  1.00  0.00     0.124 S 
ATOM     66  O   UNL A   1      40.716  22.190  26.008  1.00  0.00    -0.237 OA
ATOM     67  O   UNL A   1      42.949  21.851  24.989  1.00  0.00    -0.237 OA
ATOM     68  O   UNL A   1      42.675  21.732  27.433  1.00  0.00    -0.744 OA
ENDBRANCH  61  65
ENDBRANCH  44  58
BRANCH  45  69
ATOM     69  C   UNL A   1      40.975  33.501  34.101  1.00  0.00     0.023 A 
ATOM     70  C   UNL A   1      39.858  32.861  34.690  1.00  0.00     0.031 A 
ATOM     71  C   UNL A   1      41.076  34.891  34.315  1.00  0.00     0.131 A 
ATOM     72  C   UNL A   1      38.980  33.548  35.559  1.00  0.00     0.055 A 
ATOM     73  C   UNL A   1      40.171  35.584  35.152  1.00  0.00     0.041 A 
ATOM     74  F   UNL A   1      42.122  35.583  33.840  1.00  0.00    -0.206 F 
ATOM     75  C   UNL A   1      39.147  34.906  35.819  1.00  0.00     0.022 A 
BRANCH  72  76
ATOM     76  S   UNL A   1      37.767  32.575  36.506  1.00  0.00     0.124 S 
ATOM     77  O   UNL A   1      36.687  33.534  36.698  1.00  0.00    -0.237 OA
ATOM     78  O   UNL A   1      37.495  31.457  35.611  1.00  0.00    -0.237 OA
ATOM     79  O   UNL A   1      38.491  32.175  37.718  1.00  0.00    -0.744 OA
ENDBRANCH  72  76
ENDBRANCH  45  69
BRANCH  57  80
ATOM     80  C   UNL A   1      43.444  26.540  34.141  1.00  0.00     0.023 A 
ATOM     81  C   UNL A   1      44.659  25.865  34.117  1.00  0.00     0.031 A 
ATOM     82  C   UNL A   1      42.406  25.861  34.831  1.00  0.00     0.131 A 
ATOM     83  C   UNL A   1      44.850  24.641  34.769  1.00  0.00     0.055 A 
ATOM     84  C   UNL A   1      42.591  24.646  35.495  1.00  0.00     0.041 A 
ATOM     85  F   UNL A   1      41.152  26.325  34.898  1.00  0.00    -0.206 F 
ATOM     86  C   UNL A   1      43.826  24.025  35.471  1.00  0.00     0.022 A 
BRANCH  83  87
ATOM     87  S   UNL A   1      46.487  23.896  34.621  1.00  0.00     0.124 S 
ATOM     88  O   UNL A   1      46.982  23.975  35.993  1.00  0.00    -0.237 OA
ATOM     89  O   UNL A   1      46.167  22.554  34.145  1.00  0.00    -0.237 OA
ATOM     90  O   UNL A   1      47.168  24.758  33.660  1.00  0.00    -0.744 OA
ENDBRANCH  83  87
ENDBRANCH  57  80
ENDBRANCH  31  32
ENDBRANCH  24  26
ENDBRANCH  23  24
ENDBRANCH  22  23
ENDBRANCH   1  22
TORSDOF 18
ENDMDL
