MODEL 1
REMARK VINA RESULT:     -11.6      0.000      0.000
REMARK SMILES O=C(/C=C/c1cc(F)cc(CN2CCCCC2=O)c1)OCCOC(=O)c1ccc(-c2c3nc(c(-c4cc(S(=O)(=O)[O-])ccc4F)c4ccc([nH]4)c(-c4cc(S(=O)(=O)[O-])ccc4F)c4nc(c(-c5cc(S(=O)(=O)[O-])ccc5F)c5ccc2[nH]5)C=C4)C=C3)cc1
REMARK SMILES IDX 21 1 20 2 2 3 1 4 3 5 4 6 5 7 6 8 19 9 7 10 10 11 8 12 9 13
REMARK SMILES IDX 11 14 12 15 13 16 17 17 14 18 16 19 18 20 15 21 22 22 23 23
REMARK SMILES IDX 24 24 25 25 26 26 27 27 88 28 28 29 87 30 29 31 30 32 31 33
REMARK SMILES IDX 81 34 32 35 86 36 80 37 82 38 33 39 85 40 79 41 78 42 34 44
REMARK SMILES IDX 66 45 46 46 65 47 47 48 50 49 64 50 83 51 48 52 49 53 63 55
REMARK SMILES IDX 84 56 51 57 35 58 36 59 44 60 37 61 43 62 45 63 42 64 38 65
REMARK SMILES IDX 39 66 40 67 41 68 67 69 68 70 76 71 69 72 75 73 77 74 74 75
REMARK SMILES IDX 70 76 71 77 72 78 73 79 52 80 53 81 61 82 54 83 60 84 62 85
REMARK SMILES IDX 59 86 55 87 56 88 57 89 58 90
REMARK H PARENT 82 43 50 54
REMARK Flexibility Score: inf
ROOT
ATOM      1  C   UNL A   1      43.324  21.578  25.842  1.00  0.00     0.275 C 
ENDROOT
BRANCH   1   2
ATOM      2  O   UNL A   1      41.998  21.038  25.680  1.00  0.00    -0.459 OA
BRANCH   2   3
ATOM      3  C   UNL A   1      41.029  20.910  26.615  1.00  0.00     0.330 C 
ATOM      4  O   UNL A   1      41.304  20.512  27.744  1.00  0.00    -0.247 OA
BRANCH   3   5
ATOM      5  C   UNL A   1      39.609  21.060  26.254  1.00  0.00     0.094 C 
ATOM      6  C   UNL A   1      38.935  22.179  25.952  1.00  0.00     0.016 C 
BRANCH   6   7
ATOM      7  C   UNL A   1      37.545  22.161  25.478  1.00  0.00    -0.022 A 
ATOM      8  C   UNL A   1      36.883  20.967  25.199  1.00  0.00     0.047 A 
ATOM      9  C   UNL A   1      36.851  23.382  25.349  1.00  0.00     0.014 A 
ATOM     10  C   UNL A   1      35.556  21.001  24.799  1.00  0.00     0.124 A 
ATOM     11  C   UNL A   1      35.502  23.425  24.946  1.00  0.00    -0.025 A 
ATOM     12  F   UNL A   1      34.913  19.850  24.570  1.00  0.00    -0.207 F 
ATOM     13  C   UNL A   1      34.868  22.205  24.675  1.00  0.00     0.044 A 
BRANCH  11  14
ATOM     14  C   UNL A   1      34.734  24.737  24.957  1.00  0.00     0.155 C 
BRANCH  14  15
ATOM     15  N   UNL A   1      33.373  24.677  24.425  1.00  0.00    -0.338 N 
ATOM     16  C   UNL A   1      32.280  24.374  25.342  1.00  0.00     0.120 C 
ATOM     17  C   UNL A   1      33.170  24.783  23.058  1.00  0.00     0.222 C 
ATOM     18  C   UNL A   1      31.058  23.819  24.624  1.00  0.00     0.022 C 
ATOM     19  C   UNL A   1      31.756  25.048  22.565  1.00  0.00     0.100 C 
ATOM     20  O   UNL A   1      34.096  24.707  22.250  1.00  0.00    -0.275 OA
ATOM     21  C   UNL A   1      30.635  24.814  23.565  1.00  0.00     0.012 C 
ENDBRANCH  14  15
ENDBRANCH  11  14
ENDBRANCH   6   7
ENDBRANCH   3   5
ENDBRANCH   2   3
ENDBRANCH   1   2
BRANCH   1  22
ATOM     22  C   UNL A   1      43.838  22.422  24.673  1.00  0.00     0.275 C 
BRANCH  22  23
ATOM     23  O   UNL A   1      43.258  23.733  24.617  1.00  0.00    -0.458 OA
BRANCH  23  24
ATOM     24  C   UNL A   1      44.067  24.729  25.069  1.00  0.00     0.338 C 
ATOM     25  O   UNL A   1      45.147  25.043  24.597  1.00  0.00    -0.246 OA
BRANCH  24  26
ATOM     26  C   UNL A   1      43.399  25.495  26.148  1.00  0.00     0.060 A 
ATOM     27  C   UNL A   1      43.798  26.823  26.343  1.00  0.00     0.016 A 
ATOM     28  C   UNL A   1      42.403  24.940  26.958  1.00  0.00     0.016 A 
ATOM     29  C   UNL A   1      43.221  27.590  27.358  1.00  0.00     0.010 A 
ATOM     30  C   UNL A   1      41.827  25.710  27.978  1.00  0.00     0.010 A 
ATOM     31  C   UNL A   1      42.246  27.033  28.198  1.00  0.00    -0.014 A 
BRANCH  31  32
ATOM     32  C   UNL A   1      41.746  27.806  29.365  1.00  0.00     0.031 A 
ATOM     33  C   UNL A   1      40.472  28.597  29.236  1.00  0.00     0.074 A 
ATOM     34  C   UNL A   1      42.391  27.772  30.546  1.00  0.00     0.049 A 
ATOM     35  N   UNL A   1      39.876  29.358  30.118  1.00  0.00    -0.248 NA
ATOM     36  C   UNL A   1      39.777  28.517  27.942  1.00  0.00     0.031 C 
ATOM     37  C   UNL A   1      43.602  27.004  30.825  1.00  0.00     0.029 A 
ATOM     38  N   UNL A   1      42.108  28.396  31.738  1.00  0.00    -0.354 N 
ATOM     39  C   UNL A   1      38.730  29.835  29.495  1.00  0.00     0.074 A 
ATOM     40  C   UNL A   1      38.735  29.311  28.145  1.00  0.00     0.031 C 
ATOM     41  C   UNL A   1      43.955  27.195  32.109  1.00  0.00     0.029 A 
ATOM     42  C   UNL A   1      43.016  28.124  32.735  1.00  0.00     0.049 A 
ATOM     43  H   UNL A   1      41.328  28.982  31.867  1.00  0.00     0.167 HD
ATOM     44  C   UNL A   1      37.752  30.623  30.005  1.00  0.00     0.034 A 
ATOM     45  C   UNL A   1      43.093  28.583  34.001  1.00  0.00     0.034 A 
ATOM     46  C   UNL A   1      37.748  31.153  31.345  1.00  0.00     0.049 A 
ATOM     47  C   UNL A   1      42.055  29.553  34.509  1.00  0.00     0.074 A 
ATOM     48  C   UNL A   1      36.801  31.969  31.942  1.00  0.00     0.029 A 
ATOM     49  N   UNL A   1      38.731  30.924  32.296  1.00  0.00    -0.354 N 
ATOM     50  N   UNL A   1      40.999  30.029  33.892  1.00  0.00    -0.248 NA
ATOM     51  C   UNL A   1      42.222  30.052  35.883  1.00  0.00     0.031 C 
ATOM     52  C   UNL A   1      37.241  32.282  33.232  1.00  0.00     0.029 A 
ATOM     53  C   UNL A   1      38.427  31.606  33.464  1.00  0.00     0.049 A 
ATOM     54  H   UNL A   1      39.527  30.360  32.162  1.00  0.00     0.167 HD
ATOM     55  C   UNL A   1      40.364  30.860  34.814  1.00  0.00     0.074 A 
ATOM     56  C   UNL A   1      41.153  30.822  36.025  1.00  0.00     0.031 C 
ATOM     57  C   UNL A   1      39.223  31.577  34.667  1.00  0.00     0.034 A 
BRANCH  44  58
ATOM     58  C   UNL A   1      36.612  30.992  29.094  1.00  0.00     0.023 A 
ATOM     59  C   UNL A   1      35.738  30.016  28.584  1.00  0.00     0.031 A 
ATOM     60  C   UNL A   1      36.379  32.336  28.759  1.00  0.00     0.131 A 
ATOM     61  C   UNL A   1      34.690  30.398  27.735  1.00  0.00     0.055 A 
ATOM     62  C   UNL A   1      35.298  32.716  27.963  1.00  0.00     0.041 A 
ATOM     63  F   UNL A   1      37.197  33.303  29.205  1.00  0.00    -0.206 F 
ATOM     64  C   UNL A   1      34.448  31.744  27.442  1.00  0.00     0.022 A 
BRANCH  61  65
ATOM     65  S   UNL A   1      33.682  29.107  26.960  1.00  0.00     0.124 S 
ATOM     66  O   UNL A   1      33.283  29.756  25.713  1.00  0.00    -0.237 OA
ATOM     67  O   UNL A   1      34.624  28.000  26.832  1.00  0.00    -0.237 OA
ATOM     68  O   UNL A   1      32.599  28.896  27.919  1.00  0.00    -0.744 OA
ENDBRANCH  61  65
ENDBRANCH  44  58
BRANCH  45  69
ATOM     69  C   UNL A   1      44.215  28.159  34.885  1.00  0.00     0.023 A 
ATOM     70  C   UNL A   1      44.039  27.152  35.847  1.00  0.00     0.031 A 
ATOM     71  C   UNL A   1      45.469  28.789  34.806  1.00  0.00     0.131 A 
ATOM     72  C   UNL A   1      45.092  26.823  36.713  1.00  0.00     0.055 A 
ATOM     73  C   UNL A   1      46.527  28.429  35.641  1.00  0.00     0.041 A 
ATOM     74  F   UNL A   1      45.682  29.764  33.907  1.00  0.00    -0.206 F 
ATOM     75  C   UNL A   1      46.339  27.445  36.607  1.00  0.00     0.022 A 
BRANCH  72  76
ATOM     76  S   UNL A   1      44.801  25.596  38.017  1.00  0.00     0.124 S 
ATOM     77  O   UNL A   1      43.672  26.183  38.730  1.00  0.00    -0.237 OA
ATOM     78  O   UNL A   1      44.517  24.390  37.245  1.00  0.00    -0.237 OA
ATOM     79  O   UNL A   1      46.063  25.576  38.754  1.00  0.00    -0.744 OA
ENDBRANCH  72  76
ENDBRANCH  45  69
BRANCH  57  80
ATOM     80  C   UNL A   1      38.726  32.356  35.858  1.00  0.00     0.023 A 
ATOM     81  C   UNL A   1      38.002  31.741  36.894  1.00  0.00     0.031 A 
ATOM     82  C   UNL A   1      39.028  33.725  35.979  1.00  0.00     0.131 A 
ATOM     83  C   UNL A   1      37.581  32.502  37.996  1.00  0.00     0.055 A 
ATOM     84  C   UNL A   1      38.644  34.466  37.098  1.00  0.00     0.041 A 
ATOM     85  F   UNL A   1      39.722  34.358  35.020  1.00  0.00    -0.206 F 
ATOM     86  C   UNL A   1      37.913  33.856  38.112  1.00  0.00     0.022 A 
BRANCH  83  87
ATOM     87  S   UNL A   1      36.571  31.708  39.277  1.00  0.00     0.124 S 
ATOM     88  O   UNL A   1      37.381  31.916  40.473  1.00  0.00    -0.237 OA
ATOM     89  O   UNL A   1      35.325  32.465  39.212  1.00  0.00    -0.237 OA
ATOM     90  O   UNL A   1      36.474  30.321  38.828  1.00  0.00    -0.744 OA
ENDBRANCH  83  87
ENDBRANCH  57  80
ENDBRANCH  31  32
ENDBRANCH  24  26
ENDBRANCH  23  24
ENDBRANCH  22  23
ENDBRANCH   1  22
TORSDOF 17
ENDMDL
MODEL 2
REMARK VINA RESULT:     -11.5      4.913      9.406
REMARK SMILES O=C(/C=C/c1cc(F)cc(CN2CCCCC2=O)c1)OCCOC(=O)c1ccc(-c2c3nc(c(-c4cc(S(=O)(=O)[O-])ccc4F)c4ccc([nH]4)c(-c4cc(S(=O)(=O)[O-])ccc4F)c4nc(c(-c5cc(S(=O)(=O)[O-])ccc5F)c5ccc2[nH]5)C=C4)C=C3)cc1
REMARK SMILES IDX 21 1 20 2 2 3 1 4 3 5 4 6 5 7 6 8 19 9 7 10 10 11 8 12 9 13
REMARK SMILES IDX 11 14 12 15 13 16 17 17 14 18 16 19 18 20 15 21 22 22 23 23
REMARK SMILES IDX 24 24 25 25 26 26 27 27 88 28 28 29 87 30 29 31 30 32 31 33
REMARK SMILES IDX 81 34 32 35 86 36 80 37 82 38 33 39 85 40 79 41 78 42 34 44
REMARK SMILES IDX 66 45 46 46 65 47 47 48 50 49 64 50 83 51 48 52 49 53 63 55
REMARK SMILES IDX 84 56 51 57 35 58 36 59 44 60 37 61 43 62 45 63 42 64 38 65
REMARK SMILES IDX 39 66 40 67 41 68 67 69 68 70 76 71 69 72 75 73 77 74 74 75
REMARK SMILES IDX 70 76 71 77 72 78 73 79 52 80 53 81 61 82 54 83 60 84 62 85
REMARK SMILES IDX 59 86 55 87 56 88 57 89 58 90
REMARK H PARENT 82 43 50 54
REMARK Flexibility Score: inf
ROOT
ATOM      1  C   UNL A   1      37.010  20.968  24.626  1.00  0.00     0.275 C 
ENDROOT
BRANCH   1   2
ATOM      2  O   UNL A   1      35.805  20.870  25.412  1.00  0.00    -0.459 OA
BRANCH   2   3
ATOM      3  C   UNL A   1      34.528  21.056  25.009  1.00  0.00     0.330 C 
ATOM      4  O   UNL A   1      33.711  20.144  25.095  1.00  0.00    -0.247 OA
BRANCH   3   5
ATOM      5  C   UNL A   1      34.135  22.281  24.290  1.00  0.00     0.094 C 
ATOM      6  C   UNL A   1      33.212  22.428  23.330  1.00  0.00     0.016 C 
BRANCH   6   7
ATOM      7  C   UNL A   1      32.831  23.742  22.795  1.00  0.00    -0.022 A 
ATOM      8  C   UNL A   1      33.058  24.083  21.462  1.00  0.00     0.047 A 
ATOM      9  C   UNL A   1      32.176  24.662  23.641  1.00  0.00     0.014 A 
ATOM     10  C   UNL A   1      32.638  25.318  20.994  1.00  0.00     0.124 A 
ATOM     11  C   UNL A   1      31.744  25.917  23.171  1.00  0.00    -0.025 A 
ATOM     12  F   UNL A   1      32.823  25.624  19.704  1.00  0.00    -0.207 F 
ATOM     13  C   UNL A   1      31.987  26.225  21.825  1.00  0.00     0.044 A 
BRANCH  11  14
ATOM     14  C   UNL A   1      30.911  26.829  24.059  1.00  0.00     0.155 C 
BRANCH  14  15
ATOM     15  N   UNL A   1      31.632  27.467  25.161  1.00  0.00    -0.338 N 
ATOM     16  C   UNL A   1      32.819  28.256  24.851  1.00  0.00     0.120 C 
ATOM     17  C   UNL A   1      31.248  27.207  26.466  1.00  0.00     0.222 C 
ATOM     18  C   UNL A   1      33.748  28.399  26.048  1.00  0.00     0.022 C 
ATOM     19  C   UNL A   1      31.781  28.119  27.561  1.00  0.00     0.100 C 
ATOM     20  O   UNL A   1      30.471  26.296  26.753  1.00  0.00    -0.275 OA
ATOM     21  C   UNL A   1      32.962  29.002  27.192  1.00  0.00     0.012 C 
ENDBRANCH  14  15
ENDBRANCH  11  14
ENDBRANCH   6   7
ENDBRANCH   3   5
ENDBRANCH   2   3
ENDBRANCH   1   2
BRANCH   1  22
ATOM     22  C   UNL A   1      38.099  19.947  24.963  1.00  0.00     0.275 C 
BRANCH  22  23
ATOM     23  O   UNL A   1      38.645  20.107  26.280  1.00  0.00    -0.458 OA
BRANCH  23  24
ATOM     24  C   UNL A   1      40.002  20.187  26.324  1.00  0.00     0.338 C 
ATOM     25  O   UNL A   1      40.782  19.337  25.928  1.00  0.00    -0.246 OA
BRANCH  24  26
ATOM     26  C   UNL A   1      40.431  21.525  26.798  1.00  0.00     0.060 A 
ATOM     27  C   UNL A   1      39.864  22.645  26.178  1.00  0.00     0.016 A 
ATOM     28  C   UNL A   1      41.365  21.694  27.825  1.00  0.00     0.016 A 
ATOM     29  C   UNL A   1      40.244  23.932  26.566  1.00  0.00     0.010 A 
ATOM     30  C   UNL A   1      41.747  22.986  28.212  1.00  0.00     0.010 A 
ATOM     31  C   UNL A   1      41.205  24.113  27.571  1.00  0.00    -0.014 A 
BRANCH  31  32
ATOM     32  C   UNL A   1      41.711  25.478  27.873  1.00  0.00     0.031 A 
ATOM     33  C   UNL A   1      43.103  25.860  27.448  1.00  0.00     0.074 A 
ATOM     34  C   UNL A   1      40.928  26.389  28.480  1.00  0.00     0.049 A 
ATOM     35  N   UNL A   1      43.747  26.983  27.634  1.00  0.00    -0.248 NA
ATOM     36  C   UNL A   1      43.869  24.841  26.713  1.00  0.00     0.031 C 
ATOM     37  C   UNL A   1      39.544  26.170  28.895  1.00  0.00     0.029 A 
ATOM     38  N   UNL A   1      41.185  27.689  28.846  1.00  0.00    -0.354 N 
ATOM     39  C   UNL A   1      44.986  26.816  27.027  1.00  0.00     0.074 A 
ATOM     40  C   UNL A   1      45.019  25.466  26.503  1.00  0.00     0.031 C 
ATOM     41  C   UNL A   1      39.070  27.299  29.451  1.00  0.00     0.029 A 
ATOM     42  C   UNL A   1      40.125  28.311  29.464  1.00  0.00     0.049 A 
ATOM     43  H   UNL A   1      42.048  28.133  28.681  1.00  0.00     0.167 HD
ATOM     44  C   UNL A   1      45.998  27.709  26.902  1.00  0.00     0.034 A 
ATOM     45  C   UNL A   1      40.021  29.547  29.993  1.00  0.00     0.034 A 
ATOM     46  C   UNL A   1      45.971  29.050  27.429  1.00  0.00     0.049 A 
ATOM     47  C   UNL A   1      41.203  30.484  29.944  1.00  0.00     0.074 A 
ATOM     48  C   UNL A   1      46.957  30.020  27.357  1.00  0.00     0.029 A 
ATOM     49  N   UNL A   1      44.911  29.613  28.124  1.00  0.00    -0.354 N 
ATOM     50  N   UNL A   1      42.384  30.294  29.405  1.00  0.00    -0.248 NA
ATOM     51  C   UNL A   1      41.039  31.799  30.581  1.00  0.00     0.031 C 
ATOM     52  C   UNL A   1      46.518  31.147  28.059  1.00  0.00     0.029 A 
ATOM     53  C   UNL A   1      45.231  30.905  28.510  1.00  0.00     0.049 A 
ATOM     54  H   UNL A   1      44.057  29.161  28.315  1.00  0.00     0.167 HD
ATOM     55  C   UNL A   1      43.090  31.477  29.613  1.00  0.00     0.074 A 
ATOM     56  C   UNL A   1      42.207  32.372  30.328  1.00  0.00     0.031 C 
ATOM     57  C   UNL A   1      44.354  31.792  29.234  1.00  0.00     0.034 A 
BRANCH  44  58
ATOM     58  C   UNL A   1      47.243  27.253  26.190  1.00  0.00     0.023 A 
ATOM     59  C   UNL A   1      48.252  26.544  26.862  1.00  0.00     0.031 A 
ATOM     60  C   UNL A   1      47.405  27.503  24.816  1.00  0.00     0.131 A 
ATOM     61  C   UNL A   1      49.400  26.139  26.165  1.00  0.00     0.055 A 
ATOM     62  C   UNL A   1      48.520  27.044  24.115  1.00  0.00     0.041 A 
ATOM     63  F   UNL A   1      46.477  28.193  24.134  1.00  0.00    -0.206 F 
ATOM     64  C   UNL A   1      49.529  26.362  24.791  1.00  0.00     0.022 A 
BRANCH  61  65
ATOM     65  S   UNL A   1      50.758  25.376  27.090  1.00  0.00     0.124 S 
ATOM     66  O   UNL A   1      51.218  26.493  27.909  1.00  0.00    -0.237 OA
ATOM     67  O   UNL A   1      50.090  24.292  27.803  1.00  0.00    -0.237 OA
ATOM     68  O   UNL A   1      51.689  24.952  26.045  1.00  0.00    -0.744 OA
ENDBRANCH  61  65
ENDBRANCH  44  58
BRANCH  45  69
ATOM     69  C   UNL A   1      38.755  29.976  30.651  1.00  0.00     0.023 A 
ATOM     70  C   UNL A   1      37.821  30.775  29.974  1.00  0.00     0.031 A 
ATOM     71  C   UNL A   1      38.484  29.624  31.985  1.00  0.00     0.131 A 
ATOM     72  C   UNL A   1      36.672  31.223  30.643  1.00  0.00     0.055 A 
ATOM     73  C   UNL A   1      37.319  30.036  32.633  1.00  0.00     0.041 A 
ATOM     74  F   UNL A   1      39.352  28.867  32.676  1.00  0.00    -0.206 F 
ATOM     75  C   UNL A   1      36.408  30.847  31.963  1.00  0.00     0.022 A 
BRANCH  72  76
ATOM     76  S   UNL A   1      35.538  32.345  29.778  1.00  0.00     0.124 S 
ATOM     77  O   UNL A   1      35.330  31.642  28.517  1.00  0.00    -0.237 OA
ATOM     78  O   UNL A   1      34.396  32.386  30.687  1.00  0.00    -0.237 OA
ATOM     79  O   UNL A   1      36.298  33.590  29.683  1.00  0.00    -0.744 OA
ENDBRANCH  72  76
ENDBRANCH  45  69
BRANCH  57  80
ATOM     80  C   UNL A   1      44.854  33.179  29.545  1.00  0.00     0.023 A 
ATOM     81  C   UNL A   1      44.717  34.238  28.632  1.00  0.00     0.031 A 
ATOM     82  C   UNL A   1      45.433  33.452  30.799  1.00  0.00     0.131 A 
ATOM     83  C   UNL A   1      45.176  35.519  28.976  1.00  0.00     0.055 A 
ATOM     84  C   UNL A   1      45.848  34.737  31.152  1.00  0.00     0.041 A 
ATOM     85  F   UNL A   1      45.582  32.477  31.709  1.00  0.00    -0.206 F 
ATOM     86  C   UNL A   1      45.725  35.778  30.236  1.00  0.00     0.022 A 
BRANCH  83  87
ATOM     87  S   UNL A   1      45.069  36.849  27.747  1.00  0.00     0.124 S 
ATOM     88  O   UNL A   1      46.022  36.403  26.736  1.00  0.00    -0.237 OA
ATOM     89  O   UNL A   1      43.663  36.808  27.358  1.00  0.00    -0.237 OA
ATOM     90  O   UNL A   1      45.469  38.040  28.493  1.00  0.00    -0.744 OA
ENDBRANCH  83  87
ENDBRANCH  57  80
ENDBRANCH  31  32
ENDBRANCH  24  26
ENDBRANCH  23  24
ENDBRANCH  22  23
ENDBRANCH   1  22
TORSDOF 17
ENDMDL
MODEL 3
REMARK VINA RESULT:     -11.5      2.255      8.539
REMARK SMILES O=C(/C=C/c1cc(F)cc(CN2CCCCC2=O)c1)OCCOC(=O)c1ccc(-c2c3nc(c(-c4cc(S(=O)(=O)[O-])ccc4F)c4ccc([nH]4)c(-c4cc(S(=O)(=O)[O-])ccc4F)c4nc(c(-c5cc(S(=O)(=O)[O-])ccc5F)c5ccc2[nH]5)C=C4)C=C3)cc1
REMARK SMILES IDX 21 1 20 2 2 3 1 4 3 5 4 6 5 7 6 8 19 9 7 10 10 11 8 12 9 13
REMARK SMILES IDX 11 14 12 15 13 16 17 17 14 18 16 19 18 20 15 21 22 22 23 23
REMARK SMILES IDX 24 24 25 25 26 26 27 27 88 28 28 29 87 30 29 31 30 32 31 33
REMARK SMILES IDX 81 34 32 35 86 36 80 37 82 38 33 39 85 40 79 41 78 42 34 44
REMARK SMILES IDX 66 45 46 46 65 47 47 48 50 49 64 50 83 51 48 52 49 53 63 55
REMARK SMILES IDX 84 56 51 57 35 58 36 59 44 60 37 61 43 62 45 63 42 64 38 65
REMARK SMILES IDX 39 66 40 67 41 68 67 69 68 70 76 71 69 72 75 73 77 74 74 75
REMARK SMILES IDX 70 76 71 77 72 78 73 79 52 80 53 81 61 82 54 83 60 84 62 85
REMARK SMILES IDX 59 86 55 87 56 88 57 89 58 90
REMARK H PARENT 82 43 50 54
REMARK Flexibility Score: inf
ROOT
ATOM      1  C   UNL A   1      30.675  30.212  24.386  1.00  0.00     0.275 C 
ENDROOT
BRANCH   1   2
ATOM      2  O   UNL A   1      29.891  29.158  23.793  1.00  0.00    -0.459 OA
BRANCH   2   3
ATOM      3  C   UNL A   1      30.315  28.142  23.007  1.00  0.00     0.330 C 
ATOM      4  O   UNL A   1      30.280  28.248  21.784  1.00  0.00    -0.247 OA
BRANCH   3   5
ATOM      5  C   UNL A   1      30.649  26.830  23.586  1.00  0.00     0.094 C 
ATOM      6  C   UNL A   1      30.381  26.364  24.814  1.00  0.00     0.016 C 
BRANCH   6   7
ATOM      7  C   UNL A   1      30.658  24.977  25.211  1.00  0.00    -0.022 A 
ATOM      8  C   UNL A   1      30.015  24.385  26.297  1.00  0.00     0.047 A 
ATOM      9  C   UNL A   1      31.561  24.213  24.443  1.00  0.00     0.014 A 
ATOM     10  C   UNL A   1      30.277  23.058  26.603  1.00  0.00     0.124 A 
ATOM     11  C   UNL A   1      31.830  22.864  24.746  1.00  0.00    -0.025 A 
ATOM     12  F   UNL A   1      29.628  22.484  27.623  1.00  0.00    -0.207 F 
ATOM     13  C   UNL A   1      31.164  22.302  25.844  1.00  0.00     0.044 A 
BRANCH  11  14
ATOM     14  C   UNL A   1      32.691  22.021  23.818  1.00  0.00     0.155 C 
BRANCH  14  15
ATOM     15  N   UNL A   1      34.122  22.011  24.121  1.00  0.00    -0.338 N 
ATOM     16  C   UNL A   1      34.952  23.089  23.594  1.00  0.00     0.120 C 
ATOM     17  C   UNL A   1      34.670  20.927  24.786  1.00  0.00     0.222 C 
ATOM     18  C   UNL A   1      36.421  22.699  23.506  1.00  0.00     0.022 C 
ATOM     19  C   UNL A   1      36.064  21.081  25.374  1.00  0.00     0.100 C 
ATOM     20  O   UNL A   1      34.053  19.872  24.942  1.00  0.00    -0.275 OA
ATOM     21  C   UNL A   1      36.881  22.264  24.881  1.00  0.00     0.012 C 
ENDBRANCH  14  15
ENDBRANCH  11  14
ENDBRANCH   6   7
ENDBRANCH   3   5
ENDBRANCH   2   3
ENDBRANCH   1   2
BRANCH   1  22
ATOM     22  C   UNL A   1      31.486  29.813  25.622  1.00  0.00     0.275 C 
BRANCH  22  23
ATOM     23  O   UNL A   1      32.770  30.449  25.692  1.00  0.00    -0.458 OA
BRANCH  23  24
ATOM     24  C   UNL A   1      32.902  31.346  26.706  1.00  0.00     0.338 C 
ATOM     25  O   UNL A   1      32.155  32.283  26.934  1.00  0.00    -0.246 OA
BRANCH  24  26
ATOM     26  C   UNL A   1      34.014  30.957  27.606  1.00  0.00     0.060 A 
ATOM     27  C   UNL A   1      34.778  31.985  28.174  1.00  0.00     0.016 A 
ATOM     28  C   UNL A   1      34.314  29.623  27.897  1.00  0.00     0.016 A 
ATOM     29  C   UNL A   1      35.853  31.681  29.013  1.00  0.00     0.010 A 
ATOM     30  C   UNL A   1      35.395  29.320  28.737  1.00  0.00     0.010 A 
ATOM     31  C   UNL A   1      36.184  30.346  29.284  1.00  0.00    -0.014 A 
BRANCH  31  32
ATOM     32  C   UNL A   1      37.415  30.031  30.055  1.00  0.00     0.031 A 
ATOM     33  C   UNL A   1      38.488  29.187  29.419  1.00  0.00     0.074 A 
ATOM     34  C   UNL A   1      37.604  30.527  31.292  1.00  0.00     0.049 A 
ATOM     35  N   UNL A   1      39.623  28.774  29.922  1.00  0.00    -0.248 NA
ATOM     36  C   UNL A   1      38.250  28.754  28.034  1.00  0.00     0.031 C 
ATOM     37  C   UNL A   1      36.674  31.401  32.002  1.00  0.00     0.029 A 
ATOM     38  N   UNL A   1      38.652  30.370  32.168  1.00  0.00    -0.354 N 
ATOM     39  C   UNL A   1      40.243  28.048  28.914  1.00  0.00     0.074 A 
ATOM     40  C   UNL A   1      39.338  28.040  27.782  1.00  0.00     0.031 C 
ATOM     41  C   UNL A   1      37.195  31.711  33.203  1.00  0.00     0.029 A 
ATOM     42  C   UNL A   1      38.480  31.031  33.362  1.00  0.00     0.049 A 
ATOM     43  H   UNL A   1      39.452  29.834  31.960  1.00  0.00     0.167 HD
ATOM     44  C   UNL A   1      41.461  27.454  28.921  1.00  0.00     0.034 A 
ATOM     45  C   UNL A   1      39.258  31.072  34.463  1.00  0.00     0.034 A 
ATOM     46  C   UNL A   1      42.361  27.452  30.047  1.00  0.00     0.049 A 
ATOM     47  C   UNL A   1      40.558  30.307  34.488  1.00  0.00     0.074 A 
ATOM     48  C   UNL A   1      43.612  26.866  30.144  1.00  0.00     0.029 A 
ATOM     49  N   UNL A   1      42.111  28.061  31.267  1.00  0.00    -0.354 N 
ATOM     50  N   UNL A   1      41.110  29.587  33.540  1.00  0.00    -0.248 NA
ATOM     51  C   UNL A   1      41.337  30.354  35.734  1.00  0.00     0.031 C 
ATOM     52  C   UNL A   1      44.093  27.070  31.442  1.00  0.00     0.029 A 
ATOM     53  C   UNL A   1      43.172  27.841  32.132  1.00  0.00     0.049 A 
ATOM     54  H   UNL A   1      41.300  28.574  31.488  1.00  0.00     0.167 HD
ATOM     55  C   UNL A   1      42.313  29.122  34.068  1.00  0.00     0.074 A 
ATOM     56  C   UNL A   1      42.406  29.639  35.415  1.00  0.00     0.031 C 
ATOM     57  C   UNL A   1      43.257  28.346  33.480  1.00  0.00     0.034 A 
BRANCH  44  58
ATOM     58  C   UNL A   1      41.885  26.723  27.675  1.00  0.00     0.023 A 
ATOM     59  C   UNL A   1      41.712  25.334  27.547  1.00  0.00     0.031 A 
ATOM     60  C   UNL A   1      42.438  27.428  26.593  1.00  0.00     0.131 A 
ATOM     61  C   UNL A   1      42.124  24.688  26.372  1.00  0.00     0.055 A 
ATOM     62  C   UNL A   1      42.789  26.789  25.404  1.00  0.00     0.041 A 
ATOM     63  F   UNL A   1      42.641  28.753  26.674  1.00  0.00    -0.206 F 
ATOM     64  C   UNL A   1      42.637  25.409  25.290  1.00  0.00     0.022 A 
BRANCH  61  65
ATOM     65  S   UNL A   1      42.044  22.879  26.299  1.00  0.00     0.124 S 
ATOM     66  O   UNL A   1      40.606  22.645  26.397  1.00  0.00    -0.237 OA
ATOM     67  O   UNL A   1      42.653  22.584  25.007  1.00  0.00    -0.237 OA
ATOM     68  O   UNL A   1      42.818  22.454  27.464  1.00  0.00    -0.744 OA
ENDBRANCH  61  65
ENDBRANCH  44  58
BRANCH  45  69
ATOM     69  C   UNL A   1      38.823  31.844  35.660  1.00  0.00     0.023 A 
ATOM     70  C   UNL A   1      38.152  31.217  36.722  1.00  0.00     0.031 A 
ATOM     71  C   UNL A   1      39.035  33.232  35.736  1.00  0.00     0.131 A 
ATOM     72  C   UNL A   1      37.690  31.982  37.803  1.00  0.00     0.055 A 
ATOM     73  C   UNL A   1      38.611  33.981  36.834  1.00  0.00     0.041 A 
ATOM     74  F   UNL A   1      39.664  33.877  34.741  1.00  0.00    -0.206 F 
ATOM     75  C   UNL A   1      37.928  33.357  37.873  1.00  0.00     0.022 A 
BRANCH  72  76
ATOM     76  S   UNL A   1      36.731  31.162  39.107  1.00  0.00     0.124 S 
ATOM     77  O   UNL A   1      37.672  31.179  40.222  1.00  0.00    -0.237 OA
ATOM     78  O   UNL A   1      35.571  32.040  39.232  1.00  0.00    -0.237 OA
ATOM     79  O   UNL A   1      36.450  29.842  38.545  1.00  0.00    -0.744 OA
ENDBRANCH  72  76
ENDBRANCH  45  69
BRANCH  57  80
ATOM     80  C   UNL A   1      44.501  28.035  34.272  1.00  0.00     0.023 A 
ATOM     81  C   UNL A   1      44.610  26.872  35.052  1.00  0.00     0.031 A 
ATOM     82  C   UNL A   1      45.614  28.894  34.199  1.00  0.00     0.131 A 
ATOM     83  C   UNL A   1      45.799  26.611  35.753  1.00  0.00     0.055 A 
ATOM     84  C   UNL A   1      46.808  28.608  34.863  1.00  0.00     0.041 A 
ATOM     85  F   UNL A   1      45.563  30.015  33.463  1.00  0.00    -0.206 F 
ATOM     86  C   UNL A   1      46.903  27.463  35.649  1.00  0.00     0.022 A 
BRANCH  83  87
ATOM     87  S   UNL A   1      45.883  25.150  36.826  1.00  0.00     0.124 S 
ATOM     88  O   UNL A   1      47.279  25.169  37.251  1.00  0.00    -0.237 OA
ATOM     89  O   UNL A   1      44.899  25.459  37.858  1.00  0.00    -0.237 OA
ATOM     90  O   UNL A   1      45.520  24.049  35.937  1.00  0.00    -0.744 OA
ENDBRANCH  83  87
ENDBRANCH  57  80
ENDBRANCH  31  32
ENDBRANCH  24  26
ENDBRANCH  23  24
ENDBRANCH  22  23
ENDBRANCH   1  22
TORSDOF 17
ENDMDL
