MODEL 1
REMARK VINA RESULT:     -11.2      0.000      0.000
REMARK SMILES COc1c(Cl)cc(C(=O)OCCOC(=O)c2ccc(-c3c4nc(c(-c5cc(S(=O)(=O)[O-])ccc5F)c5ccc([nH]5)c(-c5cc(S(=O)(=O)[O-])ccc5F)c5nc(c(-c6cc(S(=O)(=O)[O-])ccc6F)c6ccc3[nH]6)C=C5)C=C4)cc2)cc1NC(=S)NC(=O)c1ccccc1F
REMARK SMILES IDX 11 1 10 2 8 3 9 4 7 5 3 6 4 7 80 8 5 9 6 10 79 11 2 12 1 13
REMARK SMILES IDX 81 14 82 16 83 17 84 18 85 19 86 21 87 22 88 23 92 24 89 25
REMARK SMILES IDX 91 26 93 27 90 28 12 29 13 30 14 31 15 32 16 33 17 34 78 35
REMARK SMILES IDX 18 36 77 37 19 38 20 39 21 40 71 41 22 42 76 43 70 44 72 45
REMARK SMILES IDX 23 46 75 47 69 48 68 49 24 51 56 52 36 53 55 54 37 55 40 56
REMARK SMILES IDX 54 57 73 58 38 59 39 60 53 62 74 63 41 64 25 65 26 66 34 67
REMARK SMILES IDX 27 68 33 69 35 70 32 71 28 72 29 73 30 74 31 75 57 76 58 77
REMARK SMILES IDX 66 78 59 79 65 80 67 81 64 82 60 83 61 84 62 85 63 86 42 87
REMARK SMILES IDX 43 88 51 89 44 90 50 91 52 92 49 93 45 94 46 95 47 96 48 97
REMARK H PARENT 81 15 84 20 72 50 40 61
REMARK Flexibility Score: inf
ROOT
ATOM      1  C   UNL A   1      39.850  21.056  26.136  1.00  0.00     0.275 C 
ENDROOT
BRANCH   1   2
ATOM      2  O   UNL A   1      38.565  21.272  25.518  1.00  0.00    -0.458 OA
BRANCH   2   3
ATOM      3  C   UNL A   1      37.909  22.434  25.754  1.00  0.00     0.338 C 
ATOM      4  O   UNL A   1      38.304  23.368  26.427  1.00  0.00    -0.246 OA
BRANCH   3   5
ATOM      5  C   UNL A   1      36.599  22.432  24.953  1.00  0.00     0.063 A 
ATOM      6  C   UNL A   1      33.299  21.919  23.526  1.00  0.00     0.160 A 
ATOM      7  C   UNL A   1      33.863  20.986  24.957  1.00  0.00     0.086 A 
ATOM      8  C   UNL A   1      34.308  23.115  22.725  1.00  0.00     0.085 A 
ATOM      9  Cl  UNL A   1      32.916  19.752  25.708  1.00  0.00    -0.080 Cl
ATOM     10  C   UNL A   1      35.474  21.217  25.701  1.00  0.00     0.040 A 
ATOM     11  C   UNL A   1      35.891  23.326  23.291  1.00  0.00     0.045 A 
BRANCH   6  12
ATOM     12  O   UNL A   1      32.058  21.852  22.937  1.00  0.00    -0.493 OA
ATOM     13  C   UNL A   1      31.791  20.763  22.070  1.00  0.00     0.278 C 
ENDBRANCH   6  12
BRANCH   8  14
ATOM     14  N   UNL A   1      33.943  24.220  21.939  1.00  0.00    -0.329 N 
ATOM     15  H   UNL A   1      34.462  24.333  21.109  1.00  0.00     0.169 HD
BRANCH  14  16
ATOM     16  C   UNL A   1      32.965  25.175  22.152  1.00  0.00     0.177 C 
ATOM     17  S   UNL A   1      33.413  26.778  21.888  1.00  0.00    -0.040 S 
BRANCH  16  18
ATOM     18  N   UNL A   1      31.593  24.988  22.565  1.00  0.00    -0.299 N 
ATOM     19  C   UNL A   1      30.437  25.023  23.529  1.00  0.00     0.260 C 
ATOM     20  H   UNL A   1      31.175  24.629  21.750  1.00  0.00     0.172 HD
ATOM     21  O   UNL A   1      29.327  24.655  23.153  1.00  0.00    -0.269 OA
BRANCH  19  22
ATOM     22  C   UNL A   1      30.597  25.515  24.956  1.00  0.00     0.075 A 
ATOM     23  C   UNL A   1      31.657  24.328  25.683  1.00  0.00     0.017 A 
ATOM     24  C   UNL A   1      30.914  27.291  25.004  1.00  0.00     0.135 A 
ATOM     25  C   UNL A   1      33.248  24.870  26.241  1.00  0.00     0.001 A 
ATOM     26  C   UNL A   1      32.470  27.986  25.541  1.00  0.00     0.040 A 
ATOM     27  F   UNL A   1      30.135  28.084  24.251  1.00  0.00    -0.206 F 
ATOM     28  C   UNL A   1      33.747  26.833  26.114  1.00  0.00     0.003 A 
ENDBRANCH  19  22
ENDBRANCH  16  18
ENDBRANCH  14  16
ENDBRANCH   8  14
ENDBRANCH   3   5
ENDBRANCH   2   3
ENDBRANCH   1   2
BRANCH   1  29
ATOM     29  C   UNL A   1      40.163  19.559  26.111  1.00  0.00     0.275 C 
BRANCH  29  30
ATOM     30  O   UNL A   1      41.370  19.363  25.355  1.00  0.00    -0.458 OA
BRANCH  30  31
ATOM     31  C   UNL A   1      42.507  19.298  26.087  1.00  0.00     0.338 C 
ATOM     32  O   UNL A   1      43.104  18.304  26.460  1.00  0.00    -0.246 OA
BRANCH  31  33
ATOM     33  C   UNL A   1      43.057  20.656  26.174  1.00  0.00     0.060 A 
ATOM     34  C   UNL A   1      43.083  21.236  27.436  1.00  0.00     0.016 A 
ATOM     35  C   UNL A   1      43.424  21.394  25.057  1.00  0.00     0.016 A 
ATOM     36  C   UNL A   1      43.358  22.589  27.584  1.00  0.00     0.010 A 
ATOM     37  C   UNL A   1      43.821  22.729  25.226  1.00  0.00     0.010 A 
ATOM     38  C   UNL A   1      43.757  23.356  26.488  1.00  0.00    -0.014 A 
BRANCH  38  39
ATOM     39  C   UNL A   1      44.044  24.812  26.658  1.00  0.00     0.031 A 
ATOM     40  C   UNL A   1      45.420  25.336  26.339  1.00  0.00     0.074 A 
ATOM     41  C   UNL A   1      43.083  25.673  27.059  1.00  0.00     0.049 A 
ATOM     42  N   UNL A   1      45.969  26.478  26.662  1.00  0.00    -0.248 NA
ATOM     43  C   UNL A   1      46.300  24.443  25.570  1.00  0.00     0.031 C 
ATOM     44  C   UNL A   1      41.677  25.334  27.296  1.00  0.00     0.029 A 
ATOM     45  N   UNL A   1      43.141  27.018  27.338  1.00  0.00    -0.354 N 
ATOM     46  C   UNL A   1      47.281  26.412  26.200  1.00  0.00     0.074 A 
ATOM     47  C   UNL A   1      47.441  25.115  25.579  1.00  0.00     0.031 C 
ATOM     48  C   UNL A   1      41.005  26.440  27.646  1.00  0.00     0.029 A 
ATOM     49  C   UNL A   1      41.950  27.537  27.796  1.00  0.00     0.049 A 
ATOM     50  H   UNL A   1      43.955  27.559  27.221  1.00  0.00     0.167 HD
ATOM     51  C   UNL A   1      48.257  27.349  26.300  1.00  0.00     0.034 A 
ATOM     52  C   UNL A   1      41.660  28.731  28.353  1.00  0.00     0.034 A 
ATOM     53  C   UNL A   1      48.049  28.653  26.884  1.00  0.00     0.049 A 
ATOM     54  C   UNL A   1      42.779  29.723  28.541  1.00  0.00     0.074 A 
ATOM     55  C   UNL A   1      48.962  29.680  27.049  1.00  0.00     0.029 A 
ATOM     56  N   UNL A   1      46.840  29.116  27.389  1.00  0.00    -0.354 N 
ATOM     57  N   UNL A   1      44.044  29.614  28.201  1.00  0.00    -0.248 NA
ATOM     58  C   UNL A   1      42.439  30.989  29.202  1.00  0.00     0.031 C 
ATOM     59  C   UNL A   1      48.327  30.730  27.719  1.00  0.00     0.029 A 
ATOM     60  C   UNL A   1      46.992  30.399  27.890  1.00  0.00     0.049 A 
ATOM     61  H   UNL A   1      45.998  28.605  27.391  1.00  0.00     0.167 HD
ATOM     62  C   UNL A   1      44.641  30.813  28.581  1.00  0.00     0.074 A 
ATOM     63  C   UNL A   1      43.597  31.631  29.161  1.00  0.00     0.031 C 
ATOM     64  C   UNL A   1      45.936  31.202  28.462  1.00  0.00     0.034 A 
BRANCH  51  65
ATOM     65  C   UNL A   1      49.645  26.968  25.843  1.00  0.00     0.023 A 
ATOM     66  C   UNL A   1      50.168  27.369  24.602  1.00  0.00     0.031 A 
ATOM     67  C   UNL A   1      50.452  26.155  26.662  1.00  0.00     0.131 A 
ATOM     68  C   UNL A   1      51.424  26.899  24.186  1.00  0.00     0.055 A 
ATOM     69  C   UNL A   1      51.736  25.762  26.281  1.00  0.00     0.041 A 
ATOM     70  F   UNL A   1      49.999  25.717  27.848  1.00  0.00    -0.206 F 
ATOM     71  C   UNL A   1      52.224  26.121  25.029  1.00  0.00     0.022 A 
BRANCH  68  72
ATOM     72  S   UNL A   1      51.938  27.193  22.471  1.00  0.00     0.124 S 
ATOM     73  O   UNL A   1      52.896  26.110  22.261  1.00  0.00    -0.237 OA
ATOM     74  O   UNL A   1      50.681  27.082  21.741  1.00  0.00    -0.237 OA
ATOM     75  O   UNL A   1      52.521  28.532  22.511  1.00  0.00    -0.744 OA
ENDBRANCH  68  72
ENDBRANCH  51  65
BRANCH  52  76
ATOM     76  C   UNL A   1      40.286  29.022  28.865  1.00  0.00     0.023 A 
ATOM     77  C   UNL A   1      39.981  28.911  30.230  1.00  0.00     0.031 A 
ATOM     78  C   UNL A   1      39.238  29.360  27.987  1.00  0.00     0.131 A 
ATOM     79  C   UNL A   1      38.658  29.088  30.670  1.00  0.00     0.055 A 
ATOM     80  C   UNL A   1      37.941  29.607  28.438  1.00  0.00     0.041 A 
ATOM     81  F   UNL A   1      39.463  29.468  26.667  1.00  0.00    -0.206 F 
ATOM     82  C   UNL A   1      37.642  29.455  29.786  1.00  0.00     0.022 A 
BRANCH  79  83
ATOM     83  S   UNL A   1      38.262  28.718  32.401  1.00  0.00     0.124 S 
ATOM     84  O   UNL A   1      38.476  27.276  32.451  1.00  0.00    -0.237 OA
ATOM     85  O   UNL A   1      39.237  29.536  33.116  1.00  0.00    -0.237 OA
ATOM     86  O   UNL A   1      36.872  29.149  32.531  1.00  0.00    -0.744 OA
ENDBRANCH  79  83
ENDBRANCH  52  76
BRANCH  64  87
ATOM     87  C   UNL A   1      46.272  32.604  28.903  1.00  0.00     0.023 A 
ATOM     88  C   UNL A   1      46.156  33.705  28.038  1.00  0.00     0.031 A 
ATOM     89  C   UNL A   1      46.724  32.838  30.215  1.00  0.00     0.131 A 
ATOM     90  C   UNL A   1      46.540  34.981  28.477  1.00  0.00     0.055 A 
ATOM     91  C   UNL A   1      47.041  34.118  30.667  1.00  0.00     0.041 A 
ATOM     92  F   UNL A   1      46.858  31.820  31.081  1.00  0.00    -0.206 F 
ATOM     93  C   UNL A   1      46.962  35.197  29.791  1.00  0.00     0.022 A 
BRANCH  90  94
ATOM     94  S   UNL A   1      46.576  36.341  27.278  1.00  0.00     0.124 S 
ATOM     95  O   UNL A   1      45.236  36.273  26.704  1.00  0.00    -0.237 OA
ATOM     96  O   UNL A   1      46.848  37.498  28.126  1.00  0.00    -0.237 OA
ATOM     97  O   UNL A   1      47.660  35.970  26.371  1.00  0.00    -0.744 OA
ENDBRANCH  90  94
ENDBRANCH  64  87
ENDBRANCH  38  39
ENDBRANCH  31  33
ENDBRANCH  30  31
ENDBRANCH  29  30
ENDBRANCH   1  29
TORSDOF 19
ENDMDL
MODEL 2
REMARK VINA RESULT:     -11.2      1.294      1.743
REMARK SMILES COc1c(Cl)cc(C(=O)OCCOC(=O)c2ccc(-c3c4nc(c(-c5cc(S(=O)(=O)[O-])ccc5F)c5ccc([nH]5)c(-c5cc(S(=O)(=O)[O-])ccc5F)c5nc(c(-c6cc(S(=O)(=O)[O-])ccc6F)c6ccc3[nH]6)C=C5)C=C4)cc2)cc1NC(=S)NC(=O)c1ccccc1F
REMARK SMILES IDX 11 1 10 2 8 3 9 4 7 5 3 6 4 7 80 8 5 9 6 10 79 11 2 12 1 13
REMARK SMILES IDX 81 14 82 16 83 17 84 18 85 19 86 21 87 22 88 23 92 24 89 25
REMARK SMILES IDX 91 26 93 27 90 28 12 29 13 30 14 31 15 32 16 33 17 34 78 35
REMARK SMILES IDX 18 36 77 37 19 38 20 39 21 40 71 41 22 42 76 43 70 44 72 45
REMARK SMILES IDX 23 46 75 47 69 48 68 49 24 51 56 52 36 53 55 54 37 55 40 56
REMARK SMILES IDX 54 57 73 58 38 59 39 60 53 62 74 63 41 64 25 65 26 66 34 67
REMARK SMILES IDX 27 68 33 69 35 70 32 71 28 72 29 73 30 74 31 75 57 76 58 77
REMARK SMILES IDX 66 78 59 79 65 80 67 81 64 82 60 83 61 84 62 85 63 86 42 87
REMARK SMILES IDX 43 88 51 89 44 90 50 91 52 92 49 93 45 94 46 95 47 96 48 97
REMARK H PARENT 81 15 84 20 72 50 40 61
REMARK Flexibility Score: inf
ROOT
ATOM      1  C   UNL A   1      39.705  20.850  26.452  1.00  0.00     0.275 C 
ENDROOT
BRANCH   1   2
ATOM      2  O   UNL A   1      38.910  21.638  25.543  1.00  0.00    -0.458 OA
BRANCH   2   3
ATOM      3  C   UNL A   1      38.216  22.698  26.024  1.00  0.00     0.338 C 
ATOM      4  O   UNL A   1      38.665  23.630  26.666  1.00  0.00    -0.246 OA
BRANCH   3   5
ATOM      5  C   UNL A   1      36.759  22.588  25.554  1.00  0.00     0.063 A 
ATOM      6  C   UNL A   1      33.446  21.622  24.420  1.00  0.00     0.160 A 
ATOM      7  C   UNL A   1      34.735  20.402  24.715  1.00  0.00     0.086 A 
ATOM      8  C   UNL A   1      33.713  23.345  24.642  1.00  0.00     0.085 A 
ATOM      9  Cl  UNL A   1      34.515  18.713  24.426  1.00  0.00    -0.080 Cl
ATOM     10  C   UNL A   1      36.374  20.832  25.288  1.00  0.00     0.040 A 
ATOM     11  C   UNL A   1      35.268  23.859  25.079  1.00  0.00     0.045 A 
BRANCH   6  12
ATOM     12  O   UNL A   1      32.147  21.372  24.046  1.00  0.00    -0.493 OA
ATOM     13  C   UNL A   1      31.833  21.405  22.664  1.00  0.00     0.278 C 
ENDBRANCH   6  12
BRANCH   8  14
ATOM     14  N   UNL A   1      32.793  24.373  24.906  1.00  0.00    -0.329 N 
ATOM     15  H   UNL A   1      32.658  25.013  24.170  1.00  0.00     0.169 HD
BRANCH  14  16
ATOM     16  C   UNL A   1      32.046  24.624  26.043  1.00  0.00     0.177 C 
ATOM     17  S   UNL A   1      31.463  23.277  26.869  1.00  0.00    -0.040 S 
BRANCH  16  18
ATOM     18  N   UNL A   1      31.699  25.896  26.635  1.00  0.00    -0.299 N 
ATOM     19  C   UNL A   1      31.398  27.371  26.630  1.00  0.00     0.260 C 
ATOM     20  H   UNL A   1      31.610  25.668  27.587  1.00  0.00     0.172 HD
ATOM     21  O   UNL A   1      31.121  27.935  27.685  1.00  0.00    -0.269 OA
BRANCH  19  22
ATOM     22  C   UNL A   1      31.414  28.188  25.350  1.00  0.00     0.075 A 
ATOM     23  C   UNL A   1      33.097  28.630  25.165  1.00  0.00     0.017 A 
ATOM     24  C   UNL A   1      30.449  27.389  24.052  1.00  0.00     0.135 A 
ATOM     25  C   UNL A   1      33.965  28.011  23.751  1.00  0.00     0.001 A 
ATOM     26  C   UNL A   1      31.185  26.715  22.570  1.00  0.00     0.040 A 
ATOM     27  F   UNL A   1      29.229  26.928  24.375  1.00  0.00    -0.206 F 
ATOM     28  C   UNL A   1      32.975  26.912  22.361  1.00  0.00     0.003 A 
ENDBRANCH  19  22
ENDBRANCH  16  18
ENDBRANCH  14  16
ENDBRANCH   8  14
ENDBRANCH   3   5
ENDBRANCH   2   3
ENDBRANCH   1   2
BRANCH   1  29
ATOM     29  C   UNL A   1      39.974  19.485  25.815  1.00  0.00     0.275 C 
BRANCH  29  30
ATOM     30  O   UNL A   1      41.339  19.459  25.365  1.00  0.00    -0.458 OA
BRANCH  30  31
ATOM     31  C   UNL A   1      42.272  19.500  26.344  1.00  0.00     0.338 C 
ATOM     32  O   UNL A   1      42.733  18.569  26.980  1.00  0.00    -0.246 OA
BRANCH  31  33
ATOM     33  C   UNL A   1      42.831  20.856  26.368  1.00  0.00     0.060 A 
ATOM     34  C   UNL A   1      43.098  21.395  27.620  1.00  0.00     0.016 A 
ATOM     35  C   UNL A   1      42.979  21.631  25.226  1.00  0.00     0.016 A 
ATOM     36  C   UNL A   1      43.399  22.744  27.757  1.00  0.00     0.010 A 
ATOM     37  C   UNL A   1      43.404  22.962  25.360  1.00  0.00     0.010 A 
ATOM     38  C   UNL A   1      43.583  23.548  26.630  1.00  0.00    -0.014 A 
BRANCH  38  39
ATOM     39  C   UNL A   1      43.899  24.998  26.790  1.00  0.00     0.031 A 
ATOM     40  C   UNL A   1      45.262  25.505  26.395  1.00  0.00     0.074 A 
ATOM     41  C   UNL A   1      42.976  25.871  27.249  1.00  0.00     0.049 A 
ATOM     42  N   UNL A   1      45.845  26.638  26.690  1.00  0.00    -0.248 NA
ATOM     43  C   UNL A   1      46.083  24.604  25.573  1.00  0.00     0.031 C 
ATOM     44  C   UNL A   1      41.581  25.550  27.566  1.00  0.00     0.029 A 
ATOM     45  N   UNL A   1      43.068  27.214  27.530  1.00  0.00    -0.354 N 
ATOM     46  C   UNL A   1      47.127  26.556  26.153  1.00  0.00     0.074 A 
ATOM     47  C   UNL A   1      47.233  25.260  25.518  1.00  0.00     0.031 C 
ATOM     48  C   UNL A   1      40.946  26.663  27.958  1.00  0.00     0.029 A 
ATOM     49  C   UNL A   1      41.913  27.747  28.058  1.00  0.00     0.049 A 
ATOM     50  H   UNL A   1      43.882  27.744  27.369  1.00  0.00     0.167 HD
ATOM     51  C   UNL A   1      48.120  27.479  26.201  1.00  0.00     0.034 A 
ATOM     52  C   UNL A   1      41.672  28.942  28.636  1.00  0.00     0.034 A 
ATOM     53  C   UNL A   1      47.965  28.782  26.801  1.00  0.00     0.049 A 
ATOM     54  C   UNL A   1      42.815  29.916  28.764  1.00  0.00     0.074 A 
ATOM     55  C   UNL A   1      48.900  29.796  26.918  1.00  0.00     0.029 A 
ATOM     56  N   UNL A   1      46.794  29.259  27.378  1.00  0.00    -0.354 N 
ATOM     57  N   UNL A   1      44.056  29.793  28.351  1.00  0.00    -0.248 NA
ATOM     58  C   UNL A   1      42.531  31.184  29.449  1.00  0.00     0.031 C 
ATOM     59  C   UNL A   1      48.319  30.851  27.628  1.00  0.00     0.029 A 
ATOM     60  C   UNL A   1      46.992  30.538  27.875  1.00  0.00     0.049 A 
ATOM     61  H   UNL A   1      45.946  28.761  27.426  1.00  0.00     0.167 HD
ATOM     62  C   UNL A   1      44.691  30.981  28.702  1.00  0.00     0.074 A 
ATOM     63  C   UNL A   1      43.694  31.811  29.344  1.00  0.00     0.031 C 
ATOM     64  C   UNL A   1      45.982  31.352  28.509  1.00  0.00     0.034 A 
BRANCH  51  65
ATOM     65  C   UNL A   1      49.474  27.081  25.663  1.00  0.00     0.023 A 
ATOM     66  C   UNL A   1      49.914  27.445  24.379  1.00  0.00     0.031 A 
ATOM     67  C   UNL A   1      50.334  26.289  26.448  1.00  0.00     0.131 A 
ATOM     68  C   UNL A   1      51.139  26.961  23.894  1.00  0.00     0.055 A 
ATOM     69  C   UNL A   1      51.588  25.881  25.994  1.00  0.00     0.041 A 
ATOM     70  F   UNL A   1      49.960  25.885  27.674  1.00  0.00    -0.206 F 
ATOM     71  C   UNL A   1      51.992  26.204  24.702  1.00  0.00     0.022 A 
BRANCH  68  72
ATOM     72  S   UNL A   1      51.537  27.205  22.140  1.00  0.00     0.124 S 
ATOM     73  O   UNL A   1      50.296  26.781  21.495  1.00  0.00    -0.237 OA
ATOM     74  O   UNL A   1      51.832  28.631  22.079  1.00  0.00    -0.237 OA
ATOM     75  O   UNL A   1      52.679  26.320  21.920  1.00  0.00    -0.744 OA
ENDBRANCH  68  72
ENDBRANCH  51  65
BRANCH  52  76
ATOM     76  C   UNL A   1      40.335  29.249  29.229  1.00  0.00     0.023 A 
ATOM     77  C   UNL A   1      40.123  29.189  30.614  1.00  0.00     0.031 A 
ATOM     78  C   UNL A   1      39.229  29.551  28.410  1.00  0.00     0.131 A 
ATOM     79  C   UNL A   1      38.831  29.380  31.134  1.00  0.00     0.055 A 
ATOM     80  C   UNL A   1      37.963  29.812  28.937  1.00  0.00     0.041 A 
ATOM     81  F   UNL A   1      39.365  29.609  27.075  1.00  0.00    -0.206 F 
ATOM     82  C   UNL A   1      37.756  29.711  30.307  1.00  0.00     0.022 A 
BRANCH  79  83
ATOM     83  S   UNL A   1      38.554  29.075  32.901  1.00  0.00     0.124 S 
ATOM     84  O   UNL A   1      38.720  30.412  33.461  1.00  0.00    -0.237 OA
ATOM     85  O   UNL A   1      37.195  28.543  32.907  1.00  0.00    -0.237 OA
ATOM     86  O   UNL A   1      39.600  28.117  33.249  1.00  0.00    -0.744 OA
ENDBRANCH  79  83
ENDBRANCH  52  76
BRANCH  64  87
ATOM     87  C   UNL A   1      46.363  32.748  28.936  1.00  0.00     0.023 A 
ATOM     88  C   UNL A   1      46.331  33.834  28.046  1.00  0.00     0.031 A 
ATOM     89  C   UNL A   1      46.772  32.989  30.261  1.00  0.00     0.131 A 
ATOM     90  C   UNL A   1      46.754  35.100  28.476  1.00  0.00     0.055 A 
ATOM     91  C   UNL A   1      47.127  34.263  30.700  1.00  0.00     0.041 A 
ATOM     92  F   UNL A   1      46.825  31.985  31.152  1.00  0.00    -0.206 F 
ATOM     93  C   UNL A   1      47.132  35.326  29.802  1.00  0.00     0.022 A 
BRANCH  90  94
ATOM     94  S   UNL A   1      46.899  36.432  27.253  1.00  0.00     0.124 S 
ATOM     95  O   UNL A   1      45.568  37.028  27.296  1.00  0.00    -0.237 OA
ATOM     96  O   UNL A   1      47.979  37.245  27.802  1.00  0.00    -0.237 OA
ATOM     97  O   UNL A   1      47.224  35.727  26.015  1.00  0.00    -0.744 OA
ENDBRANCH  90  94
ENDBRANCH  64  87
ENDBRANCH  38  39
ENDBRANCH  31  33
ENDBRANCH  30  31
ENDBRANCH  29  30
ENDBRANCH   1  29
TORSDOF 19
ENDMDL
MODEL 3
REMARK VINA RESULT:     -10.9      1.926      2.410
REMARK SMILES COc1c(Cl)cc(C(=O)OCCOC(=O)c2ccc(-c3c4nc(c(-c5cc(S(=O)(=O)[O-])ccc5F)c5ccc([nH]5)c(-c5cc(S(=O)(=O)[O-])ccc5F)c5nc(c(-c6cc(S(=O)(=O)[O-])ccc6F)c6ccc3[nH]6)C=C5)C=C4)cc2)cc1NC(=S)NC(=O)c1ccccc1F
REMARK SMILES IDX 11 1 10 2 8 3 9 4 7 5 3 6 4 7 80 8 5 9 6 10 79 11 2 12 1 13
REMARK SMILES IDX 81 14 82 16 83 17 84 18 85 19 86 21 87 22 88 23 92 24 89 25
REMARK SMILES IDX 91 26 93 27 90 28 12 29 13 30 14 31 15 32 16 33 17 34 78 35
REMARK SMILES IDX 18 36 77 37 19 38 20 39 21 40 71 41 22 42 76 43 70 44 72 45
REMARK SMILES IDX 23 46 75 47 69 48 68 49 24 51 56 52 36 53 55 54 37 55 40 56
REMARK SMILES IDX 54 57 73 58 38 59 39 60 53 62 74 63 41 64 25 65 26 66 34 67
REMARK SMILES IDX 27 68 33 69 35 70 32 71 28 72 29 73 30 74 31 75 57 76 58 77
REMARK SMILES IDX 66 78 59 79 65 80 67 81 64 82 60 83 61 84 62 85 63 86 42 87
REMARK SMILES IDX 43 88 51 89 44 90 50 91 52 92 49 93 45 94 46 95 47 96 48 97
REMARK H PARENT 81 15 84 20 72 50 40 61
REMARK Flexibility Score: inf
ROOT
ATOM      1  C   UNL A   1      39.588  21.233  26.488  1.00  0.00     0.275 C 
ENDROOT
BRANCH   1   2
ATOM      2  O   UNL A   1      38.662  21.835  25.561  1.00  0.00    -0.458 OA
BRANCH   2   3
ATOM      3  C   UNL A   1      37.919  22.894  25.966  1.00  0.00     0.338 C 
ATOM      4  O   UNL A   1      38.319  23.874  26.567  1.00  0.00    -0.246 OA
BRANCH   3   5
ATOM      5  C   UNL A   1      36.481  22.708  25.466  1.00  0.00     0.063 A 
ATOM      6  C   UNL A   1      33.243  21.570  24.276  1.00  0.00     0.160 A 
ATOM      7  C   UNL A   1      34.579  20.416  24.624  1.00  0.00     0.086 A 
ATOM      8  C   UNL A   1      33.425  23.307  24.471  1.00  0.00     0.085 A 
ATOM      9  Cl  UNL A   1      34.444  18.713  24.364  1.00  0.00    -0.080 Cl
ATOM     10  C   UNL A   1      36.183  20.932  25.226  1.00  0.00     0.040 A 
ATOM     11  C   UNL A   1      34.944  23.900  24.932  1.00  0.00     0.045 A 
BRANCH   6  12
ATOM     12  O   UNL A   1      31.966  21.253  23.878  1.00  0.00    -0.493 OA
ATOM     13  C   UNL A   1      31.780  20.765  22.560  1.00  0.00     0.278 C 
ENDBRANCH   6  12
BRANCH   8  14
ATOM     14  N   UNL A   1      32.453  24.295  24.693  1.00  0.00    -0.329 N 
ATOM     15  H   UNL A   1      32.285  24.896  23.931  1.00  0.00     0.169 HD
BRANCH  14  16
ATOM     16  C   UNL A   1      31.693  24.554  25.820  1.00  0.00     0.177 C 
ATOM     17  S   UNL A   1      30.924  23.231  26.525  1.00  0.00    -0.040 S 
BRANCH  16  18
ATOM     18  N   UNL A   1      31.472  25.814  26.492  1.00  0.00    -0.299 N 
ATOM     19  C   UNL A   1      31.314  27.309  26.580  1.00  0.00     0.260 C 
ATOM     20  H   UNL A   1      31.365  25.537  27.430  1.00  0.00     0.172 HD
ATOM     21  O   UNL A   1      31.096  27.830  27.671  1.00  0.00    -0.269 OA
BRANCH  19  22
ATOM     22  C   UNL A   1      31.403  28.198  25.354  1.00  0.00     0.075 A 
ATOM     23  C   UNL A   1      33.099  28.626  25.278  1.00  0.00     0.017 A 
ATOM     24  C   UNL A   1      30.495  27.490  23.965  1.00  0.00     0.135 A 
ATOM     25  C   UNL A   1      34.029  28.078  23.875  1.00  0.00     0.001 A 
ATOM     26  C   UNL A   1      31.297  26.893  22.484  1.00  0.00     0.040 A 
ATOM     27  F   UNL A   1      29.256  27.028  24.199  1.00  0.00    -0.206 F 
ATOM     28  C   UNL A   1      33.098  27.075  22.376  1.00  0.00     0.003 A 
ENDBRANCH  19  22
ENDBRANCH  16  18
ENDBRANCH  14  16
ENDBRANCH   8  14
ENDBRANCH   3   5
ENDBRANCH   2   3
ENDBRANCH   1   2
BRANCH   1  29
ATOM     29  C   UNL A   1      39.823  19.779  26.076  1.00  0.00     0.275 C 
BRANCH  29  30
ATOM     30  O   UNL A   1      41.132  19.683  25.488  1.00  0.00    -0.458 OA
BRANCH  30  31
ATOM     31  C   UNL A   1      42.163  19.723  26.363  1.00  0.00     0.338 C 
ATOM     32  O   UNL A   1      42.766  18.786  26.855  1.00  0.00    -0.246 OA
BRANCH  31  33
ATOM     33  C   UNL A   1      42.612  21.117  26.458  1.00  0.00     0.060 A 
ATOM     34  C   UNL A   1      42.836  21.611  27.737  1.00  0.00     0.016 A 
ATOM     35  C   UNL A   1      42.697  21.958  25.357  1.00  0.00     0.016 A 
ATOM     36  C   UNL A   1      43.027  22.970  27.943  1.00  0.00     0.010 A 
ATOM     37  C   UNL A   1      43.014  23.310  25.560  1.00  0.00     0.010 A 
ATOM     38  C   UNL A   1      43.146  23.842  26.860  1.00  0.00    -0.014 A 
BRANCH  38  39
ATOM     39  C   UNL A   1      43.345  25.304  27.094  1.00  0.00     0.031 A 
ATOM     40  C   UNL A   1      44.691  25.921  26.811  1.00  0.00     0.074 A 
ATOM     41  C   UNL A   1      42.333  26.090  27.522  1.00  0.00     0.049 A 
ATOM     42  N   UNL A   1      45.170  27.079  27.186  1.00  0.00    -0.248 NA
ATOM     43  C   UNL A   1      45.627  25.114  26.013  1.00  0.00     0.031 C 
ATOM     44  C   UNL A   1      40.948  25.659  27.732  1.00  0.00     0.029 A 
ATOM     45  N   UNL A   1      42.310  27.423  27.859  1.00  0.00    -0.354 N 
ATOM     46  C   UNL A   1      46.486  27.109  26.735  1.00  0.00     0.074 A 
ATOM     47  C   UNL A   1      46.727  25.851  26.061  1.00  0.00     0.031 C 
ATOM     48  C   UNL A   1      40.210  26.708  28.122  1.00  0.00     0.029 A 
ATOM     49  C   UNL A   1      41.087  27.851  28.327  1.00  0.00     0.049 A 
ATOM     50  H   UNL A   1      43.091  28.015  27.772  1.00  0.00     0.167 HD
ATOM     51  C   UNL A   1      47.405  28.096  26.883  1.00  0.00     0.034 A 
ATOM     52  C   UNL A   1      40.724  29.001  28.931  1.00  0.00     0.034 A 
ATOM     53  C   UNL A   1      47.117  29.359  27.520  1.00  0.00     0.049 A 
ATOM     54  C   UNL A   1      41.782  30.047  29.172  1.00  0.00     0.074 A 
ATOM     55  C   UNL A   1      47.966  30.430  27.737  1.00  0.00     0.029 A 
ATOM     56  N   UNL A   1      45.879  29.728  28.034  1.00  0.00    -0.354 N 
ATOM     57  N   UNL A   1      43.053  30.028  28.840  1.00  0.00    -0.248 NA
ATOM     58  C   UNL A   1      41.363  31.261  29.883  1.00  0.00     0.031 C 
ATOM     59  C   UNL A   1      47.266  31.411  28.445  1.00  0.00     0.029 A 
ATOM     60  C   UNL A   1      45.952  30.996  28.590  1.00  0.00     0.049 A 
ATOM     61  H   UNL A   1      45.069  29.170  28.006  1.00  0.00     0.167 HD
ATOM     62  C   UNL A   1      43.576  31.241  29.276  1.00  0.00     0.074 A 
ATOM     63  C   UNL A   1      42.482  31.972  29.881  1.00  0.00     0.031 C 
ATOM     64  C   UNL A   1      44.847  31.710  29.185  1.00  0.00     0.034 A 
BRANCH  51  65
ATOM     65  C   UNL A   1      48.816  27.816  26.424  1.00  0.00     0.023 A 
ATOM     66  C   UNL A   1      49.241  28.052  25.105  1.00  0.00     0.031 A 
ATOM     67  C   UNL A   1      49.750  27.270  27.325  1.00  0.00     0.131 A 
ATOM     68  C   UNL A   1      50.535  27.677  24.709  1.00  0.00     0.055 A 
ATOM     69  C   UNL A   1      51.061  26.980  26.948  1.00  0.00     0.041 A 
ATOM     70  F   UNL A   1      49.396  26.997  28.592  1.00  0.00    -0.206 F 
ATOM     71  C   UNL A   1      51.457  27.169  25.628  1.00  0.00     0.022 A 
BRANCH  68  72
ATOM     72  S   UNL A   1      50.950  27.723  22.943  1.00  0.00     0.124 S 
ATOM     73  O   UNL A   1      49.750  27.141  22.344  1.00  0.00    -0.237 OA
ATOM     74  O   UNL A   1      51.156  29.146  22.703  1.00  0.00    -0.237 OA
ATOM     75  O   UNL A   1      52.149  26.893  22.850  1.00  0.00    -0.744 OA
ENDBRANCH  68  72
ENDBRANCH  51  65
BRANCH  52  76
ATOM     76  C   UNL A   1      39.332  29.188  29.443  1.00  0.00     0.023 A 
ATOM     77  C   UNL A   1      38.407  29.989  28.757  1.00  0.00     0.031 A 
ATOM     78  C   UNL A   1      38.922  28.614  30.663  1.00  0.00     0.131 A 
ATOM     79  C   UNL A   1      37.140  30.231  29.315  1.00  0.00     0.055 A 
ATOM     80  C   UNL A   1      37.638  28.799  31.176  1.00  0.00     0.041 A 
ATOM     81  F   UNL A   1      39.767  27.849  31.374  1.00  0.00    -0.206 F 
ATOM     82  C   UNL A   1      36.743  29.626  30.508  1.00  0.00     0.022 A 
BRANCH  79  83
ATOM     83  S   UNL A   1      36.057  31.445  28.512  1.00  0.00     0.124 S 
ATOM     84  O   UNL A   1      34.987  31.582  29.494  1.00  0.00    -0.237 OA
ATOM     85  O   UNL A   1      36.944  32.594  28.367  1.00  0.00    -0.237 OA
ATOM     86  O   UNL A   1      35.677  30.789  27.263  1.00  0.00    -0.744 OA
ENDBRANCH  79  83
ENDBRANCH  52  76
BRANCH  64  87
ATOM     87  C   UNL A   1      45.097  33.110  29.689  1.00  0.00     0.023 A 
ATOM     88  C   UNL A   1      44.938  34.237  28.865  1.00  0.00     0.031 A 
ATOM     89  C   UNL A   1      45.508  33.314  31.019  1.00  0.00     0.131 A 
ATOM     90  C   UNL A   1      45.243  35.512  29.363  1.00  0.00     0.055 A 
ATOM     91  C   UNL A   1      45.745  34.590  31.528  1.00  0.00     0.041 A 
ATOM     92  F   UNL A   1      45.680  32.271  31.847  1.00  0.00    -0.206 F 
ATOM     93  C   UNL A   1      45.626  35.698  30.694  1.00  0.00     0.022 A 
BRANCH  90  94
ATOM     94  S   UNL A   1      45.229  36.921  28.220  1.00  0.00     0.124 S 
ATOM     95  O   UNL A   1      45.841  37.971  29.026  1.00  0.00    -0.237 OA
ATOM     96  O   UNL A   1      46.028  36.426  27.104  1.00  0.00    -0.237 OA
ATOM     97  O   UNL A   1      43.809  37.110  27.928  1.00  0.00    -0.744 OA
ENDBRANCH  90  94
ENDBRANCH  64  87
ENDBRANCH  38  39
ENDBRANCH  31  33
ENDBRANCH  30  31
ENDBRANCH  29  30
ENDBRANCH   1  29
TORSDOF 19
ENDMDL
