MODEL 1
REMARK VINA RESULT:     -14.9      0.000      0.000
REMARK SMILES O=C(OCCOC(=O)[C@H]1CN(C(=O)C[C@H]2NC(=O)c3ccccc32)C[C@@H]1c1ccc(F)cc1)c1ccc(-c2c3nc(c(-c4cc(S(=O)(=O)[O-])ccc4F)c4ccc([nH]4)c(-c4cc(S(=O)(=O)[O-])ccc4F)c4nc(c(-c5cc(S(=O)(=O)[O-])ccc5F)c5ccc2[nH]5)C=C4)C=C3)cc1
REMARK SMILES IDX 4 1 3 2 2 3 1 4 34 5 35 6 96 7 36 8 95 9 37 10 38 11 39 12
REMARK SMILES IDX 89 13 40 14 94 15 88 16 90 17 41 18 93 19 87 20 86 21 42 23
REMARK SMILES IDX 74 24 54 25 73 26 55 27 58 28 72 29 91 30 56 31 57 32 71 34
REMARK SMILES IDX 92 35 59 36 43 37 44 38 52 39 45 40 51 41 53 42 50 43 46 44
REMARK SMILES IDX 47 45 48 46 49 47 75 48 76 49 84 50 77 51 83 52 85 53 82 54
REMARK SMILES IDX 78 55 79 56 80 57 81 58 60 59 61 60 69 61 62 62 68 63 70 64
REMARK SMILES IDX 67 65 63 66 64 67 65 68 66 69 5 70 6 71 7 72 8 73 9 74 10 75
REMARK SMILES IDX 26 76 11 77 25 78 27 79 28 80 33 81 29 82 32 83 30 84 31 85
REMARK SMILES IDX 12 86 13 87 14 88 15 89 16 90 24 91 17 92 19 94 23 95 18 96
REMARK SMILES IDX 20 97 22 98 21 99
REMARK H PARENT 90 22 58 33 16 93
REMARK Flexibility Score: inf
ROOT
ATOM      1  C   UNL A   1      30.677  23.776  23.479  1.00  0.00     0.275 C 
ENDROOT
BRANCH   1   2
ATOM      2  O   UNL A   1      31.029  22.737  24.510  1.00  0.00    -0.458 OA
BRANCH   2   3
ATOM      3  C   UNL A   1      32.181  22.234  25.121  1.00  0.00     0.338 C 
ATOM      4  O   UNL A   1      32.215  21.064  25.487  1.00  0.00    -0.246 OA
BRANCH   3   5
ATOM      5  C   UNL A   1      33.322  23.138  25.527  1.00  0.00     0.060 A 
ATOM      6  C   UNL A   1      33.807  22.849  26.722  1.00  0.00     0.016 A 
ATOM      7  C   UNL A   1      34.124  24.093  24.819  1.00  0.00     0.016 A 
ATOM      8  C   UNL A   1      35.194  23.083  26.876  1.00  0.00     0.010 A 
ATOM      9  C   UNL A   1      35.572  24.522  25.211  1.00  0.00     0.010 A 
ATOM     10  C   UNL A   1      36.278  23.939  26.284  1.00  0.00    -0.014 A 
BRANCH  10  11
ATOM     11  C   UNL A   1      38.010  24.186  26.819  1.00  0.00     0.031 A 
ATOM     12  C   UNL A   1      38.827  25.355  27.917  1.00  0.00     0.074 A 
ATOM     13  C   UNL A   1      39.062  23.392  26.505  1.00  0.00     0.049 A 
ATOM     14  N   UNL A   1      39.700  26.290  27.509  1.00  0.00    -0.248 NA
ATOM     15  C   UNL A   1      38.515  25.709  29.356  1.00  0.00     0.031 C 
ATOM     16  C   UNL A   1      38.999  22.121  25.830  1.00  0.00     0.029 A 
ATOM     17  N   UNL A   1      40.402  23.493  26.870  1.00  0.00    -0.354 N 
ATOM     18  C   UNL A   1      39.615  27.388  28.412  1.00  0.00     0.074 A 
ATOM     19  C   UNL A   1      38.709  27.014  29.437  1.00  0.00     0.031 C 
ATOM     20  C   UNL A   1      40.167  21.472  26.003  1.00  0.00     0.029 A 
ATOM     21  C   UNL A   1      41.147  22.364  26.628  1.00  0.00     0.049 A 
ATOM     22  H   UNL A   1      40.786  24.307  27.269  1.00  0.00     0.167 HD
ATOM     23  C   UNL A   1      40.331  28.531  28.551  1.00  0.00     0.034 A 
ATOM     24  C   UNL A   1      42.461  22.103  26.846  1.00  0.00     0.034 A 
ATOM     25  C   UNL A   1      41.754  28.449  28.453  1.00  0.00     0.049 A 
ATOM     26  C   UNL A   1      43.400  23.205  27.333  1.00  0.00     0.074 A 
ATOM     27  C   UNL A   1      42.713  29.376  28.804  1.00  0.00     0.029 A 
ATOM     28  N   UNL A   1      42.403  27.257  28.184  1.00  0.00    -0.354 N 
ATOM     29  N   UNL A   1      43.140  24.445  27.692  1.00  0.00    -0.248 NA
ATOM     30  C   UNL A   1      44.836  22.875  27.378  1.00  0.00     0.031 C 
ATOM     31  C   UNL A   1      43.949  28.720  28.797  1.00  0.00     0.029 A 
ATOM     32  C   UNL A   1      43.742  27.393  28.445  1.00  0.00     0.049 A 
ATOM     33  H   UNL A   1      41.970  26.437  27.855  1.00  0.00     0.167 HD
ATOM     34  C   UNL A   1      44.378  25.036  27.984  1.00  0.00     0.074 A 
ATOM     35  C   UNL A   1      45.379  24.008  27.802  1.00  0.00     0.031 C 
ATOM     36  C   UNL A   1      44.683  26.316  28.325  1.00  0.00     0.034 A 
BRANCH  23  37
ATOM     37  C   UNL A   1      39.683  29.825  29.041  1.00  0.00     0.023 A 
ATOM     38  C   UNL A   1      40.085  30.605  30.142  1.00  0.00     0.031 A 
ATOM     39  C   UNL A   1      38.555  30.290  28.332  1.00  0.00     0.131 A 
ATOM     40  C   UNL A   1      39.299  31.686  30.589  1.00  0.00     0.055 A 
ATOM     41  C   UNL A   1      37.844  31.437  28.707  1.00  0.00     0.041 A 
ATOM     42  F   UNL A   1      38.119  29.632  27.246  1.00  0.00    -0.206 F 
ATOM     43  C   UNL A   1      38.196  32.127  29.861  1.00  0.00     0.022 A 
BRANCH  40  44
ATOM     44  S   UNL A   1      39.676  32.444  32.198  1.00  0.00     0.124 S 
ATOM     45  O   UNL A   1      41.085  32.798  32.033  1.00  0.00    -0.237 OA
ATOM     46  O   UNL A   1      38.749  33.568  32.254  1.00  0.00    -0.237 OA
ATOM     47  O   UNL A   1      39.414  31.373  33.157  1.00  0.00    -0.744 OA
ENDBRANCH  40  44
ENDBRANCH  23  37
BRANCH  24  48
ATOM     48  C   UNL A   1      43.006  20.742  26.513  1.00  0.00     0.023 A 
ATOM     49  C   UNL A   1      44.137  20.566  25.691  1.00  0.00     0.031 A 
ATOM     50  C   UNL A   1      42.395  19.584  27.030  1.00  0.00     0.131 A 
ATOM     51  C   UNL A   1      44.625  19.269  25.435  1.00  0.00     0.055 A 
ATOM     52  C   UNL A   1      42.923  18.309  26.828  1.00  0.00     0.041 A 
ATOM     53  F   UNL A   1      41.289  19.679  27.785  1.00  0.00    -0.206 F 
ATOM     54  C   UNL A   1      44.044  18.145  26.026  1.00  0.00     0.022 A 
BRANCH  51  55
ATOM     55  S   UNL A   1      46.013  19.045  24.282  1.00  0.00     0.124 S 
ATOM     56  O   UNL A   1      46.602  20.379  24.259  1.00  0.00    -0.237 OA
ATOM     57  O   UNL A   1      46.797  18.007  24.942  1.00  0.00    -0.237 OA
ATOM     58  O   UNL A   1      45.362  18.632  23.040  1.00  0.00    -0.744 OA
ENDBRANCH  51  55
ENDBRANCH  24  48
BRANCH  36  59
ATOM     59  C   UNL A   1      46.119  26.692  28.546  1.00  0.00     0.023 A 
ATOM     60  C   UNL A   1      46.831  27.338  27.526  1.00  0.00     0.031 A 
ATOM     61  C   UNL A   1      46.709  26.582  29.817  1.00  0.00     0.131 A 
ATOM     62  C   UNL A   1      48.108  27.847  27.789  1.00  0.00     0.055 A 
ATOM     63  C   UNL A   1      47.965  27.124  30.084  1.00  0.00     0.041 A 
ATOM     64  F   UNL A   1      46.043  26.005  30.831  1.00  0.00    -0.206 F 
ATOM     65  C   UNL A   1      48.673  27.761  29.065  1.00  0.00     0.022 A 
BRANCH  62  66
ATOM     66  S   UNL A   1      49.016  28.629  26.433  1.00  0.00     0.124 S 
ATOM     67  O   UNL A   1      50.372  28.135  26.656  1.00  0.00    -0.237 OA
ATOM     68  O   UNL A   1      48.335  28.107  25.253  1.00  0.00    -0.237 OA
ATOM     69  O   UNL A   1      48.829  30.058  26.674  1.00  0.00    -0.744 OA
ENDBRANCH  62  66
ENDBRANCH  36  59
ENDBRANCH  10  11
ENDBRANCH   3   5
ENDBRANCH   2   3
ENDBRANCH   1   2
BRANCH   1  70
ATOM     70  C   UNL A   1      30.352  25.189  24.056  1.00  0.00     0.274 C 
BRANCH  70  71
ATOM     71  O   UNL A   1      31.534  25.873  24.480  1.00  0.00    -0.462 OA
BRANCH  71  72
ATOM     72  C   UNL A   1      31.430  26.625  25.607  1.00  0.00     0.311 C 
ATOM     73  O   UNL A   1      31.793  26.263  26.718  1.00  0.00    -0.252 OA
BRANCH  72  74
ATOM     74  C   UNL A   1      31.055  28.047  25.269  1.00  0.00     0.128 C 
ATOM     75  C   UNL A   1      31.554  28.993  26.343  1.00  0.00     0.135 C 
ATOM     76  C   UNL A   1      31.572  28.747  24.021  1.00  0.00     0.055 C 
ATOM     77  N   UNL A   1      32.830  29.587  26.062  1.00  0.00    -0.341 N 
ATOM     78  C   UNL A   1      33.001  29.273  24.594  1.00  0.00     0.128 C 
BRANCH  76  79
ATOM     79  C   UNL A   1      30.498  29.760  23.456  1.00  0.00    -0.042 A 
ATOM     80  C   UNL A   1      30.002  29.625  22.146  1.00  0.00     0.007 A 
ATOM     81  C   UNL A   1      29.891  30.797  24.218  1.00  0.00     0.007 A 
ATOM     82  C   UNL A   1      29.012  30.498  21.631  1.00  0.00     0.039 A 
ATOM     83  C   UNL A   1      28.938  31.692  23.702  1.00  0.00     0.039 A 
ATOM     84  C   UNL A   1      28.504  31.533  22.405  1.00  0.00     0.123 A 
ATOM     85  F   UNL A   1      27.571  32.361  21.912  1.00  0.00    -0.207 F 
ENDBRANCH  76  79
BRANCH  77  86
ATOM     86  C   UNL A   1      33.801  30.251  26.926  1.00  0.00     0.225 C 
ATOM     87  O   UNL A   1      34.950  29.768  26.807  1.00  0.00    -0.275 OA
BRANCH  86  88
ATOM     88  C   UNL A   1      33.738  31.609  28.265  1.00  0.00     0.130 C 
BRANCH  88  89
ATOM     89  C   UNL A   1      34.326  33.426  28.714  1.00  0.00     0.123 C 
ATOM     90  N   UNL A   1      33.609  34.667  28.177  1.00  0.00    -0.345 N 
ATOM     91  C   UNL A   1      34.516  34.169  30.119  1.00  0.00    -0.012 A 
ATOM     92  C   UNL A   1      33.017  35.545  29.011  1.00  0.00     0.252 C 
ATOM     93  H   UNL A   1      33.580  34.827  27.206  1.00  0.00     0.164 HD
ATOM     94  C   UNL A   1      33.601  35.261  30.275  1.00  0.00     0.045 A 
ATOM     95  C   UNL A   1      35.396  34.023  31.164  1.00  0.00     0.007 A 
ATOM     96  O   UNL A   1      32.226  36.449  28.760  1.00  0.00    -0.269 OA
ATOM     97  C   UNL A   1      33.365  36.039  31.396  1.00  0.00     0.014 A 
ATOM     98  C   UNL A   1      35.213  34.824  32.330  1.00  0.00     0.000 A 
ATOM     99  C   UNL A   1      34.184  35.785  32.465  1.00  0.00     0.001 A 
ENDBRANCH  88  89
ENDBRANCH  86  88
ENDBRANCH  77  86
ENDBRANCH  72  74
ENDBRANCH  71  72
ENDBRANCH  70  71
ENDBRANCH   1  70
TORSDOF 18
ENDMDL
MODEL 2
REMARK VINA RESULT:     -14.7      4.229     10.935
REMARK SMILES O=C(OCCOC(=O)[C@H]1CN(C(=O)C[C@H]2NC(=O)c3ccccc32)C[C@@H]1c1ccc(F)cc1)c1ccc(-c2c3nc(c(-c4cc(S(=O)(=O)[O-])ccc4F)c4ccc([nH]4)c(-c4cc(S(=O)(=O)[O-])ccc4F)c4nc(c(-c5cc(S(=O)(=O)[O-])ccc5F)c5ccc2[nH]5)C=C4)C=C3)cc1
REMARK SMILES IDX 4 1 3 2 2 3 1 4 34 5 35 6 96 7 36 8 95 9 37 10 38 11 39 12
REMARK SMILES IDX 89 13 40 14 94 15 88 16 90 17 41 18 93 19 87 20 86 21 42 23
REMARK SMILES IDX 74 24 54 25 73 26 55 27 58 28 72 29 91 30 56 31 57 32 71 34
REMARK SMILES IDX 92 35 59 36 43 37 44 38 52 39 45 40 51 41 53 42 50 43 46 44
REMARK SMILES IDX 47 45 48 46 49 47 75 48 76 49 84 50 77 51 83 52 85 53 82 54
REMARK SMILES IDX 78 55 79 56 80 57 81 58 60 59 61 60 69 61 62 62 68 63 70 64
REMARK SMILES IDX 67 65 63 66 64 67 65 68 66 69 5 70 6 71 7 72 8 73 9 74 10 75
REMARK SMILES IDX 26 76 11 77 25 78 27 79 28 80 33 81 29 82 32 83 30 84 31 85
REMARK SMILES IDX 12 86 13 87 14 88 15 89 16 90 24 91 17 92 19 94 23 95 18 96
REMARK SMILES IDX 20 97 22 98 21 99
REMARK H PARENT 90 22 58 33 16 93
REMARK Flexibility Score: inf
ROOT
ATOM      1  C   UNL A   1      31.518  27.597  26.828  1.00  0.00     0.275 C 
ENDROOT
BRANCH   1   2
ATOM      2  O   UNL A   1      31.353  29.081  27.017  1.00  0.00    -0.458 OA
BRANCH   2   3
ATOM      3  C   UNL A   1      32.091  30.243  26.775  1.00  0.00     0.338 C 
ATOM      4  O   UNL A   1      31.561  31.195  26.210  1.00  0.00    -0.246 OA
BRANCH   3   5
ATOM      5  C   UNL A   1      33.583  30.299  27.009  1.00  0.00     0.060 A 
ATOM      6  C   UNL A   1      33.930  31.214  27.897  1.00  0.00     0.016 A 
ATOM      7  C   UNL A   1      34.672  29.442  26.640  1.00  0.00     0.016 A 
ATOM      8  C   UNL A   1      35.064  30.887  28.679  1.00  0.00     0.010 A 
ATOM      9  C   UNL A   1      36.031  29.334  27.399  1.00  0.00     0.010 A 
ATOM     10  C   UNL A   1      36.296  30.030  28.597  1.00  0.00    -0.014 A 
BRANCH  10  11
ATOM     11  C   UNL A   1      37.744  29.938  29.711  1.00  0.00     0.031 A 
ATOM     12  C   UNL A   1      39.494  29.595  29.465  1.00  0.00     0.074 A 
ATOM     13  C   UNL A   1      37.750  30.224  31.036  1.00  0.00     0.049 A 
ATOM     14  N   UNL A   1      40.121  28.502  29.927  1.00  0.00    -0.248 NA
ATOM     15  C   UNL A   1      40.482  30.246  28.519  1.00  0.00     0.031 C 
ATOM     16  C   UNL A   1      36.667  30.805  31.788  1.00  0.00     0.029 A 
ATOM     17  N   UNL A   1      38.796  30.191  31.955  1.00  0.00    -0.354 N 
ATOM     18  C   UNL A   1      41.201  28.214  29.044  1.00  0.00     0.074 A 
ATOM     19  C   UNL A   1      41.239  29.254  28.082  1.00  0.00     0.031 C 
ATOM     20  C   UNL A   1      37.142  31.262  32.963  1.00  0.00     0.029 A 
ATOM     21  C   UNL A   1      38.528  30.822  33.146  1.00  0.00     0.049 A 
ATOM     22  H   UNL A   1      39.657  29.753  31.768  1.00  0.00     0.167 HD
ATOM     23  C   UNL A   1      42.215  27.315  29.085  1.00  0.00     0.034 A 
ATOM     24  C   UNL A   1      39.292  30.986  34.257  1.00  0.00     0.034 A 
ATOM     25  C   UNL A   1      42.902  27.131  30.324  1.00  0.00     0.049 A 
ATOM     26  C   UNL A   1      40.655  30.303  34.367  1.00  0.00     0.074 A 
ATOM     27  C   UNL A   1      44.101  26.498  30.577  1.00  0.00     0.029 A 
ATOM     28  N   UNL A   1      42.534  27.806  31.474  1.00  0.00    -0.354 N 
ATOM     29  N   UNL A   1      41.323  29.594  33.481  1.00  0.00    -0.248 NA
ATOM     30  C   UNL A   1      41.334  30.398  35.672  1.00  0.00     0.031 C 
ATOM     31  C   UNL A   1      44.486  26.841  31.879  1.00  0.00     0.029 A 
ATOM     32  C   UNL A   1      43.522  27.683  32.416  1.00  0.00     0.049 A 
ATOM     33  H   UNL A   1      41.691  28.299  31.597  1.00  0.00     0.167 HD
ATOM     34  C   UNL A   1      42.484  29.150  34.132  1.00  0.00     0.074 A 
ATOM     35  C   UNL A   1      42.447  29.705  35.466  1.00  0.00     0.031 C 
ATOM     36  C   UNL A   1      43.473  28.324  33.700  1.00  0.00     0.034 A 
BRANCH  23  37
ATOM     37  C   UNL A   1      42.784  26.695  27.809  1.00  0.00     0.023 A 
ATOM     38  C   UNL A   1      44.093  26.841  27.312  1.00  0.00     0.031 A 
ATOM     39  C   UNL A   1      41.911  25.903  27.032  1.00  0.00     0.131 A 
ATOM     40  C   UNL A   1      44.441  26.354  26.036  1.00  0.00     0.055 A 
ATOM     41  C   UNL A   1      42.297  25.318  25.819  1.00  0.00     0.041 A 
ATOM     42  F   UNL A   1      40.653  25.678  27.444  1.00  0.00    -0.206 F 
ATOM     43  C   UNL A   1      43.561  25.566  25.298  1.00  0.00     0.022 A 
BRANCH  40  44
ATOM     44  S   UNL A   1      46.028  26.856  25.304  1.00  0.00     0.124 S 
ATOM     45  O   UNL A   1      46.358  25.688  24.487  1.00  0.00    -0.237 OA
ATOM     46  O   UNL A   1      45.678  28.061  24.561  1.00  0.00    -0.237 OA
ATOM     47  O   UNL A   1      46.894  27.067  26.462  1.00  0.00    -0.744 OA
ENDBRANCH  40  44
ENDBRANCH  23  37
BRANCH  24  48
ATOM     48  C   UNL A   1      38.745  31.767  35.418  1.00  0.00     0.023 A 
ATOM     49  C   UNL A   1      38.173  31.140  36.543  1.00  0.00     0.031 A 
ATOM     50  C   UNL A   1      38.799  33.174  35.419  1.00  0.00     0.131 A 
ATOM     51  C   UNL A   1      37.702  31.920  37.619  1.00  0.00     0.055 A 
ATOM     52  C   UNL A   1      38.394  33.935  36.514  1.00  0.00     0.041 A 
ATOM     53  F   UNL A   1      39.293  33.835  34.359  1.00  0.00    -0.206 F 
ATOM     54  C   UNL A   1      37.841  33.309  37.623  1.00  0.00     0.022 A 
BRANCH  51  55
ATOM     55  S   UNL A   1      36.861  31.109  39.012  1.00  0.00     0.124 S 
ATOM     56  O   UNL A   1      35.664  31.929  39.159  1.00  0.00    -0.237 OA
ATOM     57  O   UNL A   1      36.657  29.757  38.504  1.00  0.00    -0.237 OA
ATOM     58  O   UNL A   1      37.828  31.219  40.104  1.00  0.00    -0.744 OA
ENDBRANCH  51  55
ENDBRANCH  24  48
BRANCH  36  59
ATOM     59  C   UNL A   1      44.597  27.977  34.632  1.00  0.00     0.023 A 
ATOM     60  C   UNL A   1      45.700  28.835  34.737  1.00  0.00     0.031 A 
ATOM     61  C   UNL A   1      44.481  26.909  35.539  1.00  0.00     0.131 A 
ATOM     62  C   UNL A   1      46.660  28.608  35.730  1.00  0.00     0.055 A 
ATOM     63  C   UNL A   1      45.421  26.710  36.549  1.00  0.00     0.041 A 
ATOM     64  F   UNL A   1      43.420  26.089  35.496  1.00  0.00    -0.206 F 
ATOM     65  C   UNL A   1      46.520  27.563  36.648  1.00  0.00     0.022 A 
BRANCH  62  66
ATOM     66  S   UNL A   1      48.097  29.707  35.801  1.00  0.00     0.124 S 
ATOM     67  O   UNL A   1      47.517  30.985  35.397  1.00  0.00    -0.237 OA
ATOM     68  O   UNL A   1      48.505  29.606  37.198  1.00  0.00    -0.237 OA
ATOM     69  O   UNL A   1      49.026  29.117  34.840  1.00  0.00    -0.744 OA
ENDBRANCH  62  66
ENDBRANCH  36  59
ENDBRANCH  10  11
ENDBRANCH   3   5
ENDBRANCH   2   3
ENDBRANCH   1   2
BRANCH   1  70
ATOM     70  C   UNL A   1      31.945  27.161  25.392  1.00  0.00     0.274 C 
BRANCH  70  71
ATOM     71  O   UNL A   1      32.338  25.786  25.351  1.00  0.00    -0.462 OA
BRANCH  71  72
ATOM     72  C   UNL A   1      33.672  25.537  25.294  1.00  0.00     0.311 C 
ATOM     73  O   UNL A   1      34.538  26.288  25.724  1.00  0.00    -0.252 OA
BRANCH  72  74
ATOM     74  C   UNL A   1      33.934  24.111  24.873  1.00  0.00     0.128 C 
ATOM     75  C   UNL A   1      35.413  23.896  24.627  1.00  0.00     0.135 C 
ATOM     76  C   UNL A   1      33.629  22.930  25.782  1.00  0.00     0.055 C 
ATOM     77  N   UNL A   1      36.131  23.372  25.755  1.00  0.00    -0.341 N 
ATOM     78  C   UNL A   1      35.005  22.912  26.651  1.00  0.00     0.128 C 
BRANCH  76  79
ATOM     79  C   UNL A   1      33.182  21.669  24.940  1.00  0.00    -0.042 A 
ATOM     80  C   UNL A   1      32.491  21.826  23.724  1.00  0.00     0.007 A 
ATOM     81  C   UNL A   1      33.507  20.324  25.269  1.00  0.00     0.007 A 
ATOM     82  C   UNL A   1      32.114  20.713  22.933  1.00  0.00     0.039 A 
ATOM     83  C   UNL A   1      33.101  19.212  24.511  1.00  0.00     0.039 A 
ATOM     84  C   UNL A   1      32.404  19.418  23.342  1.00  0.00     0.123 A 
ATOM     85  F   UNL A   1      32.040  18.366  22.593  1.00  0.00    -0.207 F 
ENDBRANCH  76  79
BRANCH  77  86
ATOM     86  C   UNL A   1      37.557  23.339  26.065  1.00  0.00     0.225 C 
ATOM     87  O   UNL A   1      37.967  24.431  26.520  1.00  0.00    -0.275 OA
BRANCH  86  88
ATOM     88  C   UNL A   1      38.973  22.077  25.862  1.00  0.00     0.130 C 
BRANCH  88  89
ATOM     89  C   UNL A   1      40.582  21.343  26.712  1.00  0.00     0.123 C 
ATOM     90  N   UNL A   1      41.623  20.544  25.924  1.00  0.00    -0.345 N 
ATOM     91  C   UNL A   1      41.767  22.040  27.533  1.00  0.00    -0.012 A 
ATOM     92  C   UNL A   1      42.893  20.981  25.807  1.00  0.00     0.252 C 
ATOM     93  H   UNL A   1      41.361  19.697  25.498  1.00  0.00     0.164 HD
ATOM     94  C   UNL A   1      43.023  21.937  26.850  1.00  0.00     0.045 A 
ATOM     95  C   UNL A   1      41.845  22.652  28.760  1.00  0.00     0.007 A 
ATOM     96  O   UNL A   1      43.782  20.603  25.050  1.00  0.00    -0.269 OA
ATOM     97  C   UNL A   1      44.232  22.533  27.168  1.00  0.00     0.014 A 
ATOM     98  C   UNL A   1      43.079  23.254  29.147  1.00  0.00     0.000 A 
ATOM     99  C   UNL A   1      44.243  23.238  28.343  1.00  0.00     0.001 A 
ENDBRANCH  88  89
ENDBRANCH  86  88
ENDBRANCH  77  86
ENDBRANCH  72  74
ENDBRANCH  71  72
ENDBRANCH  70  71
ENDBRANCH   1  70
TORSDOF 18
ENDMDL
MODEL 3
REMARK VINA RESULT:     -14.2      3.776      7.250
REMARK SMILES O=C(OCCOC(=O)[C@H]1CN(C(=O)C[C@H]2NC(=O)c3ccccc32)C[C@@H]1c1ccc(F)cc1)c1ccc(-c2c3nc(c(-c4cc(S(=O)(=O)[O-])ccc4F)c4ccc([nH]4)c(-c4cc(S(=O)(=O)[O-])ccc4F)c4nc(c(-c5cc(S(=O)(=O)[O-])ccc5F)c5ccc2[nH]5)C=C4)C=C3)cc1
REMARK SMILES IDX 4 1 3 2 2 3 1 4 34 5 35 6 96 7 36 8 95 9 37 10 38 11 39 12
REMARK SMILES IDX 89 13 40 14 94 15 88 16 90 17 41 18 93 19 87 20 86 21 42 23
REMARK SMILES IDX 74 24 54 25 73 26 55 27 58 28 72 29 91 30 56 31 57 32 71 34
REMARK SMILES IDX 92 35 59 36 43 37 44 38 52 39 45 40 51 41 53 42 50 43 46 44
REMARK SMILES IDX 47 45 48 46 49 47 75 48 76 49 84 50 77 51 83 52 85 53 82 54
REMARK SMILES IDX 78 55 79 56 80 57 81 58 60 59 61 60 69 61 62 62 68 63 70 64
REMARK SMILES IDX 67 65 63 66 64 67 65 68 66 69 5 70 6 71 7 72 8 73 9 74 10 75
REMARK SMILES IDX 26 76 11 77 25 78 27 79 28 80 33 81 29 82 32 83 30 84 31 85
REMARK SMILES IDX 12 86 13 87 14 88 15 89 16 90 24 91 17 92 19 94 23 95 18 96
REMARK SMILES IDX 20 97 22 98 21 99
REMARK H PARENT 90 22 58 33 16 93
REMARK Flexibility Score: inf
ROOT
ATOM      1  C   UNL A   1      32.406  32.244  27.136  1.00  0.00     0.275 C 
ENDROOT
BRANCH   1   2
ATOM      2  O   UNL A   1      33.529  31.789  28.030  1.00  0.00    -0.458 OA
BRANCH   2   3
ATOM      3  C   UNL A   1      34.920  31.907  28.086  1.00  0.00     0.338 C 
ATOM      4  O   UNL A   1      35.470  32.876  27.574  1.00  0.00    -0.246 OA
BRANCH   3   5
ATOM      5  C   UNL A   1      35.792  30.779  28.586  1.00  0.00     0.060 A 
ATOM      6  C   UNL A   1      36.587  30.290  27.651  1.00  0.00     0.016 A 
ATOM      7  C   UNL A   1      36.093  30.270  29.893  1.00  0.00     0.016 A 
ATOM      8  C   UNL A   1      37.837  29.817  28.119  1.00  0.00     0.010 A 
ATOM      9  C   UNL A   1      37.391  29.497  30.282  1.00  0.00     0.010 A 
ATOM     10  C   UNL A   1      38.455  29.285  29.381  1.00  0.00    -0.014 A 
BRANCH  10  11
ATOM     11  C   UNL A   1      40.103  28.543  29.665  1.00  0.00     0.031 A 
ATOM     12  C   UNL A   1      41.276  28.582  31.029  1.00  0.00     0.074 A 
ATOM     13  C   UNL A   1      40.743  27.682  28.836  1.00  0.00     0.049 A 
ATOM     14  N   UNL A   1      42.478  29.177  30.974  1.00  0.00    -0.248 NA
ATOM     15  C   UNL A   1      41.067  28.251  32.492  1.00  0.00     0.031 C 
ATOM     16  C   UNL A   1      40.191  27.062  27.659  1.00  0.00     0.029 A 
ATOM     17  N   UNL A   1      41.984  27.064  28.971  1.00  0.00    -0.354 N 
ATOM     18  C   UNL A   1      42.812  29.605  32.291  1.00  0.00     0.074 A 
ATOM     19  C   UNL A   1      41.783  29.147  33.150  1.00  0.00     0.031 C 
ATOM     20  C   UNL A   1      40.972  26.025  27.300  1.00  0.00     0.029 A 
ATOM     21  C   UNL A   1      42.201  26.025  28.097  1.00  0.00     0.049 A 
ATOM     22  H   UNL A   1      42.650  27.346  29.638  1.00  0.00     0.167 HD
ATOM     23  C   UNL A   1      43.931  30.145  32.832  1.00  0.00     0.034 A 
ATOM     24  C   UNL A   1      43.274  25.209  27.937  1.00  0.00     0.034 A 
ATOM     25  C   UNL A   1      45.194  29.585  32.467  1.00  0.00     0.049 A 
ATOM     26  C   UNL A   1      44.561  25.458  28.722  1.00  0.00     0.074 A 
ATOM     27  C   UNL A   1      46.433  29.759  33.048  1.00  0.00     0.029 A 
ATOM     28  N   UNL A   1      45.300  28.549  31.556  1.00  0.00    -0.354 N 
ATOM     29  N   UNL A   1      44.823  26.337  29.667  1.00  0.00    -0.248 NA
ATOM     30  C   UNL A   1      45.724  24.629  28.359  1.00  0.00     0.031 C 
ATOM     31  C   UNL A   1      47.282  28.780  32.518  1.00  0.00     0.029 A 
ATOM     32  C   UNL A   1      46.559  28.010  31.618  1.00  0.00     0.049 A 
ATOM     33  H   UNL A   1      44.582  28.246  30.956  1.00  0.00     0.167 HD
ATOM     34  C   UNL A   1      46.178  26.173  29.989  1.00  0.00     0.074 A 
ATOM     35  C   UNL A   1      46.668  25.085  29.173  1.00  0.00     0.031 C 
ATOM     36  C   UNL A   1      46.971  26.875  30.841  1.00  0.00     0.034 A 
BRANCH  23  37
ATOM     37  C   UNL A   1      43.857  31.150  33.982  1.00  0.00     0.023 A 
ATOM     38  C   UNL A   1      44.022  30.875  35.353  1.00  0.00     0.031 A 
ATOM     39  C   UNL A   1      43.583  32.493  33.648  1.00  0.00     0.131 A 
ATOM     40  C   UNL A   1      43.762  31.862  36.325  1.00  0.00     0.055 A 
ATOM     41  C   UNL A   1      43.444  33.500  34.612  1.00  0.00     0.041 A 
ATOM     42  F   UNL A   1      43.446  32.857  32.364  1.00  0.00    -0.206 F 
ATOM     43  C   UNL A   1      43.503  33.182  35.964  1.00  0.00     0.022 A 
BRANCH  40  44
ATOM     44  S   UNL A   1      43.660  31.372  38.074  1.00  0.00     0.124 S 
ATOM     45  O   UNL A   1      44.540  32.355  38.706  1.00  0.00    -0.237 OA
ATOM     46  O   UNL A   1      42.240  31.519  38.371  1.00  0.00    -0.237 OA
ATOM     47  O   UNL A   1      44.159  29.999  38.079  1.00  0.00    -0.744 OA
ENDBRANCH  40  44
ENDBRANCH  23  37
BRANCH  24  48
ATOM     48  C   UNL A   1      43.219  24.115  26.909  1.00  0.00     0.023 A 
ATOM     49  C   UNL A   1      42.532  22.905  27.134  1.00  0.00     0.031 A 
ATOM     50  C   UNL A   1      43.856  24.275  25.662  1.00  0.00     0.131 A 
ATOM     51  C   UNL A   1      42.486  21.924  26.124  1.00  0.00     0.055 A 
ATOM     52  C   UNL A   1      43.749  23.329  24.644  1.00  0.00     0.041 A 
ATOM     53  F   UNL A   1      44.563  25.385  25.399  1.00  0.00    -0.206 F 
ATOM     54  C   UNL A   1      43.062  22.145  24.871  1.00  0.00     0.022 A 
BRANCH  51  55
ATOM     55  S   UNL A   1      41.698  20.322  26.467  1.00  0.00     0.124 S 
ATOM     56  O   UNL A   1      40.300  20.704  26.632  1.00  0.00    -0.237 OA
ATOM     57  O   UNL A   1      42.018  19.557  25.267  1.00  0.00    -0.237 OA
ATOM     58  O   UNL A   1      42.365  19.867  27.685  1.00  0.00    -0.744 OA
ENDBRANCH  51  55
ENDBRANCH  24  48
BRANCH  36  59
ATOM     59  C   UNL A   1      48.420  26.505  30.967  1.00  0.00     0.023 A 
ATOM     60  C   UNL A   1      48.810  25.536  31.902  1.00  0.00     0.031 A 
ATOM     61  C   UNL A   1      49.368  26.969  30.039  1.00  0.00     0.131 A 
ATOM     62  C   UNL A   1      50.126  25.062  31.899  1.00  0.00     0.055 A 
ATOM     63  C   UNL A   1      50.668  26.466  30.017  1.00  0.00     0.041 A 
ATOM     64  F   UNL A   1      49.024  27.868  29.103  1.00  0.00    -0.206 F 
ATOM     65  C   UNL A   1      51.053  25.506  30.952  1.00  0.00     0.022 A 
BRANCH  62  66
ATOM     66  S   UNL A   1      50.604  23.849  33.155  1.00  0.00     0.124 S 
ATOM     67  O   UNL A   1      51.599  24.590  33.924  1.00  0.00    -0.237 OA
ATOM     68  O   UNL A   1      49.341  23.583  33.836  1.00  0.00    -0.237 OA
ATOM     69  O   UNL A   1      51.131  22.734  32.370  1.00  0.00    -0.744 OA
ENDBRANCH  62  66
ENDBRANCH  36  59
ENDBRANCH  10  11
ENDBRANCH   3   5
ENDBRANCH   2   3
ENDBRANCH   1   2
BRANCH   1  70
ATOM     70  C   UNL A   1      31.518  31.098  26.562  1.00  0.00     0.274 C 
BRANCH  70  71
ATOM     71  O   UNL A   1      31.951  29.813  27.018  1.00  0.00    -0.462 OA
BRANCH  71  72
ATOM     72  C   UNL A   1      31.775  28.773  26.162  1.00  0.00     0.311 C 
ATOM     73  O   UNL A   1      31.750  27.596  26.495  1.00  0.00    -0.252 OA
BRANCH  72  74
ATOM     74  C   UNL A   1      31.356  29.267  24.799  1.00  0.00     0.128 C 
ATOM     75  C   UNL A   1      32.372  28.854  23.753  1.00  0.00     0.135 C 
ATOM     76  C   UNL A   1      30.068  28.807  24.131  1.00  0.00     0.055 C 
ATOM     77  N   UNL A   1      32.055  27.632  23.070  1.00  0.00    -0.341 N 
ATOM     78  C   UNL A   1      30.608  27.430  23.452  1.00  0.00     0.128 C 
BRANCH  76  79
ATOM     79  C   UNL A   1      29.447  29.961  23.247  1.00  0.00    -0.042 A 
ATOM     80  C   UNL A   1      29.272  29.790  21.862  1.00  0.00     0.007 A 
ATOM     81  C   UNL A   1      28.941  31.186  23.763  1.00  0.00     0.007 A 
ATOM     82  C   UNL A   1      28.683  30.795  21.056  1.00  0.00     0.039 A 
ATOM     83  C   UNL A   1      28.392  32.205  22.965  1.00  0.00     0.039 A 
ATOM     84  C   UNL A   1      28.266  31.998  21.609  1.00  0.00     0.123 A 
ATOM     85  F   UNL A   1      27.714  32.950  20.843  1.00  0.00    -0.207 F 
ENDBRANCH  76  79
BRANCH  77  86
ATOM     86  C   UNL A   1      32.879  26.725  22.276  1.00  0.00     0.225 C 
ATOM     87  O   UNL A   1      33.677  27.339  21.532  1.00  0.00    -0.275 OA
BRANCH  86  88
ATOM     88  C   UNL A   1      32.977  24.837  22.019  1.00  0.00     0.130 C 
BRANCH  88  89
ATOM     89  C   UNL A   1      33.898  23.201  22.590  1.00  0.00     0.123 C 
ATOM     90  N   UNL A   1      35.306  23.230  23.189  1.00  0.00    -0.345 N 
ATOM     91  C   UNL A   1      33.496  22.061  23.640  1.00  0.00    -0.012 A 
ATOM     92  C   UNL A   1      35.535  22.806  24.448  1.00  0.00     0.252 C 
ATOM     93  H   UNL A   1      36.057  23.562  22.645  1.00  0.00     0.164 HD
ATOM     94  C   UNL A   1      34.388  22.028  24.760  1.00  0.00     0.045 A 
ATOM     95  C   UNL A   1      32.529  21.086  23.664  1.00  0.00     0.007 A 
ATOM     96  O   UNL A   1      36.526  22.960  25.155  1.00  0.00    -0.269 OA
ATOM     97  C   UNL A   1      34.285  21.290  25.927  1.00  0.00     0.014 A 
ATOM     98  C   UNL A   1      32.403  20.277  24.833  1.00  0.00     0.000 A 
ATOM     99  C   UNL A   1      33.236  20.408  25.968  1.00  0.00     0.001 A 
ENDBRANCH  88  89
ENDBRANCH  86  88
ENDBRANCH  77  86
ENDBRANCH  72  74
ENDBRANCH  71  72
ENDBRANCH  70  71
ENDBRANCH   1  70
TORSDOF 18
ENDMDL
