MODEL 1
REMARK VINA RESULT:     -12.5      0.000      0.000
REMARK SMILES O=C(CC1CC[NH+](C[C@H]2Cc3ccccc3O2)CC1)OCCOC(=O)c1ccc(-c2c3nc(c(-c4cc(S(=O)(=O)[O-])ccc4F)c4ccc([nH]4)c(-c4cc(S(=O)(=O)[O-])ccc4F)c4nc(c(-c5cc(S(=O)(=O)[O-])ccc5F)c5ccc2[nH]5)C=C4)C=C3)cc1
REMARK SMILES IDX 21 1 20 2 2 3 1 4 3 5 4 6 5 7 19 8 6 9 18 10 7 11 8 13 9 14
REMARK SMILES IDX 10 15 17 16 11 17 16 18 12 19 15 20 13 21 14 22 22 23 23 24
REMARK SMILES IDX 24 25 25 26 26 27 27 28 88 29 28 30 87 31 29 32 30 33 31 34
REMARK SMILES IDX 81 35 32 36 86 37 80 38 82 39 33 40 85 41 79 42 78 43 34 45
REMARK SMILES IDX 66 46 46 47 65 48 47 49 50 50 64 51 83 52 48 53 49 54 63 56
REMARK SMILES IDX 84 57 51 58 35 59 36 60 44 61 37 62 43 63 45 64 42 65 38 66
REMARK SMILES IDX 39 67 40 68 41 69 67 70 68 71 76 72 69 73 75 74 77 75 74 76
REMARK SMILES IDX 70 77 71 78 72 79 73 80 52 81 53 82 61 83 54 84 60 85 62 86
REMARK SMILES IDX 59 87 55 88 56 89 57 90 58 91
REMARK H PARENT 7 12 82 44 50 55
REMARK Flexibility Score: inf
ROOT
ATOM      1  C   UNL A   1      32.535  29.574  25.552  1.00  0.00     0.274 C 
ENDROOT
BRANCH   1   2
ATOM      2  O   UNL A   1      31.494  28.582  25.671  1.00  0.00    -0.462 OA
BRANCH   2   3
ATOM      3  C   UNL A   1      31.528  27.513  26.498  1.00  0.00     0.306 C 
ATOM      4  O   UNL A   1      31.148  27.629  27.661  1.00  0.00    -0.252 OA
BRANCH   3   5
ATOM      5  C   UNL A   1      31.971  26.183  25.942  1.00  0.00     0.126 C 
BRANCH   5   6
ATOM      6  C   UNL A   1      33.232  26.248  25.067  1.00  0.00     0.011 C 
ATOM      7  C   UNL A   1      33.007  25.767  23.626  1.00  0.00     0.066 C 
ATOM      8  C   UNL A   1      34.350  25.392  25.687  1.00  0.00     0.066 C 
ATOM      9  C   UNL A   1      32.761  24.259  23.545  1.00  0.00     0.262 C 
ATOM     10  C   UNL A   1      34.058  23.886  25.583  1.00  0.00     0.262 C 
ATOM     11  N   UNL A   1      33.816  23.486  24.197  1.00  0.00    -0.332 N 
ATOM     12  H   UNL A   1      34.681  23.737  23.717  1.00  0.00     0.348 HD
BRANCH  11  13
ATOM     13  C   UNL A   1      33.711  22.023  23.969  1.00  0.00     0.308 C 
BRANCH  13  14
ATOM     14  C   UNL A   1      32.397  21.176  24.079  1.00  0.00     0.232 C 
ATOM     15  C   UNL A   1      32.138  20.252  22.899  1.00  0.00     0.090 C 
ATOM     16  O   UNL A   1      32.318  20.400  25.310  1.00  0.00    -0.484 OA
ATOM     17  C   UNL A   1      32.519  18.973  23.520  1.00  0.00    -0.002 A 
ATOM     18  C   UNL A   1      32.492  19.102  24.894  1.00  0.00     0.123 A 
ATOM     19  C   UNL A   1      32.914  17.797  22.926  1.00  0.00     0.007 A 
ATOM     20  C   UNL A   1      32.790  18.042  25.725  1.00  0.00     0.047 A 
ATOM     21  C   UNL A   1      33.277  16.725  23.739  1.00  0.00     0.001 A 
ATOM     22  C   UNL A   1      33.198  16.842  25.135  1.00  0.00     0.004 A 
ENDBRANCH  13  14
ENDBRANCH  11  13
ENDBRANCH   5   6
ENDBRANCH   3   5
ENDBRANCH   2   3
ENDBRANCH   1   2
BRANCH   1  23
ATOM     23  C   UNL A   1      32.307  30.729  26.529  1.00  0.00     0.275 C 
BRANCH  23  24
ATOM     24  O   UNL A   1      33.228  30.631  27.637  1.00  0.00    -0.458 OA
BRANCH  24  25
ATOM     25  C   UNL A   1      34.060  31.691  27.828  1.00  0.00     0.338 C 
ATOM     26  O   UNL A   1      33.732  32.859  27.795  1.00  0.00    -0.246 OA
BRANCH  25  27
ATOM     27  C   UNL A   1      35.438  31.231  28.181  1.00  0.00     0.060 A 
ATOM     28  C   UNL A   1      35.638  29.855  28.328  1.00  0.00     0.016 A 
ATOM     29  C   UNL A   1      36.526  32.099  28.364  1.00  0.00     0.016 A 
ATOM     30  C   UNL A   1      36.913  29.351  28.618  1.00  0.00     0.010 A 
ATOM     31  C   UNL A   1      37.804  31.592  28.680  1.00  0.00     0.010 A 
ATOM     32  C   UNL A   1      38.013  30.211  28.803  1.00  0.00    -0.014 A 
BRANCH  32  33
ATOM     33  C   UNL A   1      39.284  29.617  29.324  1.00  0.00     0.031 A 
ATOM     34  C   UNL A   1      39.697  30.011  30.711  1.00  0.00     0.074 A 
ATOM     35  C   UNL A   1      40.028  28.714  28.655  1.00  0.00     0.049 A 
ATOM     36  N   UNL A   1      40.606  29.493  31.490  1.00  0.00    -0.248 NA
ATOM     37  C   UNL A   1      38.988  31.168  31.278  1.00  0.00     0.031 C 
ATOM     38  C   UNL A   1      39.810  28.319  27.275  1.00  0.00     0.029 A 
ATOM     39  N   UNL A   1      41.097  27.935  29.048  1.00  0.00    -0.354 N 
ATOM     40  C   UNL A   1      40.563  30.244  32.656  1.00  0.00     0.074 A 
ATOM     41  C   UNL A   1      39.552  31.263  32.468  1.00  0.00     0.031 C 
ATOM     42  C   UNL A   1      40.630  27.300  26.963  1.00  0.00     0.029 A 
ATOM     43  C   UNL A   1      41.488  26.999  28.106  1.00  0.00     0.049 A 
ATOM     44  H   UNL A   1      41.542  28.036  29.920  1.00  0.00     0.167 HD
ATOM     45  C   UNL A   1      41.314  30.116  33.775  1.00  0.00     0.034 A 
ATOM     46  C   UNL A   1      42.423  26.022  28.166  1.00  0.00     0.034 A 
ATOM     47  C   UNL A   1      42.401  29.182  33.908  1.00  0.00     0.049 A 
ATOM     48  C   UNL A   1      43.273  25.920  29.419  1.00  0.00     0.074 A 
ATOM     49  C   UNL A   1      43.272  29.020  34.970  1.00  0.00     0.029 A 
ATOM     50  N   UNL A   1      42.795  28.278  32.929  1.00  0.00    -0.354 N 
ATOM     51  N   UNL A   1      43.188  26.608  30.535  1.00  0.00    -0.248 NA
ATOM     52  C   UNL A   1      44.363  24.933  29.409  1.00  0.00     0.031 C 
ATOM     53  C   UNL A   1      44.239  28.078  34.603  1.00  0.00     0.029 A 
ATOM     54  C   UNL A   1      43.915  27.578  33.351  1.00  0.00     0.049 A 
ATOM     55  H   UNL A   1      42.346  28.152  32.063  1.00  0.00     0.167 HD
ATOM     56  C   UNL A   1      44.203  26.123  31.361  1.00  0.00     0.074 A 
ATOM     57  C   UNL A   1      44.860  25.062  30.630  1.00  0.00     0.031 C 
ATOM     58  C   UNL A   1      44.567  26.525  32.607  1.00  0.00     0.034 A 
BRANCH  45  59
ATOM     59  C   UNL A   1      41.027  31.101  34.877  1.00  0.00     0.023 A 
ATOM     60  C   UNL A   1      39.869  30.994  35.668  1.00  0.00     0.031 A 
ATOM     61  C   UNL A   1      41.851  32.225  35.053  1.00  0.00     0.131 A 
ATOM     62  C   UNL A   1      39.516  32.045  36.526  1.00  0.00     0.055 A 
ATOM     63  C   UNL A   1      41.540  33.222  35.978  1.00  0.00     0.041 A 
ATOM     64  F   UNL A   1      42.946  32.396  34.295  1.00  0.00    -0.206 F 
ATOM     65  C   UNL A   1      40.357  33.145  36.706  1.00  0.00     0.022 A 
BRANCH  62  66
ATOM     66  S   UNL A   1      37.852  32.045  37.249  1.00  0.00     0.124 S 
ATOM     67  O   UNL A   1      37.071  32.674  36.187  1.00  0.00    -0.237 OA
ATOM     68  O   UNL A   1      37.603  30.625  37.470  1.00  0.00    -0.237 OA
ATOM     69  O   UNL A   1      38.006  32.849  38.459  1.00  0.00    -0.744 OA
ENDBRANCH  62  66
ENDBRANCH  45  59
BRANCH  46  70
ATOM     70  C   UNL A   1      42.676  25.076  27.022  1.00  0.00     0.023 A 
ATOM     71  C   UNL A   1      42.137  23.772  27.014  1.00  0.00     0.031 A 
ATOM     72  C   UNL A   1      43.554  25.412  25.976  1.00  0.00     0.131 A 
ATOM     73  C   UNL A   1      42.530  22.846  26.029  1.00  0.00     0.055 A 
ATOM     74  C   UNL A   1      43.883  24.511  24.959  1.00  0.00     0.041 A 
ATOM     75  F   UNL A   1      44.124  26.626  25.931  1.00  0.00    -0.206 F 
ATOM     76  C   UNL A   1      43.385  23.214  24.991  1.00  0.00     0.022 A 
BRANCH  73  77
ATOM     77  S   UNL A   1      42.015  21.109  26.192  1.00  0.00     0.124 S 
ATOM     78  O   UNL A   1      42.277  20.854  27.604  1.00  0.00    -0.237 OA
ATOM     79  O   UNL A   1      40.612  21.169  25.797  1.00  0.00    -0.237 OA
ATOM     80  O   UNL A   1      42.893  20.404  25.258  1.00  0.00    -0.744 OA
ENDBRANCH  73  77
ENDBRANCH  46  70
BRANCH  58  81
ATOM     81  C   UNL A   1      45.700  25.778  33.274  1.00  0.00     0.023 A 
ATOM     82  C   UNL A   1      45.484  24.626  34.052  1.00  0.00     0.031 A 
ATOM     83  C   UNL A   1      47.022  26.234  33.127  1.00  0.00     0.131 A 
ATOM     84  C   UNL A   1      46.563  24.010  34.705  1.00  0.00     0.055 A 
ATOM     85  C   UNL A   1      48.100  25.577  33.722  1.00  0.00     0.041 A 
ATOM     86  F   UNL A   1      47.290  27.329  32.397  1.00  0.00    -0.206 F 
ATOM     87  C   UNL A   1      47.872  24.467  34.529  1.00  0.00     0.022 A 
BRANCH  84  88
ATOM     88  S   UNL A   1      46.224  22.668  35.878  1.00  0.00     0.124 S 
ATOM     89  O   UNL A   1      44.765  22.649  35.908  1.00  0.00    -0.237 OA
ATOM     90  O   UNL A   1      46.862  21.523  35.236  1.00  0.00    -0.237 OA
ATOM     91  O   UNL A   1      46.863  23.121  37.112  1.00  0.00    -0.744 OA
ENDBRANCH  84  88
ENDBRANCH  58  81
ENDBRANCH  32  33
ENDBRANCH  25  27
ENDBRANCH  24  25
ENDBRANCH  23  24
ENDBRANCH   1  23
TORSDOF 17
ENDMDL
MODEL 2
REMARK VINA RESULT:     -12.4      4.895     10.637
REMARK SMILES O=C(CC1CC[NH+](C[C@H]2Cc3ccccc3O2)CC1)OCCOC(=O)c1ccc(-c2c3nc(c(-c4cc(S(=O)(=O)[O-])ccc4F)c4ccc([nH]4)c(-c4cc(S(=O)(=O)[O-])ccc4F)c4nc(c(-c5cc(S(=O)(=O)[O-])ccc5F)c5ccc2[nH]5)C=C4)C=C3)cc1
REMARK SMILES IDX 21 1 20 2 2 3 1 4 3 5 4 6 5 7 19 8 6 9 18 10 7 11 8 13 9 14
REMARK SMILES IDX 10 15 17 16 11 17 16 18 12 19 15 20 13 21 14 22 22 23 23 24
REMARK SMILES IDX 24 25 25 26 26 27 27 28 88 29 28 30 87 31 29 32 30 33 31 34
REMARK SMILES IDX 81 35 32 36 86 37 80 38 82 39 33 40 85 41 79 42 78 43 34 45
REMARK SMILES IDX 66 46 46 47 65 48 47 49 50 50 64 51 83 52 48 53 49 54 63 56
REMARK SMILES IDX 84 57 51 58 35 59 36 60 44 61 37 62 43 63 45 64 42 65 38 66
REMARK SMILES IDX 39 67 40 68 41 69 67 70 68 71 76 72 69 73 75 74 77 75 74 76
REMARK SMILES IDX 70 77 71 78 72 79 73 80 52 81 53 82 61 83 54 84 60 85 62 86
REMARK SMILES IDX 59 87 55 88 56 89 57 90 58 91
REMARK H PARENT 7 12 82 44 50 55
REMARK Flexibility Score: inf
ROOT
ATOM      1  C   UNL A   1      35.962  21.073  25.030  1.00  0.00     0.274 C 
ENDROOT
BRANCH   1   2
ATOM      2  O   UNL A   1      35.484  21.989  26.038  1.00  0.00    -0.462 OA
BRANCH   2   3
ATOM      3  C   UNL A   1      34.235  22.500  26.096  1.00  0.00     0.306 C 
ATOM      4  O   UNL A   1      33.596  22.433  27.143  1.00  0.00    -0.252 OA
BRANCH   3   5
ATOM      5  C   UNL A   1      33.686  23.206  24.881  1.00  0.00     0.126 C 
BRANCH   5   6
ATOM      6  C   UNL A   1      34.361  24.551  24.568  1.00  0.00     0.011 C 
ATOM      7  C   UNL A   1      34.097  25.633  25.624  1.00  0.00     0.066 C 
ATOM      8  C   UNL A   1      33.874  25.082  23.208  1.00  0.00     0.066 C 
ATOM      9  C   UNL A   1      32.644  26.112  25.621  1.00  0.00     0.262 C 
ATOM     10  C   UNL A   1      32.410  25.549  23.254  1.00  0.00     0.262 C 
ATOM     11  N   UNL A   1      32.204  26.552  24.299  1.00  0.00    -0.332 N 
ATOM     12  H   UNL A   1      32.835  27.309  24.035  1.00  0.00     0.348 HD
BRANCH  11  13
ATOM     13  C   UNL A   1      30.869  27.201  24.299  1.00  0.00     0.308 C 
BRANCH  13  14
ATOM     14  C   UNL A   1      29.887  27.261  23.079  1.00  0.00     0.232 C 
ATOM     15  C   UNL A   1      28.438  27.545  23.447  1.00  0.00     0.090 C 
ATOM     16  O   UNL A   1      30.305  28.207  22.053  1.00  0.00    -0.484 OA
ATOM     17  C   UNL A   1      28.369  28.957  23.038  1.00  0.00    -0.002 A 
ATOM     18  C   UNL A   1      29.397  29.233  22.159  1.00  0.00     0.123 A 
ATOM     19  C   UNL A   1      27.503  29.944  23.447  1.00  0.00     0.007 A 
ATOM     20  C   UNL A   1      29.556  30.485  21.602  1.00  0.00     0.047 A 
ATOM     21  C   UNL A   1      27.672  31.234  22.947  1.00  0.00     0.001 A 
ATOM     22  C   UNL A   1      28.686  31.499  22.014  1.00  0.00     0.004 A 
ENDBRANCH  13  14
ENDBRANCH  11  13
ENDBRANCH   5   6
ENDBRANCH   3   5
ENDBRANCH   2   3
ENDBRANCH   1   2
BRANCH   1  23
ATOM     23  C   UNL A   1      37.485  20.936  25.091  1.00  0.00     0.275 C 
BRANCH  23  24
ATOM     24  O   UNL A   1      38.070  22.138  25.638  1.00  0.00    -0.458 OA
BRANCH  24  25
ATOM     25  C   UNL A   1      39.290  22.004  26.225  1.00  0.00     0.338 C 
ATOM     26  O   UNL A   1      40.002  21.024  26.155  1.00  0.00    -0.246 OA
BRANCH  25  27
ATOM     27  C   UNL A   1      39.696  23.272  26.907  1.00  0.00     0.060 A 
ATOM     28  C   UNL A   1      39.018  24.440  26.547  1.00  0.00     0.016 A 
ATOM     29  C   UNL A   1      40.705  23.344  27.879  1.00  0.00     0.016 A 
ATOM     30  C   UNL A   1      39.320  25.657  27.174  1.00  0.00     0.010 A 
ATOM     31  C   UNL A   1      41.025  24.573  28.493  1.00  0.00     0.010 A 
ATOM     32  C   UNL A   1      40.329  25.742  28.152  1.00  0.00    -0.014 A 
BRANCH  32  33
ATOM     33  C   UNL A   1      40.741  27.106  28.613  1.00  0.00     0.031 A 
ATOM     34  C   UNL A   1      42.140  27.537  28.286  1.00  0.00     0.074 A 
ATOM     35  C   UNL A   1      39.920  27.974  29.236  1.00  0.00     0.049 A 
ATOM     36  N   UNL A   1      42.685  28.720  28.357  1.00  0.00    -0.248 NA
ATOM     37  C   UNL A   1      43.043  26.469  27.835  1.00  0.00     0.031 C 
ATOM     38  C   UNL A   1      38.582  27.660  29.705  1.00  0.00     0.029 A 
ATOM     39  N   UNL A   1      40.067  29.310  29.552  1.00  0.00    -0.354 N 
ATOM     40  C   UNL A   1      43.995  28.546  27.933  1.00  0.00     0.074 A 
ATOM     41  C   UNL A   1      44.161  27.140  27.628  1.00  0.00     0.031 C 
ATOM     42  C   UNL A   1      37.984  28.782  30.145  1.00  0.00     0.029 A 
ATOM     43  C   UNL A   1      38.919  29.900  30.049  1.00  0.00     0.049 A 
ATOM     44  H   UNL A   1      40.914  29.798  29.435  1.00  0.00     0.167 HD
ATOM     45  C   UNL A   1      44.982  29.468  27.829  1.00  0.00     0.034 A 
ATOM     46  C   UNL A   1      38.659  31.187  30.381  1.00  0.00     0.034 A 
ATOM     47  C   UNL A   1      44.847  30.837  28.250  1.00  0.00     0.049 A 
ATOM     48  C   UNL A   1      39.791  32.193  30.286  1.00  0.00     0.074 A 
ATOM     49  C   UNL A   1      45.805  31.834  28.257  1.00  0.00     0.029 A 
ATOM     50  N   UNL A   1      43.690  31.394  28.782  1.00  0.00    -0.354 N 
ATOM     51  N   UNL A   1      41.014  32.024  29.837  1.00  0.00    -0.248 NA
ATOM     52  C   UNL A   1      39.518  33.554  30.771  1.00  0.00     0.031 C 
ATOM     53  C   UNL A   1      45.254  32.967  28.865  1.00  0.00     0.029 A 
ATOM     54  C   UNL A   1      43.921  32.711  29.147  1.00  0.00     0.049 A 
ATOM     55  H   UNL A   1      42.832  30.923  28.883  1.00  0.00     0.167 HD
ATOM     56  C   UNL A   1      41.645  33.261  29.972  1.00  0.00     0.074 A 
ATOM     57  C   UNL A   1      40.659  34.173  30.508  1.00  0.00     0.031 C 
ATOM     58  C   UNL A   1      42.928  33.609  29.690  1.00  0.00     0.034 A 
BRANCH  45  59
ATOM     59  C   UNL A   1      46.311  28.957  27.338  1.00  0.00     0.023 A 
ATOM     60  C   UNL A   1      46.546  28.733  25.970  1.00  0.00     0.031 A 
ATOM     61  C   UNL A   1      47.302  28.571  28.255  1.00  0.00     0.131 A 
ATOM     62  C   UNL A   1      47.701  28.048  25.567  1.00  0.00     0.055 A 
ATOM     63  C   UNL A   1      48.493  27.975  27.837  1.00  0.00     0.041 A 
ATOM     64  F   UNL A   1      47.111  28.725  29.575  1.00  0.00    -0.206 F 
ATOM     65  C   UNL A   1      48.688  27.692  26.489  1.00  0.00     0.022 A 
BRANCH  62  66
ATOM     66  S   UNL A   1      47.801  27.458  23.854  1.00  0.00     0.124 S 
ATOM     67  O   UNL A   1      49.201  27.723  23.535  1.00  0.00    -0.237 OA
ATOM     68  O   UNL A   1      47.428  26.054  23.981  1.00  0.00    -0.237 OA
ATOM     69  O   UNL A   1      46.837  28.300  23.148  1.00  0.00    -0.744 OA
ENDBRANCH  62  66
ENDBRANCH  45  59
BRANCH  46  70
ATOM     70  C   UNL A   1      37.312  31.634  30.884  1.00  0.00     0.023 A 
ATOM     71  C   UNL A   1      36.396  32.297  30.039  1.00  0.00     0.031 A 
ATOM     72  C   UNL A   1      36.962  31.516  32.240  1.00  0.00     0.131 A 
ATOM     73  C   UNL A   1      35.221  32.865  30.569  1.00  0.00     0.055 A 
ATOM     74  C   UNL A   1      35.759  32.018  32.748  1.00  0.00     0.041 A 
ATOM     75  F   UNL A   1      37.794  30.920  33.108  1.00  0.00    -0.206 F 
ATOM     76  C   UNL A   1      34.889  32.712  31.915  1.00  0.00     0.022 A 
BRANCH  73  77
ATOM     77  S   UNL A   1      34.193  33.923  29.506  1.00  0.00     0.124 S 
ATOM     78  O   UNL A   1      33.275  34.512  30.475  1.00  0.00    -0.237 OA
ATOM     79  O   UNL A   1      35.182  34.823  28.925  1.00  0.00    -0.237 OA
ATOM     80  O   UNL A   1      33.587  32.978  28.568  1.00  0.00    -0.744 OA
ENDBRANCH  73  77
ENDBRANCH  46  70
BRANCH  58  81
ATOM     81  C   UNL A   1      43.319  35.053  29.912  1.00  0.00     0.023 A 
ATOM     82  C   UNL A   1      43.159  36.036  28.918  1.00  0.00     0.031 A 
ATOM     83  C   UNL A   1      43.868  35.448  31.146  1.00  0.00     0.131 A 
ATOM     84  C   UNL A   1      43.601  37.347  29.153  1.00  0.00     0.055 A 
ATOM     85  C   UNL A   1      44.242  36.768  31.398  1.00  0.00     0.041 A 
ATOM     86  F   UNL A   1      44.046  34.554  32.132  1.00  0.00    -0.206 F 
ATOM     87  C   UNL A   1      44.124  37.724  30.393  1.00  0.00     0.022 A 
BRANCH  84  88
ATOM     88  S   UNL A   1      43.588  38.533  27.780  1.00  0.00     0.124 S 
ATOM     89  O   UNL A   1      43.789  39.803  28.471  1.00  0.00    -0.237 OA
ATOM     90  O   UNL A   1      44.703  38.072  26.960  1.00  0.00    -0.237 OA
ATOM     91  O   UNL A   1      42.265  38.355  27.184  1.00  0.00    -0.744 OA
ENDBRANCH  84  88
ENDBRANCH  58  81
ENDBRANCH  32  33
ENDBRANCH  25  27
ENDBRANCH  24  25
ENDBRANCH  23  24
ENDBRANCH   1  23
TORSDOF 17
ENDMDL
MODEL 3
REMARK VINA RESULT:     -12.2      2.323      2.762
REMARK SMILES O=C(CC1CC[NH+](C[C@H]2Cc3ccccc3O2)CC1)OCCOC(=O)c1ccc(-c2c3nc(c(-c4cc(S(=O)(=O)[O-])ccc4F)c4ccc([nH]4)c(-c4cc(S(=O)(=O)[O-])ccc4F)c4nc(c(-c5cc(S(=O)(=O)[O-])ccc5F)c5ccc2[nH]5)C=C4)C=C3)cc1
REMARK SMILES IDX 21 1 20 2 2 3 1 4 3 5 4 6 5 7 19 8 6 9 18 10 7 11 8 13 9 14
REMARK SMILES IDX 10 15 17 16 11 17 16 18 12 19 15 20 13 21 14 22 22 23 23 24
REMARK SMILES IDX 24 25 25 26 26 27 27 28 88 29 28 30 87 31 29 32 30 33 31 34
REMARK SMILES IDX 81 35 32 36 86 37 80 38 82 39 33 40 85 41 79 42 78 43 34 45
REMARK SMILES IDX 66 46 46 47 65 48 47 49 50 50 64 51 83 52 48 53 49 54 63 56
REMARK SMILES IDX 84 57 51 58 35 59 36 60 44 61 37 62 43 63 45 64 42 65 38 66
REMARK SMILES IDX 39 67 40 68 41 69 67 70 68 71 76 72 69 73 75 74 77 75 74 76
REMARK SMILES IDX 70 77 71 78 72 79 73 80 52 81 53 82 61 83 54 84 60 85 62 86
REMARK SMILES IDX 59 87 55 88 56 89 57 90 58 91
REMARK H PARENT 7 12 82 44 50 55
REMARK Flexibility Score: inf
ROOT
ATOM      1  C   UNL A   1      31.774  28.761  26.555  1.00  0.00     0.274 C 
ENDROOT
BRANCH   1   2
ATOM      2  O   UNL A   1      31.423  28.315  25.228  1.00  0.00    -0.462 OA
BRANCH   2   3
ATOM      3  C   UNL A   1      31.348  27.024  24.836  1.00  0.00     0.306 C 
ATOM      4  O   UNL A   1      30.250  26.489  24.703  1.00  0.00    -0.252 OA
BRANCH   3   5
ATOM      5  C   UNL A   1      32.625  26.294  24.503  1.00  0.00     0.126 C 
BRANCH   5   6
ATOM      6  C   UNL A   1      33.329  25.659  25.711  1.00  0.00     0.011 C 
ATOM      7  C   UNL A   1      34.696  25.045  25.376  1.00  0.00     0.066 C 
ATOM      8  C   UNL A   1      32.445  24.555  26.317  1.00  0.00     0.066 C 
ATOM      9  C   UNL A   1      34.576  23.791  24.508  1.00  0.00     0.262 C 
ATOM     10  C   UNL A   1      32.355  23.317  25.409  1.00  0.00     0.262 C 
ATOM     11  N   UNL A   1      33.682  22.793  25.091  1.00  0.00    -0.332 N 
ATOM     12  H   UNL A   1      34.078  22.565  26.003  1.00  0.00     0.348 HD
BRANCH  11  13
ATOM     13  C   UNL A   1      33.695  21.491  24.377  1.00  0.00     0.308 C 
BRANCH  13  14
ATOM     14  C   UNL A   1      32.454  20.556  24.169  1.00  0.00     0.232 C 
ATOM     15  C   UNL A   1      32.525  19.676  22.929  1.00  0.00     0.090 C 
ATOM     16  O   UNL A   1      32.170  19.716  25.325  1.00  0.00    -0.484 OA
ATOM     17  C   UNL A   1      32.858  18.396  23.574  1.00  0.00    -0.002 A 
ATOM     18  C   UNL A   1      32.526  18.454  24.913  1.00  0.00     0.123 A 
ATOM     19  C   UNL A   1      33.457  17.279  23.041  1.00  0.00     0.007 A 
ATOM     20  C   UNL A   1      32.716  17.376  25.753  1.00  0.00     0.047 A 
ATOM     21  C   UNL A   1      33.716  16.194  23.877  1.00  0.00     0.001 A 
ATOM     22  C   UNL A   1      33.330  16.237  25.225  1.00  0.00     0.004 A 
ENDBRANCH  13  14
ENDBRANCH  11  13
ENDBRANCH   5   6
ENDBRANCH   3   5
ENDBRANCH   2   3
ENDBRANCH   1   2
BRANCH   1  23
ATOM     23  C   UNL A   1      31.818  30.289  26.625  1.00  0.00     0.275 C 
BRANCH  23  24
ATOM     24  O   UNL A   1      33.178  30.754  26.483  1.00  0.00    -0.458 OA
BRANCH  24  25
ATOM     25  C   UNL A   1      33.569  31.749  27.324  1.00  0.00     0.338 C 
ATOM     26  O   UNL A   1      32.903  32.717  27.629  1.00  0.00    -0.246 OA
BRANCH  25  27
ATOM     27  C   UNL A   1      34.912  31.454  27.912  1.00  0.00     0.060 A 
ATOM     28  C   UNL A   1      35.178  30.131  28.275  1.00  0.00     0.016 A 
ATOM     29  C   UNL A   1      35.906  32.425  28.109  1.00  0.00     0.016 A 
ATOM     30  C   UNL A   1      36.430  29.776  28.795  1.00  0.00     0.010 A 
ATOM     31  C   UNL A   1      37.158  32.071  28.654  1.00  0.00     0.010 A 
ATOM     32  C   UNL A   1      37.437  30.740  28.996  1.00  0.00    -0.014 A 
BRANCH  32  33
ATOM     33  C   UNL A   1      38.659  30.326  29.754  1.00  0.00     0.031 A 
ATOM     34  C   UNL A   1      38.750  30.767  31.185  1.00  0.00     0.074 A 
ATOM     35  C   UNL A   1      39.631  29.540  29.251  1.00  0.00     0.049 A 
ATOM     36  N   UNL A   1      39.562  30.376  32.128  1.00  0.00    -0.248 NA
ATOM     37  C   UNL A   1      37.795  31.811  31.588  1.00  0.00     0.031 C 
ATOM     38  C   UNL A   1      39.728  29.125  27.863  1.00  0.00     0.029 A 
ATOM     39  N   UNL A   1      40.706  28.915  29.850  1.00  0.00    -0.354 N 
ATOM     40  C   UNL A   1      39.201  31.108  33.250  1.00  0.00     0.074 A 
ATOM     41  C   UNL A   1      38.111  31.977  32.859  1.00  0.00     0.031 C 
ATOM     42  C   UNL A   1      40.724  28.232  27.728  1.00  0.00     0.029 A 
ATOM     43  C   UNL A   1      41.390  28.048  29.016  1.00  0.00     0.049 A 
ATOM     44  H   UNL A   1      40.964  29.073  30.787  1.00  0.00     0.167 HD
ATOM     45  C   UNL A   1      39.742  31.080  34.491  1.00  0.00     0.034 A 
ATOM     46  C   UNL A   1      42.423  27.210  29.267  1.00  0.00     0.034 A 
ATOM     47  C   UNL A   1      40.904  30.306  34.841  1.00  0.00     0.049 A 
ATOM     48  C   UNL A   1      43.032  27.221  30.657  1.00  0.00     0.074 A 
ATOM     49  C   UNL A   1      41.577  30.262  36.047  1.00  0.00     0.029 A 
ATOM     50  N   UNL A   1      41.594  29.471  33.969  1.00  0.00    -0.354 N 
ATOM     51  N   UNL A   1      42.649  27.884  31.724  1.00  0.00    -0.248 NA
ATOM     52  C   UNL A   1      44.231  26.395  30.868  1.00  0.00     0.031 C 
ATOM     53  C   UNL A   1      42.716  29.465  35.884  1.00  0.00     0.029 A 
ATOM     54  C   UNL A   1      42.701  28.932  34.605  1.00  0.00     0.049 A 
ATOM     55  H   UNL A   1      41.334  29.289  33.038  1.00  0.00     0.167 HD
ATOM     56  C   UNL A   1      43.550  27.541  32.732  1.00  0.00     0.074 A 
ATOM     57  C   UNL A   1      44.471  26.586  32.156  1.00  0.00     0.031 C 
ATOM     58  C   UNL A   1      43.618  27.984  34.014  1.00  0.00     0.034 A 
BRANCH  45  59
ATOM     59  C   UNL A   1      39.123  32.010  35.501  1.00  0.00     0.023 A 
ATOM     60  C   UNL A   1      39.543  33.348  35.613  1.00  0.00     0.031 A 
ATOM     61  C   UNL A   1      38.200  31.522  36.439  1.00  0.00     0.131 A 
ATOM     62  C   UNL A   1      39.116  34.120  36.702  1.00  0.00     0.055 A 
ATOM     63  C   UNL A   1      37.707  32.326  37.467  1.00  0.00     0.041 A 
ATOM     64  F   UNL A   1      37.799  30.241  36.402  1.00  0.00    -0.206 F 
ATOM     65  C   UNL A   1      38.180  33.627  37.615  1.00  0.00     0.022 A 
BRANCH  62  66
ATOM     66  S   UNL A   1      39.949  35.700  37.018  1.00  0.00     0.124 S 
ATOM     67  O   UNL A   1      41.336  35.271  37.182  1.00  0.00    -0.237 OA
ATOM     68  O   UNL A   1      39.653  36.461  35.811  1.00  0.00    -0.237 OA
ATOM     69  O   UNL A   1      39.307  36.186  38.238  1.00  0.00    -0.744 OA
ENDBRANCH  62  66
ENDBRANCH  45  59
BRANCH  46  70
ATOM     70  C   UNL A   1      43.011  26.315  28.208  1.00  0.00     0.023 A 
ATOM     71  C   UNL A   1      44.175  26.681  27.500  1.00  0.00     0.031 A 
ATOM     72  C   UNL A   1      42.358  25.138  27.802  1.00  0.00     0.131 A 
ATOM     73  C   UNL A   1      44.604  25.921  26.395  1.00  0.00     0.055 A 
ATOM     74  C   UNL A   1      42.831  24.346  26.751  1.00  0.00     0.041 A 
ATOM     75  F   UNL A   1      41.232  24.739  28.414  1.00  0.00    -0.206 F 
ATOM     76  C   UNL A   1      43.950  24.745  26.029  1.00  0.00     0.022 A 
BRANCH  73  77
ATOM     77  S   UNL A   1      45.954  26.557  25.355  1.00  0.00     0.124 S 
ATOM     78  O   UNL A   1      46.961  26.898  26.352  1.00  0.00    -0.237 OA
ATOM     79  O   UNL A   1      46.250  25.408  24.505  1.00  0.00    -0.237 OA
ATOM     80  O   UNL A   1      45.345  27.696  24.667  1.00  0.00    -0.744 OA
ENDBRANCH  73  77
ENDBRANCH  46  70
BRANCH  58  81
ATOM     81  C   UNL A   1      44.701  27.399  34.894  1.00  0.00     0.023 A 
ATOM     82  C   UNL A   1      44.602  26.109  35.447  1.00  0.00     0.031 A 
ATOM     83  C   UNL A   1      45.852  28.153  35.185  1.00  0.00     0.131 A 
ATOM     84  C   UNL A   1      45.604  25.639  36.311  1.00  0.00     0.055 A 
ATOM     85  C   UNL A   1      46.877  27.655  35.989  1.00  0.00     0.041 A 
ATOM     86  F   UNL A   1      46.001  29.391  34.687  1.00  0.00    -0.206 F 
ATOM     87  C   UNL A   1      46.750  26.397  36.570  1.00  0.00     0.022 A 
BRANCH  84  88
ATOM     88  S   UNL A   1      45.342  24.070  37.184  1.00  0.00     0.124 S 
ATOM     89  O   UNL A   1      44.453  23.358  36.270  1.00  0.00    -0.237 OA
ATOM     90  O   UNL A   1      46.698  23.543  37.292  1.00  0.00    -0.237 OA
ATOM     91  O   UNL A   1      44.733  24.478  38.448  1.00  0.00    -0.744 OA
ENDBRANCH  84  88
ENDBRANCH  58  81
ENDBRANCH  32  33
ENDBRANCH  25  27
ENDBRANCH  24  25
ENDBRANCH  23  24
ENDBRANCH   1  23
TORSDOF 17
ENDMDL
