MODEL 1
REMARK VINA RESULT:     -11.7      0.000      0.000
REMARK SMILES CCc1nc2sc(C(=O)NCC(=O)OCCOC(=O)c3ccc(-c4c5nc(c(-c6cc(S(=O)(=O)[O-])ccc6F)c6ccc([nH]6)c(-c6cc(S(=O)(=O)[O-])ccc6F)c6nc(c(-c7cc(S(=O)(=O)[O-])ccc7F)c7ccc4[nH]7)C=C6)C=C5)cc3)c(N)c2c(C(F)(F)F)c1C
REMARK SMILES IDX 15 1 14 2 12 3 13 4 11 5 10 6 8 7 9 8 7 10 3 11 4 12 91 13
REMARK SMILES IDX 5 14 86 15 92 16 6 17 85 18 83 19 2 20 1 21 87 22 88 23
REMARK SMILES IDX 89 24 90 25 84 26 16 29 17 30 18 31 19 32 20 33 21 34 82 35
REMARK SMILES IDX 22 36 81 37 23 38 24 39 25 40 75 41 26 42 80 43 74 44 76 45
REMARK SMILES IDX 27 46 79 47 73 48 72 49 28 51 60 52 40 53 59 54 41 55 44 56
REMARK SMILES IDX 58 57 77 58 42 59 43 60 57 62 78 63 45 64 29 65 30 66 38 67
REMARK SMILES IDX 31 68 37 69 39 70 36 71 32 72 33 73 34 74 35 75 61 76 62 77
REMARK SMILES IDX 70 78 63 79 69 80 71 81 68 82 64 83 65 84 66 85 67 86 46 87
REMARK SMILES IDX 47 88 55 89 48 90 54 91 56 92 53 93 49 94 50 95 51 96 52 97
REMARK H PARENT 10 9 84 27 84 28 76 50 44 61
REMARK Flexibility Score: inf
ROOT
ATOM      1  C   UNL A   1      36.364  20.396  25.155  1.00  0.00     0.274 C 
ENDROOT
BRANCH   1   2
ATOM      2  O   UNL A   1      35.770  21.519  25.834  1.00  0.00    -0.461 OA
BRANCH   2   3
ATOM      3  C   UNL A   1      34.549  21.307  26.410  1.00  0.00     0.325 C 
ATOM      4  O   UNL A   1      34.285  21.552  27.584  1.00  0.00    -0.250 OA
BRANCH   3   5
ATOM      5  C   UNL A   1      33.496  20.814  25.408  1.00  0.00     0.239 C 
BRANCH   5   6
ATOM      6  N   UNL A   1      32.118  21.013  25.789  1.00  0.00    -0.340 N 
ATOM      7  C   UNL A   1      31.310  22.114  25.728  1.00  0.00     0.264 C 
ATOM      8  O   UNL A   1      30.134  21.885  26.037  1.00  0.00    -0.268 OA
ATOM      9  H   UNL A   1      31.681  20.213  26.160  1.00  0.00     0.164 HD
BRANCH   7  10
ATOM     10  C   UNL A   1      31.773  23.457  25.358  1.00  0.00     0.118 A 
ATOM     11  C   UNL A   1      33.642  27.795  25.421  1.00  0.00     0.045 A 
ATOM     12  N   UNL A   1      33.239  26.841  26.277  1.00  0.00    -0.242 NA
ATOM     13  C   UNL A   1      33.559  27.676  24.022  1.00  0.00    -0.017 A 
ATOM     14  C   UNL A   1      32.744  25.726  25.726  1.00  0.00     0.127 A 
ATOM     15  C   UNL A   1      33.029  26.480  23.464  1.00  0.00     0.073 A 
ATOM     16  C   UNL A   1      34.019  28.788  23.114  1.00  0.00     0.047 C 
ATOM     17  S   UNL A   1      32.203  24.463  26.710  1.00  0.00    -0.108 S 
ATOM     18  C   UNL A   1      32.607  25.467  24.378  1.00  0.00     0.048 A 
ATOM     19  C   UNL A   1      32.017  24.166  24.189  1.00  0.00     0.066 A 
BRANCH  11  20
ATOM     20  C   UNL A   1      34.175  29.056  26.070  1.00  0.00     0.053 C 
ATOM     21  C   UNL A   1      33.320  29.611  27.204  1.00  0.00     0.011 C 
ENDBRANCH  11  20
BRANCH  15  22
ATOM     22  C   UNL A   1      32.885  26.255  21.973  1.00  0.00     0.417 C 
ATOM     23  F   UNL A   1      31.580  26.269  21.565  1.00  0.00    -0.166 F 
ATOM     24  F   UNL A   1      33.516  27.216  21.236  1.00  0.00    -0.166 F 
ATOM     25  F   UNL A   1      33.376  25.076  21.501  1.00  0.00    -0.166 F 
ENDBRANCH  15  22
BRANCH  19  26
ATOM     26  N   UNL A   1      31.778  23.745  22.934  1.00  0.00    -0.397 N 
ATOM     27  H   UNL A   1      31.969  22.812  22.683  1.00  0.00     0.156 HD
ATOM     28  H   UNL A   1      31.413  24.369  22.265  1.00  0.00     0.156 HD
ENDBRANCH  19  26
ENDBRANCH   7  10
ENDBRANCH   5   6
ENDBRANCH   3   5
ENDBRANCH   2   3
ENDBRANCH   1   2
BRANCH   1  29
ATOM     29  C   UNL A   1      37.762  20.726  24.632  1.00  0.00     0.275 C 
BRANCH  29  30
ATOM     30  O   UNL A   1      38.631  21.093  25.703  1.00  0.00    -0.458 OA
BRANCH  30  31
ATOM     31  C   UNL A   1      39.706  20.300  25.832  1.00  0.00     0.338 C 
ATOM     32  O   UNL A   1      39.792  19.108  25.496  1.00  0.00    -0.246 OA
BRANCH  31  33
ATOM     33  C   UNL A   1      40.805  21.002  26.470  1.00  0.00     0.060 A 
ATOM     34  C   UNL A   1      40.863  20.952  27.868  1.00  0.00     0.016 A 
ATOM     35  C   UNL A   1      41.493  21.964  25.722  1.00  0.00     0.016 A 
ATOM     36  C   UNL A   1      41.386  22.030  28.531  1.00  0.00     0.010 A 
ATOM     37  C   UNL A   1      42.004  23.049  26.386  1.00  0.00     0.010 A 
ATOM     38  C   UNL A   1      41.833  23.110  27.767  1.00  0.00    -0.014 A 
BRANCH  38  39
ATOM     39  C   UNL A   1      42.082  24.348  28.465  1.00  0.00     0.031 A 
ATOM     40  C   UNL A   1      41.077  25.389  28.200  1.00  0.00     0.074 A 
ATOM     41  C   UNL A   1      43.100  24.474  29.335  1.00  0.00     0.049 A 
ATOM     42  N   UNL A   1      41.238  26.506  27.575  1.00  0.00    -0.248 NA
ATOM     43  C   UNL A   1      39.680  25.069  28.528  1.00  0.00     0.031 C 
ATOM     44  C   UNL A   1      43.985  23.431  29.864  1.00  0.00     0.029 A 
ATOM     45  N   UNL A   1      43.474  25.576  30.031  1.00  0.00    -0.354 N 
ATOM     46  C   UNL A   1      40.006  27.139  27.642  1.00  0.00     0.074 A 
ATOM     47  C   UNL A   1      39.053  26.140  28.045  1.00  0.00     0.031 C 
ATOM     48  C   UNL A   1      44.612  23.905  30.965  1.00  0.00     0.029 A 
ATOM     49  C   UNL A   1      44.274  25.309  31.134  1.00  0.00     0.049 A 
ATOM     50  H   UNL A   1      43.202  26.487  29.776  1.00  0.00     0.167 HD
ATOM     51  C   UNL A   1      39.908  28.494  27.619  1.00  0.00     0.034 A 
ATOM     52  C   UNL A   1      44.538  26.171  32.150  1.00  0.00     0.034 A 
ATOM     53  C   UNL A   1      41.092  29.108  27.070  1.00  0.00     0.049 A 
ATOM     54  C   UNL A   1      44.293  27.540  31.623  1.00  0.00     0.074 A 
ATOM     55  C   UNL A   1      41.767  28.991  25.868  1.00  0.00     0.029 A 
ATOM     56  N   UNL A   1      41.988  29.696  27.933  1.00  0.00    -0.354 N 
ATOM     57  N   UNL A   1      45.000  28.083  30.671  1.00  0.00    -0.248 NA
ATOM     58  C   UNL A   1      42.971  28.121  31.820  1.00  0.00     0.031 C 
ATOM     59  C   UNL A   1      43.151  29.028  26.217  1.00  0.00     0.029 A 
ATOM     60  C   UNL A   1      43.237  29.229  27.595  1.00  0.00     0.049 A 
ATOM     61  H   UNL A   1      41.776  30.330  28.656  1.00  0.00     0.167 HD
ATOM     62  C   UNL A   1      44.082  28.763  29.884  1.00  0.00     0.074 A 
ATOM     63  C   UNL A   1      42.866  28.829  30.691  1.00  0.00     0.031 C 
ATOM     64  C   UNL A   1      44.296  28.961  28.549  1.00  0.00     0.034 A 
BRANCH  51  65
ATOM     65  C   UNL A   1      38.879  29.251  28.417  1.00  0.00     0.023 A 
ATOM     66  C   UNL A   1      38.930  29.156  29.817  1.00  0.00     0.031 A 
ATOM     67  C   UNL A   1      37.706  29.833  27.875  1.00  0.00     0.131 A 
ATOM     68  C   UNL A   1      37.842  29.577  30.602  1.00  0.00     0.055 A 
ATOM     69  C   UNL A   1      36.662  30.315  28.663  1.00  0.00     0.041 A 
ATOM     70  F   UNL A   1      37.462  29.874  26.559  1.00  0.00    -0.206 F 
ATOM     71  C   UNL A   1      36.714  30.165  30.035  1.00  0.00     0.022 A 
BRANCH  68  72
ATOM     72  S   UNL A   1      37.860  29.191  32.369  1.00  0.00     0.124 S 
ATOM     73  O   UNL A   1      37.769  27.735  32.358  1.00  0.00    -0.237 OA
ATOM     74  O   UNL A   1      39.140  29.753  32.785  1.00  0.00    -0.237 OA
ATOM     75  O   UNL A   1      36.679  29.885  32.879  1.00  0.00    -0.744 OA
ENDBRANCH  68  72
ENDBRANCH  51  65
BRANCH  52  76
ATOM     76  C   UNL A   1      44.611  25.861  33.605  1.00  0.00     0.023 A 
ATOM     77  C   UNL A   1      43.550  26.174  34.477  1.00  0.00     0.031 A 
ATOM     78  C   UNL A   1      45.618  25.009  34.114  1.00  0.00     0.131 A 
ATOM     79  C   UNL A   1      43.515  25.637  35.783  1.00  0.00     0.055 A 
ATOM     80  C   UNL A   1      45.584  24.487  35.409  1.00  0.00     0.041 A 
ATOM     81  F   UNL A   1      46.624  24.571  33.341  1.00  0.00    -0.206 F 
ATOM     82  C   UNL A   1      44.522  24.789  36.246  1.00  0.00     0.022 A 
BRANCH  79  83
ATOM     83  S   UNL A   1      42.074  25.925  36.858  1.00  0.00     0.124 S 
ATOM     84  O   UNL A   1      42.702  26.393  38.088  1.00  0.00    -0.237 OA
ATOM     85  O   UNL A   1      41.306  26.912  36.106  1.00  0.00    -0.237 OA
ATOM     86  O   UNL A   1      41.450  24.604  36.945  1.00  0.00    -0.744 OA
ENDBRANCH  79  83
ENDBRANCH  52  76
BRANCH  64  87
ATOM     87  C   UNL A   1      45.671  28.668  27.987  1.00  0.00     0.023 A 
ATOM     88  C   UNL A   1      46.768  29.560  28.029  1.00  0.00     0.031 A 
ATOM     89  C   UNL A   1      45.905  27.369  27.501  1.00  0.00     0.131 A 
ATOM     90  C   UNL A   1      48.038  29.137  27.584  1.00  0.00     0.055 A 
ATOM     91  C   UNL A   1      47.165  26.951  27.077  1.00  0.00     0.041 A 
ATOM     92  F   UNL A   1      44.910  26.468  27.468  1.00  0.00    -0.206 F 
ATOM     93  C   UNL A   1      48.237  27.836  27.112  1.00  0.00     0.022 A 
BRANCH  90  94
ATOM     94  S   UNL A   1      49.462  30.275  27.623  1.00  0.00     0.124 S 
ATOM     95  O   UNL A   1      49.413  30.835  28.968  1.00  0.00    -0.237 OA
ATOM     96  O   UNL A   1      50.586  29.387  27.337  1.00  0.00    -0.237 OA
ATOM     97  O   UNL A   1      49.163  31.233  26.556  1.00  0.00    -0.744 OA
ENDBRANCH  90  94
ENDBRANCH  64  87
ENDBRANCH  38  39
ENDBRANCH  31  33
ENDBRANCH  30  31
ENDBRANCH  29  30
ENDBRANCH   1  29
TORSDOF 19
ENDMDL
MODEL 2
REMARK VINA RESULT:     -11.5      3.323      8.451
REMARK SMILES CCc1nc2sc(C(=O)NCC(=O)OCCOC(=O)c3ccc(-c4c5nc(c(-c6cc(S(=O)(=O)[O-])ccc6F)c6ccc([nH]6)c(-c6cc(S(=O)(=O)[O-])ccc6F)c6nc(c(-c7cc(S(=O)(=O)[O-])ccc7F)c7ccc4[nH]7)C=C6)C=C5)cc3)c(N)c2c(C(F)(F)F)c1C
REMARK SMILES IDX 15 1 14 2 12 3 13 4 11 5 10 6 8 7 9 8 7 10 3 11 4 12 91 13
REMARK SMILES IDX 5 14 86 15 92 16 6 17 85 18 83 19 2 20 1 21 87 22 88 23
REMARK SMILES IDX 89 24 90 25 84 26 16 29 17 30 18 31 19 32 20 33 21 34 82 35
REMARK SMILES IDX 22 36 81 37 23 38 24 39 25 40 75 41 26 42 80 43 74 44 76 45
REMARK SMILES IDX 27 46 79 47 73 48 72 49 28 51 60 52 40 53 59 54 41 55 44 56
REMARK SMILES IDX 58 57 77 58 42 59 43 60 57 62 78 63 45 64 29 65 30 66 38 67
REMARK SMILES IDX 31 68 37 69 39 70 36 71 32 72 33 73 34 74 35 75 61 76 62 77
REMARK SMILES IDX 70 78 63 79 69 80 71 81 68 82 64 83 65 84 66 85 67 86 46 87
REMARK SMILES IDX 47 88 55 89 48 90 54 91 56 92 53 93 49 94 50 95 51 96 52 97
REMARK H PARENT 10 9 84 27 84 28 76 50 44 61
REMARK Flexibility Score: inf
ROOT
ATOM      1  C   UNL A   1      34.334  31.642  27.609  1.00  0.00     0.274 C 
ENDROOT
BRANCH   1   2
ATOM      2  O   UNL A   1      33.180  30.780  27.579  1.00  0.00    -0.461 OA
BRANCH   2   3
ATOM      3  C   UNL A   1      33.090  29.917  26.522  1.00  0.00     0.325 C 
ATOM      4  O   UNL A   1      34.045  29.323  26.029  1.00  0.00    -0.250 OA
BRANCH   3   5
ATOM      5  C   UNL A   1      31.643  29.686  26.065  1.00  0.00     0.239 C 
BRANCH   5   6
ATOM      6  N   UNL A   1      31.398  29.821  24.649  1.00  0.00    -0.340 N 
ATOM      7  C   UNL A   1      31.444  28.911  23.629  1.00  0.00     0.264 C 
ATOM      8  O   UNL A   1      31.054  29.360  22.544  1.00  0.00    -0.268 OA
ATOM      9  H   UNL A   1      31.154  30.731  24.365  1.00  0.00     0.164 HD
BRANCH   7  10
ATOM     10  C   UNL A   1      31.928  27.533  23.776  1.00  0.00     0.118 A 
ATOM     11  C   UNL A   1      34.552  23.606  23.682  1.00  0.00     0.045 A 
ATOM     12  N   UNL A   1      34.526  24.835  23.138  1.00  0.00    -0.242 NA
ATOM     13  C   UNL A   1      33.578  23.128  24.578  1.00  0.00    -0.017 A 
ATOM     14  C   UNL A   1      33.506  25.620  23.503  1.00  0.00     0.127 A 
ATOM     15  C   UNL A   1      32.505  23.984  24.948  1.00  0.00     0.073 A 
ATOM     16  C   UNL A   1      33.657  21.734  25.146  1.00  0.00     0.047 C 
ATOM     17  S   UNL A   1      33.374  27.183  22.875  1.00  0.00    -0.108 S 
ATOM     18  C   UNL A   1      32.486  25.290  24.372  1.00  0.00     0.048 A 
ATOM     19  C   UNL A   1      31.571  26.397  24.491  1.00  0.00     0.066 A 
BRANCH  11  20
ATOM     20  C   UNL A   1      35.703  22.728  23.235  1.00  0.00     0.053 C 
ATOM     21  C   UNL A   1      37.014  22.951  23.982  1.00  0.00     0.011 C 
ENDBRANCH  11  20
BRANCH  15  22
ATOM     22  C   UNL A   1      31.400  23.564  25.896  1.00  0.00     0.417 C 
ATOM     23  F   UNL A   1      31.458  24.225  27.092  1.00  0.00    -0.166 F 
ATOM     24  F   UNL A   1      30.156  23.812  25.392  1.00  0.00    -0.166 F 
ATOM     25  F   UNL A   1      31.381  22.246  26.238  1.00  0.00    -0.166 F 
ENDBRANCH  15  22
BRANCH  19  26
ATOM     26  N   UNL A   1      30.490  26.255  25.279  1.00  0.00    -0.397 N 
ATOM     27  H   UNL A   1      30.510  25.621  26.033  1.00  0.00     0.156 HD
ATOM     28  H   UNL A   1      29.678  26.783  25.103  1.00  0.00     0.156 HD
ENDBRANCH  19  26
ENDBRANCH   7  10
ENDBRANCH   5   6
ENDBRANCH   3   5
ENDBRANCH   2   3
ENDBRANCH   1   2
BRANCH   1  29
ATOM     29  C   UNL A   1      35.048  31.585  28.959  1.00  0.00     0.275 C 
BRANCH  29  30
ATOM     30  O   UNL A   1      36.368  31.063  28.812  1.00  0.00    -0.458 OA
BRANCH  30  31
ATOM     31  C   UNL A   1      36.725  30.196  29.773  1.00  0.00     0.338 C 
ATOM     32  O   UNL A   1      36.416  30.255  30.974  1.00  0.00    -0.246 OA
BRANCH  31  33
ATOM     33  C   UNL A   1      37.581  29.149  29.247  1.00  0.00     0.060 A 
ATOM     34  C   UNL A   1      38.128  28.253  30.173  1.00  0.00     0.016 A 
ATOM     35  C   UNL A   1      38.100  29.311  27.958  1.00  0.00     0.016 A 
ATOM     36  C   UNL A   1      39.361  27.720  29.904  1.00  0.00     0.010 A 
ATOM     37  C   UNL A   1      39.341  28.788  27.696  1.00  0.00     0.010 A 
ATOM     38  C   UNL A   1      39.991  28.103  28.719  1.00  0.00    -0.014 A 
BRANCH  38  39
ATOM     39  C   UNL A   1      41.396  27.798  28.596  1.00  0.00     0.031 A 
ATOM     40  C   UNL A   1      41.666  26.523  27.913  1.00  0.00     0.074 A 
ATOM     41  C   UNL A   1      42.343  28.661  29.003  1.00  0.00     0.049 A 
ATOM     42  N   UNL A   1      42.178  25.449  28.410  1.00  0.00    -0.248 NA
ATOM     43  C   UNL A   1      41.147  26.375  26.545  1.00  0.00     0.031 C 
ATOM     44  C   UNL A   1      42.185  30.049  29.445  1.00  0.00     0.029 A 
ATOM     45  N   UNL A   1      43.689  28.496  28.983  1.00  0.00    -0.354 N 
ATOM     46  C   UNL A   1      42.265  24.562  27.347  1.00  0.00     0.074 A 
ATOM     47  C   UNL A   1      41.440  25.100  26.297  1.00  0.00     0.031 C 
ATOM     48  C   UNL A   1      43.391  30.662  29.408  1.00  0.00     0.029 A 
ATOM     49  C   UNL A   1      44.410  29.680  29.071  1.00  0.00     0.049 A 
ATOM     50  H   UNL A   1      44.119  27.614  28.913  1.00  0.00     0.167 HD
ATOM     51  C   UNL A   1      43.216  23.593  27.314  1.00  0.00     0.034 A 
ATOM     52  C   UNL A   1      45.728  29.830  28.782  1.00  0.00     0.034 A 
ATOM     53  C   UNL A   1      43.750  23.321  28.626  1.00  0.00     0.049 A 
ATOM     54  C   UNL A   1      46.346  28.481  28.891  1.00  0.00     0.074 A 
ATOM     55  C   UNL A   1      43.191  22.934  29.830  1.00  0.00     0.029 A 
ATOM     56  N   UNL A   1      44.993  23.818  28.946  1.00  0.00    -0.354 N 
ATOM     57  N   UNL A   1      46.429  27.815  30.009  1.00  0.00    -0.248 NA
ATOM     58  C   UNL A   1      46.439  27.674  27.681  1.00  0.00     0.031 C 
ATOM     59  C   UNL A   1      43.892  23.685  30.821  1.00  0.00     0.029 A 
ATOM     60  C   UNL A   1      44.876  24.432  30.171  1.00  0.00     0.049 A 
ATOM     61  H   UNL A   1      45.810  23.748  28.402  1.00  0.00     0.167 HD
ATOM     62  C   UNL A   1      46.158  26.499  29.665  1.00  0.00     0.074 A 
ATOM     63  C   UNL A   1      46.265  26.458  28.209  1.00  0.00     0.031 C 
ATOM     64  C   UNL A   1      45.596  25.630  30.557  1.00  0.00     0.034 A 
BRANCH  51  65
ATOM     65  C   UNL A   1      43.890  23.156  26.039  1.00  0.00     0.023 A 
ATOM     66  C   UNL A   1      43.905  21.784  25.740  1.00  0.00     0.031 A 
ATOM     67  C   UNL A   1      44.738  23.974  25.254  1.00  0.00     0.131 A 
ATOM     68  C   UNL A   1      44.761  21.279  24.746  1.00  0.00     0.055 A 
ATOM     69  C   UNL A   1      45.531  23.477  24.220  1.00  0.00     0.041 A 
ATOM     70  F   UNL A   1      44.923  25.276  25.507  1.00  0.00    -0.206 F 
ATOM     71  C   UNL A   1      45.566  22.117  23.978  1.00  0.00     0.022 A 
BRANCH  68  72
ATOM     72  S   UNL A   1      44.926  19.485  24.586  1.00  0.00     0.124 S 
ATOM     73  O   UNL A   1      43.918  19.007  25.526  1.00  0.00    -0.237 OA
ATOM     74  O   UNL A   1      44.634  19.284  23.171  1.00  0.00    -0.237 OA
ATOM     75  O   UNL A   1      46.312  19.236  24.978  1.00  0.00    -0.744 OA
ENDBRANCH  68  72
ENDBRANCH  51  65
BRANCH  52  76
ATOM     76  C   UNL A   1      46.375  30.965  28.067  1.00  0.00     0.023 A 
ATOM     77  C   UNL A   1      45.675  31.723  27.107  1.00  0.00     0.031 A 
ATOM     78  C   UNL A   1      47.610  31.490  28.509  1.00  0.00     0.131 A 
ATOM     79  C   UNL A   1      46.200  32.948  26.642  1.00  0.00     0.055 A 
ATOM     80  C   UNL A   1      48.131  32.698  28.039  1.00  0.00     0.041 A 
ATOM     81  F   UNL A   1      48.314  30.899  29.487  1.00  0.00    -0.206 F 
ATOM     82  C   UNL A   1      47.419  33.441  27.111  1.00  0.00     0.022 A 
BRANCH  79  83
ATOM     83  S   UNL A   1      45.230  33.996  25.512  1.00  0.00     0.124 S 
ATOM     84  O   UNL A   1      44.477  33.006  24.751  1.00  0.00    -0.237 OA
ATOM     85  O   UNL A   1      44.461  34.829  26.429  1.00  0.00    -0.237 OA
ATOM     86  O   UNL A   1      46.257  34.711  24.752  1.00  0.00    -0.744 OA
ENDBRANCH  79  83
ENDBRANCH  52  76
BRANCH  64  87
ATOM     87  C   UNL A   1      45.519  26.040  32.014  1.00  0.00     0.023 A 
ATOM     88  C   UNL A   1      44.369  26.569  32.644  1.00  0.00     0.031 A 
ATOM     89  C   UNL A   1      46.634  25.758  32.822  1.00  0.00     0.131 A 
ATOM     90  C   UNL A   1      44.372  26.804  34.035  1.00  0.00     0.055 A 
ATOM     91  C   UNL A   1      46.628  25.977  34.199  1.00  0.00     0.041 A 
ATOM     92  F   UNL A   1      47.744  25.224  32.286  1.00  0.00    -0.206 F 
ATOM     93  C   UNL A   1      45.496  26.506  34.811  1.00  0.00     0.022 A 
BRANCH  90  94
ATOM     94  S   UNL A   1      42.901  27.492  34.865  1.00  0.00     0.124 S 
ATOM     95  O   UNL A   1      43.383  27.804  36.205  1.00  0.00    -0.237 OA
ATOM     96  O   UNL A   1      42.567  28.636  34.020  1.00  0.00    -0.237 OA
ATOM     97  O   UNL A   1      41.932  26.395  34.808  1.00  0.00    -0.744 OA
ENDBRANCH  90  94
ENDBRANCH  64  87
ENDBRANCH  38  39
ENDBRANCH  31  33
ENDBRANCH  30  31
ENDBRANCH  29  30
ENDBRANCH   1  29
TORSDOF 19
ENDMDL
MODEL 3
REMARK VINA RESULT:     -11.4      3.258      7.574
REMARK SMILES CCc1nc2sc(C(=O)NCC(=O)OCCOC(=O)c3ccc(-c4c5nc(c(-c6cc(S(=O)(=O)[O-])ccc6F)c6ccc([nH]6)c(-c6cc(S(=O)(=O)[O-])ccc6F)c6nc(c(-c7cc(S(=O)(=O)[O-])ccc7F)c7ccc4[nH]7)C=C6)C=C5)cc3)c(N)c2c(C(F)(F)F)c1C
REMARK SMILES IDX 15 1 14 2 12 3 13 4 11 5 10 6 8 7 9 8 7 10 3 11 4 12 91 13
REMARK SMILES IDX 5 14 86 15 92 16 6 17 85 18 83 19 2 20 1 21 87 22 88 23
REMARK SMILES IDX 89 24 90 25 84 26 16 29 17 30 18 31 19 32 20 33 21 34 82 35
REMARK SMILES IDX 22 36 81 37 23 38 24 39 25 40 75 41 26 42 80 43 74 44 76 45
REMARK SMILES IDX 27 46 79 47 73 48 72 49 28 51 60 52 40 53 59 54 41 55 44 56
REMARK SMILES IDX 58 57 77 58 42 59 43 60 57 62 78 63 45 64 29 65 30 66 38 67
REMARK SMILES IDX 31 68 37 69 39 70 36 71 32 72 33 73 34 74 35 75 61 76 62 77
REMARK SMILES IDX 70 78 63 79 69 80 71 81 68 82 64 83 65 84 66 85 67 86 46 87
REMARK SMILES IDX 47 88 55 89 48 90 54 91 56 92 53 93 49 94 50 95 51 96 52 97
REMARK H PARENT 10 9 84 27 84 28 76 50 44 61
REMARK Flexibility Score: inf
ROOT
ATOM      1  C   UNL A   1      33.013  28.951  27.377  1.00  0.00     0.274 C 
ENDROOT
BRANCH   1   2
ATOM      2  O   UNL A   1      31.933  28.586  26.496  1.00  0.00    -0.461 OA
BRANCH   2   3
ATOM      3  C   UNL A   1      31.913  27.290  26.061  1.00  0.00     0.325 C 
ATOM      4  O   UNL A   1      32.717  26.429  26.407  1.00  0.00    -0.250 OA
BRANCH   3   5
ATOM      5  C   UNL A   1      30.710  26.986  25.157  1.00  0.00     0.239 C 
BRANCH   5   6
ATOM      6  N   UNL A   1      30.965  27.006  23.736  1.00  0.00    -0.340 N 
ATOM      7  C   UNL A   1      31.531  26.082  22.903  1.00  0.00     0.264 C 
ATOM      8  O   UNL A   1      31.480  26.395  21.707  1.00  0.00    -0.268 OA
ATOM      9  H   UNL A   1      30.680  27.834  23.287  1.00  0.00     0.164 HD
BRANCH   7  10
ATOM     10  C   UNL A   1      32.168  24.841  23.359  1.00  0.00     0.118 A 
ATOM     11  C   UNL A   1      33.138  20.316  24.310  1.00  0.00     0.045 A 
ATOM     12  N   UNL A   1      32.101  21.086  23.938  1.00  0.00    -0.242 NA
ATOM     13  C   UNL A   1      34.429  20.814  24.561  1.00  0.00    -0.017 A 
ATOM     14  C   UNL A   1      32.355  22.393  23.802  1.00  0.00     0.127 A 
ATOM     15  C   UNL A   1      34.671  22.207  24.408  1.00  0.00     0.073 A 
ATOM     16  C   UNL A   1      35.550  19.900  24.987  1.00  0.00     0.047 C 
ATOM     17  S   UNL A   1      31.122  23.452  23.342  1.00  0.00    -0.108 S 
ATOM     18  C   UNL A   1      33.567  23.019  24.008  1.00  0.00     0.048 A 
ATOM     19  C   UNL A   1      33.429  24.435  23.776  1.00  0.00     0.066 A 
BRANCH  11  20
ATOM     20  C   UNL A   1      32.819  18.846  24.482  1.00  0.00     0.053 C 
ATOM     21  C   UNL A   1      32.702  18.054  23.183  1.00  0.00     0.011 C 
ENDBRANCH  11  20
BRANCH  15  22
ATOM     22  C   UNL A   1      36.021  22.846  24.665  1.00  0.00     0.417 C 
ATOM     23  F   UNL A   1      35.977  23.776  25.667  1.00  0.00    -0.166 F 
ATOM     24  F   UNL A   1      36.967  21.936  25.040  1.00  0.00    -0.166 F 
ATOM     25  F   UNL A   1      36.573  23.508  23.611  1.00  0.00    -0.166 F 
ENDBRANCH  15  22
BRANCH  19  26
ATOM     26  N   UNL A   1      34.505  25.223  23.955  1.00  0.00    -0.397 N 
ATOM     27  H   UNL A   1      34.647  26.002  23.370  1.00  0.00     0.156 HD
ATOM     28  H   UNL A   1      35.151  25.021  24.671  1.00  0.00     0.156 HD
ENDBRANCH  19  26
ENDBRANCH   7  10
ENDBRANCH   5   6
ENDBRANCH   3   5
ENDBRANCH   2   3
ENDBRANCH   1   2
BRANCH   1  29
ATOM     29  C   UNL A   1      33.492  30.380  27.124  1.00  0.00     0.275 C 
BRANCH  29  30
ATOM     30  O   UNL A   1      34.917  30.451  27.159  1.00  0.00    -0.458 OA
BRANCH  30  31
ATOM     31  C   UNL A   1      35.396  31.493  27.856  1.00  0.00     0.338 C 
ATOM     32  O   UNL A   1      35.130  32.692  27.672  1.00  0.00    -0.246 OA
BRANCH  31  33
ATOM     33  C   UNL A   1      36.332  31.059  28.877  1.00  0.00     0.060 A 
ATOM     34  C   UNL A   1      37.477  31.843  29.062  1.00  0.00     0.016 A 
ATOM     35  C   UNL A   1      36.241  29.739  29.334  1.00  0.00     0.016 A 
ATOM     36  C   UNL A   1      38.629  31.218  29.459  1.00  0.00     0.010 A 
ATOM     37  C   UNL A   1      37.398  29.112  29.717  1.00  0.00     0.010 A 
ATOM     38  C   UNL A   1      38.586  29.837  29.657  1.00  0.00    -0.014 A 
BRANCH  38  39
ATOM     39  C   UNL A   1      39.850  29.150  29.761  1.00  0.00     0.031 A 
ATOM     40  C   UNL A   1      40.291  28.928  31.147  1.00  0.00     0.074 A 
ATOM     41  C   UNL A   1      40.496  28.694  28.673  1.00  0.00     0.049 A 
ATOM     42  N   UNL A   1      41.305  29.449  31.751  1.00  0.00    -0.248 NA
ATOM     43  C   UNL A   1      39.393  28.157  32.019  1.00  0.00     0.031 C 
ATOM     44  C   UNL A   1      40.020  28.628  27.288  1.00  0.00     0.029 A 
ATOM     45  N   UNL A   1      41.697  28.067  28.615  1.00  0.00    -0.354 N 
ATOM     46  C   UNL A   1      41.306  28.881  33.015  1.00  0.00     0.074 A 
ATOM     47  C   UNL A   1      40.015  28.269  33.191  1.00  0.00     0.031 C 
ATOM     48  C   UNL A   1      40.812  27.781  26.591  1.00  0.00     0.029 A 
ATOM     49  C   UNL A   1      41.913  27.358  27.441  1.00  0.00     0.049 A 
ATOM     50  H   UNL A   1      42.359  28.112  29.341  1.00  0.00     0.167 HD
ATOM     51  C   UNL A   1      42.459  28.726  33.717  1.00  0.00     0.034 A 
ATOM     52  C   UNL A   1      42.876  26.420  27.246  1.00  0.00     0.034 A 
ATOM     53  C   UNL A   1      43.503  29.596  33.232  1.00  0.00     0.049 A 
ATOM     54  C   UNL A   1      43.936  26.679  28.258  1.00  0.00     0.074 A 
ATOM     55  C   UNL A   1      43.615  30.964  33.068  1.00  0.00     0.029 A 
ATOM     56  N   UNL A   1      44.501  29.054  32.455  1.00  0.00    -0.354 N 
ATOM     57  N   UNL A   1      44.666  27.760  28.276  1.00  0.00    -0.248 NA
ATOM     58  C   UNL A   1      43.859  25.963  29.524  1.00  0.00     0.031 C 
ATOM     59  C   UNL A   1      44.309  31.133  31.832  1.00  0.00     0.029 A 
ATOM     60  C   UNL A   1      44.633  29.864  31.351  1.00  0.00     0.049 A 
ATOM     61  H   UNL A   1      45.021  28.242  32.651  1.00  0.00     0.167 HD
ATOM     62  C   UNL A   1      44.786  28.090  29.617  1.00  0.00     0.074 A 
ATOM     63  C   UNL A   1      44.350  26.899  30.342  1.00  0.00     0.031 C 
ATOM     64  C   UNL A   1      44.956  29.385  30.020  1.00  0.00     0.034 A 
BRANCH  51  65
ATOM     65  C   UNL A   1      42.719  27.538  34.607  1.00  0.00     0.023 A 
ATOM     66  C   UNL A   1      43.480  26.480  34.086  1.00  0.00     0.031 A 
ATOM     67  C   UNL A   1      42.043  27.279  35.824  1.00  0.00     0.131 A 
ATOM     68  C   UNL A   1      43.506  25.232  34.734  1.00  0.00     0.055 A 
ATOM     69  C   UNL A   1      42.131  26.063  36.500  1.00  0.00     0.041 A 
ATOM     70  F   UNL A   1      41.182  28.148  36.371  1.00  0.00    -0.206 F 
ATOM     71  C   UNL A   1      42.846  25.021  35.942  1.00  0.00     0.022 A 
BRANCH  68  72
ATOM     72  S   UNL A   1      44.286  23.840  33.883  1.00  0.00     0.124 S 
ATOM     73  O   UNL A   1      43.642  22.699  34.526  1.00  0.00    -0.237 OA
ATOM     74  O   UNL A   1      43.914  24.091  32.495  1.00  0.00    -0.237 OA
ATOM     75  O   UNL A   1      45.705  24.008  34.188  1.00  0.00    -0.744 OA
ENDBRANCH  68  72
ENDBRANCH  51  65
BRANCH  52  76
ATOM     76  C   UNL A   1      42.748  25.129  26.516  1.00  0.00     0.023 A 
ATOM     77  C   UNL A   1      43.777  24.654  25.677  1.00  0.00     0.031 A 
ATOM     78  C   UNL A   1      41.723  24.212  26.841  1.00  0.00     0.131 A 
ATOM     79  C   UNL A   1      43.762  23.320  25.213  1.00  0.00     0.055 A 
ATOM     80  C   UNL A   1      41.707  22.897  26.371  1.00  0.00     0.041 A 
ATOM     81  F   UNL A   1      40.746  24.529  27.704  1.00  0.00    -0.206 F 
ATOM     82  C   UNL A   1      42.737  22.440  25.565  1.00  0.00     0.022 A 
BRANCH  79  83
ATOM     83  S   UNL A   1      45.161  22.666  24.249  1.00  0.00     0.124 S 
ATOM     84  O   UNL A   1      45.891  23.882  23.910  1.00  0.00    -0.237 OA
ATOM     85  O   UNL A   1      45.809  21.765  25.196  1.00  0.00    -0.237 OA
ATOM     86  O   UNL A   1      44.510  21.999  23.121  1.00  0.00    -0.744 OA
ENDBRANCH  79  83
ENDBRANCH  52  76
BRANCH  64  87
ATOM     87  C   UNL A   1      45.283  30.430  28.973  1.00  0.00     0.023 A 
ATOM     88  C   UNL A   1      46.591  30.796  28.579  1.00  0.00     0.031 A 
ATOM     89  C   UNL A   1      44.207  30.983  28.257  1.00  0.00     0.131 A 
ATOM     90  C   UNL A   1      46.779  31.694  27.508  1.00  0.00     0.055 A 
ATOM     91  C   UNL A   1      44.398  31.857  27.188  1.00  0.00     0.041 A 
ATOM     92  F   UNL A   1      42.943  30.646  28.563  1.00  0.00    -0.206 F 
ATOM     93  C   UNL A   1      45.686  32.221  26.812  1.00  0.00     0.022 A 
BRANCH  90  94
ATOM     94  S   UNL A   1      48.457  32.185  26.990  1.00  0.00     0.124 S 
ATOM     95  O   UNL A   1      49.070  30.925  26.589  1.00  0.00    -0.237 OA
ATOM     96  O   UNL A   1      48.191  33.141  25.918  1.00  0.00    -0.237 OA
ATOM     97  O   UNL A   1      49.027  32.779  28.202  1.00  0.00    -0.744 OA
ENDBRANCH  90  94
ENDBRANCH  64  87
ENDBRANCH  38  39
ENDBRANCH  31  33
ENDBRANCH  30  31
ENDBRANCH  29  30
ENDBRANCH   1  29
TORSDOF 19
ENDMDL
