MODEL 1
REMARK VINA RESULT:     -11.5      0.000      0.000
REMARK SMILES CC(C)(C)[C@@H]1CC(C(=O)OCCOC(=O)c2ccc(-c3c4nc(c(-c5cc(S(=O)(=O)[O-])ccc5F)c5ccc([nH]5)c(-c5cc(S(=O)(=O)[O-])ccc5F)c5nc(c(-c6cc(S(=O)(=O)[O-])ccc6F)c6ccc3[nH]6)C=C5)C=C4)cc2)C[C@@H](C(C)(C)C)C1
REMARK SMILES IDX 12 1 11 2 10 3 8 4 9 5 7 6 5 7 6 8 85 9 80 10 79 11 2 12
REMARK SMILES IDX 1 13 3 14 4 15 81 16 82 17 83 18 84 19 13 20 14 21 15 22
REMARK SMILES IDX 16 23 17 24 78 25 18 26 77 27 19 28 20 29 21 30 71 31 22 32
REMARK SMILES IDX 76 33 70 34 72 35 23 36 75 37 69 38 68 39 24 41 56 42 36 43
REMARK SMILES IDX 55 44 37 45 40 46 54 47 73 48 38 49 39 50 53 52 74 53 41 54
REMARK SMILES IDX 25 55 26 56 34 57 27 58 33 59 35 60 32 61 28 62 29 63 30 64
REMARK SMILES IDX 31 65 57 66 58 67 66 68 59 69 65 70 67 71 64 72 60 73 61 74
REMARK SMILES IDX 62 75 63 76 42 77 43 78 51 79 44 80 50 81 52 82 49 83 45 84
REMARK SMILES IDX 46 85 47 86 48 87
REMARK H PARENT 72 40 40 51
REMARK Flexibility Score: inf
ROOT
ATOM      1  C   UNL A   1      36.389  20.906  25.131  1.00  0.00     0.275 C 
ENDROOT
BRANCH   1   2
ATOM      2  C   UNL A   1      35.237  21.475  25.965  1.00  0.00     0.274 C 
BRANCH   2   3
ATOM      3  O   UNL A   1      34.586  22.560  25.277  1.00  0.00    -0.462 OA
BRANCH   3   4
ATOM      4  C   UNL A   1      33.737  23.306  26.029  1.00  0.00     0.309 C 
ATOM      5  O   UNL A   1      33.344  22.991  27.147  1.00  0.00    -0.252 OA
BRANCH   4   6
ATOM      6  C   UNL A   1      33.347  24.622  25.377  1.00  0.00     0.100 C 
ATOM      7  C   UNL A   1      32.827  27.090  25.503  1.00  0.00    -0.005 C 
ATOM      8  C   UNL A   1      33.439  25.878  26.246  1.00  0.00     0.019 C 
ATOM      9  C   UNL A   1      33.507  27.266  24.117  1.00  0.00     0.008 C 
ATOM     10  C   UNL A   1      33.583  25.990  23.239  1.00  0.00    -0.005 C 
ATOM     11  C   UNL A   1      34.123  24.818  24.083  1.00  0.00     0.019 C 
BRANCH   7  12
ATOM     12  C   UNL A   1      32.778  28.411  26.359  1.00  0.00    -0.035 C 
ATOM     13  C   UNL A   1      32.304  29.628  25.546  1.00  0.00     0.011 C 
ATOM     14  C   UNL A   1      34.178  28.727  26.933  1.00  0.00     0.011 C 
ATOM     15  C   UNL A   1      31.827  28.232  27.565  1.00  0.00     0.011 C 
ENDBRANCH   7  12
BRANCH  10  16
ATOM     16  C   UNL A   1      32.304  25.704  22.342  1.00  0.00    -0.035 C 
ATOM     17  C   UNL A   1      32.689  25.339  20.892  1.00  0.00     0.011 C 
ATOM     18  C   UNL A   1      31.364  24.600  22.861  1.00  0.00     0.011 C 
ATOM     19  C   UNL A   1      31.462  27.003  22.273  1.00  0.00     0.011 C 
ENDBRANCH  10  16
ENDBRANCH   4   6
ENDBRANCH   3   4
ENDBRANCH   2   3
ENDBRANCH   1   2
BRANCH   1  20
ATOM     20  O   UNL A   1      37.520  21.794  25.090  1.00  0.00    -0.458 OA
BRANCH  20  21
ATOM     21  C   UNL A   1      38.602  21.372  25.787  1.00  0.00     0.338 C 
ATOM     22  O   UNL A   1      39.039  20.236  25.856  1.00  0.00    -0.246 OA
BRANCH  21  23
ATOM     23  C   UNL A   1      39.256  22.517  26.434  1.00  0.00     0.060 A 
ATOM     24  C   UNL A   1      38.827  23.804  26.109  1.00  0.00     0.016 A 
ATOM     25  C   UNL A   1      40.364  22.327  27.258  1.00  0.00     0.016 A 
ATOM     26  C   UNL A   1      39.526  24.915  26.570  1.00  0.00     0.010 A 
ATOM     27  C   UNL A   1      41.044  23.444  27.753  1.00  0.00     0.010 A 
ATOM     28  C   UNL A   1      40.643  24.745  27.395  1.00  0.00    -0.014 A 
BRANCH  28  29
ATOM     29  C   UNL A   1      41.419  25.922  27.856  1.00  0.00     0.031 A 
ATOM     30  C   UNL A   1      40.740  26.991  28.662  1.00  0.00     0.074 A 
ATOM     31  C   UNL A   1      42.718  26.040  27.528  1.00  0.00     0.049 A 
ATOM     32  N   UNL A   1      41.175  28.176  29.004  1.00  0.00    -0.248 NA
ATOM     33  C   UNL A   1      39.381  26.686  29.131  1.00  0.00     0.031 C 
ATOM     34  C   UNL A   1      43.494  25.045  26.785  1.00  0.00     0.029 A 
ATOM     35  N   UNL A   1      43.608  27.059  27.755  1.00  0.00    -0.354 N 
ATOM     36  C   UNL A   1      40.129  28.779  29.694  1.00  0.00     0.074 A 
ATOM     37  C   UNL A   1      39.035  27.829  29.707  1.00  0.00     0.031 C 
ATOM     38  C   UNL A   1      44.737  25.515  26.595  1.00  0.00     0.029 A 
ATOM     39  C   UNL A   1      44.825  26.864  27.147  1.00  0.00     0.049 A 
ATOM     40  H   UNL A   1      43.397  27.852  28.298  1.00  0.00     0.167 HD
ATOM     41  C   UNL A   1      40.090  30.011  30.260  1.00  0.00     0.034 A 
ATOM     42  C   UNL A   1      45.873  27.697  26.996  1.00  0.00     0.034 A 
ATOM     43  C   UNL A   1      41.201  30.933  30.246  1.00  0.00     0.049 A 
ATOM     44  C   UNL A   1      45.794  29.081  27.582  1.00  0.00     0.074 A 
ATOM     45  C   UNL A   1      41.293  32.187  30.825  1.00  0.00     0.029 A 
ATOM     46  N   UNL A   1      42.417  30.703  29.611  1.00  0.00    -0.354 N 
ATOM     47  N   UNL A   1      44.799  29.648  28.223  1.00  0.00    -0.248 NA
ATOM     48  C   UNL A   1      46.976  29.936  27.422  1.00  0.00     0.031 C 
ATOM     49  C   UNL A   1      42.534  32.739  30.486  1.00  0.00     0.029 A 
ATOM     50  C   UNL A   1      43.247  31.803  29.753  1.00  0.00     0.049 A 
ATOM     51  H   UNL A   1      42.653  29.877  29.130  1.00  0.00     0.167 HD
ATOM     52  C   UNL A   1      45.240  30.924  28.556  1.00  0.00     0.074 A 
ATOM     53  C   UNL A   1      46.595  31.039  28.052  1.00  0.00     0.031 C 
ATOM     54  C   UNL A   1      44.588  31.909  29.226  1.00  0.00     0.034 A 
BRANCH  41  55
ATOM     55  C   UNL A   1      38.781  30.449  30.873  1.00  0.00     0.023 A 
ATOM     56  C   UNL A   1      37.778  31.083  30.119  1.00  0.00     0.031 A 
ATOM     57  C   UNL A   1      38.560  30.280  32.251  1.00  0.00     0.131 A 
ATOM     58  C   UNL A   1      36.642  31.601  30.761  1.00  0.00     0.055 A 
ATOM     59  C   UNL A   1      37.390  30.725  32.871  1.00  0.00     0.041 A 
ATOM     60  F   UNL A   1      39.489  29.700  33.027  1.00  0.00    -0.206 F 
ATOM     61  C   UNL A   1      36.431  31.407  32.128  1.00  0.00     0.022 A 
BRANCH  58  62
ATOM     62  S   UNL A   1      35.526  32.675  29.816  1.00  0.00     0.124 S 
ATOM     63  O   UNL A   1      36.237  33.952  29.857  1.00  0.00    -0.237 OA
ATOM     64  O   UNL A   1      35.477  32.013  28.518  1.00  0.00    -0.237 OA
ATOM     65  O   UNL A   1      34.284  32.640  30.584  1.00  0.00    -0.744 OA
ENDBRANCH  58  62
ENDBRANCH  41  55
BRANCH  42  66
ATOM     66  C   UNL A   1      47.045  27.266  26.187  1.00  0.00     0.023 A 
ATOM     67  C   UNL A   1      47.187  27.645  24.845  1.00  0.00     0.031 A 
ATOM     68  C   UNL A   1      48.053  26.472  26.765  1.00  0.00     0.131 A 
ATOM     69  C   UNL A   1      48.306  27.211  24.115  1.00  0.00     0.055 A 
ATOM     70  C   UNL A   1      49.182  26.078  26.048  1.00  0.00     0.041 A 
ATOM     71  F   UNL A   1      47.964  26.091  28.049  1.00  0.00    -0.206 F 
ATOM     72  C   UNL A   1      49.310  26.443  24.711  1.00  0.00     0.022 A 
BRANCH  69  73
ATOM     73  S   UNL A   1      48.419  27.641  22.358  1.00  0.00     0.124 S 
ATOM     74  O   UNL A   1      48.425  26.324  21.729  1.00  0.00    -0.237 OA
ATOM     75  O   UNL A   1      47.215  28.440  22.160  1.00  0.00    -0.237 OA
ATOM     76  O   UNL A   1      49.676  28.382  22.268  1.00  0.00    -0.744 OA
ENDBRANCH  69  73
ENDBRANCH  42  66
BRANCH  54  77
ATOM     77  C   UNL A   1      45.353  33.181  29.482  1.00  0.00     0.023 A 
ATOM     78  C   UNL A   1      45.214  34.308  28.653  1.00  0.00     0.031 A 
ATOM     79  C   UNL A   1      46.232  33.264  30.577  1.00  0.00     0.131 A 
ATOM     80  C   UNL A   1      45.971  35.460  28.911  1.00  0.00     0.055 A 
ATOM     81  C   UNL A   1      46.948  34.428  30.856  1.00  0.00     0.041 A 
ATOM     82  F   UNL A   1      46.401  32.215  31.396  1.00  0.00    -0.206 F 
ATOM     83  C   UNL A   1      46.826  35.532  30.016  1.00  0.00     0.022 A 
BRANCH  80  84
ATOM     84  S   UNL A   1      45.869  36.853  27.754  1.00  0.00     0.124 S 
ATOM     85  O   UNL A   1      46.047  37.997  28.641  1.00  0.00    -0.237 OA
ATOM     86  O   UNL A   1      46.970  36.580  26.836  1.00  0.00    -0.237 OA
ATOM     87  O   UNL A   1      44.534  36.720  27.175  1.00  0.00    -0.744 OA
ENDBRANCH  80  84
ENDBRANCH  54  77
ENDBRANCH  28  29
ENDBRANCH  21  23
ENDBRANCH  20  21
ENDBRANCH   1  20
TORSDOF 16
ENDMDL
MODEL 2
REMARK VINA RESULT:     -11.5      1.499      1.912
REMARK SMILES CC(C)(C)[C@@H]1CC(C(=O)OCCOC(=O)c2ccc(-c3c4nc(c(-c5cc(S(=O)(=O)[O-])ccc5F)c5ccc([nH]5)c(-c5cc(S(=O)(=O)[O-])ccc5F)c5nc(c(-c6cc(S(=O)(=O)[O-])ccc6F)c6ccc3[nH]6)C=C5)C=C4)cc2)C[C@@H](C(C)(C)C)C1
REMARK SMILES IDX 12 1 11 2 10 3 8 4 9 5 7 6 5 7 6 8 85 9 80 10 79 11 2 12
REMARK SMILES IDX 1 13 3 14 4 15 81 16 82 17 83 18 84 19 13 20 14 21 15 22
REMARK SMILES IDX 16 23 17 24 78 25 18 26 77 27 19 28 20 29 21 30 71 31 22 32
REMARK SMILES IDX 76 33 70 34 72 35 23 36 75 37 69 38 68 39 24 41 56 42 36 43
REMARK SMILES IDX 55 44 37 45 40 46 54 47 73 48 38 49 39 50 53 52 74 53 41 54
REMARK SMILES IDX 25 55 26 56 34 57 27 58 33 59 35 60 32 61 28 62 29 63 30 64
REMARK SMILES IDX 31 65 57 66 58 67 66 68 59 69 65 70 67 71 64 72 60 73 61 74
REMARK SMILES IDX 62 75 63 76 42 77 43 78 51 79 44 80 50 81 52 82 49 83 45 84
REMARK SMILES IDX 46 85 47 86 48 87
REMARK H PARENT 72 40 40 51
REMARK Flexibility Score: inf
ROOT
ATOM      1  C   UNL A   1      36.907  21.557  24.377  1.00  0.00     0.275 C 
ENDROOT
BRANCH   1   2
ATOM      2  C   UNL A   1      35.490  22.123  24.250  1.00  0.00     0.274 C 
BRANCH   2   3
ATOM      3  O   UNL A   1      35.460  23.525  24.577  1.00  0.00    -0.462 OA
BRANCH   3   4
ATOM      4  C   UNL A   1      34.509  23.899  25.470  1.00  0.00     0.309 C 
ATOM      5  O   UNL A   1      34.303  23.335  26.539  1.00  0.00    -0.252 OA
BRANCH   4   6
ATOM      6  C   UNL A   1      33.735  25.137  25.049  1.00  0.00     0.100 C 
ATOM      7  C   UNL A   1      32.761  27.416  25.537  1.00  0.00    -0.005 C 
ATOM      8  C   UNL A   1      33.744  26.321  26.019  1.00  0.00     0.019 C 
ATOM      9  C   UNL A   1      33.097  27.831  24.079  1.00  0.00     0.008 C 
ATOM     10  C   UNL A   1      33.251  26.665  23.067  1.00  0.00    -0.005 C 
ATOM     11  C   UNL A   1      34.177  25.587  23.664  1.00  0.00     0.019 C 
BRANCH   7  12
ATOM     12  C   UNL A   1      32.619  28.632  26.528  1.00  0.00    -0.035 C 
ATOM     13  C   UNL A   1      31.653  28.341  27.689  1.00  0.00     0.011 C 
ATOM     14  C   UNL A   1      32.105  29.878  25.771  1.00  0.00     0.011 C 
ATOM     15  C   UNL A   1      33.996  29.003  27.122  1.00  0.00     0.011 C 
ENDBRANCH   7  12
BRANCH  10  16
ATOM     16  C   UNL A   1      31.902  26.165  22.393  1.00  0.00    -0.035 C 
ATOM     17  C   UNL A   1      31.390  24.858  23.033  1.00  0.00     0.011 C 
ATOM     18  C   UNL A   1      30.740  27.174  22.411  1.00  0.00     0.011 C 
ATOM     19  C   UNL A   1      32.194  25.855  20.902  1.00  0.00     0.011 C 
ENDBRANCH  10  16
ENDBRANCH   4   6
ENDBRANCH   3   4
ENDBRANCH   2   3
ENDBRANCH   1   2
BRANCH   1  20
ATOM     20  O   UNL A   1      37.325  21.444  25.750  1.00  0.00    -0.458 OA
BRANCH  20  21
ATOM     21  C   UNL A   1      38.649  21.217  25.927  1.00  0.00     0.338 C 
ATOM     22  O   UNL A   1      39.278  20.225  25.600  1.00  0.00    -0.246 OA
BRANCH  21  23
ATOM     23  C   UNL A   1      39.280  22.396  26.534  1.00  0.00     0.060 A 
ATOM     24  C   UNL A   1      38.852  23.664  26.138  1.00  0.00     0.016 A 
ATOM     25  C   UNL A   1      40.369  22.253  27.393  1.00  0.00     0.016 A 
ATOM     26  C   UNL A   1      39.533  24.800  26.562  1.00  0.00     0.010 A 
ATOM     27  C   UNL A   1      41.030  23.397  27.850  1.00  0.00     0.010 A 
ATOM     28  C   UNL A   1      40.630  24.677  27.421  1.00  0.00    -0.014 A 
BRANCH  28  29
ATOM     29  C   UNL A   1      41.389  25.880  27.844  1.00  0.00     0.031 A 
ATOM     30  C   UNL A   1      40.679  26.990  28.563  1.00  0.00     0.074 A 
ATOM     31  C   UNL A   1      42.699  25.982  27.558  1.00  0.00     0.049 A 
ATOM     32  N   UNL A   1      41.101  28.194  28.853  1.00  0.00    -0.248 NA
ATOM     33  C   UNL A   1      39.304  26.709  28.997  1.00  0.00     0.031 C 
ATOM     34  C   UNL A   1      43.502  24.949  26.901  1.00  0.00     0.029 A 
ATOM     35  N   UNL A   1      43.579  27.015  27.760  1.00  0.00    -0.354 N 
ATOM     36  C   UNL A   1      40.030  28.831  29.470  1.00  0.00     0.074 A 
ATOM     37  C   UNL A   1      38.937  27.881  29.495  1.00  0.00     0.031 C 
ATOM     38  C   UNL A   1      44.751  25.411  26.731  1.00  0.00     0.029 A 
ATOM     39  C   UNL A   1      44.818  26.789  27.209  1.00  0.00     0.049 A 
ATOM     40  H   UNL A   1      43.348  27.836  28.250  1.00  0.00     0.167 HD
ATOM     41  C   UNL A   1      39.969  30.094  29.964  1.00  0.00     0.034 A 
ATOM     42  C   UNL A   1      45.870  27.615  27.051  1.00  0.00     0.034 A 
ATOM     43  C   UNL A   1      41.080  31.015  29.940  1.00  0.00     0.049 A 
ATOM     44  C   UNL A   1      45.770  29.029  27.555  1.00  0.00     0.074 A 
ATOM     45  C   UNL A   1      41.149  32.300  30.450  1.00  0.00     0.029 A 
ATOM     46  N   UNL A   1      42.318  30.753  29.364  1.00  0.00    -0.354 N 
ATOM     47  N   UNL A   1      44.751  29.629  28.126  1.00  0.00    -0.248 NA
ATOM     48  C   UNL A   1      46.956  29.877  27.391  1.00  0.00     0.031 C 
ATOM     49  C   UNL A   1      42.402  32.835  30.128  1.00  0.00     0.029 A 
ATOM     50  C   UNL A   1      43.143  31.862  29.475  1.00  0.00     0.049 A 
ATOM     51  H   UNL A   1      42.573  29.902  28.939  1.00  0.00     0.167 HD
ATOM     52  C   UNL A   1      45.179  30.923  28.404  1.00  0.00     0.074 A 
ATOM     53  C   UNL A   1      46.551  31.013  27.944  1.00  0.00     0.031 C 
ATOM     54  C   UNL A   1      44.502  31.942  28.992  1.00  0.00     0.034 A 
BRANCH  41  55
ATOM     55  C   UNL A   1      38.638  30.561  30.502  1.00  0.00     0.023 A 
ATOM     56  C   UNL A   1      37.680  31.187  29.686  1.00  0.00     0.031 A 
ATOM     57  C   UNL A   1      38.350  30.431  31.873  1.00  0.00     0.131 A 
ATOM     58  C   UNL A   1      36.521  31.734  30.260  1.00  0.00     0.055 A 
ATOM     59  C   UNL A   1      37.158  30.905  32.425  1.00  0.00     0.041 A 
ATOM     60  F   UNL A   1      39.235  29.861  32.707  1.00  0.00    -0.206 F 
ATOM     61  C   UNL A   1      36.244  31.578  31.620  1.00  0.00     0.022 A 
BRANCH  58  62
ATOM     62  S   UNL A   1      35.465  32.795  29.235  1.00  0.00     0.124 S 
ATOM     63  O   UNL A   1      34.142  32.532  29.800  1.00  0.00    -0.237 OA
ATOM     64  O   UNL A   1      36.015  34.122  29.485  1.00  0.00    -0.237 OA
ATOM     65  O   UNL A   1      35.668  32.278  27.883  1.00  0.00    -0.744 OA
ENDBRANCH  58  62
ENDBRANCH  41  55
BRANCH  42  66
ATOM     66  C   UNL A   1      47.072  27.143  26.312  1.00  0.00     0.023 A 
ATOM     67  C   UNL A   1      48.131  26.501  26.969  1.00  0.00     0.031 A 
ATOM     68  C   UNL A   1      47.164  27.321  24.918  1.00  0.00     0.131 A 
ATOM     69  C   UNL A   1      49.249  26.075  26.234  1.00  0.00     0.055 A 
ATOM     70  C   UNL A   1      48.259  26.861  24.187  1.00  0.00     0.041 A 
ATOM     71  F   UNL A   1      46.172  27.924  24.245  1.00  0.00    -0.206 F 
ATOM     72  C   UNL A   1      49.314  26.238  24.847  1.00  0.00     0.022 A 
BRANCH  69  73
ATOM     73  S   UNL A   1      50.642  25.329  27.123  1.00  0.00     0.124 S 
ATOM     74  O   UNL A   1      51.526  24.950  26.024  1.00  0.00    -0.237 OA
ATOM     75  O   UNL A   1      51.097  26.433  27.961  1.00  0.00    -0.237 OA
ATOM     76  O   UNL A   1      50.030  24.215  27.843  1.00  0.00    -0.744 OA
ENDBRANCH  69  73
ENDBRANCH  42  66
BRANCH  54  77
ATOM     77  C   UNL A   1      45.256  33.228  29.206  1.00  0.00     0.023 A 
ATOM     78  C   UNL A   1      45.292  34.236  28.226  1.00  0.00     0.031 A 
ATOM     79  C   UNL A   1      45.947  33.446  30.411  1.00  0.00     0.131 A 
ATOM     80  C   UNL A   1      46.034  35.404  28.455  1.00  0.00     0.055 A 
ATOM     81  C   UNL A   1      46.647  34.629  30.651  1.00  0.00     0.041 A 
ATOM     82  F   UNL A   1      45.946  32.513  31.376  1.00  0.00    -0.206 F 
ATOM     83  C   UNL A   1      46.699  35.612  29.667  1.00  0.00     0.022 A 
BRANCH  80  84
ATOM     84  S   UNL A   1      46.168  36.631  27.126  1.00  0.00     0.124 S 
ATOM     85  O   UNL A   1      46.408  35.788  25.959  1.00  0.00    -0.237 OA
ATOM     86  O   UNL A   1      44.870  37.294  27.179  1.00  0.00    -0.237 OA
ATOM     87  O   UNL A   1      47.302  37.457  27.536  1.00  0.00    -0.744 OA
ENDBRANCH  80  84
ENDBRANCH  54  77
ENDBRANCH  28  29
ENDBRANCH  21  23
ENDBRANCH  20  21
ENDBRANCH   1  20
TORSDOF 16
ENDMDL
MODEL 3
REMARK VINA RESULT:     -11.4      5.211     10.139
REMARK SMILES CC(C)(C)[C@@H]1CC(C(=O)OCCOC(=O)c2ccc(-c3c4nc(c(-c5cc(S(=O)(=O)[O-])ccc5F)c5ccc([nH]5)c(-c5cc(S(=O)(=O)[O-])ccc5F)c5nc(c(-c6cc(S(=O)(=O)[O-])ccc6F)c6ccc3[nH]6)C=C5)C=C4)cc2)C[C@@H](C(C)(C)C)C1
REMARK SMILES IDX 12 1 11 2 10 3 8 4 9 5 7 6 5 7 6 8 85 9 80 10 79 11 2 12
REMARK SMILES IDX 1 13 3 14 4 15 81 16 82 17 83 18 84 19 13 20 14 21 15 22
REMARK SMILES IDX 16 23 17 24 78 25 18 26 77 27 19 28 20 29 21 30 71 31 22 32
REMARK SMILES IDX 76 33 70 34 72 35 23 36 75 37 69 38 68 39 24 41 56 42 36 43
REMARK SMILES IDX 55 44 37 45 40 46 54 47 73 48 38 49 39 50 53 52 74 53 41 54
REMARK SMILES IDX 25 55 26 56 34 57 27 58 33 59 35 60 32 61 28 62 29 63 30 64
REMARK SMILES IDX 31 65 57 66 58 67 66 68 59 69 65 70 67 71 64 72 60 73 61 74
REMARK SMILES IDX 62 75 63 76 42 77 43 78 51 79 44 80 50 81 52 82 49 83 45 84
REMARK SMILES IDX 46 85 47 86 48 87
REMARK H PARENT 72 40 40 51
REMARK Flexibility Score: inf
ROOT
ATOM      1  C   UNL A   1      31.812  30.583  25.739  1.00  0.00     0.275 C 
ENDROOT
BRANCH   1   2
ATOM      2  C   UNL A   1      31.825  29.183  25.118  1.00  0.00     0.274 C 
BRANCH   2   3
ATOM      3  O   UNL A   1      32.942  28.412  25.600  1.00  0.00    -0.462 OA
BRANCH   3   4
ATOM      4  C   UNL A   1      33.538  27.608  24.684  1.00  0.00     0.309 C 
ATOM      5  O   UNL A   1      34.219  28.012  23.747  1.00  0.00    -0.252 OA
BRANCH   4   6
ATOM      6  C   UNL A   1      33.333  26.127  24.951  1.00  0.00     0.100 C 
ATOM      7  C   UNL A   1      34.133  23.732  24.898  1.00  0.00    -0.005 C 
ATOM      8  C   UNL A   1      34.551  25.217  24.781  1.00  0.00     0.019 C 
ATOM      9  C   UNL A   1      33.386  23.491  26.239  1.00  0.00     0.008 C 
ATOM     10  C   UNL A   1      32.228  24.475  26.549  1.00  0.00    -0.005 C 
ATOM     11  C   UNL A   1      32.711  25.922  26.325  1.00  0.00     0.019 C 
BRANCH   7  12
ATOM     12  C   UNL A   1      35.302  22.711  24.629  1.00  0.00    -0.035 C 
ATOM     13  C   UNL A   1      36.007  22.958  23.285  1.00  0.00     0.011 C 
ATOM     14  C   UNL A   1      34.757  21.264  24.632  1.00  0.00     0.011 C 
ATOM     15  C   UNL A   1      36.357  22.797  25.756  1.00  0.00     0.011 C 
ENDBRANCH   7  12
BRANCH  10  16
ATOM     16  C   UNL A   1      30.817  24.082  25.934  1.00  0.00    -0.035 C 
ATOM     17  C   UNL A   1      30.018  23.157  26.876  1.00  0.00     0.011 C 
ATOM     18  C   UNL A   1      29.903  25.265  25.565  1.00  0.00     0.011 C 
ATOM     19  C   UNL A   1      31.065  23.291  24.624  1.00  0.00     0.011 C 
ENDBRANCH  10  16
ENDBRANCH   4   6
ENDBRANCH   3   4
ENDBRANCH   2   3
ENDBRANCH   1   2
BRANCH   1  20
ATOM     20  O   UNL A   1      32.460  30.613  27.024  1.00  0.00    -0.458 OA
BRANCH  20  21
ATOM     21  C   UNL A   1      33.144  31.750  27.293  1.00  0.00     0.338 C 
ATOM     22  O   UNL A   1      32.738  32.896  27.197  1.00  0.00    -0.246 OA
BRANCH  21  23
ATOM     23  C   UNL A   1      34.483  31.420  27.798  1.00  0.00     0.060 A 
ATOM     24  C   UNL A   1      34.747  30.105  28.182  1.00  0.00     0.016 A 
ATOM     25  C   UNL A   1      35.429  32.422  28.007  1.00  0.00     0.016 A 
ATOM     26  C   UNL A   1      35.943  29.785  28.819  1.00  0.00     0.010 A 
ATOM     27  C   UNL A   1      36.646  32.094  28.612  1.00  0.00     0.010 A 
ATOM     28  C   UNL A   1      36.902  30.778  29.041  1.00  0.00    -0.014 A 
BRANCH  28  29
ATOM     29  C   UNL A   1      38.161  30.456  29.757  1.00  0.00     0.031 A 
ATOM     30  C   UNL A   1      39.128  29.477  29.155  1.00  0.00     0.074 A 
ATOM     31  C   UNL A   1      38.418  31.019  30.951  1.00  0.00     0.049 A 
ATOM     32  N   UNL A   1      40.183  28.917  29.689  1.00  0.00    -0.248 NA
ATOM     33  C   UNL A   1      38.857  29.063  27.772  1.00  0.00     0.031 C 
ATOM     34  C   UNL A   1      37.573  32.014  31.613  1.00  0.00     0.029 A 
ATOM     35  N   UNL A   1      39.450  30.815  31.831  1.00  0.00    -0.354 N 
ATOM     36  C   UNL A   1      40.682  28.053  28.722  1.00  0.00     0.074 A 
ATOM     37  C   UNL A   1      39.801  28.154  27.576  1.00  0.00     0.031 C 
ATOM     38  C   UNL A   1      38.107  32.315  32.807  1.00  0.00     0.029 A 
ATOM     39  C   UNL A   1      39.294  31.491  33.018  1.00  0.00     0.049 A 
ATOM     40  H   UNL A   1      40.225  30.242  31.634  1.00  0.00     0.167 HD
ATOM     41  C   UNL A   1      41.772  27.248  28.791  1.00  0.00     0.034 A 
ATOM     42  C   UNL A   1      39.990  31.412  34.169  1.00  0.00     0.034 A 
ATOM     43  C   UNL A   1      42.643  27.178  29.940  1.00  0.00     0.049 A 
ATOM     44  C   UNL A   1      41.164  30.475  34.249  1.00  0.00     0.074 A 
ATOM     45  C   UNL A   1      43.799  26.435  30.106  1.00  0.00     0.029 A 
ATOM     46  N   UNL A   1      42.446  27.871  31.129  1.00  0.00    -0.354 N 
ATOM     47  N   UNL A   1      41.623  29.651  33.335  1.00  0.00    -0.248 NA
ATOM     48  C   UNL A   1      41.910  30.454  35.512  1.00  0.00     0.031 C 
ATOM     49  C   UNL A   1      44.264  26.630  31.412  1.00  0.00     0.029 A 
ATOM     50  C   UNL A   1      43.438  27.547  32.042  1.00  0.00     0.049 A 
ATOM     51  H   UNL A   1      41.709  28.502  31.298  1.00  0.00     0.167 HD
ATOM     52  C   UNL A   1      42.724  29.023  33.909  1.00  0.00     0.074 A 
ATOM     53  C   UNL A   1      42.863  29.570  35.245  1.00  0.00     0.031 C 
ATOM     54  C   UNL A   1      43.549  28.086  33.378  1.00  0.00     0.034 A 
BRANCH  41  55
ATOM     55  C   UNL A   1      42.032  26.335  27.616  1.00  0.00     0.023 A 
ATOM     56  C   UNL A   1      41.599  24.998  27.598  1.00  0.00     0.031 A 
ATOM     57  C   UNL A   1      42.781  26.798  26.519  1.00  0.00     0.131 A 
ATOM     58  C   UNL A   1      41.990  24.150  26.550  1.00  0.00     0.055 A 
ATOM     59  C   UNL A   1      43.098  25.971  25.439  1.00  0.00     0.041 A 
ATOM     60  F   UNL A   1      43.240  28.060  26.488  1.00  0.00    -0.206 F 
ATOM     61  C   UNL A   1      42.718  24.633  25.459  1.00  0.00     0.022 A 
BRANCH  58  62
ATOM     62  S   UNL A   1      41.676  22.370  26.713  1.00  0.00     0.124 S 
ATOM     63  O   UNL A   1      42.468  22.036  27.896  1.00  0.00    -0.237 OA
ATOM     64  O   UNL A   1      40.228  22.319  26.876  1.00  0.00    -0.237 OA
ATOM     65  O   UNL A   1      42.185  21.816  25.459  1.00  0.00    -0.744 OA
ENDBRANCH  58  62
ENDBRANCH  41  55
BRANCH  42  66
ATOM     66  C   UNL A   1      39.536  32.184  35.357  1.00  0.00     0.023 A 
ATOM     67  C   UNL A   1      38.735  31.600  36.348  1.00  0.00     0.031 A 
ATOM     68  C   UNL A   1      39.918  33.529  35.518  1.00  0.00     0.131 A 
ATOM     69  C   UNL A   1      38.323  32.366  37.451  1.00  0.00     0.055 A 
ATOM     70  C   UNL A   1      39.541  34.274  36.635  1.00  0.00     0.041 A 
ATOM     71  F   UNL A   1      40.691  34.129  34.599  1.00  0.00    -0.206 F 
ATOM     72  C   UNL A   1      38.732  33.694  37.607  1.00  0.00     0.022 A 
BRANCH  69  73
ATOM     73  S   UNL A   1      37.214  31.612  38.671  1.00  0.00     0.124 S 
ATOM     74  O   UNL A   1      36.054  32.494  38.603  1.00  0.00    -0.237 OA
ATOM     75  O   UNL A   1      37.032  30.270  38.128  1.00  0.00    -0.237 OA
ATOM     76  O   UNL A   1      37.979  31.679  39.914  1.00  0.00    -0.744 OA
ENDBRANCH  69  73
ENDBRANCH  42  66
BRANCH  54  77
ATOM     77  C   UNL A   1      44.699  27.625  34.235  1.00  0.00     0.023 A 
ATOM     78  C   UNL A   1      44.599  26.492  35.060  1.00  0.00     0.031 A 
ATOM     79  C   UNL A   1      45.914  28.332  34.220  1.00  0.00     0.131 A 
ATOM     80  C   UNL A   1      45.684  26.118  35.866  1.00  0.00     0.055 A 
ATOM     81  C   UNL A   1      47.006  27.931  34.990  1.00  0.00     0.041 A 
ATOM     82  F   UNL A   1      46.059  29.423  33.451  1.00  0.00    -0.206 F 
ATOM     83  C   UNL A   1      46.892  26.822  35.825  1.00  0.00     0.022 A 
BRANCH  80  84
ATOM     84  S   UNL A   1      45.485  24.730  37.016  1.00  0.00     0.124 S 
ATOM     85  O   UNL A   1      45.980  25.298  38.266  1.00  0.00    -0.237 OA
ATOM     86  O   UNL A   1      44.050  24.474  36.955  1.00  0.00    -0.237 OA
ATOM     87  O   UNL A   1      46.325  23.683  36.437  1.00  0.00    -0.744 OA
ENDBRANCH  80  84
ENDBRANCH  54  77
ENDBRANCH  28  29
ENDBRANCH  21  23
ENDBRANCH  20  21
ENDBRANCH   1  20
TORSDOF 16
ENDMDL
