MODEL 1
REMARK VINA RESULT:     -12.8      0.000      0.000
REMARK SMILES C[C@H]1C[N@H+]2CCCC[C@@H]2CN1c1ccc(C(=O)OCCOC(=O)c2ccc(-c3c4nc(c(-c5cc(S(=O)(=O)[O-])ccc5F)c5ccc([nH]5)c(-c5cc(S(=O)(=O)[O-])ccc5F)c5nc(c(-c6cc(S(=O)(=O)[O-])ccc6F)c6ccc3[nH]6)C=C5)C=C4)cc2)cc1Cl
REMARK SMILES IDX 20 1 19 2 18 3 16 4 17 5 15 6 12 7 13 8 88 9 14 10 87 11
REMARK SMILES IDX 89 12 11 13 1 14 2 15 3 16 4 17 10 18 5 19 9 20 6 22 8 23
REMARK SMILES IDX 7 24 21 25 22 26 23 27 24 28 25 29 86 30 26 31 85 32 27 33
REMARK SMILES IDX 28 34 29 35 79 36 30 37 84 38 78 39 80 40 31 41 83 42 77 43
REMARK SMILES IDX 76 44 32 46 64 47 44 48 63 49 45 50 48 51 62 52 81 53 46 54
REMARK SMILES IDX 47 55 61 57 82 58 49 59 33 60 34 61 42 62 35 63 41 64 43 65
REMARK SMILES IDX 40 66 36 67 37 68 38 69 39 70 65 71 66 72 74 73 67 74 73 75
REMARK SMILES IDX 75 76 72 77 68 78 69 79 70 80 71 81 50 82 51 83 59 84 52 85
REMARK SMILES IDX 58 86 60 87 57 88 53 89 54 90 55 91 56 92
REMARK H PARENT 4 21 80 45 48 56
REMARK Flexibility Score: inf
ROOT
ATOM      1  C   UNL A   1      36.618  20.386  24.984  1.00  0.00     0.275 C 
ENDROOT
BRANCH   1   2
ATOM      2  C   UNL A   1      35.172  20.668  25.386  1.00  0.00     0.275 C 
BRANCH   2   3
ATOM      3  O   UNL A   1      34.257  20.054  24.457  1.00  0.00    -0.458 OA
BRANCH   3   4
ATOM      4  C   UNL A   1      32.938  20.260  24.698  1.00  0.00     0.338 C 
ATOM      5  O   UNL A   1      32.115  19.415  25.005  1.00  0.00    -0.246 OA
BRANCH   4   6
ATOM      6  C   UNL A   1      32.620  21.706  24.621  1.00  0.00     0.061 A 
ATOM      7  C   UNL A   1      31.992  24.461  24.563  1.00  0.00     0.056 A 
ATOM      8  C   UNL A   1      31.776  23.703  25.718  1.00  0.00     0.028 A 
ATOM      9  C   UNL A   1      32.521  23.798  23.428  1.00  0.00     0.065 A 
ATOM     10  C   UNL A   1      32.059  22.336  25.738  1.00  0.00     0.018 A 
ATOM     11  C   UNL A   1      32.847  22.440  23.458  1.00  0.00     0.038 A 
ATOM     12  Cl  UNL A   1      32.786  24.641  21.934  1.00  0.00    -0.082 Cl
BRANCH   7  13
ATOM     13  N   UNL A   1      31.618  25.797  24.504  1.00  0.00    -0.356 N 
ATOM     14  C   UNL A   1      33.858  26.755  25.069  1.00  0.00     0.037 C 
ATOM     15  C   UNL A   1      32.337  26.886  25.205  1.00  0.00     0.134 C 
ATOM     16  C   UNL A   1      31.915  28.268  24.588  1.00  0.00     0.287 C 
ATOM     17  N   UNL A   1      30.459  28.481  24.351  1.00  0.00    -0.329 N 
ATOM     18  C   UNL A   1      30.162  25.998  24.459  1.00  0.00     0.182 C 
ATOM     19  C   UNL A   1      30.263  29.680  23.517  1.00  0.00     0.262 C 
ATOM     20  C   UNL A   1      29.876  27.294  23.679  1.00  0.00     0.203 C 
ATOM     21  H   UNL A   1      29.990  28.617  25.246  1.00  0.00     0.348 HD
ATOM     22  C   UNL A   1      28.783  29.937  23.222  1.00  0.00     0.062 C 
ATOM     23  C   UNL A   1      28.365  27.482  23.501  1.00  0.00     0.067 C 
ATOM     24  C   UNL A   1      28.089  28.709  22.642  1.00  0.00     0.012 C 
ENDBRANCH   7  13
ENDBRANCH   4   6
ENDBRANCH   3   4
ENDBRANCH   2   3
ENDBRANCH   1   2
BRANCH   1  25
ATOM     25  O   UNL A   1      37.457  21.482  25.386  1.00  0.00    -0.458 OA
BRANCH  25  26
ATOM     26  C   UNL A   1      38.694  21.148  25.824  1.00  0.00     0.338 C 
ATOM     27  O   UNL A   1      39.243  20.064  25.742  1.00  0.00    -0.246 OA
BRANCH  26  28
ATOM     28  C   UNL A   1      39.320  22.330  26.436  1.00  0.00     0.060 A 
ATOM     29  C   UNL A   1      38.846  23.598  26.108  1.00  0.00     0.016 A 
ATOM     30  C   UNL A   1      40.442  22.190  27.248  1.00  0.00     0.016 A 
ATOM     31  C   UNL A   1      39.530  24.737  26.530  1.00  0.00     0.010 A 
ATOM     32  C   UNL A   1      41.078  23.334  27.743  1.00  0.00     0.010 A 
ATOM     33  C   UNL A   1      40.649  24.621  27.364  1.00  0.00    -0.014 A 
BRANCH  33  34
ATOM     34  C   UNL A   1      41.407  25.829  27.802  1.00  0.00     0.031 A 
ATOM     35  C   UNL A   1      40.717  26.883  28.629  1.00  0.00     0.074 A 
ATOM     36  C   UNL A   1      42.700  25.999  27.458  1.00  0.00     0.049 A 
ATOM     37  N   UNL A   1      41.097  28.103  28.910  1.00  0.00    -0.248 NA
ATOM     38  C   UNL A   1      39.413  26.513  29.196  1.00  0.00     0.031 C 
ATOM     39  C   UNL A   1      43.512  25.038  26.710  1.00  0.00     0.029 A 
ATOM     40  N   UNL A   1      43.557  27.048  27.686  1.00  0.00    -0.354 N 
ATOM     41  C   UNL A   1      40.053  28.668  29.637  1.00  0.00     0.074 A 
ATOM     42  C   UNL A   1      39.022  27.656  29.737  1.00  0.00     0.031 C 
ATOM     43  C   UNL A   1      44.747  25.535  26.551  1.00  0.00     0.029 A 
ATOM     44  C   UNL A   1      44.792  26.887  27.100  1.00  0.00     0.049 A 
ATOM     45  H   UNL A   1      43.312  27.840  28.217  1.00  0.00     0.167 HD
ATOM     46  C   UNL A   1      39.965  29.915  30.166  1.00  0.00     0.034 A 
ATOM     47  C   UNL A   1      45.822  27.744  26.960  1.00  0.00     0.034 A 
ATOM     48  C   UNL A   1      41.022  30.895  30.087  1.00  0.00     0.049 A 
ATOM     49  C   UNL A   1      45.692  29.140  27.510  1.00  0.00     0.074 A 
ATOM     50  C   UNL A   1      41.047  32.183  30.594  1.00  0.00     0.029 A 
ATOM     51  N   UNL A   1      42.248  30.695  29.463  1.00  0.00    -0.354 N 
ATOM     52  N   UNL A   1      44.673  29.689  28.128  1.00  0.00    -0.248 NA
ATOM     53  C   UNL A   1      46.842  30.034  27.330  1.00  0.00     0.031 C 
ATOM     54  C   UNL A   1      42.263  32.778  30.233  1.00  0.00     0.029 A 
ATOM     55  C   UNL A   1      43.026  31.839  29.557  1.00  0.00     0.049 A 
ATOM     56  H   UNL A   1      42.524  29.860  29.020  1.00  0.00     0.167 HD
ATOM     57  C   UNL A   1      45.064  30.992  28.418  1.00  0.00     0.074 A 
ATOM     58  C   UNL A   1      46.417  31.141  27.921  1.00  0.00     0.031 C 
ATOM     59  C   UNL A   1      44.367  31.977  29.041  1.00  0.00     0.034 A 
BRANCH  46  60
ATOM     60  C   UNL A   1      38.656  30.300  30.814  1.00  0.00     0.023 A 
ATOM     61  C   UNL A   1      37.625  30.931  30.098  1.00  0.00     0.031 A 
ATOM     62  C   UNL A   1      38.460  30.079  32.190  1.00  0.00     0.131 A 
ATOM     63  C   UNL A   1      36.485  31.396  30.774  1.00  0.00     0.055 A 
ATOM     64  C   UNL A   1      37.287  30.469  32.840  1.00  0.00     0.041 A 
ATOM     65  F   UNL A   1      39.416  29.499  32.932  1.00  0.00    -0.206 F 
ATOM     66  C   UNL A   1      36.299  31.149  32.136  1.00  0.00     0.022 A 
BRANCH  63  67
ATOM     67  S   UNL A   1      35.331  32.477  29.883  1.00  0.00     0.124 S 
ATOM     68  O   UNL A   1      34.294  32.696  30.887  1.00  0.00    -0.237 OA
ATOM     69  O   UNL A   1      36.164  33.631  29.564  1.00  0.00    -0.237 OA
ATOM     70  O   UNL A   1      34.920  31.669  28.738  1.00  0.00    -0.744 OA
ENDBRANCH  63  67
ENDBRANCH  46  60
BRANCH  47  71
ATOM     71  C   UNL A   1      47.029  27.333  26.187  1.00  0.00     0.023 A 
ATOM     72  C   UNL A   1      47.186  27.680  24.837  1.00  0.00     0.031 A 
ATOM     73  C   UNL A   1      48.045  26.576  26.798  1.00  0.00     0.131 A 
ATOM     74  C   UNL A   1      48.327  27.254  24.137  1.00  0.00     0.055 A 
ATOM     75  C   UNL A   1      49.199  26.197  26.112  1.00  0.00     0.041 A 
ATOM     76  F   UNL A   1      47.942  26.218  28.089  1.00  0.00    -0.206 F 
ATOM     77  C   UNL A   1      49.341  26.530  24.770  1.00  0.00     0.022 A 
BRANCH  74  78
ATOM     78  S   UNL A   1      48.448  27.617  22.363  1.00  0.00     0.124 S 
ATOM     79  O   UNL A   1      49.667  28.414  22.306  1.00  0.00    -0.237 OA
ATOM     80  O   UNL A   1      48.525  26.280  21.784  1.00  0.00    -0.237 OA
ATOM     81  O   UNL A   1      47.212  28.344  22.081  1.00  0.00    -0.744 OA
ENDBRANCH  74  78
ENDBRANCH  47  71
BRANCH  59  82
ATOM     82  C   UNL A   1      45.079  33.287  29.251  1.00  0.00     0.023 A 
ATOM     83  C   UNL A   1      45.040  34.312  28.291  1.00  0.00     0.031 A 
ATOM     84  C   UNL A   1      45.808  33.509  30.433  1.00  0.00     0.131 A 
ATOM     85  C   UNL A   1      45.752  35.502  28.512  1.00  0.00     0.055 A 
ATOM     86  C   UNL A   1      46.476  34.712  30.668  1.00  0.00     0.041 A 
ATOM     87  F   UNL A   1      45.877  32.561  31.381  1.00  0.00    -0.206 F 
ATOM     88  C   UNL A   1      46.457  35.712  29.701  1.00  0.00     0.022 A 
BRANCH  85  89
ATOM     89  S   UNL A   1      45.792  36.754  27.201  1.00  0.00     0.124 S 
ATOM     90  O   UNL A   1      46.783  37.697  27.712  1.00  0.00    -0.237 OA
ATOM     91  O   UNL A   1      46.195  35.975  26.035  1.00  0.00    -0.237 OA
ATOM     92  O   UNL A   1      44.420  37.257  27.165  1.00  0.00    -0.744 OA
ENDBRANCH  85  89
ENDBRANCH  59  82
ENDBRANCH  33  34
ENDBRANCH  26  28
ENDBRANCH  25  26
ENDBRANCH   1  25
TORSDOF 15
ENDMDL
MODEL 2
REMARK VINA RESULT:     -12.7      1.327      1.625
REMARK SMILES C[C@H]1C[N@H+]2CCCC[C@@H]2CN1c1ccc(C(=O)OCCOC(=O)c2ccc(-c3c4nc(c(-c5cc(S(=O)(=O)[O-])ccc5F)c5ccc([nH]5)c(-c5cc(S(=O)(=O)[O-])ccc5F)c5nc(c(-c6cc(S(=O)(=O)[O-])ccc6F)c6ccc3[nH]6)C=C5)C=C4)cc2)cc1Cl
REMARK SMILES IDX 20 1 19 2 18 3 16 4 17 5 15 6 12 7 13 8 88 9 14 10 87 11
REMARK SMILES IDX 89 12 11 13 1 14 2 15 3 16 4 17 10 18 5 19 9 20 6 22 8 23
REMARK SMILES IDX 7 24 21 25 22 26 23 27 24 28 25 29 86 30 26 31 85 32 27 33
REMARK SMILES IDX 28 34 29 35 79 36 30 37 84 38 78 39 80 40 31 41 83 42 77 43
REMARK SMILES IDX 76 44 32 46 64 47 44 48 63 49 45 50 48 51 62 52 81 53 46 54
REMARK SMILES IDX 47 55 61 57 82 58 49 59 33 60 34 61 42 62 35 63 41 64 43 65
REMARK SMILES IDX 40 66 36 67 37 68 38 69 39 70 65 71 66 72 74 73 67 74 73 75
REMARK SMILES IDX 75 76 72 77 68 78 69 79 70 80 71 81 50 82 51 83 59 84 52 85
REMARK SMILES IDX 58 86 60 87 57 88 53 89 54 90 55 91 56 92
REMARK H PARENT 4 21 80 45 48 56
REMARK Flexibility Score: inf
ROOT
ATOM      1  C   UNL A   1      36.388  20.497  25.001  1.00  0.00     0.275 C 
ENDROOT
BRANCH   1   2
ATOM      2  C   UNL A   1      34.945  20.808  25.392  1.00  0.00     0.275 C 
BRANCH   2   3
ATOM      3  O   UNL A   1      34.027  20.262  24.424  1.00  0.00    -0.458 OA
BRANCH   3   4
ATOM      4  C   UNL A   1      32.710  20.483  24.663  1.00  0.00     0.338 C 
ATOM      5  O   UNL A   1      31.884  19.654  25.001  1.00  0.00    -0.246 OA
BRANCH   4   6
ATOM      6  C   UNL A   1      32.401  21.927  24.538  1.00  0.00     0.061 A 
ATOM      7  C   UNL A   1      31.783  24.681  24.387  1.00  0.00     0.056 A 
ATOM      8  C   UNL A   1      31.515  23.951  25.550  1.00  0.00     0.028 A 
ATOM      9  C   UNL A   1      32.359  23.991  23.293  1.00  0.00     0.065 A 
ATOM     10  C   UNL A   1      31.793  22.585  25.615  1.00  0.00     0.018 A 
ATOM     11  C   UNL A   1      32.679  22.634  23.369  1.00  0.00     0.038 A 
ATOM     12  Cl  UNL A   1      32.691  24.798  21.792  1.00  0.00    -0.082 Cl
BRANCH   7  13
ATOM     13  N   UNL A   1      31.415  26.016  24.281  1.00  0.00    -0.356 N 
ATOM     14  C   UNL A   1      33.709  26.976  24.556  1.00  0.00     0.037 C 
ATOM     15  C   UNL A   1      32.210  27.137  24.835  1.00  0.00     0.134 C 
ATOM     16  C   UNL A   1      31.739  28.483  24.176  1.00  0.00     0.287 C 
ATOM     17  N   UNL A   1      30.269  28.702  24.072  1.00  0.00    -0.329 N 
ATOM     18  C   UNL A   1      29.964  26.235  24.369  1.00  0.00     0.182 C 
ATOM     19  C   UNL A   1      29.999  29.848  23.188  1.00  0.00     0.262 C 
ATOM     20  C   UNL A   1      29.611  27.483  23.540  1.00  0.00     0.203 C 
ATOM     21  H   UNL A   1      29.893  28.901  25.000  1.00  0.00     0.348 HD
ATOM     22  C   UNL A   1      28.498  30.108  23.026  1.00  0.00     0.062 C 
ATOM     23  C   UNL A   1      28.092  27.681  23.503  1.00  0.00     0.067 C 
ATOM     24  C   UNL A   1      27.740  28.855  22.599  1.00  0.00     0.012 C 
ENDBRANCH   7  13
ENDBRANCH   4   6
ENDBRANCH   3   4
ENDBRANCH   2   3
ENDBRANCH   1   2
BRANCH   1  25
ATOM     25  O   UNL A   1      37.243  21.584  25.393  1.00  0.00    -0.458 OA
BRANCH  25  26
ATOM     26  C   UNL A   1      38.496  21.241  25.774  1.00  0.00     0.338 C 
ATOM     27  O   UNL A   1      39.042  20.161  25.644  1.00  0.00    -0.246 OA
BRANCH  26  28
ATOM     28  C   UNL A   1      39.146  22.410  26.388  1.00  0.00     0.060 A 
ATOM     29  C   UNL A   1      38.684  23.687  26.078  1.00  0.00     0.016 A 
ATOM     30  C   UNL A   1      40.277  22.248  27.183  1.00  0.00     0.016 A 
ATOM     31  C   UNL A   1      39.388  24.813  26.500  1.00  0.00     0.010 A 
ATOM     32  C   UNL A   1      40.934  23.379  27.679  1.00  0.00     0.010 A 
ATOM     33  C   UNL A   1      40.518  24.675  27.318  1.00  0.00    -0.014 A 
BRANCH  33  34
ATOM     34  C   UNL A   1      41.297  25.869  27.756  1.00  0.00     0.031 A 
ATOM     35  C   UNL A   1      40.624  26.939  28.576  1.00  0.00     0.074 A 
ATOM     36  C   UNL A   1      42.595  26.012  27.419  1.00  0.00     0.049 A 
ATOM     37  N   UNL A   1      41.027  28.152  28.856  1.00  0.00    -0.248 NA
ATOM     38  C   UNL A   1      39.311  26.596  29.138  1.00  0.00     0.031 C 
ATOM     39  C   UNL A   1      43.392  25.033  26.677  1.00  0.00     0.029 A 
ATOM     40  N   UNL A   1      43.472  27.045  27.648  1.00  0.00    -0.354 N 
ATOM     41  C   UNL A   1      39.991  28.739  29.576  1.00  0.00     0.074 A 
ATOM     42  C   UNL A   1      38.939  27.748  29.675  1.00  0.00     0.031 C 
ATOM     43  C   UNL A   1      44.637  25.505  26.523  1.00  0.00     0.029 A 
ATOM     44  C   UNL A   1      44.706  26.857  27.069  1.00  0.00     0.049 A 
ATOM     45  H   UNL A   1      43.240  27.843  28.175  1.00  0.00     0.167 HD
ATOM     46  C   UNL A   1      39.925  29.989  30.102  1.00  0.00     0.034 A 
ATOM     47  C   UNL A   1      45.754  27.694  26.931  1.00  0.00     0.034 A 
ATOM     48  C   UNL A   1      41.001  30.948  30.025  1.00  0.00     0.049 A 
ATOM     49  C   UNL A   1      45.648  29.093  27.476  1.00  0.00     0.074 A 
ATOM     50  C   UNL A   1      41.049  32.237  30.529  1.00  0.00     0.029 A 
ATOM     51  N   UNL A   1      42.226  30.722  29.409  1.00  0.00    -0.354 N 
ATOM     52  N   UNL A   1      44.637  29.664  28.088  1.00  0.00    -0.248 NA
ATOM     53  C   UNL A   1      46.817  29.964  27.299  1.00  0.00     0.031 C 
ATOM     54  C   UNL A   1      42.278  32.806  30.173  1.00  0.00     0.029 A 
ATOM     55  C   UNL A   1      43.026  31.851  29.503  1.00  0.00     0.049 A 
ATOM     56  H   UNL A   1      42.488  29.880  28.969  1.00  0.00     0.167 HD
ATOM     57  C   UNL A   1      45.052  30.961  28.376  1.00  0.00     0.074 A 
ATOM     58  C   UNL A   1      46.411  31.081  27.885  1.00  0.00     0.031 C 
ATOM     59  C   UNL A   1      44.372  31.960  28.993  1.00  0.00     0.034 A 
BRANCH  46  60
ATOM     60  C   UNL A   1      38.620  30.402  30.743  1.00  0.00     0.023 A 
ATOM     61  C   UNL A   1      37.594  31.027  30.013  1.00  0.00     0.031 A 
ATOM     62  C   UNL A   1      38.424  30.215  32.123  1.00  0.00     0.131 A 
ATOM     63  C   UNL A   1      36.461  31.518  30.680  1.00  0.00     0.055 A 
ATOM     64  C   UNL A   1      37.256  30.631  32.766  1.00  0.00     0.041 A 
ATOM     65  F   UNL A   1      39.375  29.643  32.878  1.00  0.00    -0.206 F 
ATOM     66  C   UNL A   1      36.274  31.305  32.047  1.00  0.00     0.022 A 
BRANCH  63  67
ATOM     67  S   UNL A   1      35.316  32.589  29.765  1.00  0.00     0.124 S 
ATOM     68  O   UNL A   1      36.192  33.688  29.366  1.00  0.00    -0.237 OA
ATOM     69  O   UNL A   1      34.859  31.715  28.691  1.00  0.00    -0.237 OA
ATOM     70  O   UNL A   1      34.304  32.939  30.759  1.00  0.00    -0.744 OA
ENDBRANCH  63  67
ENDBRANCH  46  60
BRANCH  47  71
ATOM     71  C   UNL A   1      46.956  27.257  26.165  1.00  0.00     0.023 A 
ATOM     72  C   UNL A   1      48.045  26.642  26.800  1.00  0.00     0.031 A 
ATOM     73  C   UNL A   1      47.028  27.458  24.774  1.00  0.00     0.131 A 
ATOM     74  C   UNL A   1      49.169  26.265  26.046  1.00  0.00     0.055 A 
ATOM     75  C   UNL A   1      48.125  27.038  24.023  1.00  0.00     0.041 A 
ATOM     76  F   UNL A   1      46.011  28.043  24.119  1.00  0.00    -0.206 F 
ATOM     77  C   UNL A   1      49.208  26.444  24.661  1.00  0.00     0.022 A 
BRANCH  74  78
ATOM     78  S   UNL A   1      50.608  25.579  26.911  1.00  0.00     0.124 S 
ATOM     79  O   UNL A   1      50.017  24.453  27.624  1.00  0.00    -0.237 OA
ATOM     80  O   UNL A   1      51.497  25.244  25.803  1.00  0.00    -0.237 OA
ATOM     81  O   UNL A   1      51.058  26.686  27.753  1.00  0.00    -0.744 OA
ENDBRANCH  74  78
ENDBRANCH  47  71
BRANCH  59  82
ATOM     82  C   UNL A   1      45.109  33.257  29.204  1.00  0.00     0.023 A 
ATOM     83  C   UNL A   1      45.059  34.297  28.260  1.00  0.00     0.031 A 
ATOM     84  C   UNL A   1      45.874  33.450  30.367  1.00  0.00     0.131 A 
ATOM     85  C   UNL A   1      45.794  35.473  28.480  1.00  0.00     0.055 A 
ATOM     86  C   UNL A   1      46.565  34.639  30.602  1.00  0.00     0.041 A 
ATOM     87  F   UNL A   1      45.955  32.486  31.298  1.00  0.00    -0.206 F 
ATOM     88  C   UNL A   1      46.535  35.655  29.651  1.00  0.00     0.022 A 
BRANCH  85  89
ATOM     89  S   UNL A   1      45.816  36.745  27.187  1.00  0.00     0.124 S 
ATOM     90  O   UNL A   1      46.424  36.030  26.069  1.00  0.00    -0.237 OA
ATOM     91  O   UNL A   1      44.401  37.071  27.042  1.00  0.00    -0.237 OA
ATOM     92  O   UNL A   1      46.639  37.807  27.764  1.00  0.00    -0.744 OA
ENDBRANCH  85  89
ENDBRANCH  59  82
ENDBRANCH  33  34
ENDBRANCH  26  28
ENDBRANCH  25  26
ENDBRANCH   1  25
TORSDOF 15
ENDMDL
MODEL 3
REMARK VINA RESULT:     -12.5      5.153     10.176
REMARK SMILES C[C@H]1C[N@H+]2CCCC[C@@H]2CN1c1ccc(C(=O)OCCOC(=O)c2ccc(-c3c4nc(c(-c5cc(S(=O)(=O)[O-])ccc5F)c5ccc([nH]5)c(-c5cc(S(=O)(=O)[O-])ccc5F)c5nc(c(-c6cc(S(=O)(=O)[O-])ccc6F)c6ccc3[nH]6)C=C5)C=C4)cc2)cc1Cl
REMARK SMILES IDX 20 1 19 2 18 3 16 4 17 5 15 6 12 7 13 8 88 9 14 10 87 11
REMARK SMILES IDX 89 12 11 13 1 14 2 15 3 16 4 17 10 18 5 19 9 20 6 22 8 23
REMARK SMILES IDX 7 24 21 25 22 26 23 27 24 28 25 29 86 30 26 31 85 32 27 33
REMARK SMILES IDX 28 34 29 35 79 36 30 37 84 38 78 39 80 40 31 41 83 42 77 43
REMARK SMILES IDX 76 44 32 46 64 47 44 48 63 49 45 50 48 51 62 52 81 53 46 54
REMARK SMILES IDX 47 55 61 57 82 58 49 59 33 60 34 61 42 62 35 63 41 64 43 65
REMARK SMILES IDX 40 66 36 67 37 68 38 69 39 70 65 71 66 72 74 73 67 74 73 75
REMARK SMILES IDX 75 76 72 77 68 78 69 79 70 80 71 81 50 82 51 83 59 84 52 85
REMARK SMILES IDX 58 86 60 87 57 88 53 89 54 90 55 91 56 92
REMARK H PARENT 4 21 80 45 48 56
REMARK Flexibility Score: inf
ROOT
ATOM      1  C   UNL A   1      31.431  30.559  25.899  1.00  0.00     0.275 C 
ENDROOT
BRANCH   1   2
ATOM      2  C   UNL A   1      31.553  29.694  24.647  1.00  0.00     0.275 C 
BRANCH   2   3
ATOM      3  O   UNL A   1      30.262  29.499  24.036  1.00  0.00    -0.458 OA
BRANCH   3   4
ATOM      4  C   UNL A   1      30.230  28.659  22.971  1.00  0.00     0.338 C 
ATOM      5  O   UNL A   1      29.746  28.890  21.877  1.00  0.00    -0.246 OA
BRANCH   4   6
ATOM      6  C   UNL A   1      30.954  27.404  23.285  1.00  0.00     0.061 A 
ATOM      7  C   UNL A   1      32.395  25.031  23.815  1.00  0.00     0.056 A 
ATOM      8  C   UNL A   1      32.745  25.855  22.740  1.00  0.00     0.028 A 
ATOM      9  C   UNL A   1      31.291  25.421  24.612  1.00  0.00     0.065 A 
ATOM     10  C   UNL A   1      32.016  27.012  22.461  1.00  0.00     0.018 A 
ATOM     11  C   UNL A   1      30.587  26.600  24.363  1.00  0.00     0.038 A 
ATOM     12  Cl  UNL A   1      30.751  24.445  25.943  1.00  0.00    -0.082 Cl
BRANCH   7  13
ATOM     13  N   UNL A   1      33.052  23.827  24.036  1.00  0.00    -0.356 N 
ATOM     14  C   UNL A   1      34.823  24.734  25.552  1.00  0.00     0.037 C 
ATOM     15  C   UNL A   1      34.470  23.727  24.451  1.00  0.00     0.134 C 
ATOM     16  C   UNL A   1      34.746  22.285  25.011  1.00  0.00     0.287 C 
ATOM     17  N   UNL A   1      34.204  21.142  24.222  1.00  0.00    -0.329 N 
ATOM     18  C   UNL A   1      32.637  22.754  23.121  1.00  0.00     0.182 C 
ATOM     19  C   UNL A   1      34.293  19.905  25.016  1.00  0.00     0.262 C 
ATOM     20  C   UNL A   1      32.792  21.408  23.850  1.00  0.00     0.203 C 
ATOM     21  H   UNL A   1      34.755  21.033  23.371  1.00  0.00     0.348 HD
ATOM     22  C   UNL A   1      33.729  18.697  24.261  1.00  0.00     0.062 C 
ATOM     23  C   UNL A   1      32.258  20.268  22.976  1.00  0.00     0.067 C 
ATOM     24  C   UNL A   1      32.318  18.952  23.740  1.00  0.00     0.012 C 
ENDBRANCH   7  13
ENDBRANCH   4   6
ENDBRANCH   3   4
ENDBRANCH   2   3
ENDBRANCH   1   2
BRANCH   1  25
ATOM     25  O   UNL A   1      32.612  30.416  26.707  1.00  0.00    -0.458 OA
BRANCH  25  26
ATOM     26  C   UNL A   1      33.165  31.568  27.151  1.00  0.00     0.338 C 
ATOM     27  O   UNL A   1      32.675  32.682  27.135  1.00  0.00    -0.246 OA
BRANCH  26  28
ATOM     28  C   UNL A   1      34.503  31.279  27.693  1.00  0.00     0.060 A 
ATOM     29  C   UNL A   1      34.820  29.973  28.060  1.00  0.00     0.016 A 
ATOM     30  C   UNL A   1      35.401  32.314  27.936  1.00  0.00     0.016 A 
ATOM     31  C   UNL A   1      36.007  29.701  28.738  1.00  0.00     0.010 A 
ATOM     32  C   UNL A   1      36.631  32.026  28.538  1.00  0.00     0.010 A 
ATOM     33  C   UNL A   1      36.936  30.722  28.976  1.00  0.00    -0.014 A 
BRANCH  33  34
ATOM     34  C   UNL A   1      38.199  30.452  29.723  1.00  0.00     0.031 A 
ATOM     35  C   UNL A   1      39.246  29.555  29.117  1.00  0.00     0.074 A 
ATOM     36  C   UNL A   1      38.412  30.989  30.941  1.00  0.00     0.049 A 
ATOM     37  N   UNL A   1      40.290  28.996  29.674  1.00  0.00    -0.248 NA
ATOM     38  C   UNL A   1      39.079  29.232  27.693  1.00  0.00     0.031 C 
ATOM     39  C   UNL A   1      37.514  31.919  31.627  1.00  0.00     0.029 A 
ATOM     40  N   UNL A   1      39.451  30.822  31.824  1.00  0.00    -0.354 N 
ATOM     41  C   UNL A   1      40.870  28.206  28.686  1.00  0.00     0.074 A 
ATOM     42  C   UNL A   1      40.051  28.353  27.501  1.00  0.00     0.031 C 
ATOM     43  C   UNL A   1      38.044  32.247  32.815  1.00  0.00     0.029 A 
ATOM     44  C   UNL A   1      39.270  31.483  33.018  1.00  0.00     0.049 A 
ATOM     45  H   UNL A   1      40.249  30.282  31.623  1.00  0.00     0.167 HD
ATOM     46  C   UNL A   1      41.982  27.430  28.765  1.00  0.00     0.034 A 
ATOM     47  C   UNL A   1      39.969  31.433  34.170  1.00  0.00     0.034 A 
ATOM     48  C   UNL A   1      42.806  27.329  29.945  1.00  0.00     0.049 A 
ATOM     49  C   UNL A   1      41.170  30.531  34.258  1.00  0.00     0.074 A 
ATOM     50  C   UNL A   1      43.958  26.584  30.135  1.00  0.00     0.029 A 
ATOM     51  N   UNL A   1      42.571  27.999  31.140  1.00  0.00    -0.354 N 
ATOM     52  N   UNL A   1      41.668  29.731  33.344  1.00  0.00    -0.248 NA
ATOM     53  C   UNL A   1      41.895  30.514  35.535  1.00  0.00     0.031 C 
ATOM     54  C   UNL A   1      44.388  26.761  31.456  1.00  0.00     0.029 A 
ATOM     55  C   UNL A   1      43.542  27.669  32.073  1.00  0.00     0.049 A 
ATOM     56  H   UNL A   1      41.823  28.619  31.299  1.00  0.00     0.167 HD
ATOM     57  C   UNL A   1      42.770  29.121  33.935  1.00  0.00     0.074 A 
ATOM     58  C   UNL A   1      42.873  29.657  35.277  1.00  0.00     0.031 C 
ATOM     59  C   UNL A   1      43.621  28.201  33.413  1.00  0.00     0.034 A 
BRANCH  46  60
ATOM     60  C   UNL A   1      42.321  26.585  27.559  1.00  0.00     0.023 A 
ATOM     61  C   UNL A   1      41.877  25.258  27.428  1.00  0.00     0.031 A 
ATOM     62  C   UNL A   1      43.152  27.102  26.548  1.00  0.00     0.131 A 
ATOM     63  C   UNL A   1      42.335  24.468  26.361  1.00  0.00     0.055 A 
ATOM     64  C   UNL A   1      43.535  26.336  25.444  1.00  0.00     0.041 A 
ATOM     65  F   UNL A   1      43.624  28.356  26.626  1.00  0.00    -0.206 F 
ATOM     66  C   UNL A   1      43.142  25.006  25.355  1.00  0.00     0.022 A 
BRANCH  63  67
ATOM     67  S   UNL A   1      41.998  22.685  26.397  1.00  0.00     0.124 S 
ATOM     68  O   UNL A   1      42.701  22.275  27.610  1.00  0.00    -0.237 OA
ATOM     69  O   UNL A   1      40.542  22.642  26.459  1.00  0.00    -0.237 OA
ATOM     70  O   UNL A   1      42.585  22.200  25.151  1.00  0.00    -0.744 OA
ENDBRANCH  63  67
ENDBRANCH  46  60
BRANCH  47  71
ATOM     71  C   UNL A   1      39.490  32.193  35.360  1.00  0.00     0.023 A 
ATOM     72  C   UNL A   1      39.903  33.512  35.601  1.00  0.00     0.031 A 
ATOM     73  C   UNL A   1      38.608  31.597  36.281  1.00  0.00     0.131 A 
ATOM     74  C   UNL A   1      39.447  34.186  36.746  1.00  0.00     0.055 A 
ATOM     75  C   UNL A   1      38.120  32.288  37.389  1.00  0.00     0.041 A 
ATOM     76  F   UNL A   1      38.183  30.337  36.095  1.00  0.00    -0.206 F 
ATOM     77  C   UNL A   1      38.547  33.589  37.631  1.00  0.00     0.022 A 
BRANCH  74  78
ATOM     78  S   UNL A   1      40.090  35.847  37.092  1.00  0.00     0.124 S 
ATOM     79  O   UNL A   1      39.723  36.567  35.877  1.00  0.00    -0.237 OA
ATOM     80  O   UNL A   1      39.357  36.210  38.301  1.00  0.00    -0.237 OA
ATOM     81  O   UNL A   1      41.522  35.626  37.279  1.00  0.00    -0.744 OA
ENDBRANCH  74  78
ENDBRANCH  47  71
BRANCH  59  82
ATOM     82  C   UNL A   1      44.760  27.752  34.291  1.00  0.00     0.023 A 
ATOM     83  C   UNL A   1      44.665  26.604  35.096  1.00  0.00     0.031 A 
ATOM     84  C   UNL A   1      45.958  28.487  34.319  1.00  0.00     0.131 A 
ATOM     85  C   UNL A   1      45.737  26.246  35.928  1.00  0.00     0.055 A 
ATOM     86  C   UNL A   1      47.037  28.100  35.114  1.00  0.00     0.041 A 
ATOM     87  F   UNL A   1      46.098  29.592  33.569  1.00  0.00    -0.206 F 
ATOM     88  C   UNL A   1      46.927  26.979  35.930  1.00  0.00     0.022 A 
BRANCH  85  89
ATOM     89  S   UNL A   1      45.539  24.837  37.053  1.00  0.00     0.124 S 
ATOM     90  O   UNL A   1      44.883  25.456  38.201  1.00  0.00    -0.237 OA
ATOM     91  O   UNL A   1      44.719  23.921  36.268  1.00  0.00    -0.237 OA
ATOM     92  O   UNL A   1      46.910  24.391  37.290  1.00  0.00    -0.744 OA
ENDBRANCH  85  89
ENDBRANCH  59  82
ENDBRANCH  33  34
ENDBRANCH  26  28
ENDBRANCH  25  26
ENDBRANCH   1  25
TORSDOF 15
ENDMDL
