MODEL 1
REMARK VINA RESULT:     -13.0      0.000      0.000
REMARK SMILES CC(C)c1csc(C(=O)N2C[C@@H]3c4ccccc4OC[C@]3(C(=O)OCCOC(=O)c3ccc(-c4c5nc(c(-c6cc(S(=O)(=O)[O-])ccc6F)c6ccc([nH]6)c(-c6cc(S(=O)(=O)[O-])ccc6F)c6nc(c(-c7cc(S(=O)(=O)[O-])ccc7F)c7ccc4[nH]7)C=C6)C=C5)cc3)C2)n1
REMARK SMILES IDX 25 1 24 2 22 3 23 4 21 5 10 6 11 7 93 8 12 9 13 10 20 11
REMARK SMILES IDX 14 12 18 13 19 14 15 15 17 16 16 17 8 18 9 19 7 20 4 21 5 22
REMARK SMILES IDX 94 23 6 24 2 25 1 26 3 27 26 28 27 29 28 30 29 31 30 32
REMARK SMILES IDX 31 33 92 34 32 35 91 36 33 37 34 38 35 39 85 40 36 41 90 42
REMARK SMILES IDX 84 43 86 44 37 45 89 46 83 47 82 48 38 50 70 51 50 52 69 53
REMARK SMILES IDX 51 54 54 55 68 56 87 57 52 58 53 59 67 61 88 62 55 63 39 64
REMARK SMILES IDX 40 65 48 66 41 67 47 68 49 69 46 70 42 71 43 72 44 73 45 74
REMARK SMILES IDX 71 75 72 76 80 77 73 78 79 79 81 80 78 81 74 82 75 83 76 84
REMARK SMILES IDX 77 85 56 86 57 87 65 88 58 89 64 90 66 91 63 92 59 93 60 94
REMARK SMILES IDX 61 95 62 96
REMARK H PARENT 86 49 54 60
REMARK Flexibility Score: inf
ROOT
ATOM      1  C   UNL A   1      37.030  22.330  23.804  1.00  0.00     0.274 C 
ENDROOT
BRANCH   1   2
ATOM      2  O   UNL A   1      35.609  22.567  23.895  1.00  0.00    -0.461 OA
BRANCH   2   3
ATOM      3  C   UNL A   1      35.133  23.393  24.883  1.00  0.00     0.318 C 
ATOM      4  O   UNL A   1      35.652  24.438  25.235  1.00  0.00    -0.251 OA
BRANCH   3   5
ATOM      5  C   UNL A   1      33.871  22.767  25.456  1.00  0.00     0.128 C 
ATOM      6  N   UNL A   1      31.744  23.634  26.086  1.00  0.00    -0.335 N 
ATOM      7  C   UNL A   1      31.493  22.460  25.291  1.00  0.00     0.129 C 
ATOM      8  C   UNL A   1      33.152  23.966  26.105  1.00  0.00     0.143 C 
ATOM      9  C   UNL A   1      32.794  22.263  24.483  1.00  0.00     0.065 C 
ATOM     10  C   UNL A   1      32.891  20.817  24.117  1.00  0.00     0.000 A 
ATOM     11  C   UNL A   1      34.267  21.674  26.463  1.00  0.00     0.251 C 
ATOM     12  C   UNL A   1      32.175  20.313  23.016  1.00  0.00     0.008 A 
ATOM     13  C   UNL A   1      33.600  19.938  24.924  1.00  0.00     0.122 A 
ATOM     14  O   UNL A   1      34.338  20.323  25.999  1.00  0.00    -0.492 OA
ATOM     15  C   UNL A   1      32.173  18.946  22.734  1.00  0.00     0.001 A 
ATOM     16  C   UNL A   1      33.602  18.570  24.637  1.00  0.00     0.047 A 
ATOM     17  C   UNL A   1      32.888  18.072  23.546  1.00  0.00     0.004 A 
BRANCH   6  18
ATOM     18  C   UNL A   1      30.704  24.451  26.495  1.00  0.00     0.282 C 
ATOM     19  O   UNL A   1      29.731  23.975  27.081  1.00  0.00    -0.266 OA
BRANCH  18  20
ATOM     20  C   UNL A   1      30.794  25.842  26.063  1.00  0.00     0.181 A 
ATOM     21  C   UNL A   1      31.406  27.975  26.173  1.00  0.00     0.055 A 
ATOM     22  C   UNL A   1      31.034  27.902  24.840  1.00  0.00     0.091 A 
ATOM     23  N   UNL A   1      31.194  26.803  26.875  1.00  0.00    -0.236 NA
ATOM     24  S   UNL A   1      30.534  26.308  24.441  1.00  0.00    -0.117 S 
BRANCH  21  25
ATOM     25  C   UNL A   1      32.006  29.164  26.886  1.00  0.00     0.033 C 
ATOM     26  C   UNL A   1      33.504  28.992  27.171  1.00  0.00     0.014 C 
ATOM     27  C   UNL A   1      31.797  30.458  26.091  1.00  0.00     0.014 C 
ENDBRANCH  21  25
ENDBRANCH  18  20
ENDBRANCH   6  18
ENDBRANCH   3   5
ENDBRANCH   2   3
ENDBRANCH   1   2
BRANCH   1  28
ATOM     28  C   UNL A   1      37.344  21.068  24.609  1.00  0.00     0.275 C 
BRANCH  28  29
ATOM     29  O   UNL A   1      37.868  21.517  25.862  1.00  0.00    -0.458 OA
BRANCH  29  30
ATOM     30  C   UNL A   1      39.179  21.316  26.109  1.00  0.00     0.338 C 
ATOM     31  O   UNL A   1      39.807  20.280  25.944  1.00  0.00    -0.246 OA
BRANCH  30  32
ATOM     32  C   UNL A   1      39.691  22.568  26.700  1.00  0.00     0.060 A 
ATOM     33  C   UNL A   1      39.201  23.793  26.261  1.00  0.00     0.016 A 
ATOM     34  C   UNL A   1      40.707  22.525  27.662  1.00  0.00     0.016 A 
ATOM     35  C   UNL A   1      39.805  24.966  26.720  1.00  0.00     0.010 A 
ATOM     36  C   UNL A   1      41.256  23.692  28.176  1.00  0.00     0.010 A 
ATOM     37  C   UNL A   1      40.850  24.923  27.666  1.00  0.00    -0.014 A 
BRANCH  37  38
ATOM     38  C   UNL A   1      41.508  26.172  28.116  1.00  0.00     0.031 A 
ATOM     39  C   UNL A   1      42.915  26.500  27.697  1.00  0.00     0.074 A 
ATOM     40  C   UNL A   1      40.814  27.015  28.901  1.00  0.00     0.049 A 
ATOM     41  N   UNL A   1      43.572  27.622  27.847  1.00  0.00    -0.248 NA
ATOM     42  C   UNL A   1      43.696  25.438  27.042  1.00  0.00     0.031 C 
ATOM     43  C   UNL A   1      39.486  26.735  29.446  1.00  0.00     0.029 A 
ATOM     44  N   UNL A   1      41.106  28.275  29.353  1.00  0.00    -0.354 N 
ATOM     45  C   UNL A   1      44.832  27.402  27.302  1.00  0.00     0.074 A 
ATOM     46  C   UNL A   1      44.875  26.022  26.880  1.00  0.00     0.031 C 
ATOM     47  C   UNL A   1      39.046  27.819  30.100  1.00  0.00     0.029 A 
ATOM     48  C   UNL A   1      40.073  28.859  30.047  1.00  0.00     0.049 A 
ATOM     49  H   UNL A   1      41.971  28.718  29.197  1.00  0.00     0.167 HD
ATOM     50  C   UNL A   1      45.843  28.287  27.136  1.00  0.00     0.034 A 
ATOM     51  C   UNL A   1      39.953  30.101  30.559  1.00  0.00     0.034 A 
ATOM     52  C   UNL A   1      45.762  29.664  27.554  1.00  0.00     0.049 A 
ATOM     53  C   UNL A   1      41.070  31.086  30.325  1.00  0.00     0.074 A 
ATOM     54  C   UNL A   1      46.689  30.671  27.361  1.00  0.00     0.029 A 
ATOM     55  N   UNL A   1      44.699  30.225  28.249  1.00  0.00    -0.354 N 
ATOM     56  N   UNL A   1      42.196  30.911  29.673  1.00  0.00    -0.248 NA
ATOM     57  C   UNL A   1      40.901  32.437  30.875  1.00  0.00     0.031 C 
ATOM     58  C   UNL A   1      46.222  31.819  27.999  1.00  0.00     0.029 A 
ATOM     59  C   UNL A   1      44.965  31.555  28.526  1.00  0.00     0.049 A 
ATOM     60  H   UNL A   1      43.878  29.747  28.508  1.00  0.00     0.167 HD
ATOM     61  C   UNL A   1      42.867  32.130  29.728  1.00  0.00     0.074 A 
ATOM     62  C   UNL A   1      42.001  33.044  30.444  1.00  0.00     0.031 C 
ATOM     63  C   UNL A   1      44.090  32.457  29.240  1.00  0.00     0.034 A 
BRANCH  50  64
ATOM     64  C   UNL A   1      47.109  27.834  26.446  1.00  0.00     0.023 A 
ATOM     65  C   UNL A   1      47.271  28.025  25.061  1.00  0.00     0.031 A 
ATOM     66  C   UNL A   1      48.090  27.091  27.131  1.00  0.00     0.131 A 
ATOM     67  C   UNL A   1      48.369  27.456  24.401  1.00  0.00     0.055 A 
ATOM     68  C   UNL A   1      49.204  26.564  26.477  1.00  0.00     0.041 A 
ATOM     69  F   UNL A   1      47.979  26.869  28.451  1.00  0.00    -0.206 F 
ATOM     70  C   UNL A   1      49.341  26.734  25.104  1.00  0.00     0.022 A 
BRANCH  67  71
ATOM     71  S   UNL A   1      48.547  27.565  22.599  1.00  0.00     0.124 S 
ATOM     72  O   UNL A   1      48.609  26.155  22.218  1.00  0.00    -0.237 OA
ATOM     73  O   UNL A   1      47.323  28.260  22.213  1.00  0.00    -0.237 OA
ATOM     74  O   UNL A   1      49.785  28.312  22.413  1.00  0.00    -0.744 OA
ENDBRANCH  67  71
ENDBRANCH  50  64
BRANCH  51  75
ATOM     75  C   UNL A   1      38.682  30.473  31.245  1.00  0.00     0.023 A 
ATOM     76  C   UNL A   1      37.614  31.038  30.522  1.00  0.00     0.031 A 
ATOM     77  C   UNL A   1      38.571  30.413  32.645  1.00  0.00     0.131 A 
ATOM     78  C   UNL A   1      36.526  31.596  31.204  1.00  0.00     0.055 A 
ATOM     79  C   UNL A   1      37.448  30.901  33.316  1.00  0.00     0.041 A 
ATOM     80  F   UNL A   1      39.569  29.901  33.381  1.00  0.00    -0.206 F 
ATOM     81  C   UNL A   1      36.428  31.516  32.597  1.00  0.00     0.022 A 
BRANCH  78  82
ATOM     82  S   UNL A   1      35.288  32.586  30.321  1.00  0.00     0.124 S 
ATOM     83  O   UNL A   1      36.024  33.813  30.038  1.00  0.00    -0.237 OA
ATOM     84  O   UNL A   1      35.000  31.741  29.164  1.00  0.00    -0.237 OA
ATOM     85  O   UNL A   1      34.197  32.709  31.281  1.00  0.00    -0.744 OA
ENDBRANCH  78  82
ENDBRANCH  51  75
BRANCH  63  86
ATOM     86  C   UNL A   1      44.612  33.854  29.473  1.00  0.00     0.023 A 
ATOM     87  C   UNL A   1      44.617  34.790  28.421  1.00  0.00     0.031 A 
ATOM     88  C   UNL A   1      45.269  34.192  30.669  1.00  0.00     0.131 A 
ATOM     89  C   UNL A   1      45.318  35.994  28.564  1.00  0.00     0.055 A 
ATOM     90  C   UNL A   1      45.921  35.415  30.825  1.00  0.00     0.041 A 
ATOM     91  F   UNL A   1      45.302  33.328  31.696  1.00  0.00    -0.206 F 
ATOM     92  C   UNL A   1      45.963  36.314  29.762  1.00  0.00     0.022 A 
BRANCH  89  93
ATOM     93  S   UNL A   1      45.510  37.135  27.168  1.00  0.00     0.124 S 
ATOM     94  O   UNL A   1      44.146  37.628  26.990  1.00  0.00    -0.237 OA
ATOM     95  O   UNL A   1      46.461  38.110  27.697  1.00  0.00    -0.237 OA
ATOM     96  O   UNL A   1      46.010  36.293  26.087  1.00  0.00    -0.744 OA
ENDBRANCH  89  93
ENDBRANCH  63  86
ENDBRANCH  37  38
ENDBRANCH  30  32
ENDBRANCH  29  30
ENDBRANCH  28  29
ENDBRANCH   1  28
TORSDOF 17
ENDMDL
MODEL 2
REMARK VINA RESULT:     -12.9      4.916     10.249
REMARK SMILES CC(C)c1csc(C(=O)N2C[C@@H]3c4ccccc4OC[C@]3(C(=O)OCCOC(=O)c3ccc(-c4c5nc(c(-c6cc(S(=O)(=O)[O-])ccc6F)c6ccc([nH]6)c(-c6cc(S(=O)(=O)[O-])ccc6F)c6nc(c(-c7cc(S(=O)(=O)[O-])ccc7F)c7ccc4[nH]7)C=C6)C=C5)cc3)C2)n1
REMARK SMILES IDX 25 1 24 2 22 3 23 4 21 5 10 6 11 7 93 8 12 9 13 10 20 11
REMARK SMILES IDX 14 12 18 13 19 14 15 15 17 16 16 17 8 18 9 19 7 20 4 21 5 22
REMARK SMILES IDX 94 23 6 24 2 25 1 26 3 27 26 28 27 29 28 30 29 31 30 32
REMARK SMILES IDX 31 33 92 34 32 35 91 36 33 37 34 38 35 39 85 40 36 41 90 42
REMARK SMILES IDX 84 43 86 44 37 45 89 46 83 47 82 48 38 50 70 51 50 52 69 53
REMARK SMILES IDX 51 54 54 55 68 56 87 57 52 58 53 59 67 61 88 62 55 63 39 64
REMARK SMILES IDX 40 65 48 66 41 67 47 68 49 69 46 70 42 71 43 72 44 73 45 74
REMARK SMILES IDX 71 75 72 76 80 77 73 78 79 79 81 80 78 81 74 82 75 83 76 84
REMARK SMILES IDX 77 85 56 86 57 87 65 88 58 89 64 90 66 91 63 92 59 93 60 94
REMARK SMILES IDX 61 95 62 96
REMARK H PARENT 86 49 54 60
REMARK Flexibility Score: inf
ROOT
ATOM      1  C   UNL A   1      32.010  29.220  27.075  1.00  0.00     0.274 C 
ENDROOT
BRANCH   1   2
ATOM      2  O   UNL A   1      31.738  28.596  25.803  1.00  0.00    -0.461 OA
BRANCH   2   3
ATOM      3  C   UNL A   1      32.785  28.098  25.067  1.00  0.00     0.318 C 
ATOM      4  O   UNL A   1      33.948  28.075  25.429  1.00  0.00    -0.251 OA
BRANCH   3   5
ATOM      5  C   UNL A   1      32.236  27.604  23.737  1.00  0.00     0.128 C 
ATOM      6  N   UNL A   1      32.666  25.688  22.390  1.00  0.00    -0.335 N 
ATOM      7  C   UNL A   1      31.235  25.815  22.484  1.00  0.00     0.129 C 
ATOM      8  C   UNL A   1      33.337  26.645  23.242  1.00  0.00     0.143 C 
ATOM      9  C   UNL A   1      31.013  26.676  23.746  1.00  0.00     0.065 C 
ATOM     10  C   UNL A   1      29.691  27.361  23.607  1.00  0.00     0.000 A 
ATOM     11  C   UNL A   1      32.014  28.810  22.809  1.00  0.00     0.251 C 
ATOM     12  C   UNL A   1      28.500  26.675  23.909  1.00  0.00     0.008 A 
ATOM     13  C   UNL A   1      29.620  28.640  23.072  1.00  0.00     0.122 A 
ATOM     14  O   UNL A   1      30.708  29.393  22.761  1.00  0.00    -0.492 OA
ATOM     15  C   UNL A   1      27.259  27.269  23.677  1.00  0.00     0.001 A 
ATOM     16  C   UNL A   1      28.376  29.236  22.845  1.00  0.00     0.047 A 
ATOM     17  C   UNL A   1      27.196  28.553  23.144  1.00  0.00     0.004 A 
BRANCH   6  18
ATOM     18  C   UNL A   1      33.243  24.586  21.782  1.00  0.00     0.282 C 
ATOM     19  O   UNL A   1      33.131  24.414  20.567  1.00  0.00    -0.266 OA
BRANCH  18  20
ATOM     20  C   UNL A   1      33.849  23.617  22.689  1.00  0.00     0.181 A 
ATOM     21  C   UNL A   1      35.467  22.689  23.896  1.00  0.00     0.055 A 
ATOM     22  C   UNL A   1      34.362  22.086  24.474  1.00  0.00     0.091 A 
ATOM     23  N   UNL A   1      35.157  23.510  22.827  1.00  0.00    -0.236 NA
ATOM     24  S   UNL A   1      32.915  22.656  23.746  1.00  0.00    -0.117 S 
BRANCH  21  25
ATOM     25  C   UNL A   1      36.910  22.544  24.320  1.00  0.00     0.033 C 
ATOM     26  C   UNL A   1      37.321  23.567  25.388  1.00  0.00     0.014 C 
ATOM     27  C   UNL A   1      37.198  21.133  24.847  1.00  0.00     0.014 C 
ENDBRANCH  21  25
ENDBRANCH  18  20
ENDBRANCH   6  18
ENDBRANCH   3   5
ENDBRANCH   2   3
ENDBRANCH   1   2
BRANCH   1  28
ATOM     28  C   UNL A   1      32.013  30.734  26.859  1.00  0.00     0.275 C 
BRANCH  28  29
ATOM     29  O   UNL A   1      33.388  31.115  26.738  1.00  0.00    -0.458 OA
BRANCH  29  30
ATOM     30  C   UNL A   1      33.872  32.025  27.609  1.00  0.00     0.338 C 
ATOM     31  O   UNL A   1      33.359  33.090  27.919  1.00  0.00    -0.246 OA
BRANCH  30  32
ATOM     32  C   UNL A   1      35.187  31.522  28.052  1.00  0.00     0.060 A 
ATOM     33  C   UNL A   1      35.340  30.180  28.383  1.00  0.00     0.016 A 
ATOM     34  C   UNL A   1      36.264  32.404  28.191  1.00  0.00     0.016 A 
ATOM     35  C   UNL A   1      36.547  29.757  28.946  1.00  0.00     0.010 A 
ATOM     36  C   UNL A   1      37.488  31.968  28.678  1.00  0.00     0.010 A 
ATOM     37  C   UNL A   1      37.623  30.652  29.115  1.00  0.00    -0.014 A 
BRANCH  37  38
ATOM     38  C   UNL A   1      38.884  30.200  29.747  1.00  0.00     0.031 A 
ATOM     39  C   UNL A   1      39.271  30.666  31.124  1.00  0.00     0.074 A 
ATOM     40  C   UNL A   1      39.674  29.350  29.066  1.00  0.00     0.049 A 
ATOM     41  N   UNL A   1      40.237  30.233  31.892  1.00  0.00    -0.248 NA
ATOM     42  C   UNL A   1      38.493  31.768  31.713  1.00  0.00     0.031 C 
ATOM     43  C   UNL A   1      39.438  28.926  27.686  1.00  0.00     0.029 A 
ATOM     44  N   UNL A   1      40.807  28.675  29.438  1.00  0.00    -0.354 N 
ATOM     45  C   UNL A   1      40.177  30.999  33.051  1.00  0.00     0.074 A 
ATOM     46  C   UNL A   1      39.127  31.972  32.859  1.00  0.00     0.031 C 
ATOM     47  C   UNL A   1      40.354  28.008  27.351  1.00  0.00     0.029 A 
ATOM     48  C   UNL A   1      41.261  27.801  28.479  1.00  0.00     0.049 A 
ATOM     49  H   UNL A   1      41.252  28.803  30.307  1.00  0.00     0.167 HD
ATOM     50  C   UNL A   1      40.909  30.873  34.183  1.00  0.00     0.034 A 
ATOM     51  C   UNL A   1      42.275  26.913  28.514  1.00  0.00     0.034 A 
ATOM     52  C   UNL A   1      41.940  29.880  34.348  1.00  0.00     0.049 A 
ATOM     53  C   UNL A   1      43.049  26.754  29.797  1.00  0.00     0.074 A 
ATOM     54  C   UNL A   1      42.687  29.604  35.478  1.00  0.00     0.029 A 
ATOM     55  N   UNL A   1      42.371  29.006  33.359  1.00  0.00    -0.354 N 
ATOM     56  N   UNL A   1      42.883  27.381  30.939  1.00  0.00    -0.248 NA
ATOM     57  C   UNL A   1      44.133  25.763  29.810  1.00  0.00     0.031 C 
ATOM     58  C   UNL A   1      43.615  28.616  35.154  1.00  0.00     0.029 A 
ATOM     59  C   UNL A   1      43.400  28.216  33.843  1.00  0.00     0.049 A 
ATOM     60  H   UNL A   1      42.001  28.957  32.448  1.00  0.00     0.167 HD
ATOM     61  C   UNL A   1      43.835  26.856  31.809  1.00  0.00     0.074 A 
ATOM     62  C   UNL A   1      44.548  25.833  31.070  1.00  0.00     0.031 C 
ATOM     63  C   UNL A   1      44.101  27.197  33.095  1.00  0.00     0.034 A 
BRANCH  50  64
ATOM     64  C   UNL A   1      40.615  31.785  35.352  1.00  0.00     0.023 A 
ATOM     65  C   UNL A   1      39.479  31.569  36.154  1.00  0.00     0.031 A 
ATOM     66  C   UNL A   1      41.380  32.944  35.585  1.00  0.00     0.131 A 
ATOM     67  C   UNL A   1      39.122  32.511  37.128  1.00  0.00     0.055 A 
ATOM     68  C   UNL A   1      41.045  33.857  36.587  1.00  0.00     0.041 A 
ATOM     69  F   UNL A   1      42.468  33.205  34.842  1.00  0.00    -0.206 F 
ATOM     70  C   UNL A   1      39.905  33.649  37.355  1.00  0.00     0.022 A 
BRANCH  67  71
ATOM     71  S   UNL A   1      37.595  32.339  38.092  1.00  0.00     0.124 S 
ATOM     72  O   UNL A   1      36.677  33.206  37.356  1.00  0.00    -0.237 OA
ATOM     73  O   UNL A   1      37.324  30.909  37.982  1.00  0.00    -0.237 OA
ATOM     74  O   UNL A   1      37.964  32.813  39.422  1.00  0.00    -0.744 OA
ENDBRANCH  67  71
ENDBRANCH  50  64
BRANCH  51  75
ATOM     75  C   UNL A   1      42.520  26.059  27.315  1.00  0.00     0.023 A 
ATOM     76  C   UNL A   1      42.016  24.746  27.253  1.00  0.00     0.031 A 
ATOM     77  C   UNL A   1      43.382  26.482  26.289  1.00  0.00     0.131 A 
ATOM     78  C   UNL A   1      42.444  23.880  26.240  1.00  0.00     0.055 A 
ATOM     79  C   UNL A   1      43.745  25.639  25.237  1.00  0.00     0.041 A 
ATOM     80  F   UNL A   1      43.904  27.718  26.311  1.00  0.00    -0.206 F 
ATOM     81  C   UNL A   1      43.293  24.323  25.220  1.00  0.00     0.022 A 
BRANCH  78  82
ATOM     82  S   UNL A   1      42.046  22.110  26.304  1.00  0.00     0.124 S 
ATOM     83  O   UNL A   1      40.608  22.112  26.058  1.00  0.00    -0.237 OA
ATOM     84  O   UNL A   1      42.872  21.579  25.222  1.00  0.00    -0.237 OA
ATOM     85  O   UNL A   1      42.458  21.714  27.646  1.00  0.00    -0.744 OA
ENDBRANCH  78  82
ENDBRANCH  51  75
BRANCH  63  86
ATOM     86  C   UNL A   1      45.229  26.495  33.812  1.00  0.00     0.023 A 
ATOM     87  C   UNL A   1      44.948  25.462  34.726  1.00  0.00     0.031 A 
ATOM     88  C   UNL A   1      46.548  26.972  33.730  1.00  0.00     0.131 A 
ATOM     89  C   UNL A   1      45.961  24.982  35.566  1.00  0.00     0.055 A 
ATOM     90  C   UNL A   1      47.565  26.453  34.531  1.00  0.00     0.041 A 
ATOM     91  F   UNL A   1      46.862  27.965  32.881  1.00  0.00    -0.206 F 
ATOM     92  C   UNL A   1      47.269  25.466  35.467  1.00  0.00     0.022 A 
BRANCH  89  93
ATOM     93  S   UNL A   1      45.596  23.793  36.886  1.00  0.00     0.124 S 
ATOM     94  O   UNL A   1      45.010  22.682  36.139  1.00  0.00    -0.237 OA
ATOM     95  O   UNL A   1      46.921  23.538  37.445  1.00  0.00    -0.237 OA
ATOM     96  O   UNL A   1      44.672  24.507  37.761  1.00  0.00    -0.744 OA
ENDBRANCH  89  93
ENDBRANCH  63  86
ENDBRANCH  37  38
ENDBRANCH  30  32
ENDBRANCH  29  30
ENDBRANCH  28  29
ENDBRANCH   1  28
TORSDOF 17
ENDMDL
MODEL 3
REMARK VINA RESULT:     -12.7      1.285      1.578
REMARK SMILES CC(C)c1csc(C(=O)N2C[C@@H]3c4ccccc4OC[C@]3(C(=O)OCCOC(=O)c3ccc(-c4c5nc(c(-c6cc(S(=O)(=O)[O-])ccc6F)c6ccc([nH]6)c(-c6cc(S(=O)(=O)[O-])ccc6F)c6nc(c(-c7cc(S(=O)(=O)[O-])ccc7F)c7ccc4[nH]7)C=C6)C=C5)cc3)C2)n1
REMARK SMILES IDX 25 1 24 2 22 3 23 4 21 5 10 6 11 7 93 8 12 9 13 10 20 11
REMARK SMILES IDX 14 12 18 13 19 14 15 15 17 16 16 17 8 18 9 19 7 20 4 21 5 22
REMARK SMILES IDX 94 23 6 24 2 25 1 26 3 27 26 28 27 29 28 30 29 31 30 32
REMARK SMILES IDX 31 33 92 34 32 35 91 36 33 37 34 38 35 39 85 40 36 41 90 42
REMARK SMILES IDX 84 43 86 44 37 45 89 46 83 47 82 48 38 50 70 51 50 52 69 53
REMARK SMILES IDX 51 54 54 55 68 56 87 57 52 58 53 59 67 61 88 62 55 63 39 64
REMARK SMILES IDX 40 65 48 66 41 67 47 68 49 69 46 70 42 71 43 72 44 73 45 74
REMARK SMILES IDX 71 75 72 76 80 77 73 78 79 79 81 80 78 81 74 82 75 83 76 84
REMARK SMILES IDX 77 85 56 86 57 87 65 88 58 89 64 90 66 91 63 92 59 93 60 94
REMARK SMILES IDX 61 95 62 96
REMARK H PARENT 86 49 54 60
REMARK Flexibility Score: inf
ROOT
ATOM      1  C   UNL A   1      37.021  22.342  23.843  1.00  0.00     0.274 C 
ENDROOT
BRANCH   1   2
ATOM      2  O   UNL A   1      35.613  22.618  23.995  1.00  0.00    -0.461 OA
BRANCH   2   3
ATOM      3  C   UNL A   1      35.191  23.359  25.072  1.00  0.00     0.318 C 
ATOM      4  O   UNL A   1      35.801  24.294  25.561  1.00  0.00    -0.251 OA
BRANCH   3   5
ATOM      5  C   UNL A   1      33.857  22.798  25.539  1.00  0.00     0.128 C 
ATOM      6  N   UNL A   1      31.749  23.780  26.051  1.00  0.00    -0.335 N 
ATOM      7  C   UNL A   1      31.482  22.645  25.206  1.00  0.00     0.129 C 
ATOM      8  C   UNL A   1      33.169  24.023  26.175  1.00  0.00     0.143 C 
ATOM      9  C   UNL A   1      32.821  22.388  24.482  1.00  0.00     0.065 C 
ATOM     10  C   UNL A   1      32.856  20.949  24.079  1.00  0.00     0.000 A 
ATOM     11  C   UNL A   1      34.116  21.657  26.537  1.00  0.00     0.251 C 
ATOM     12  C   UNL A   1      32.188  20.520  22.918  1.00  0.00     0.008 A 
ATOM     13  C   UNL A   1      33.453  20.006  24.905  1.00  0.00     0.122 A 
ATOM     14  O   UNL A   1      34.137  20.316  26.039  1.00  0.00    -0.492 OA
ATOM     15  C   UNL A   1      32.122  19.164  22.595  1.00  0.00     0.001 A 
ATOM     16  C   UNL A   1      33.392  18.649  24.578  1.00  0.00     0.047 A 
ATOM     17  C   UNL A   1      32.726  18.226  23.426  1.00  0.00     0.004 A 
BRANCH   6  18
ATOM     18  C   UNL A   1      30.734  24.649  26.414  1.00  0.00     0.282 C 
ATOM     19  O   UNL A   1      29.680  24.217  26.882  1.00  0.00    -0.266 OA
BRANCH  18  20
ATOM     20  C   UNL A   1      30.961  26.051  26.076  1.00  0.00     0.181 A 
ATOM     21  C   UNL A   1      31.710  28.122  26.364  1.00  0.00     0.055 A 
ATOM     22  C   UNL A   1      31.453  28.149  25.003  1.00  0.00     0.091 A 
ATOM     23  N   UNL A   1      31.355  26.933  26.974  1.00  0.00    -0.236 NA
ATOM     24  S   UNL A   1      30.877  26.621  24.469  1.00  0.00    -0.117 S 
BRANCH  21  25
ATOM     25  C   UNL A   1      32.328  29.221  27.196  1.00  0.00     0.033 C 
ATOM     26  C   UNL A   1      33.862  29.210  27.151  1.00  0.00     0.014 C 
ATOM     27  C   UNL A   1      31.829  30.603  26.755  1.00  0.00     0.014 C 
ENDBRANCH  21  25
ENDBRANCH  18  20
ENDBRANCH   6  18
ENDBRANCH   3   5
ENDBRANCH   2   3
ENDBRANCH   1   2
BRANCH   1  28
ATOM     28  C   UNL A   1      37.329  21.055  24.608  1.00  0.00     0.275 C 
BRANCH  28  29
ATOM     29  O   UNL A   1      37.845  21.462  25.880  1.00  0.00    -0.458 OA
BRANCH  29  30
ATOM     30  C   UNL A   1      39.155  21.253  26.128  1.00  0.00     0.338 C 
ATOM     31  O   UNL A   1      39.772  20.208  25.984  1.00  0.00    -0.246 OA
BRANCH  30  32
ATOM     32  C   UNL A   1      39.679  22.512  26.694  1.00  0.00     0.060 A 
ATOM     33  C   UNL A   1      39.181  23.732  26.251  1.00  0.00     0.016 A 
ATOM     34  C   UNL A   1      40.715  22.479  27.635  1.00  0.00     0.016 A 
ATOM     35  C   UNL A   1      39.796  24.909  26.682  1.00  0.00     0.010 A 
ATOM     36  C   UNL A   1      41.276  23.652  28.122  1.00  0.00     0.010 A 
ATOM     37  C   UNL A   1      40.861  24.877  27.606  1.00  0.00    -0.014 A 
BRANCH  37  38
ATOM     38  C   UNL A   1      41.528  26.130  28.027  1.00  0.00     0.031 A 
ATOM     39  C   UNL A   1      42.921  26.459  27.565  1.00  0.00     0.074 A 
ATOM     40  C   UNL A   1      40.855  26.979  28.827  1.00  0.00     0.049 A 
ATOM     41  N   UNL A   1      43.580  27.583  27.687  1.00  0.00    -0.248 NA
ATOM     42  C   UNL A   1      43.685  25.393  26.895  1.00  0.00     0.031 C 
ATOM     43  C   UNL A   1      39.545  26.700  29.413  1.00  0.00     0.029 A 
ATOM     44  N   UNL A   1      41.158  28.242  29.260  1.00  0.00    -0.354 N 
ATOM     45  C   UNL A   1      44.824  27.362  27.107  1.00  0.00     0.074 A 
ATOM     46  C   UNL A   1      44.858  25.978  26.695  1.00  0.00     0.031 C 
ATOM     47  C   UNL A   1      39.122  27.788  30.071  1.00  0.00     0.029 A 
ATOM     48  C   UNL A   1      40.145  28.829  29.980  1.00  0.00     0.049 A 
ATOM     49  H   UNL A   1      42.017  28.686  29.075  1.00  0.00     0.167 HD
ATOM     50  C   UNL A   1      45.828  28.248  26.905  1.00  0.00     0.034 A 
ATOM     51  C   UNL A   1      40.037  30.075  30.485  1.00  0.00     0.034 A 
ATOM     52  C   UNL A   1      45.756  29.627  27.314  1.00  0.00     0.049 A 
ATOM     53  C   UNL A   1      41.144  31.060  30.212  1.00  0.00     0.074 A 
ATOM     54  C   UNL A   1      46.675  30.634  27.087  1.00  0.00     0.029 A 
ATOM     55  N   UNL A   1      44.713  30.191  28.036  1.00  0.00    -0.354 N 
ATOM     56  N   UNL A   1      42.252  30.883  29.528  1.00  0.00    -0.248 NA
ATOM     57  C   UNL A   1      40.988  32.416  30.756  1.00  0.00     0.031 C 
ATOM     58  C   UNL A   1      46.224  31.787  27.730  1.00  0.00     0.029 A 
ATOM     59  C   UNL A   1      44.984  31.524  28.295  1.00  0.00     0.049 A 
ATOM     60  H   UNL A   1      43.901  29.714  28.323  1.00  0.00     0.167 HD
ATOM     61  C   UNL A   1      42.921  32.104  29.554  1.00  0.00     0.074 A 
ATOM     62  C   UNL A   1      42.074  33.021  30.289  1.00  0.00     0.031 C 
ATOM     63  C   UNL A   1      44.128  32.429  29.027  1.00  0.00     0.034 A 
BRANCH  50  64
ATOM     64  C   UNL A   1      47.074  27.791  26.182  1.00  0.00     0.023 A 
ATOM     65  C   UNL A   1      47.208  27.999  24.795  1.00  0.00     0.031 A 
ATOM     66  C   UNL A   1      48.062  27.031  26.835  1.00  0.00     0.131 A 
ATOM     67  C   UNL A   1      48.285  27.428  24.105  1.00  0.00     0.055 A 
ATOM     68  C   UNL A   1      49.157  26.502  26.150  1.00  0.00     0.041 A 
ATOM     69  F   UNL A   1      47.978  26.793  28.154  1.00  0.00    -0.206 F 
ATOM     70  C   UNL A   1      49.265  26.689  24.776  1.00  0.00     0.022 A 
BRANCH  67  71
ATOM     71  S   UNL A   1      48.424  27.559  22.301  1.00  0.00     0.124 S 
ATOM     72  O   UNL A   1      47.150  28.182  21.946  1.00  0.00    -0.237 OA
ATOM     73  O   UNL A   1      49.599  28.412  22.146  1.00  0.00    -0.237 OA
ATOM     74  O   UNL A   1      48.583  26.177  21.859  1.00  0.00    -0.744 OA
ENDBRANCH  67  71
ENDBRANCH  50  64
BRANCH  51  75
ATOM     75  C   UNL A   1      38.786  30.450  31.206  1.00  0.00     0.023 A 
ATOM     76  C   UNL A   1      37.742  31.114  30.534  1.00  0.00     0.031 A 
ATOM     77  C   UNL A   1      38.677  30.290  32.598  1.00  0.00     0.131 A 
ATOM     78  C   UNL A   1      36.682  31.666  31.263  1.00  0.00     0.055 A 
ATOM     79  C   UNL A   1      37.579  30.774  33.311  1.00  0.00     0.041 A 
ATOM     80  F   UNL A   1      39.653  29.680  33.287  1.00  0.00    -0.206 F 
ATOM     81  C   UNL A   1      36.584  31.486  32.647  1.00  0.00     0.022 A 
BRANCH  78  82
ATOM     82  S   UNL A   1      35.486  32.773  30.465  1.00  0.00     0.124 S 
ATOM     83  O   UNL A   1      34.282  32.545  31.258  1.00  0.00    -0.237 OA
ATOM     84  O   UNL A   1      36.121  34.077  30.643  1.00  0.00    -0.237 OA
ATOM     85  O   UNL A   1      35.437  32.292  29.089  1.00  0.00    -0.744 OA
ENDBRANCH  78  82
ENDBRANCH  51  75
BRANCH  63  86
ATOM     86  C   UNL A   1      44.654  33.829  29.235  1.00  0.00     0.023 A 
ATOM     87  C   UNL A   1      45.345  34.155  30.417  1.00  0.00     0.031 A 
ATOM     88  C   UNL A   1      44.307  34.871  28.357  1.00  0.00     0.131 A 
ATOM     89  C   UNL A   1      45.614  35.496  30.719  1.00  0.00     0.055 A 
ATOM     90  C   UNL A   1      44.625  36.200  28.636  1.00  0.00     0.041 A 
ATOM     91  F   UNL A   1      43.636  34.611  27.223  1.00  0.00    -0.206 F 
ATOM     92  C   UNL A   1      45.265  36.518  29.831  1.00  0.00     0.022 A 
BRANCH  89  93
ATOM     93  S   UNL A   1      46.327  35.970  32.318  1.00  0.00     0.124 S 
ATOM     94  O   UNL A   1      45.355  36.946  32.805  1.00  0.00    -0.237 OA
ATOM     95  O   UNL A   1      46.345  34.697  33.035  1.00  0.00    -0.237 OA
ATOM     96  O   UNL A   1      47.635  36.516  31.975  1.00  0.00    -0.744 OA
ENDBRANCH  89  93
ENDBRANCH  63  86
ENDBRANCH  37  38
ENDBRANCH  30  32
ENDBRANCH  29  30
ENDBRANCH  28  29
ENDBRANCH   1  28
TORSDOF 17
ENDMDL
