MODEL 1
REMARK VINA RESULT:     -12.6      0.000      0.000
REMARK SMILES O=C(OCCOC(=O)[C@H]1CCC(=O)N(CCc2ccccc2F)[C@@H]1c1cccs1)c1ccc(-c2c3nc(c(-c4cc(S(=O)(=O)[O-])ccc4F)c4ccc([nH]4)c(-c4cc(S(=O)(=O)[O-])ccc4F)c4nc(c(-c5cc(S(=O)(=O)[O-])ccc5F)c5ccc2[nH]5)C=C4)C=C3)cc1
REMARK SMILES IDX 4 1 3 2 2 3 1 4 30 5 31 6 92 7 32 8 91 9 33 10 34 11 35 12
REMARK SMILES IDX 85 13 36 14 90 15 84 16 86 17 37 18 89 19 83 20 82 21 38 23
REMARK SMILES IDX 70 24 50 25 69 26 51 27 54 28 68 29 87 30 52 31 53 32 67 34
REMARK SMILES IDX 88 35 55 36 39 37 40 38 48 39 41 40 47 41 49 42 46 43 42 44
REMARK SMILES IDX 43 45 44 46 45 47 71 48 72 49 80 50 73 51 79 52 81 53 78 54
REMARK SMILES IDX 74 55 75 56 76 57 77 58 56 59 57 60 65 61 58 62 64 63 66 64
REMARK SMILES IDX 63 65 59 66 60 67 61 68 62 69 5 70 6 71 7 72 8 73 9 74 10 75
REMARK SMILES IDX 24 76 11 77 14 78 12 79 13 80 25 81 26 82 29 83 27 84 28 85
REMARK SMILES IDX 15 86 16 87 17 88 18 89 22 90 19 91 21 92 23 93 20 94
REMARK H PARENT 86 22 54 33
REMARK Flexibility Score: inf
ROOT
ATOM      1  C   UNL A   1      32.024  32.769  26.683  1.00  0.00     0.275 C 
ENDROOT
BRANCH   1   2
ATOM      2  O   UNL A   1      32.323  33.288  27.991  1.00  0.00    -0.458 OA
BRANCH   2   3
ATOM      3  C   UNL A   1      33.475  33.956  28.260  1.00  0.00     0.338 C 
ATOM      4  O   UNL A   1      33.594  35.151  28.025  1.00  0.00    -0.246 OA
BRANCH   3   5
ATOM      5  C   UNL A   1      34.683  33.126  28.511  1.00  0.00     0.060 A 
ATOM      6  C   UNL A   1      34.619  31.797  28.934  1.00  0.00     0.016 A 
ATOM      7  C   UNL A   1      35.936  33.743  28.359  1.00  0.00     0.016 A 
ATOM      8  C   UNL A   1      35.786  31.071  29.156  1.00  0.00     0.010 A 
ATOM      9  C   UNL A   1      37.111  33.027  28.602  1.00  0.00     0.010 A 
ATOM     10  C   UNL A   1      37.033  31.693  29.029  1.00  0.00    -0.014 A 
BRANCH  10  11
ATOM     11  C   UNL A   1      38.194  31.045  29.675  1.00  0.00     0.031 A 
ATOM     12  C   UNL A   1      38.446  31.409  31.115  1.00  0.00     0.074 A 
ATOM     13  C   UNL A   1      38.905  30.088  29.053  1.00  0.00     0.049 A 
ATOM     14  N   UNL A   1      39.375  30.991  31.929  1.00  0.00    -0.248 NA
ATOM     15  C   UNL A   1      37.503  32.369  31.721  1.00  0.00     0.031 C 
ATOM     16  C   UNL A   1      38.667  29.605  27.691  1.00  0.00     0.029 A 
ATOM     17  N   UNL A   1      39.956  29.326  29.496  1.00  0.00    -0.354 N 
ATOM     18  C   UNL A   1      39.121  31.626  33.140  1.00  0.00     0.074 A 
ATOM     19  C   UNL A   1      37.980  32.488  32.948  1.00  0.00     0.031 C 
ATOM     20  C   UNL A   1      39.540  28.617  27.417  1.00  0.00     0.029 A 
ATOM     21  C   UNL A   1      40.415  28.417  28.569  1.00  0.00     0.049 A 
ATOM     22  H   UNL A   1      40.347  29.422  30.394  1.00  0.00     0.167 HD
ATOM     23  C   UNL A   1      39.774  31.488  34.316  1.00  0.00     0.034 A 
ATOM     24  C   UNL A   1      41.431  27.534  28.657  1.00  0.00     0.034 A 
ATOM     25  C   UNL A   1      40.917  30.636  34.479  1.00  0.00     0.049 A 
ATOM     26  C   UNL A   1      42.209  27.476  29.952  1.00  0.00     0.074 A 
ATOM     27  C   UNL A   1      41.729  30.478  35.586  1.00  0.00     0.029 A 
ATOM     28  N   UNL A   1      41.402  29.786  33.494  1.00  0.00    -0.354 N 
ATOM     29  N   UNL A   1      42.012  28.151  31.064  1.00  0.00    -0.248 NA
ATOM     30  C   UNL A   1      43.342  26.544  30.006  1.00  0.00     0.031 C 
ATOM     31  C   UNL A   1      42.725  29.553  35.259  1.00  0.00     0.029 A 
ATOM     32  C   UNL A   1      42.501  29.096  33.967  1.00  0.00     0.049 A 
ATOM     33  H   UNL A   1      41.019  29.690  32.593  1.00  0.00     0.167 HD
ATOM     34  C   UNL A   1      42.985  27.706  31.956  1.00  0.00     0.074 A 
ATOM     35  C   UNL A   1      43.752  26.693  31.257  1.00  0.00     0.031 C 
ATOM     36  C   UNL A   1      43.232  28.094  33.232  1.00  0.00     0.034 A 
BRANCH  23  37
ATOM     37  C   UNL A   1      39.277  32.305  35.475  1.00  0.00     0.023 A 
ATOM     38  C   UNL A   1      39.719  33.625  35.676  1.00  0.00     0.031 A 
ATOM     39  C   UNL A   1      38.395  31.748  36.415  1.00  0.00     0.131 A 
ATOM     40  C   UNL A   1      39.312  34.330  36.819  1.00  0.00     0.055 A 
ATOM     41  C   UNL A   1      37.947  32.474  37.519  1.00  0.00     0.041 A 
ATOM     42  F   UNL A   1      37.971  30.481  36.284  1.00  0.00    -0.206 F 
ATOM     43  C   UNL A   1      38.411  33.770  37.730  1.00  0.00     0.022 A 
BRANCH  40  44
ATOM     44  S   UNL A   1      40.027  35.964  37.141  1.00  0.00     0.124 S 
ATOM     45  O   UNL A   1      39.291  36.375  38.334  1.00  0.00    -0.237 OA
ATOM     46  O   UNL A   1      41.441  35.664  37.338  1.00  0.00    -0.237 OA
ATOM     47  O   UNL A   1      39.715  36.718  35.928  1.00  0.00    -0.744 OA
ENDBRANCH  40  44
ENDBRANCH  23  37
BRANCH  24  48
ATOM     48  C   UNL A   1      41.801  26.658  27.505  1.00  0.00     0.023 A 
ATOM     49  C   UNL A   1      41.453  25.297  27.481  1.00  0.00     0.031 A 
ATOM     50  C   UNL A   1      42.569  27.156  26.437  1.00  0.00     0.131 A 
ATOM     51  C   UNL A   1      41.904  24.474  26.435  1.00  0.00     0.055 A 
ATOM     52  C   UNL A   1      42.979  26.344  25.377  1.00  0.00     0.041 A 
ATOM     53  F   UNL A   1      42.932  28.448  26.406  1.00  0.00    -0.206 F 
ATOM     54  C   UNL A   1      42.657  24.990  25.378  1.00  0.00     0.022 A 
BRANCH  51  55
ATOM     55  S   UNL A   1      41.548  22.695  26.505  1.00  0.00     0.124 S 
ATOM     56  O   UNL A   1      40.090  22.682  26.456  1.00  0.00    -0.237 OA
ATOM     57  O   UNL A   1      42.236  22.202  25.316  1.00  0.00    -0.237 OA
ATOM     58  O   UNL A   1      42.135  22.279  27.777  1.00  0.00    -0.744 OA
ENDBRANCH  51  55
ENDBRANCH  24  48
BRANCH  36  59
ATOM     59  C   UNL A   1      44.350  27.396  33.951  1.00  0.00     0.023 A 
ATOM     60  C   UNL A   1      44.132  26.189  34.636  1.00  0.00     0.031 A 
ATOM     61  C   UNL A   1      45.650  27.929  33.926  1.00  0.00     0.131 A 
ATOM     62  C   UNL A   1      45.194  25.575  35.310  1.00  0.00     0.055 A 
ATOM     63  C   UNL A   1      46.715  27.285  34.554  1.00  0.00     0.041 A 
ATOM     64  F   UNL A   1      45.904  29.077  33.278  1.00  0.00    -0.206 F 
ATOM     65  C   UNL A   1      46.487  26.106  35.260  1.00  0.00     0.022 A 
BRANCH  62  66
ATOM     66  S   UNL A   1      44.849  24.101  36.305  1.00  0.00     0.124 S 
ATOM     67  O   UNL A   1      46.112  23.376  36.218  1.00  0.00    -0.237 OA
ATOM     68  O   UNL A   1      44.531  24.671  37.611  1.00  0.00    -0.237 OA
ATOM     69  O   UNL A   1      43.724  23.476  35.613  1.00  0.00    -0.744 OA
ENDBRANCH  62  66
ENDBRANCH  36  59
ENDBRANCH  10  11
ENDBRANCH   3   5
ENDBRANCH   2   3
ENDBRANCH   1   2
BRANCH   1  70
ATOM     70  C   UNL A   1      31.308  31.409  26.705  1.00  0.00     0.274 C 
BRANCH  70  71
ATOM     71  O   UNL A   1      31.269  30.804  25.405  1.00  0.00    -0.462 OA
BRANCH  71  72
ATOM     72  C   UNL A   1      31.620  29.486  25.397  1.00  0.00     0.311 C 
ATOM     73  O   UNL A   1      31.450  28.739  26.343  1.00  0.00    -0.252 OA
BRANCH  72  74
ATOM     74  C   UNL A   1      32.105  29.063  24.013  1.00  0.00     0.127 C 
ATOM     75  C   UNL A   1      33.591  28.740  23.970  1.00  0.00     0.028 C 
ATOM     76  C   UNL A   1      31.260  27.871  23.521  1.00  0.00     0.139 C 
ATOM     77  C   UNL A   1      33.942  28.400  22.533  1.00  0.00     0.101 C 
ATOM     78  N   UNL A   1      31.954  26.921  22.606  1.00  0.00    -0.334 N 
ATOM     79  C   UNL A   1      33.231  27.144  22.094  1.00  0.00     0.223 C 
ATOM     80  O   UNL A   1      33.783  26.367  21.314  1.00  0.00    -0.275 OA
BRANCH  76  81
ATOM     81  C   UNL A   1      29.833  28.238  23.079  1.00  0.00     0.028 A 
ATOM     82  C   UNL A   1      28.646  27.615  23.439  1.00  0.00     0.017 A 
ATOM     83  S   UNL A   1      29.465  29.687  22.222  1.00  0.00    -0.147 S 
ATOM     84  C   UNL A   1      27.495  28.426  23.244  1.00  0.00     0.012 A 
ATOM     85  C   UNL A   1      27.818  29.628  22.668  1.00  0.00     0.065 A 
ENDBRANCH  76  81
BRANCH  78  86
ATOM     86  C   UNL A   1      31.415  25.557  22.434  1.00  0.00     0.125 C 
BRANCH  86  87
ATOM     87  C   UNL A   1      31.691  24.569  23.601  1.00  0.00     0.060 C 
BRANCH  87  88
ATOM     88  C   UNL A   1      33.143  24.283  23.911  1.00  0.00    -0.010 A 
ATOM     89  C   UNL A   1      33.780  24.933  24.981  1.00  0.00     0.007 A 
ATOM     90  C   UNL A   1      33.844  23.277  23.237  1.00  0.00     0.126 A 
ATOM     91  C   UNL A   1      35.042  24.515  25.415  1.00  0.00     0.000 A 
ATOM     92  C   UNL A   1      35.092  22.842  23.678  1.00  0.00     0.039 A 
ATOM     93  F   UNL A   1      33.279  22.659  22.190  1.00  0.00    -0.207 F 
ATOM     94  C   UNL A   1      35.686  23.454  24.779  1.00  0.00     0.003 A 
ENDBRANCH  87  88
ENDBRANCH  86  87
ENDBRANCH  78  86
ENDBRANCH  72  74
ENDBRANCH  71  72
ENDBRANCH  70  71
ENDBRANCH   1  70
TORSDOF 18
ENDMDL
MODEL 2
REMARK VINA RESULT:     -12.6      1.404      1.742
REMARK SMILES O=C(OCCOC(=O)[C@H]1CCC(=O)N(CCc2ccccc2F)[C@@H]1c1cccs1)c1ccc(-c2c3nc(c(-c4cc(S(=O)(=O)[O-])ccc4F)c4ccc([nH]4)c(-c4cc(S(=O)(=O)[O-])ccc4F)c4nc(c(-c5cc(S(=O)(=O)[O-])ccc5F)c5ccc2[nH]5)C=C4)C=C3)cc1
REMARK SMILES IDX 4 1 3 2 2 3 1 4 30 5 31 6 92 7 32 8 91 9 33 10 34 11 35 12
REMARK SMILES IDX 85 13 36 14 90 15 84 16 86 17 37 18 89 19 83 20 82 21 38 23
REMARK SMILES IDX 70 24 50 25 69 26 51 27 54 28 68 29 87 30 52 31 53 32 67 34
REMARK SMILES IDX 88 35 55 36 39 37 40 38 48 39 41 40 47 41 49 42 46 43 42 44
REMARK SMILES IDX 43 45 44 46 45 47 71 48 72 49 80 50 73 51 79 52 81 53 78 54
REMARK SMILES IDX 74 55 75 56 76 57 77 58 56 59 57 60 65 61 58 62 64 63 66 64
REMARK SMILES IDX 63 65 59 66 60 67 61 68 62 69 5 70 6 71 7 72 8 73 9 74 10 75
REMARK SMILES IDX 24 76 11 77 14 78 12 79 13 80 25 81 26 82 29 83 27 84 28 85
REMARK SMILES IDX 15 86 16 87 17 88 18 89 22 90 19 91 21 92 23 93 20 94
REMARK H PARENT 86 22 54 33
REMARK Flexibility Score: inf
ROOT
ATOM      1  C   UNL A   1      31.765  32.649  27.004  1.00  0.00     0.275 C 
ENDROOT
BRANCH   1   2
ATOM      2  O   UNL A   1      32.867  33.557  27.179  1.00  0.00    -0.458 OA
BRANCH   2   3
ATOM      3  C   UNL A   1      33.485  33.724  28.378  1.00  0.00     0.338 C 
ATOM      4  O   UNL A   1      33.217  34.666  29.111  1.00  0.00    -0.246 OA
BRANCH   3   5
ATOM      5  C   UNL A   1      34.728  32.939  28.602  1.00  0.00     0.060 A 
ATOM      6  C   UNL A   1      34.721  31.578  28.917  1.00  0.00     0.016 A 
ATOM      7  C   UNL A   1      35.950  33.628  28.538  1.00  0.00     0.016 A 
ATOM      8  C   UNL A   1      35.919  30.897  29.119  1.00  0.00     0.010 A 
ATOM      9  C   UNL A   1      37.153  32.955  28.762  1.00  0.00     0.010 A 
ATOM     10  C   UNL A   1      37.134  31.589  29.081  1.00  0.00    -0.014 A 
BRANCH  10  11
ATOM     11  C   UNL A   1      38.309  30.951  29.711  1.00  0.00     0.031 A 
ATOM     12  C   UNL A   1      38.581  31.321  31.146  1.00  0.00     0.074 A 
ATOM     13  C   UNL A   1      39.017  29.996  29.081  1.00  0.00     0.049 A 
ATOM     14  N   UNL A   1      39.525  30.912  31.946  1.00  0.00    -0.248 NA
ATOM     15  C   UNL A   1      37.641  32.277  31.763  1.00  0.00     0.031 C 
ATOM     16  C   UNL A   1      38.761  29.507  27.725  1.00  0.00     0.029 A 
ATOM     17  N   UNL A   1      40.079  29.243  29.510  1.00  0.00    -0.354 N 
ATOM     18  C   UNL A   1      39.286  31.550  33.159  1.00  0.00     0.074 A 
ATOM     19  C   UNL A   1      38.137  32.404  32.982  1.00  0.00     0.031 C 
ATOM     20  C   UNL A   1      39.636  28.523  27.441  1.00  0.00     0.029 A 
ATOM     21  C   UNL A   1      40.530  28.333  28.580  1.00  0.00     0.049 A 
ATOM     22  H   UNL A   1      40.483  29.344  30.402  1.00  0.00     0.167 HD
ATOM     23  C   UNL A   1      39.958  31.420  34.325  1.00  0.00     0.034 A 
ATOM     24  C   UNL A   1      41.553  27.457  28.655  1.00  0.00     0.034 A 
ATOM     25  C   UNL A   1      41.109  30.576  34.474  1.00  0.00     0.049 A 
ATOM     26  C   UNL A   1      42.350  27.409  29.938  1.00  0.00     0.074 A 
ATOM     27  C   UNL A   1      41.939  30.428  35.568  1.00  0.00     0.029 A 
ATOM     28  N   UNL A   1      41.584  29.726  33.484  1.00  0.00    -0.354 N 
ATOM     29  N   UNL A   1      42.167  28.086  31.051  1.00  0.00    -0.248 NA
ATOM     30  C   UNL A   1      43.491  26.484  29.977  1.00  0.00     0.031 C 
ATOM     31  C   UNL A   1      42.936  29.507  35.229  1.00  0.00     0.029 A 
ATOM     32  C   UNL A   1      42.695  29.045  33.943  1.00  0.00     0.049 A 
ATOM     33  H   UNL A   1      41.188  29.624  32.589  1.00  0.00     0.167 HD
ATOM     34  C   UNL A   1      43.156  27.650  31.928  1.00  0.00     0.074 A 
ATOM     35  C   UNL A   1      43.919  26.641  31.221  1.00  0.00     0.031 C 
ATOM     36  C   UNL A   1      43.420  28.045  33.200  1.00  0.00     0.034 A 
BRANCH  23  37
ATOM     37  C   UNL A   1      39.474  32.238  35.489  1.00  0.00     0.023 A 
ATOM     38  C   UNL A   1      38.719  31.656  36.524  1.00  0.00     0.031 A 
ATOM     39  C   UNL A   1      39.722  33.619  35.543  1.00  0.00     0.131 A 
ATOM     40  C   UNL A   1      38.200  32.463  37.547  1.00  0.00     0.055 A 
ATOM     41  C   UNL A   1      39.254  34.407  36.595  1.00  0.00     0.041 A 
ATOM     42  F   UNL A   1      40.410  34.227  34.563  1.00  0.00    -0.206 F 
ATOM     43  C   UNL A   1      38.482  33.832  37.601  1.00  0.00     0.022 A 
BRANCH  40  44
ATOM     44  S   UNL A   1      37.093  31.718  38.773  1.00  0.00     0.124 S 
ATOM     45  O   UNL A   1      36.962  30.357  38.261  1.00  0.00    -0.237 OA
ATOM     46  O   UNL A   1      37.843  31.862  40.015  1.00  0.00    -0.237 OA
ATOM     47  O   UNL A   1      35.883  32.535  38.680  1.00  0.00    -0.744 OA
ENDBRANCH  40  44
ENDBRANCH  23  37
BRANCH  24  48
ATOM     48  C   UNL A   1      41.910  26.580  27.500  1.00  0.00     0.023 A 
ATOM     49  C   UNL A   1      41.535  25.226  27.468  1.00  0.00     0.031 A 
ATOM     50  C   UNL A   1      42.694  27.067  26.438  1.00  0.00     0.131 A 
ATOM     51  C   UNL A   1      41.975  24.399  26.419  1.00  0.00     0.055 A 
ATOM     52  C   UNL A   1      43.092  26.252  25.377  1.00  0.00     0.041 A 
ATOM     53  F   UNL A   1      43.083  28.352  26.416  1.00  0.00    -0.206 F 
ATOM     54  C   UNL A   1      42.742  24.905  25.369  1.00  0.00     0.022 A 
BRANCH  51  55
ATOM     55  S   UNL A   1      41.582  22.628  26.479  1.00  0.00     0.124 S 
ATOM     56  O   UNL A   1      42.252  22.134  25.280  1.00  0.00    -0.237 OA
ATOM     57  O   UNL A   1      42.170  22.231  27.754  1.00  0.00    -0.237 OA
ATOM     58  O   UNL A   1      40.122  22.600  26.435  1.00  0.00    -0.744 OA
ENDBRANCH  51  55
ENDBRANCH  24  48
BRANCH  36  59
ATOM     59  C   UNL A   1      44.554  27.356  33.904  1.00  0.00     0.023 A 
ATOM     60  C   UNL A   1      44.345  26.178  34.638  1.00  0.00     0.031 A 
ATOM     61  C   UNL A   1      45.859  27.869  33.815  1.00  0.00     0.131 A 
ATOM     62  C   UNL A   1      45.422  25.572  35.297  1.00  0.00     0.055 A 
ATOM     63  C   UNL A   1      46.937  27.233  34.428  1.00  0.00     0.041 A 
ATOM     64  F   UNL A   1      46.105  28.990  33.117  1.00  0.00    -0.206 F 
ATOM     65  C   UNL A   1      46.719  26.083  35.182  1.00  0.00     0.022 A 
BRANCH  62  66
ATOM     66  S   UNL A   1      45.093  24.139  36.355  1.00  0.00     0.124 S 
ATOM     67  O   UNL A   1      44.049  23.447  35.608  1.00  0.00    -0.237 OA
ATOM     68  O   UNL A   1      46.393  23.475  36.397  1.00  0.00    -0.237 OA
ATOM     69  O   UNL A   1      44.663  24.737  37.617  1.00  0.00    -0.744 OA
ENDBRANCH  62  66
ENDBRANCH  36  59
ENDBRANCH  10  11
ENDBRANCH   3   5
ENDBRANCH   2   3
ENDBRANCH   1   2
BRANCH   1  70
ATOM     70  C   UNL A   1      32.194  31.197  26.744  1.00  0.00     0.274 C 
BRANCH  70  71
ATOM     71  O   UNL A   1      31.498  30.625  25.627  1.00  0.00    -0.462 OA
BRANCH  71  72
ATOM     72  C   UNL A   1      31.648  29.275  25.512  1.00  0.00     0.311 C 
ATOM     73  O   UNL A   1      31.322  28.485  26.380  1.00  0.00    -0.252 OA
BRANCH  72  74
ATOM     74  C   UNL A   1      32.133  28.900  24.114  1.00  0.00     0.127 C 
ATOM     75  C   UNL A   1      33.617  28.572  24.061  1.00  0.00     0.028 C 
ATOM     76  C   UNL A   1      31.283  27.730  23.578  1.00  0.00     0.139 C 
ATOM     77  C   UNL A   1      33.968  28.283  22.612  1.00  0.00     0.101 C 
ATOM     78  N   UNL A   1      31.973  26.812  22.630  1.00  0.00    -0.334 N 
ATOM     79  C   UNL A   1      33.251  27.047  22.128  1.00  0.00     0.223 C 
ATOM     80  O   UNL A   1      33.800  26.296  21.320  1.00  0.00    -0.275 OA
BRANCH  76  81
ATOM     81  C   UNL A   1      29.858  28.120  23.149  1.00  0.00     0.028 A 
ATOM     82  C   UNL A   1      28.669  27.480  23.470  1.00  0.00     0.017 A 
ATOM     83  S   UNL A   1      29.493  29.612  22.366  1.00  0.00    -0.147 S 
ATOM     84  C   UNL A   1      27.518  28.300  23.312  1.00  0.00     0.012 A 
ATOM     85  C   UNL A   1      27.845  29.530  22.800  1.00  0.00     0.065 A 
ENDBRANCH  76  81
BRANCH  78  86
ATOM     86  C   UNL A   1      31.428  25.457  22.407  1.00  0.00     0.125 C 
BRANCH  86  87
ATOM     87  C   UNL A   1      31.551  24.475  23.605  1.00  0.00     0.060 C 
BRANCH  87  88
ATOM     88  C   UNL A   1      32.953  24.133  24.053  1.00  0.00    -0.010 A 
ATOM     89  C   UNL A   1      33.719  23.201  23.334  1.00  0.00     0.007 A 
ATOM     90  C   UNL A   1      33.569  24.826  25.101  1.00  0.00     0.126 A 
ATOM     91  C   UNL A   1      35.083  23.046  23.602  1.00  0.00     0.000 A 
ATOM     92  C   UNL A   1      34.932  24.692  25.358  1.00  0.00     0.039 A 
ATOM     93  F   UNL A   1      32.859  25.699  25.830  1.00  0.00    -0.207 F 
ATOM     94  C   UNL A   1      35.694  23.809  24.596  1.00  0.00     0.003 A 
ENDBRANCH  87  88
ENDBRANCH  86  87
ENDBRANCH  78  86
ENDBRANCH  72  74
ENDBRANCH  71  72
ENDBRANCH  70  71
ENDBRANCH   1  70
TORSDOF 18
ENDMDL
MODEL 3
REMARK VINA RESULT:     -11.8      2.121      3.008
REMARK SMILES O=C(OCCOC(=O)[C@H]1CCC(=O)N(CCc2ccccc2F)[C@@H]1c1cccs1)c1ccc(-c2c3nc(c(-c4cc(S(=O)(=O)[O-])ccc4F)c4ccc([nH]4)c(-c4cc(S(=O)(=O)[O-])ccc4F)c4nc(c(-c5cc(S(=O)(=O)[O-])ccc5F)c5ccc2[nH]5)C=C4)C=C3)cc1
REMARK SMILES IDX 4 1 3 2 2 3 1 4 30 5 31 6 92 7 32 8 91 9 33 10 34 11 35 12
REMARK SMILES IDX 85 13 36 14 90 15 84 16 86 17 37 18 89 19 83 20 82 21 38 23
REMARK SMILES IDX 70 24 50 25 69 26 51 27 54 28 68 29 87 30 52 31 53 32 67 34
REMARK SMILES IDX 88 35 55 36 39 37 40 38 48 39 41 40 47 41 49 42 46 43 42 44
REMARK SMILES IDX 43 45 44 46 45 47 71 48 72 49 80 50 73 51 79 52 81 53 78 54
REMARK SMILES IDX 74 55 75 56 76 57 77 58 56 59 57 60 65 61 58 62 64 63 66 64
REMARK SMILES IDX 63 65 59 66 60 67 61 68 62 69 5 70 6 71 7 72 8 73 9 74 10 75
REMARK SMILES IDX 24 76 11 77 14 78 12 79 13 80 25 81 26 82 29 83 27 84 28 85
REMARK SMILES IDX 15 86 16 87 17 88 18 89 22 90 19 91 21 92 23 93 20 94
REMARK H PARENT 86 22 54 33
REMARK Flexibility Score: inf
ROOT
ATOM      1  C   UNL A   1      32.162  31.217  26.879  1.00  0.00     0.275 C 
ENDROOT
BRANCH   1   2
ATOM      2  O   UNL A   1      33.570  31.514  26.847  1.00  0.00    -0.458 OA
BRANCH   2   3
ATOM      3  C   UNL A   1      34.264  31.855  27.964  1.00  0.00     0.338 C 
ATOM      4  O   UNL A   1      33.981  32.851  28.616  1.00  0.00    -0.246 OA
BRANCH   3   5
ATOM      5  C   UNL A   1      35.579  31.189  28.161  1.00  0.00     0.060 A 
ATOM      6  C   UNL A   1      35.738  29.802  28.147  1.00  0.00     0.016 A 
ATOM      7  C   UNL A   1      36.689  32.009  28.422  1.00  0.00     0.016 A 
ATOM      8  C   UNL A   1      36.996  29.235  28.340  1.00  0.00     0.010 A 
ATOM      9  C   UNL A   1      37.949  31.446  28.639  1.00  0.00     0.010 A 
ATOM     10  C   UNL A   1      38.096  30.052  28.625  1.00  0.00    -0.014 A 
BRANCH  10  11
ATOM     11  C   UNL A   1      39.282  29.418  29.239  1.00  0.00     0.031 A 
ATOM     12  C   UNL A   1      39.689  29.935  30.593  1.00  0.00     0.074 A 
ATOM     13  C   UNL A   1      39.883  28.353  28.678  1.00  0.00     0.049 A 
ATOM     14  N   UNL A   1      40.672  29.563  31.365  1.00  0.00    -0.248 NA
ATOM     15  C   UNL A   1      38.857  31.014  31.159  1.00  0.00     0.031 C 
ATOM     16  C   UNL A   1      39.491  27.726  27.414  1.00  0.00     0.029 A 
ATOM     17  N   UNL A   1      40.934  27.589  29.115  1.00  0.00    -0.354 N 
ATOM     18  C   UNL A   1      40.568  30.352  32.506  1.00  0.00     0.074 A 
ATOM     19  C   UNL A   1      39.457  31.250  32.313  1.00  0.00     0.031 C 
ATOM     20  C   UNL A   1      40.285  26.663  27.187  1.00  0.00     0.029 A 
ATOM     21  C   UNL A   1      41.257  26.550  28.271  1.00  0.00     0.049 A 
ATOM     22  H   UNL A   1      41.414  27.768  29.955  1.00  0.00     0.167 HD
ATOM     23  C   UNL A   1      41.325  30.316  33.626  1.00  0.00     0.034 A 
ATOM     24  C   UNL A   1      42.233  25.625  28.374  1.00  0.00     0.034 A 
ATOM     25  C   UNL A   1      42.437  29.423  33.789  1.00  0.00     0.049 A 
ATOM     26  C   UNL A   1      43.130  25.677  29.590  1.00  0.00     0.074 A 
ATOM     27  C   UNL A   1      43.345  29.351  34.828  1.00  0.00     0.029 A 
ATOM     28  N   UNL A   1      42.783  28.435  32.877  1.00  0.00    -0.354 N 
ATOM     29  N   UNL A   1      43.075  26.489  30.624  1.00  0.00    -0.248 NA
ATOM     30  C   UNL A   1      44.218  24.692  29.656  1.00  0.00     0.031 C 
ATOM     31  C   UNL A   1      44.259  28.336  34.529  1.00  0.00     0.029 A 
ATOM     32  C   UNL A   1      43.889  27.743  33.331  1.00  0.00     0.049 A 
ATOM     33  H   UNL A   1      42.310  28.255  32.033  1.00  0.00     0.167 HD
ATOM     34  C   UNL A   1      44.107  26.097  31.471  1.00  0.00     0.074 A 
ATOM     35  C   UNL A   1      44.755  24.965  30.837  1.00  0.00     0.031 C 
ATOM     36  C   UNL A   1      44.496  26.619  32.662  1.00  0.00     0.034 A 
BRANCH  23  37
ATOM     37  C   UNL A   1      40.983  31.293  34.715  1.00  0.00     0.023 A 
ATOM     38  C   UNL A   1      39.864  31.096  35.544  1.00  0.00     0.031 A 
ATOM     39  C   UNL A   1      41.748  32.456  34.895  1.00  0.00     0.131 A 
ATOM     40  C   UNL A   1      39.515  32.073  36.488  1.00  0.00     0.055 A 
ATOM     41  C   UNL A   1      41.431  33.397  35.876  1.00  0.00     0.041 A 
ATOM     42  F   UNL A   1      42.807  32.706  34.108  1.00  0.00    -0.206 F 
ATOM     43  C   UNL A   1      40.305  33.212  36.675  1.00  0.00     0.022 A 
BRANCH  40  44
ATOM     44  S   UNL A   1      37.976  31.875  37.425  1.00  0.00     0.124 S 
ATOM     45  O   UNL A   1      37.096  32.821  36.744  1.00  0.00    -0.237 OA
ATOM     46  O   UNL A   1      37.663  30.464  37.236  1.00  0.00    -0.237 OA
ATOM     47  O   UNL A   1      38.356  32.251  38.786  1.00  0.00    -0.744 OA
ENDBRANCH  40  44
ENDBRANCH  23  37
BRANCH  24  48
ATOM     48  C   UNL A   1      42.447  24.599  27.311  1.00  0.00     0.023 A 
ATOM     49  C   UNL A   1      41.706  23.404  27.289  1.00  0.00     0.031 A 
ATOM     50  C   UNL A   1      43.447  24.767  26.335  1.00  0.00     0.131 A 
ATOM     51  C   UNL A   1      42.002  22.411  26.339  1.00  0.00     0.055 A 
ATOM     52  C   UNL A   1      43.707  23.795  25.366  1.00  0.00     0.041 A 
ATOM     53  F   UNL A   1      44.187  25.886  26.308  1.00  0.00    -0.206 F 
ATOM     54  C   UNL A   1      42.990  22.602  25.372  1.00  0.00     0.022 A 
BRANCH  51  55
ATOM     55  S   UNL A   1      41.115  20.830  26.424  1.00  0.00     0.124 S 
ATOM     56  O   UNL A   1      42.045  19.931  25.748  1.00  0.00    -0.237 OA
ATOM     57  O   UNL A   1      40.971  20.641  27.863  1.00  0.00    -0.237 OA
ATOM     58  O   UNL A   1      39.871  21.096  25.706  1.00  0.00    -0.744 OA
ENDBRANCH  51  55
ENDBRANCH  24  48
BRANCH  36  59
ATOM     59  C   UNL A   1      45.645  25.946  33.358  1.00  0.00     0.023 A 
ATOM     60  C   UNL A   1      45.431  24.886  34.253  1.00  0.00     0.031 A 
ATOM     61  C   UNL A   1      46.965  26.353  33.100  1.00  0.00     0.131 A 
ATOM     62  C   UNL A   1      46.524  24.294  34.897  1.00  0.00     0.055 A 
ATOM     63  C   UNL A   1      48.052  25.724  33.703  1.00  0.00     0.041 A 
ATOM     64  F   UNL A   1      47.214  27.358  32.246  1.00  0.00    -0.206 F 
ATOM     65  C   UNL A   1      47.834  24.695  34.615  1.00  0.00     0.022 A 
BRANCH  62  66
ATOM     66  S   UNL A   1      46.205  23.030  36.155  1.00  0.00     0.124 S 
ATOM     67  O   UNL A   1      47.542  22.495  36.391  1.00  0.00    -0.237 OA
ATOM     68  O   UNL A   1      45.630  23.811  37.246  1.00  0.00    -0.237 OA
ATOM     69  O   UNL A   1      45.277  22.115  35.494  1.00  0.00    -0.744 OA
ENDBRANCH  62  66
ENDBRANCH  36  59
ENDBRANCH  10  11
ENDBRANCH   3   5
ENDBRANCH   2   3
ENDBRANCH   1   2
BRANCH   1  70
ATOM     70  C   UNL A   1      31.843  29.773  27.296  1.00  0.00     0.274 C 
BRANCH  70  71
ATOM     71  O   UNL A   1      32.054  28.846  26.221  1.00  0.00    -0.462 OA
BRANCH  71  72
ATOM     72  C   UNL A   1      31.475  27.628  26.418  1.00  0.00     0.311 C 
ATOM     73  O   UNL A   1      31.224  27.172  27.519  1.00  0.00    -0.252 OA
BRANCH  72  74
ATOM     74  C   UNL A   1      31.061  27.003  25.088  1.00  0.00     0.127 C 
ATOM     75  C   UNL A   1      30.788  28.031  24.001  1.00  0.00     0.028 C 
ATOM     76  C   UNL A   1      32.140  25.995  24.643  1.00  0.00     0.139 C 
ATOM     77  C   UNL A   1      30.330  27.277  22.765  1.00  0.00     0.101 C 
ATOM     78  N   UNL A   1      32.292  25.818  23.172  1.00  0.00    -0.334 N 
ATOM     79  C   UNL A   1      31.436  26.399  22.238  1.00  0.00     0.223 C 
ATOM     80  O   UNL A   1      31.553  26.221  21.024  1.00  0.00    -0.275 OA
BRANCH  76  81
ATOM     81  C   UNL A   1      32.148  24.677  25.437  1.00  0.00     0.028 A 
ATOM     82  C   UNL A   1      33.138  24.204  26.287  1.00  0.00     0.017 A 
ATOM     83  S   UNL A   1      30.762  23.661  25.576  1.00  0.00    -0.147 S 
ATOM     84  C   UNL A   1      32.683  23.211  27.197  1.00  0.00     0.012 A 
ATOM     85  C   UNL A   1      31.368  22.890  26.973  1.00  0.00     0.065 A 
ENDBRANCH  76  81
BRANCH  78  86
ATOM     86  C   UNL A   1      33.542  25.242  22.637  1.00  0.00     0.125 C 
BRANCH  86  87
ATOM     87  C   UNL A   1      33.513  23.715  22.349  1.00  0.00     0.060 C 
BRANCH  87  88
ATOM     88  C   UNL A   1      34.474  22.863  23.145  1.00  0.00    -0.010 A 
ATOM     89  C   UNL A   1      35.829  23.222  23.239  1.00  0.00     0.007 A 
ATOM     90  C   UNL A   1      34.021  21.785  23.913  1.00  0.00     0.126 A 
ATOM     91  C   UNL A   1      36.673  22.576  24.148  1.00  0.00     0.000 A 
ATOM     92  C   UNL A   1      34.851  21.152  24.836  1.00  0.00     0.039 A 
ATOM     93  F   UNL A   1      32.742  21.394  23.823  1.00  0.00    -0.207 F 
ATOM     94  C   UNL A   1      36.178  21.558  24.963  1.00  0.00     0.003 A 
ENDBRANCH  87  88
ENDBRANCH  86  87
ENDBRANCH  78  86
ENDBRANCH  72  74
ENDBRANCH  71  72
ENDBRANCH  70  71
ENDBRANCH   1  70
TORSDOF 18
ENDMDL
