MODEL 1
REMARK VINA RESULT:     -10.1      0.000      0.000
REMARK SMILES O=C(Cc1cccc(-c2ccn(C(F)F)c(=O)c2)c1)OCCOC(=O)c1ccc(-c2c3nc(c(-c4cc(S(=O)(=O)[O-])ccc4F)c4ccc([nH]4)c(-c4cc(S(=O)(=O)[O-])ccc4F)c4nc(c(-c5cc(S(=O)(=O)[O-])ccc5F)c5ccc2[nH]5)C=C4)C=C3)cc1
REMARK SMILES IDX 21 1 20 2 2 3 1 4 3 5 4 6 5 7 19 8 6 9 8 10 7 11 9 12 10 13
REMARK SMILES IDX 18 14 11 15 16 16 12 17 17 18 13 19 14 20 15 21 22 22 23 23
REMARK SMILES IDX 24 24 25 25 26 26 27 27 88 28 28 29 87 30 29 31 30 32 31 33
REMARK SMILES IDX 81 34 32 35 86 36 80 37 82 38 33 39 85 40 79 41 78 42 34 44
REMARK SMILES IDX 66 45 46 46 65 47 47 48 50 49 64 50 83 51 48 52 49 53 63 55
REMARK SMILES IDX 84 56 51 57 35 58 36 59 44 60 37 61 43 62 45 63 42 64 38 65
REMARK SMILES IDX 39 66 40 67 41 68 67 69 68 70 76 71 69 72 75 73 77 74 74 75
REMARK SMILES IDX 70 76 71 77 72 78 73 79 52 80 53 81 61 82 54 83 60 84 62 85
REMARK SMILES IDX 59 86 55 87 56 88 57 89 58 90
REMARK H PARENT 82 43 50 54
REMARK Flexibility Score: inf
ROOT
ATOM      1  C   UNL A   1      33.200  35.052  29.092  1.00  0.00     0.274 C 
ENDROOT
BRANCH   1   2
ATOM      2  O   UNL A   1      32.927  34.849  30.494  1.00  0.00    -0.462 OA
BRANCH   2   3
ATOM      3  C   UNL A   1      32.941  35.809  31.450  1.00  0.00     0.310 C 
ATOM      4  O   UNL A   1      32.259  36.822  31.304  1.00  0.00    -0.252 OA
BRANCH   3   5
ATOM      5  C   UNL A   1      33.742  35.584  32.717  1.00  0.00     0.158 C 
BRANCH   5   6
ATOM      6  C   UNL A   1      34.810  34.532  32.606  1.00  0.00    -0.036 A 
ATOM      7  C   UNL A   1      34.568  33.215  33.015  1.00  0.00     0.004 A 
ATOM      8  C   UNL A   1      36.050  34.850  32.055  1.00  0.00     0.013 A 
ATOM      9  C   UNL A   1      35.575  32.252  32.922  1.00  0.00     0.001 A 
ATOM     10  C   UNL A   1      37.071  33.897  31.978  1.00  0.00    -0.018 A 
ATOM     11  C   UNL A   1      36.832  32.593  32.413  1.00  0.00     0.009 A 
BRANCH  10  12
ATOM     12  C   UNL A   1      38.360  34.364  31.451  1.00  0.00    -0.011 A 
ATOM     13  C   UNL A   1      38.563  34.559  30.029  1.00  0.00     0.027 A 
ATOM     14  C   UNL A   1      39.411  34.411  32.285  1.00  0.00     0.080 A 
ATOM     15  C   UNL A   1      39.798  34.669  29.533  1.00  0.00     0.095 A 
ATOM     16  C   UNL A   1      40.787  34.609  31.751  1.00  0.00     0.255 A 
ATOM     17  N   UNL A   1      40.898  34.665  30.368  1.00  0.00    -0.258 N 
ATOM     18  O   UNL A   1      41.724  34.677  32.539  1.00  0.00    -0.269 OA
BRANCH  17  19
ATOM     19  C   UNL A   1      42.226  34.702  29.820  1.00  0.00     0.451 C 
ATOM     20  F   UNL A   1      42.499  33.580  29.109  1.00  0.00    -0.185 F 
ATOM     21  F   UNL A   1      42.392  35.770  29.003  1.00  0.00    -0.185 F 
ENDBRANCH  17  19
ENDBRANCH  10  12
ENDBRANCH   5   6
ENDBRANCH   3   5
ENDBRANCH   2   3
ENDBRANCH   1   2
BRANCH   1  22
ATOM     22  C   UNL A   1      34.576  34.501  28.717  1.00  0.00     0.275 C 
BRANCH  22  23
ATOM     23  O   UNL A   1      34.783  33.242  29.379  1.00  0.00    -0.458 OA
BRANCH  23  24
ATOM     24  C   UNL A   1      34.829  32.146  28.579  1.00  0.00     0.338 C 
ATOM     25  O   UNL A   1      34.148  31.941  27.590  1.00  0.00    -0.246 OA
BRANCH  24  26
ATOM     26  C   UNL A   1      36.023  31.353  28.958  1.00  0.00     0.060 A 
ATOM     27  C   UNL A   1      35.833  30.167  29.680  1.00  0.00     0.016 A 
ATOM     28  C   UNL A   1      37.302  31.712  28.517  1.00  0.00     0.016 A 
ATOM     29  C   UNL A   1      36.922  29.341  29.970  1.00  0.00     0.010 A 
ATOM     30  C   UNL A   1      38.390  30.892  28.815  1.00  0.00     0.010 A 
ATOM     31  C   UNL A   1      38.209  29.713  29.559  1.00  0.00    -0.014 A 
BRANCH  31  32
ATOM     32  C   UNL A   1      39.408  29.004  30.065  1.00  0.00     0.031 A 
ATOM     33  C   UNL A   1      40.127  29.600  31.241  1.00  0.00     0.074 A 
ATOM     34  C   UNL A   1      39.893  27.910  29.453  1.00  0.00     0.049 A 
ATOM     35  N   UNL A   1      41.268  29.263  31.780  1.00  0.00    -0.248 NA
ATOM     36  C   UNL A   1      39.471  30.753  31.875  1.00  0.00     0.031 C 
ATOM     37  C   UNL A   1      39.277  27.234  28.313  1.00  0.00     0.029 A 
ATOM     38  N   UNL A   1      41.042  27.197  29.689  1.00  0.00    -0.354 N 
ATOM     39  C   UNL A   1      41.473  30.166  32.816  1.00  0.00     0.074 A 
ATOM     40  C   UNL A   1      40.357  31.089  32.798  1.00  0.00     0.031 C 
ATOM     41  C   UNL A   1      40.078  26.226  27.923  1.00  0.00     0.029 A 
ATOM     42  C   UNL A   1      41.275  26.207  28.764  1.00  0.00     0.049 A 
ATOM     43  H   UNL A   1      41.642  27.377  30.449  1.00  0.00     0.167 HD
ATOM     44  C   UNL A   1      42.495  30.219  33.705  1.00  0.00     0.034 A 
ATOM     45  C   UNL A   1      42.349  25.409  28.592  1.00  0.00     0.034 A 
ATOM     46  C   UNL A   1      43.616  29.316  33.687  1.00  0.00     0.049 A 
ATOM     47  C   UNL A   1      43.519  25.529  29.541  1.00  0.00     0.074 A 
ATOM     48  C   UNL A   1      44.694  29.259  34.552  1.00  0.00     0.029 A 
ATOM     49  N   UNL A   1      43.818  28.324  32.736  1.00  0.00    -0.354 N 
ATOM     50  N   UNL A   1      43.686  26.360  30.545  1.00  0.00    -0.248 NA
ATOM     51  C   UNL A   1      44.641  24.602  29.337  1.00  0.00     0.031 C 
ATOM     52  C   UNL A   1      45.581  28.284  34.082  1.00  0.00     0.029 A 
ATOM     53  C   UNL A   1      45.022  27.678  32.969  1.00  0.00     0.049 A 
ATOM     54  H   UNL A   1      43.196  28.110  32.002  1.00  0.00     0.167 HD
ATOM     55  C   UNL A   1      44.919  26.035  31.109  1.00  0.00     0.074 A 
ATOM     56  C   UNL A   1      45.453  24.934  30.333  1.00  0.00     0.031 C 
ATOM     57  C   UNL A   1      45.545  26.587  32.179  1.00  0.00     0.034 A 
BRANCH  44  58
ATOM     58  C   UNL A   1      42.455  31.339  34.716  1.00  0.00     0.023 A 
ATOM     59  C   UNL A   1      41.492  31.372  35.740  1.00  0.00     0.031 A 
ATOM     60  C   UNL A   1      43.333  32.430  34.601  1.00  0.00     0.131 A 
ATOM     61  C   UNL A   1      41.361  32.517  36.539  1.00  0.00     0.055 A 
ATOM     62  C   UNL A   1      43.256  33.528  35.459  1.00  0.00     0.041 A 
ATOM     63  F   UNL A   1      44.257  32.466  33.626  1.00  0.00    -0.206 F 
ATOM     64  C   UNL A   1      42.252  33.587  36.421  1.00  0.00     0.022 A 
BRANCH  61  65
ATOM     65  S   UNL A   1      39.894  32.668  37.595  1.00  0.00     0.124 S 
ATOM     66  O   UNL A   1      39.027  31.627  37.049  1.00  0.00    -0.237 OA
ATOM     67  O   UNL A   1      40.438  32.417  38.925  1.00  0.00    -0.237 OA
ATOM     68  O   UNL A   1      39.438  34.035  37.354  1.00  0.00    -0.744 OA
ENDBRANCH  61  65
ENDBRANCH  44  58
BRANCH  45  69
ATOM     69  C   UNL A   1      42.401  24.466  27.440  1.00  0.00     0.023 A 
ATOM     70  C   UNL A   1      41.754  23.221  27.481  1.00  0.00     0.031 A 
ATOM     71  C   UNL A   1      43.136  24.790  26.285  1.00  0.00     0.131 A 
ATOM     72  C   UNL A   1      41.881  22.332  26.402  1.00  0.00     0.055 A 
ATOM     73  C   UNL A   1      43.224  23.922  25.196  1.00  0.00     0.041 A 
ATOM     74  F   UNL A   1      43.772  25.970  26.195  1.00  0.00    -0.206 F 
ATOM     75  C   UNL A   1      42.601  22.680  25.255  1.00  0.00     0.022 A 
BRANCH  72  76
ATOM     76  S   UNL A   1      41.135  20.684  26.536  1.00  0.00     0.124 S 
ATOM     77  O   UNL A   1      39.775  20.937  26.074  1.00  0.00    -0.237 OA
ATOM     78  O   UNL A   1      41.979  19.895  25.644  1.00  0.00    -0.237 OA
ATOM     79  O   UNL A   1      41.265  20.366  27.956  1.00  0.00    -0.744 OA
ENDBRANCH  72  76
ENDBRANCH  45  69
BRANCH  57  80
ATOM     80  C   UNL A   1      46.856  25.977  32.610  1.00  0.00     0.023 A 
ATOM     81  C   UNL A   1      46.919  24.923  33.538  1.00  0.00     0.031 A 
ATOM     82  C   UNL A   1      48.060  26.439  32.047  1.00  0.00     0.131 A 
ATOM     83  C   UNL A   1      48.165  24.384  33.896  1.00  0.00     0.055 A 
ATOM     84  C   UNL A   1      49.291  25.868  32.372  1.00  0.00     0.041 A 
ATOM     85  F   UNL A   1      48.055  27.442  31.154  1.00  0.00    -0.206 F 
ATOM     86  C   UNL A   1      49.348  24.839  33.307  1.00  0.00     0.022 A 
BRANCH  83  87
ATOM     87  S   UNL A   1      48.231  23.103  35.179  1.00  0.00     0.124 S 
ATOM     88  O   UNL A   1      46.817  22.906  35.484  1.00  0.00    -0.237 OA
ATOM     89  O   UNL A   1      48.894  22.000  34.489  1.00  0.00    -0.237 OA
ATOM     90  O   UNL A   1      49.015  23.724  36.246  1.00  0.00    -0.744 OA
ENDBRANCH  83  87
ENDBRANCH  57  80
ENDBRANCH  31  32
ENDBRANCH  24  26
ENDBRANCH  23  24
ENDBRANCH  22  23
ENDBRANCH   1  22
TORSDOF 17
ENDMDL
MODEL 2
REMARK VINA RESULT:      -9.9      6.082     10.150
REMARK SMILES O=C(Cc1cccc(-c2ccn(C(F)F)c(=O)c2)c1)OCCOC(=O)c1ccc(-c2c3nc(c(-c4cc(S(=O)(=O)[O-])ccc4F)c4ccc([nH]4)c(-c4cc(S(=O)(=O)[O-])ccc4F)c4nc(c(-c5cc(S(=O)(=O)[O-])ccc5F)c5ccc2[nH]5)C=C4)C=C3)cc1
REMARK SMILES IDX 21 1 20 2 2 3 1 4 3 5 4 6 5 7 19 8 6 9 8 10 7 11 9 12 10 13
REMARK SMILES IDX 18 14 11 15 16 16 12 17 17 18 13 19 14 20 15 21 22 22 23 23
REMARK SMILES IDX 24 24 25 25 26 26 27 27 88 28 28 29 87 30 29 31 30 32 31 33
REMARK SMILES IDX 81 34 32 35 86 36 80 37 82 38 33 39 85 40 79 41 78 42 34 44
REMARK SMILES IDX 66 45 46 46 65 47 47 48 50 49 64 50 83 51 48 52 49 53 63 55
REMARK SMILES IDX 84 56 51 57 35 58 36 59 44 60 37 61 43 62 45 63 42 64 38 65
REMARK SMILES IDX 39 66 40 67 41 68 67 69 68 70 76 71 69 72 75 73 77 74 74 75
REMARK SMILES IDX 70 76 71 77 72 78 73 79 52 80 53 81 61 82 54 83 60 84 62 85
REMARK SMILES IDX 59 86 55 87 56 88 57 89 58 90
REMARK H PARENT 82 43 50 54
REMARK Flexibility Score: inf
ROOT
ATOM      1  C   UNL A   1      35.102  22.088  25.140  1.00  0.00     0.274 C 
ENDROOT
BRANCH   1   2
ATOM      2  O   UNL A   1      35.379  22.913  23.989  1.00  0.00    -0.462 OA
BRANCH   2   3
ATOM      3  C   UNL A   1      34.546  23.844  23.465  1.00  0.00     0.310 C 
ATOM      4  O   UNL A   1      34.012  23.639  22.375  1.00  0.00    -0.252 OA
BRANCH   3   5
ATOM      5  C   UNL A   1      34.230  25.093  24.264  1.00  0.00     0.158 C 
BRANCH   5   6
ATOM      6  C   UNL A   1      32.769  25.300  24.551  1.00  0.00    -0.036 A 
ATOM      7  C   UNL A   1      32.103  24.515  25.499  1.00  0.00     0.004 A 
ATOM      8  C   UNL A   1      32.064  26.310  23.898  1.00  0.00     0.013 A 
ATOM      9  C   UNL A   1      30.742  24.707  25.744  1.00  0.00     0.001 A 
ATOM     10  C   UNL A   1      30.696  26.495  24.121  1.00  0.00    -0.018 A 
ATOM     11  C   UNL A   1      30.033  25.690  25.047  1.00  0.00     0.009 A 
BRANCH  10  12
ATOM     12  C   UNL A   1      30.041  27.538  23.321  1.00  0.00    -0.011 A 
ATOM     13  C   UNL A   1      30.815  28.494  22.554  1.00  0.00     0.027 A 
ATOM     14  C   UNL A   1      28.719  27.723  23.474  1.00  0.00     0.080 A 
ATOM     15  C   UNL A   1      30.245  29.612  22.098  1.00  0.00     0.095 A 
ATOM     16  C   UNL A   1      28.058  28.930  22.905  1.00  0.00     0.255 A 
ATOM     17  N   UNL A   1      28.898  29.849  22.291  1.00  0.00    -0.258 N 
ATOM     18  O   UNL A   1      26.845  29.057  23.035  1.00  0.00    -0.269 OA
BRANCH  17  19
ATOM     19  C   UNL A   1      28.312  31.091  21.869  1.00  0.00     0.451 C 
ATOM     20  F   UNL A   1      27.545  30.926  20.763  1.00  0.00    -0.185 F 
ATOM     21  F   UNL A   1      27.536  31.625  22.844  1.00  0.00    -0.185 F 
ENDBRANCH  17  19
ENDBRANCH  10  12
ENDBRANCH   5   6
ENDBRANCH   3   5
ENDBRANCH   2   3
ENDBRANCH   1   2
BRANCH   1  22
ATOM     22  C   UNL A   1      36.200  21.044  25.342  1.00  0.00     0.275 C 
BRANCH  22  23
ATOM     23  O   UNL A   1      37.476  21.622  25.017  1.00  0.00    -0.458 OA
BRANCH  23  24
ATOM     24  C   UNL A   1      38.541  21.153  25.716  1.00  0.00     0.338 C 
ATOM     25  O   UNL A   1      38.960  20.009  25.717  1.00  0.00    -0.246 OA
BRANCH  24  26
ATOM     26  C   UNL A   1      39.266  22.317  26.278  1.00  0.00     0.060 A 
ATOM     27  C   UNL A   1      38.814  23.604  25.954  1.00  0.00     0.016 A 
ATOM     28  C   UNL A   1      40.307  22.148  27.198  1.00  0.00     0.016 A 
ATOM     29  C   UNL A   1      39.407  24.723  26.542  1.00  0.00     0.010 A 
ATOM     30  C   UNL A   1      40.905  23.267  27.777  1.00  0.00     0.010 A 
ATOM     31  C   UNL A   1      40.471  24.560  27.438  1.00  0.00    -0.014 A 
BRANCH  31  32
ATOM     32  C   UNL A   1      41.285  25.718  27.878  1.00  0.00     0.031 A 
ATOM     33  C   UNL A   1      40.580  26.834  28.597  1.00  0.00     0.074 A 
ATOM     34  C   UNL A   1      42.591  25.819  27.579  1.00  0.00     0.049 A 
ATOM     35  N   UNL A   1      41.025  28.009  28.954  1.00  0.00    -0.248 NA
ATOM     36  C   UNL A   1      39.170  26.588  28.934  1.00  0.00     0.031 C 
ATOM     37  C   UNL A   1      43.385  24.799  26.897  1.00  0.00     0.029 A 
ATOM     38  N   UNL A   1      43.472  26.852  27.783  1.00  0.00    -0.354 N 
ATOM     39  C   UNL A   1      39.948  28.649  29.554  1.00  0.00     0.074 A 
ATOM     40  C   UNL A   1      38.820  27.745  29.472  1.00  0.00     0.031 C 
ATOM     41  C   UNL A   1      44.627  25.275  26.703  1.00  0.00     0.029 A 
ATOM     42  C   UNL A   1      44.706  26.643  27.217  1.00  0.00     0.049 A 
ATOM     43  H   UNL A   1      43.241  27.666  28.287  1.00  0.00     0.167 HD
ATOM     44  C   UNL A   1      39.903  29.877  30.126  1.00  0.00     0.034 A 
ATOM     45  C   UNL A   1      45.762  27.474  27.093  1.00  0.00     0.034 A 
ATOM     46  C   UNL A   1      41.024  30.780  30.168  1.00  0.00     0.049 A 
ATOM     47  C   UNL A   1      45.675  28.869  27.665  1.00  0.00     0.074 A 
ATOM     48  C   UNL A   1      41.101  32.036  30.743  1.00  0.00     0.029 A 
ATOM     49  N   UNL A   1      42.261  30.532  29.586  1.00  0.00    -0.354 N 
ATOM     50  N   UNL A   1      44.664  29.454  28.268  1.00  0.00    -0.248 NA
ATOM     51  C   UNL A   1      46.870  29.716  27.544  1.00  0.00     0.031 C 
ATOM     52  C   UNL A   1      42.358  32.575  30.446  1.00  0.00     0.029 A 
ATOM     53  C   UNL A   1      43.094  31.628  29.753  1.00  0.00     0.049 A 
ATOM     54  H   UNL A   1      42.510  29.700  29.122  1.00  0.00     0.167 HD
ATOM     55  C   UNL A   1      45.113  30.724  28.624  1.00  0.00     0.074 A 
ATOM     56  C   UNL A   1      46.484  30.823  28.166  1.00  0.00     0.031 C 
ATOM     57  C   UNL A   1      44.457  31.714  29.281  1.00  0.00     0.034 A 
BRANCH  44  58
ATOM     58  C   UNL A   1      38.571  30.316  30.684  1.00  0.00     0.023 A 
ATOM     59  C   UNL A   1      37.662  31.064  29.915  1.00  0.00     0.031 A 
ATOM     60  C   UNL A   1      38.246  30.062  32.027  1.00  0.00     0.131 A 
ATOM     61  C   UNL A   1      36.526  31.619  30.521  1.00  0.00     0.055 A 
ATOM     62  C   UNL A   1      37.067  30.541  32.601  1.00  0.00     0.041 A 
ATOM     63  F   UNL A   1      39.088  29.375  32.817  1.00  0.00    -0.206 F 
ATOM     64  C   UNL A   1      36.209  31.343  31.854  1.00  0.00     0.022 A 
BRANCH  61  65
ATOM     65  S   UNL A   1      35.577  32.860  29.600  1.00  0.00     0.124 S 
ATOM     66  O   UNL A   1      36.526  33.247  28.560  1.00  0.00    -0.237 OA
ATOM     67  O   UNL A   1      34.414  32.101  29.156  1.00  0.00    -0.237 OA
ATOM     68  O   UNL A   1      35.305  33.893  30.598  1.00  0.00    -0.744 OA
ENDBRANCH  61  65
ENDBRANCH  44  58
BRANCH  45  69
ATOM     69  C   UNL A   1      46.972  27.036  26.344  1.00  0.00     0.023 A 
ATOM     70  C   UNL A   1      48.039  26.390  26.987  1.00  0.00     0.031 A 
ATOM     71  C   UNL A   1      47.090  27.293  24.965  1.00  0.00     0.131 A 
ATOM     72  C   UNL A   1      49.192  26.051  26.259  1.00  0.00     0.055 A 
ATOM     73  C   UNL A   1      48.219  26.916  24.236  1.00  0.00     0.041 A 
ATOM     74  F   UNL A   1      46.096  27.907  24.303  1.00  0.00    -0.206 F 
ATOM     75  C   UNL A   1      49.283  26.299  24.887  1.00  0.00     0.022 A 
BRANCH  72  76
ATOM     76  S   UNL A   1      50.601  25.328  27.143  1.00  0.00     0.124 S 
ATOM     77  O   UNL A   1      51.036  26.449  27.970  1.00  0.00    -0.237 OA
ATOM     78  O   UNL A   1      49.978  24.213  27.848  1.00  0.00    -0.237 OA
ATOM     79  O   UNL A   1      51.518  24.950  26.070  1.00  0.00    -0.744 OA
ENDBRANCH  72  76
ENDBRANCH  45  69
BRANCH  57  80
ATOM     80  C   UNL A   1      45.227  32.973  29.594  1.00  0.00     0.023 A 
ATOM     81  C   UNL A   1      45.207  34.092  28.743  1.00  0.00     0.031 A 
ATOM     82  C   UNL A   1      45.963  33.061  30.790  1.00  0.00     0.131 A 
ATOM     83  C   UNL A   1      45.933  35.242  29.088  1.00  0.00     0.055 A 
ATOM     84  C   UNL A   1      46.645  34.225  31.150  1.00  0.00     0.041 A 
ATOM     85  F   UNL A   1      46.013  32.022  31.639  1.00  0.00    -0.206 F 
ATOM     86  C   UNL A   1      46.638  35.321  30.293  1.00  0.00     0.022 A 
BRANCH  83  87
ATOM     87  S   UNL A   1      45.985  36.630  27.921  1.00  0.00     0.124 S 
ATOM     88  O   UNL A   1      44.755  36.433  27.160  1.00  0.00    -0.237 OA
ATOM     89  O   UNL A   1      46.007  37.788  28.810  1.00  0.00    -0.237 OA
ATOM     90  O   UNL A   1      47.220  36.404  27.172  1.00  0.00    -0.744 OA
ENDBRANCH  83  87
ENDBRANCH  57  80
ENDBRANCH  31  32
ENDBRANCH  24  26
ENDBRANCH  23  24
ENDBRANCH  22  23
ENDBRANCH   1  22
TORSDOF 17
ENDMDL
MODEL 3
REMARK VINA RESULT:      -9.8      5.572     11.785
REMARK SMILES O=C(Cc1cccc(-c2ccn(C(F)F)c(=O)c2)c1)OCCOC(=O)c1ccc(-c2c3nc(c(-c4cc(S(=O)(=O)[O-])ccc4F)c4ccc([nH]4)c(-c4cc(S(=O)(=O)[O-])ccc4F)c4nc(c(-c5cc(S(=O)(=O)[O-])ccc5F)c5ccc2[nH]5)C=C4)C=C3)cc1
REMARK SMILES IDX 21 1 20 2 2 3 1 4 3 5 4 6 5 7 19 8 6 9 8 10 7 11 9 12 10 13
REMARK SMILES IDX 18 14 11 15 16 16 12 17 17 18 13 19 14 20 15 21 22 22 23 23
REMARK SMILES IDX 24 24 25 25 26 26 27 27 88 28 28 29 87 30 29 31 30 32 31 33
REMARK SMILES IDX 81 34 32 35 86 36 80 37 82 38 33 39 85 40 79 41 78 42 34 44
REMARK SMILES IDX 66 45 46 46 65 47 47 48 50 49 64 50 83 51 48 52 49 53 63 55
REMARK SMILES IDX 84 56 51 57 35 58 36 59 44 60 37 61 43 62 45 63 42 64 38 65
REMARK SMILES IDX 39 66 40 67 41 68 67 69 68 70 76 71 69 72 75 73 77 74 74 75
REMARK SMILES IDX 70 76 71 77 72 78 73 79 52 80 53 81 61 82 54 83 60 84 62 85
REMARK SMILES IDX 59 86 55 87 56 88 57 89 58 90
REMARK H PARENT 82 43 50 54
REMARK Flexibility Score: inf
ROOT
ATOM      1  C   UNL A   1      37.456  20.609  25.347  1.00  0.00     0.274 C 
ENDROOT
BRANCH   1   2
ATOM      2  O   UNL A   1      37.388  21.301  24.083  1.00  0.00    -0.462 OA
BRANCH   2   3
ATOM      3  C   UNL A   1      36.963  22.575  23.900  1.00  0.00     0.310 C 
ATOM      4  O   UNL A   1      36.648  22.955  22.773  1.00  0.00    -0.252 OA
BRANCH   3   5
ATOM      5  C   UNL A   1      36.814  23.487  25.101  1.00  0.00     0.158 C 
BRANCH   5   6
ATOM      6  C   UNL A   1      35.393  23.757  25.511  1.00  0.00    -0.036 A 
ATOM      7  C   UNL A   1      34.748  22.942  26.448  1.00  0.00     0.004 A 
ATOM      8  C   UNL A   1      34.710  24.853  24.987  1.00  0.00     0.013 A 
ATOM      9  C   UNL A   1      33.422  23.193  26.807  1.00  0.00     0.001 A 
ATOM     10  C   UNL A   1      33.375  25.099  25.325  1.00  0.00    -0.018 A 
ATOM     11  C   UNL A   1      32.729  24.267  26.239  1.00  0.00     0.009 A 
BRANCH  10  12
ATOM     12  C   UNL A   1      32.732  26.237  24.653  1.00  0.00    -0.011 A 
ATOM     13  C   UNL A   1      32.380  27.438  25.383  1.00  0.00     0.027 A 
ATOM     14  C   UNL A   1      32.288  26.068  23.397  1.00  0.00     0.080 A 
ATOM     15  C   UNL A   1      31.526  28.320  24.858  1.00  0.00     0.095 A 
ATOM     16  C   UNL A   1      31.395  27.082  22.772  1.00  0.00     0.255 A 
ATOM     17  N   UNL A   1      31.014  28.139  23.588  1.00  0.00    -0.258 N 
ATOM     18  O   UNL A   1      31.030  26.916  21.613  1.00  0.00    -0.269 OA
BRANCH  17  19
ATOM     19  C   UNL A   1      30.034  29.049  23.063  1.00  0.00     0.451 C 
ATOM     20  F   UNL A   1      30.460  29.628  21.914  1.00  0.00    -0.185 F 
ATOM     21  F   UNL A   1      28.863  28.417  22.808  1.00  0.00    -0.185 F 
ENDBRANCH  17  19
ENDBRANCH  10  12
ENDBRANCH   5   6
ENDBRANCH   3   5
ENDBRANCH   2   3
ENDBRANCH   1   2
BRANCH   1  22
ATOM     22  C   UNL A   1      38.803  19.905  25.513  1.00  0.00     0.275 C 
BRANCH  22  23
ATOM     23  O   UNL A   1      39.838  20.887  25.684  1.00  0.00    -0.458 OA
BRANCH  23  24
ATOM     24  C   UNL A   1      40.374  20.980  26.929  1.00  0.00     0.338 C 
ATOM     25  O   UNL A   1      40.759  20.057  27.623  1.00  0.00    -0.246 OA
BRANCH  24  26
ATOM     26  C   UNL A   1      40.652  22.412  27.199  1.00  0.00     0.060 A 
ATOM     27  C   UNL A   1      39.923  23.377  26.492  1.00  0.00     0.016 A 
ATOM     28  C   UNL A   1      41.537  22.800  28.211  1.00  0.00     0.016 A 
ATOM     29  C   UNL A   1      40.084  24.733  26.788  1.00  0.00     0.010 A 
ATOM     30  C   UNL A   1      41.704  24.154  28.501  1.00  0.00     0.010 A 
ATOM     31  C   UNL A   1      40.993  25.128  27.778  1.00  0.00    -0.014 A 
BRANCH  31  32
ATOM     32  C   UNL A   1      41.376  26.550  27.940  1.00  0.00     0.031 A 
ATOM     33  C   UNL A   1      42.777  26.943  27.565  1.00  0.00     0.074 A 
ATOM     34  C   UNL A   1      40.537  27.452  28.478  1.00  0.00     0.049 A 
ATOM     35  N   UNL A   1      43.402  28.076  27.744  1.00  0.00    -0.248 NA
ATOM     36  C   UNL A   1      43.584  25.897  26.921  1.00  0.00     0.031 C 
ATOM     37  C   UNL A   1      39.153  27.193  28.869  1.00  0.00     0.029 A 
ATOM     38  N   UNL A   1      40.745  28.765  28.821  1.00  0.00    -0.354 N 
ATOM     39  C   UNL A   1      44.682  27.879  27.239  1.00  0.00     0.074 A 
ATOM     40  C   UNL A   1      44.751  26.505  26.789  1.00  0.00     0.031 C 
ATOM     41  C   UNL A   1      38.648  28.302  29.437  1.00  0.00     0.029 A 
ATOM     42  C   UNL A   1      39.682  29.337  29.479  1.00  0.00     0.049 A 
ATOM     43  H   UNL A   1      41.577  29.250  28.617  1.00  0.00     0.167 HD
ATOM     44  C   UNL A   1      45.705  28.764  27.155  1.00  0.00     0.034 A 
ATOM     45  C   UNL A   1      39.573  30.540  30.079  1.00  0.00     0.034 A 
ATOM     46  C   UNL A   1      45.632  30.117  27.642  1.00  0.00     0.049 A 
ATOM     47  C   UNL A   1      40.747  31.491  30.048  1.00  0.00     0.074 A 
ATOM     48  C   UNL A   1      46.596  31.109  27.586  1.00  0.00     0.029 A 
ATOM     49  N   UNL A   1      44.538  30.664  28.300  1.00  0.00    -0.354 N 
ATOM     50  N   UNL A   1      41.942  31.311  29.533  1.00  0.00    -0.248 NA
ATOM     51  C   UNL A   1      40.557  32.806  30.676  1.00  0.00     0.031 C 
ATOM     52  C   UNL A   1      46.111  32.228  28.274  1.00  0.00     0.029 A 
ATOM     53  C   UNL A   1      44.817  31.963  28.692  1.00  0.00     0.049 A 
ATOM     54  H   UNL A   1      43.687  30.195  28.465  1.00  0.00     0.167 HD
ATOM     55  C   UNL A   1      42.635  32.502  29.748  1.00  0.00     0.074 A 
ATOM     56  C   UNL A   1      41.725  33.391  30.442  1.00  0.00     0.031 C 
ATOM     57  C   UNL A   1      43.902  32.834  29.393  1.00  0.00     0.034 A 
BRANCH  44  58
ATOM     58  C   UNL A   1      46.998  28.250  26.572  1.00  0.00     0.023 A 
ATOM     59  C   UNL A   1      47.257  28.308  25.191  1.00  0.00     0.031 A 
ATOM     60  C   UNL A   1      47.944  27.613  27.393  1.00  0.00     0.131 A 
ATOM     61  C   UNL A   1      48.376  27.650  24.662  1.00  0.00     0.055 A 
ATOM     62  C   UNL A   1      49.104  27.039  26.870  1.00  0.00     0.041 A 
ATOM     63  F   UNL A   1      47.739  27.505  28.716  1.00  0.00    -0.206 F 
ATOM     64  C   UNL A   1      49.315  27.036  25.494  1.00  0.00     0.022 A 
BRANCH  61  65
ATOM     65  S   UNL A   1      48.483  27.442  22.863  1.00  0.00     0.124 S 
ATOM     66  O   UNL A   1      48.392  25.991  22.726  1.00  0.00    -0.237 OA
ATOM     67  O   UNL A   1      47.333  28.204  22.389  1.00  0.00    -0.237 OA
ATOM     68  O   UNL A   1      49.789  28.008  22.529  1.00  0.00    -0.744 OA
ENDBRANCH  61  65
ENDBRANCH  44  58
BRANCH  45  69
ATOM     69  C   UNL A   1      38.329  30.896  30.817  1.00  0.00     0.023 A 
ATOM     70  C   UNL A   1      37.286  31.601  30.198  1.00  0.00     0.031 A 
ATOM     71  C   UNL A   1      38.183  30.558  32.175  1.00  0.00     0.131 A 
ATOM     72  C   UNL A   1      36.156  31.976  30.944  1.00  0.00     0.055 A 
ATOM     73  C   UNL A   1      37.041  30.894  32.902  1.00  0.00     0.041 A 
ATOM     74  F   UNL A   1      39.153  29.882  32.813  1.00  0.00    -0.206 F 
ATOM     75  C   UNL A   1      36.022  31.616  32.288  1.00  0.00     0.022 A 
BRANCH  72  76
ATOM     76  S   UNL A   1      34.881  32.991  30.148  1.00  0.00     0.124 S 
ATOM     77  O   UNL A   1      34.068  33.392  31.291  1.00  0.00    -0.237 OA
ATOM     78  O   UNL A   1      35.677  34.045  29.526  1.00  0.00    -0.237 OA
ATOM     79  O   UNL A   1      34.240  32.065  29.218  1.00  0.00    -0.744 OA
ENDBRANCH  72  76
ENDBRANCH  45  69
BRANCH  57  80
ATOM     80  C   UNL A   1      44.366  34.236  29.699  1.00  0.00     0.023 A 
ATOM     81  C   UNL A   1      44.002  35.335  28.901  1.00  0.00     0.031 A 
ATOM     82  C   UNL A   1      45.158  34.477  30.838  1.00  0.00     0.131 A 
ATOM     83  C   UNL A   1      44.453  36.621  29.238  1.00  0.00     0.055 A 
ATOM     84  C   UNL A   1      45.564  35.764  31.194  1.00  0.00     0.041 A 
ATOM     85  F   UNL A   1      45.531  33.463  31.635  1.00  0.00    -0.206 F 
ATOM     86  C   UNL A   1      45.216  36.843  30.388  1.00  0.00     0.022 A 
BRANCH  83  87
ATOM     87  S   UNL A   1      44.065  38.004  28.131  1.00  0.00     0.124 S 
ATOM     88  O   UNL A   1      43.674  37.314  26.907  1.00  0.00    -0.237 OA
ATOM     89  O   UNL A   1      42.993  38.690  28.847  1.00  0.00    -0.237 OA
ATOM     90  O   UNL A   1      45.324  38.744  28.050  1.00  0.00    -0.744 OA
ENDBRANCH  83  87
ENDBRANCH  57  80
ENDBRANCH  31  32
ENDBRANCH  24  26
ENDBRANCH  23  24
ENDBRANCH  22  23
ENDBRANCH   1  22
TORSDOF 17
ENDMDL
