MODEL 1
REMARK VINA RESULT:     -10.6      0.000      0.000
REMARK SMILES CC[C@@H]1CCCN1C(=O)N(CC(=O)OCCOC(=O)c1ccc(-c2c3nc(c(-c4cc(S(=O)(=O)[O-])ccc4F)c4ccc([nH]4)c(-c4cc(S(=O)(=O)[O-])ccc4F)c4nc(c(-c5cc(S(=O)(=O)[O-])ccc5F)c5ccc2[nH]5)C=C4)C=C3)cc1)CC(F)(F)F
REMARK SMILES IDX 15 1 14 2 12 3 13 4 11 5 10 6 8 7 9 8 7 9 3 10 4 11 5 12
REMARK SMILES IDX 6 13 2 14 1 15 83 16 84 17 85 18 86 19 87 20 16 21 17 22
REMARK SMILES IDX 18 23 19 24 20 25 21 26 82 27 22 28 81 29 23 30 24 31 25 32
REMARK SMILES IDX 75 33 26 34 80 35 74 36 76 37 27 38 79 39 73 40 72 41 28 43
REMARK SMILES IDX 60 44 40 45 59 46 41 47 44 48 58 49 77 50 42 51 43 52 57 54
REMARK SMILES IDX 78 55 45 56 29 57 30 58 38 59 31 60 37 61 39 62 36 63 32 64
REMARK SMILES IDX 33 65 34 66 35 67 61 68 62 69 70 70 63 71 69 72 71 73 68 74
REMARK SMILES IDX 64 75 65 76 66 77 67 78 46 79 47 80 55 81 48 82 54 83 56 84
REMARK SMILES IDX 53 85 49 86 50 87 51 88 52 89
REMARK H PARENT 76 42 44 53
REMARK Flexibility Score: inf
ROOT
ATOM      1  C   UNL A   1      31.718  29.902  24.941  1.00  0.00     0.274 C 
ENDROOT
BRANCH   1   2
ATOM      2  O   UNL A   1      32.975  29.236  24.726  1.00  0.00    -0.461 OA
BRANCH   2   3
ATOM      3  C   UNL A   1      33.194  28.762  23.475  1.00  0.00     0.325 C 
ATOM      4  O   UNL A   1      34.139  29.103  22.771  1.00  0.00    -0.250 OA
BRANCH   3   5
ATOM      5  C   UNL A   1      32.187  27.686  23.040  1.00  0.00     0.244 C 
BRANCH   5   6
ATOM      6  N   UNL A   1      32.473  26.329  23.459  1.00  0.00    -0.304 N 
BRANCH   6   7
ATOM      7  C   UNL A   1      33.307  25.426  22.871  1.00  0.00     0.321 C 
ATOM      8  O   UNL A   1      33.812  25.760  21.788  1.00  0.00    -0.248 OA
BRANCH   7   9
ATOM      9  N   UNL A   1      33.602  24.175  23.367  1.00  0.00    -0.322 N 
ATOM     10  C   UNL A   1      34.233  23.550  24.577  1.00  0.00     0.086 C 
ATOM     11  C   UNL A   1      34.262  22.049  24.215  1.00  0.00     0.027 C 
ATOM     12  C   UNL A   1      33.001  21.850  23.421  1.00  0.00     0.024 C 
ATOM     13  C   UNL A   1      32.956  23.108  22.586  1.00  0.00     0.122 C 
BRANCH  10  14
ATOM     14  C   UNL A   1      35.644  23.971  25.015  1.00  0.00     0.022 C 
ATOM     15  C   UNL A   1      36.808  23.260  24.324  1.00  0.00     0.006 C 
ENDBRANCH  10  14
ENDBRANCH   7   9
ENDBRANCH   6   7
BRANCH   6  16
ATOM     16  C   UNL A   1      31.825  25.914  24.744  1.00  0.00     0.237 C 
BRANCH  16  17
ATOM     17  C   UNL A   1      30.481  25.162  24.701  1.00  0.00     0.406 C 
ATOM     18  F   UNL A   1      30.567  23.876  25.103  1.00  0.00    -0.169 F 
ATOM     19  F   UNL A   1      29.600  25.757  25.550  1.00  0.00    -0.169 F 
ATOM     20  F   UNL A   1      29.905  25.169  23.479  1.00  0.00    -0.169 F 
ENDBRANCH  16  17
ENDBRANCH   6  16
ENDBRANCH   5   6
ENDBRANCH   3   5
ENDBRANCH   2   3
ENDBRANCH   1   2
BRANCH   1  21
ATOM     21  C   UNL A   1      31.703  30.704  26.248  1.00  0.00     0.275 C 
BRANCH  21  22
ATOM     22  O   UNL A   1      32.863  30.451  27.065  1.00  0.00    -0.458 OA
BRANCH  22  23
ATOM     23  C   UNL A   1      33.558  31.556  27.422  1.00  0.00     0.338 C 
ATOM     24  O   UNL A   1      33.129  32.693  27.530  1.00  0.00    -0.246 OA
BRANCH  23  25
ATOM     25  C   UNL A   1      34.923  31.198  27.832  1.00  0.00     0.060 A 
ATOM     26  C   UNL A   1      35.160  29.881  28.234  1.00  0.00     0.016 A 
ATOM     27  C   UNL A   1      35.908  32.171  27.987  1.00  0.00     0.016 A 
ATOM     28  C   UNL A   1      36.355  29.533  28.840  1.00  0.00     0.010 A 
ATOM     29  C   UNL A   1      37.132  31.810  28.562  1.00  0.00     0.010 A 
ATOM     30  C   UNL A   1      37.350  30.495  29.014  1.00  0.00    -0.014 A 
BRANCH  30  31
ATOM     31  C   UNL A   1      38.580  30.121  29.746  1.00  0.00     0.031 A 
ATOM     32  C   UNL A   1      39.554  29.176  29.109  1.00  0.00     0.074 A 
ATOM     33  C   UNL A   1      38.846  30.685  30.937  1.00  0.00     0.049 A 
ATOM     34  N   UNL A   1      40.605  28.599  29.626  1.00  0.00    -0.248 NA
ATOM     35  C   UNL A   1      39.307  28.836  27.699  1.00  0.00     0.031 C 
ATOM     36  C   UNL A   1      38.019  31.699  31.597  1.00  0.00     0.029 A 
ATOM     37  N   UNL A   1      39.892  30.495  31.802  1.00  0.00    -0.354 N 
ATOM     38  C   UNL A   1      41.125  27.792  28.620  1.00  0.00     0.074 A 
ATOM     39  C   UNL A   1      40.269  27.958  27.463  1.00  0.00     0.031 C 
ATOM     40  C   UNL A   1      38.594  32.046  32.759  1.00  0.00     0.029 A 
ATOM     41  C   UNL A   1      39.783  31.225  32.961  1.00  0.00     0.049 A 
ATOM     42  H   UNL A   1      40.647  29.893  31.611  1.00  0.00     0.167 HD
ATOM     43  C   UNL A   1      42.212  26.984  28.668  1.00  0.00     0.034 A 
ATOM     44  C   UNL A   1      40.529  31.194  34.082  1.00  0.00     0.034 A 
ATOM     45  C   UNL A   1      43.050  26.852  29.835  1.00  0.00     0.049 A 
ATOM     46  C   UNL A   1      41.683  30.230  34.146  1.00  0.00     0.074 A 
ATOM     47  C   UNL A   1      44.151  26.035  30.026  1.00  0.00     0.029 A 
ATOM     48  N   UNL A   1      42.879  27.566  31.015  1.00  0.00    -0.354 N 
ATOM     49  N   UNL A   1      42.106  29.390  33.229  1.00  0.00    -0.248 NA
ATOM     50  C   UNL A   1      42.446  30.198  35.398  1.00  0.00     0.031 C 
ATOM     51  C   UNL A   1      44.616  26.223  31.334  1.00  0.00     0.029 A 
ATOM     52  C   UNL A   1      43.841  27.199  31.943  1.00  0.00     0.049 A 
ATOM     53  H   UNL A   1      42.174  28.237  31.171  1.00  0.00     0.167 HD
ATOM     54  C   UNL A   1      43.193  28.732  33.793  1.00  0.00     0.074 A 
ATOM     55  C   UNL A   1      43.369  29.288  35.121  1.00  0.00     0.031 C 
ATOM     56  C   UNL A   1      43.977  27.758  33.265  1.00  0.00     0.034 A 
BRANCH  43  57
ATOM     57  C   UNL A   1      42.487  26.131  27.456  1.00  0.00     0.023 A 
ATOM     58  C   UNL A   1      42.013  24.813  27.349  1.00  0.00     0.031 A 
ATOM     59  C   UNL A   1      43.297  26.628  26.418  1.00  0.00     0.131 A 
ATOM     60  C   UNL A   1      42.411  24.012  26.266  1.00  0.00     0.055 A 
ATOM     61  C   UNL A   1      43.630  25.850  25.308  1.00  0.00     0.041 A 
ATOM     62  F   UNL A   1      43.799  27.871  26.480  1.00  0.00    -0.206 F 
ATOM     63  C   UNL A   1      43.199  24.530  25.234  1.00  0.00     0.022 A 
BRANCH  60  64
ATOM     64  S   UNL A   1      42.006  22.244  26.296  1.00  0.00     0.124 S 
ATOM     65  O   UNL A   1      42.750  21.751  25.141  1.00  0.00    -0.237 OA
ATOM     66  O   UNL A   1      42.504  21.830  27.603  1.00  0.00    -0.237 OA
ATOM     67  O   UNL A   1      40.552  22.223  26.147  1.00  0.00    -0.744 OA
ENDBRANCH  60  64
ENDBRANCH  43  57
BRANCH  44  68
ATOM     68  C   UNL A   1      40.156  32.031  35.255  1.00  0.00     0.023 A 
ATOM     69  C   UNL A   1      39.188  31.605  36.176  1.00  0.00     0.031 A 
ATOM     70  C   UNL A   1      40.757  33.286  35.459  1.00  0.00     0.131 A 
ATOM     71  C   UNL A   1      38.832  32.438  37.248  1.00  0.00     0.055 A 
ATOM     72  C   UNL A   1      40.431  34.092  36.550  1.00  0.00     0.041 A 
ATOM     73  F   UNL A   1      41.692  33.739  34.608  1.00  0.00    -0.206 F 
ATOM     74  C   UNL A   1      39.455  33.673  37.447  1.00  0.00     0.022 A 
BRANCH  71  75
ATOM     75  S   UNL A   1      37.495  31.909  38.354  1.00  0.00     0.124 S 
ATOM     76  O   UNL A   1      37.227  30.558  37.873  1.00  0.00    -0.237 OA
ATOM     77  O   UNL A   1      38.129  32.010  39.664  1.00  0.00    -0.237 OA
ATOM     78  O   UNL A   1      36.436  32.883  38.100  1.00  0.00    -0.744 OA
ENDBRANCH  71  75
ENDBRANCH  44  68
BRANCH  56  79
ATOM     79  C   UNL A   1      45.107  27.270  34.130  1.00  0.00     0.023 A 
ATOM     80  C   UNL A   1      44.946  26.179  35.000  1.00  0.00     0.031 A 
ATOM     81  C   UNL A   1      46.351  27.924  34.099  1.00  0.00     0.131 A 
ATOM     82  C   UNL A   1      46.001  25.802  35.844  1.00  0.00     0.055 A 
ATOM     83  C   UNL A   1      47.410  27.516  34.909  1.00  0.00     0.041 A 
ATOM     84  F   UNL A   1      46.550  28.972  33.285  1.00  0.00    -0.206 F 
ATOM     85  C   UNL A   1      47.235  26.457  35.796  1.00  0.00     0.022 A 
BRANCH  82  86
ATOM     86  S   UNL A   1      45.714  24.491  37.064  1.00  0.00     0.124 S 
ATOM     87  O   UNL A   1      44.731  25.108  37.949  1.00  0.00    -0.237 OA
ATOM     88  O   UNL A   1      45.226  23.394  36.235  1.00  0.00    -0.237 OA
ATOM     89  O   UNL A   1      47.034  24.279  37.656  1.00  0.00    -0.744 OA
ENDBRANCH  82  86
ENDBRANCH  56  79
ENDBRANCH  30  31
ENDBRANCH  23  25
ENDBRANCH  22  23
ENDBRANCH  21  22
ENDBRANCH   1  21
TORSDOF 20
ENDMDL
MODEL 2
REMARK VINA RESULT:     -10.6      5.055     10.054
REMARK SMILES CC[C@@H]1CCCN1C(=O)N(CC(=O)OCCOC(=O)c1ccc(-c2c3nc(c(-c4cc(S(=O)(=O)[O-])ccc4F)c4ccc([nH]4)c(-c4cc(S(=O)(=O)[O-])ccc4F)c4nc(c(-c5cc(S(=O)(=O)[O-])ccc5F)c5ccc2[nH]5)C=C4)C=C3)cc1)CC(F)(F)F
REMARK SMILES IDX 15 1 14 2 12 3 13 4 11 5 10 6 8 7 9 8 7 9 3 10 4 11 5 12
REMARK SMILES IDX 6 13 2 14 1 15 83 16 84 17 85 18 86 19 87 20 16 21 17 22
REMARK SMILES IDX 18 23 19 24 20 25 21 26 82 27 22 28 81 29 23 30 24 31 25 32
REMARK SMILES IDX 75 33 26 34 80 35 74 36 76 37 27 38 79 39 73 40 72 41 28 43
REMARK SMILES IDX 60 44 40 45 59 46 41 47 44 48 58 49 77 50 42 51 43 52 57 54
REMARK SMILES IDX 78 55 45 56 29 57 30 58 38 59 31 60 37 61 39 62 36 63 32 64
REMARK SMILES IDX 33 65 34 66 35 67 61 68 62 69 70 70 63 71 69 72 71 73 68 74
REMARK SMILES IDX 64 75 65 76 66 77 67 78 46 79 47 80 55 81 48 82 54 83 56 84
REMARK SMILES IDX 53 85 49 86 50 87 51 88 52 89
REMARK H PARENT 76 42 44 53
REMARK Flexibility Score: inf
ROOT
ATOM      1  C   UNL A   1      35.962  22.468  23.953  1.00  0.00     0.274 C 
ENDROOT
BRANCH   1   2
ATOM      2  O   UNL A   1      34.573  22.106  23.873  1.00  0.00    -0.461 OA
BRANCH   2   3
ATOM      3  C   UNL A   1      33.763  22.634  24.823  1.00  0.00     0.325 C 
ATOM      4  O   UNL A   1      33.876  22.404  26.023  1.00  0.00    -0.250 OA
BRANCH   3   5
ATOM      5  C   UNL A   1      32.728  23.625  24.268  1.00  0.00     0.244 C 
BRANCH   5   6
ATOM      6  N   UNL A   1      33.203  24.966  23.992  1.00  0.00    -0.304 N 
BRANCH   6   7
ATOM      7  C   UNL A   1      33.368  25.996  24.868  1.00  0.00     0.321 C 
ATOM      8  O   UNL A   1      34.215  25.835  25.760  1.00  0.00    -0.248 OA
BRANCH   7   9
ATOM      9  N   UNL A   1      32.652  27.173  24.856  1.00  0.00    -0.322 N 
ATOM     10  C   UNL A   1      31.246  27.653  25.068  1.00  0.00     0.086 C 
ATOM     11  C   UNL A   1      31.335  29.153  24.714  1.00  0.00     0.027 C 
ATOM     12  C   UNL A   1      32.704  29.551  25.192  1.00  0.00     0.024 C 
ATOM     13  C   UNL A   1      33.533  28.351  24.799  1.00  0.00     0.122 C 
BRANCH  10  14
ATOM     14  C   UNL A   1      30.090  27.032  24.268  1.00  0.00     0.022 C 
ATOM     15  C   UNL A   1      29.502  27.893  23.151  1.00  0.00     0.006 C 
ENDBRANCH  10  14
ENDBRANCH   7   9
ENDBRANCH   6   7
BRANCH   6  16
ATOM     16  C   UNL A   1      33.635  25.205  22.578  1.00  0.00     0.237 C 
BRANCH  16  17
ATOM     17  C   UNL A   1      32.652  25.861  21.590  1.00  0.00     0.406 C 
ATOM     18  F   UNL A   1      32.905  25.564  20.298  1.00  0.00    -0.169 F 
ATOM     19  F   UNL A   1      31.393  25.410  21.835  1.00  0.00    -0.169 F 
ATOM     20  F   UNL A   1      32.608  27.207  21.697  1.00  0.00    -0.169 F 
ENDBRANCH  16  17
ENDBRANCH   6  16
ENDBRANCH   5   6
ENDBRANCH   3   5
ENDBRANCH   2   3
ENDBRANCH   1   2
BRANCH   1  21
ATOM     21  C   UNL A   1      36.834  21.310  24.456  1.00  0.00     0.275 C 
BRANCH  21  22
ATOM     22  O   UNL A   1      37.314  21.522  25.799  1.00  0.00    -0.458 OA
BRANCH  22  23
ATOM     23  C   UNL A   1      38.648  21.363  25.957  1.00  0.00     0.338 C 
ATOM     24  O   UNL A   1      39.339  20.458  25.518  1.00  0.00    -0.246 OA
BRANCH  23  25
ATOM     25  C   UNL A   1      39.233  22.535  26.623  1.00  0.00     0.060 A 
ATOM     26  C   UNL A   1      38.771  23.798  26.248  1.00  0.00     0.016 A 
ATOM     27  C   UNL A   1      40.333  22.409  27.470  1.00  0.00     0.016 A 
ATOM     28  C   UNL A   1      39.428  24.943  26.666  1.00  0.00     0.010 A 
ATOM     29  C   UNL A   1      40.972  23.566  27.927  1.00  0.00     0.010 A 
ATOM     30  C   UNL A   1      40.537  24.837  27.506  1.00  0.00    -0.014 A 
BRANCH  30  31
ATOM     31  C   UNL A   1      41.277  26.067  27.863  1.00  0.00     0.031 A 
ATOM     32  C   UNL A   1      40.596  27.119  28.688  1.00  0.00     0.074 A 
ATOM     33  C   UNL A   1      42.568  26.198  27.510  1.00  0.00     0.049 A 
ATOM     34  N   UNL A   1      40.997  28.326  28.984  1.00  0.00    -0.248 NA
ATOM     35  C   UNL A   1      39.287  26.757  29.255  1.00  0.00     0.031 C 
ATOM     36  C   UNL A   1      43.357  25.188  26.800  1.00  0.00     0.029 A 
ATOM     37  N   UNL A   1      43.447  27.230  27.706  1.00  0.00    -0.354 N 
ATOM     38  C   UNL A   1      39.972  28.889  29.736  1.00  0.00     0.074 A 
ATOM     39  C   UNL A   1      38.932  27.886  29.849  1.00  0.00     0.031 C 
ATOM     40  C   UNL A   1      44.606  25.648  26.629  1.00  0.00     0.029 A 
ATOM     41  C   UNL A   1      44.682  27.011  27.143  1.00  0.00     0.049 A 
ATOM     42  H   UNL A   1      43.217  28.049  28.202  1.00  0.00     0.167 HD
ATOM     43  C   UNL A   1      39.908  30.133  30.272  1.00  0.00     0.034 A 
ATOM     44  C   UNL A   1      45.736  27.839  27.010  1.00  0.00     0.034 A 
ATOM     45  C   UNL A   1      40.968  31.103  30.150  1.00  0.00     0.049 A 
ATOM     46  C   UNL A   1      45.615  29.241  27.540  1.00  0.00     0.074 A 
ATOM     47  C   UNL A   1      41.008  32.409  30.607  1.00  0.00     0.029 A 
ATOM     48  N   UNL A   1      42.186  30.867  29.523  1.00  0.00    -0.354 N 
ATOM     49  N   UNL A   1      44.601  29.804  28.157  1.00  0.00    -0.248 NA
ATOM     50  C   UNL A   1      46.769  30.124  27.340  1.00  0.00     0.031 C 
ATOM     51  C   UNL A   1      42.229  32.974  30.218  1.00  0.00     0.029 A 
ATOM     52  C   UNL A   1      42.977  32.005  29.567  1.00  0.00     0.049 A 
ATOM     53  H   UNL A   1      42.450  30.014  29.106  1.00  0.00     0.167 HD
ATOM     54  C   UNL A   1      45.000  31.109  28.427  1.00  0.00     0.074 A 
ATOM     55  C   UNL A   1      46.353  31.240  27.921  1.00  0.00     0.031 C 
ATOM     56  C   UNL A   1      44.314  32.108  29.036  1.00  0.00     0.034 A 
BRANCH  43  57
ATOM     57  C   UNL A   1      38.621  30.520  30.953  1.00  0.00     0.023 A 
ATOM     58  C   UNL A   1      37.564  31.131  30.258  1.00  0.00     0.031 A 
ATOM     59  C   UNL A   1      38.478  30.335  32.340  1.00  0.00     0.131 A 
ATOM     60  C   UNL A   1      36.442  31.600  30.961  1.00  0.00     0.055 A 
ATOM     61  C   UNL A   1      37.329  30.738  33.023  1.00  0.00     0.041 A 
ATOM     62  F   UNL A   1      39.466  29.780  33.060  1.00  0.00    -0.206 F 
ATOM     63  C   UNL A   1      36.309  31.389  32.336  1.00  0.00     0.022 A 
BRANCH  60  64
ATOM     64  S   UNL A   1      35.227  32.620  30.080  1.00  0.00     0.124 S 
ATOM     65  O   UNL A   1      36.053  33.733  29.622  1.00  0.00    -0.237 OA
ATOM     66  O   UNL A   1      34.746  31.712  29.045  1.00  0.00    -0.237 OA
ATOM     67  O   UNL A   1      34.252  32.961  31.113  1.00  0.00    -0.744 OA
ENDBRANCH  60  64
ENDBRANCH  43  57
BRANCH  44  68
ATOM     68  C   UNL A   1      46.951  27.392  26.275  1.00  0.00     0.023 A 
ATOM     69  C   UNL A   1      47.146  27.718  24.925  1.00  0.00     0.031 A 
ATOM     70  C   UNL A   1      47.932  26.614  26.918  1.00  0.00     0.131 A 
ATOM     71  C   UNL A   1      48.284  27.246  24.253  1.00  0.00     0.055 A 
ATOM     72  C   UNL A   1      49.083  26.184  26.256  1.00  0.00     0.041 A 
ATOM     73  F   UNL A   1      47.793  26.279  28.210  1.00  0.00    -0.206 F 
ATOM     74  C   UNL A   1      49.259  26.492  24.912  1.00  0.00     0.022 A 
BRANCH  71  75
ATOM     75  S   UNL A   1      48.449  27.586  22.478  1.00  0.00     0.124 S 
ATOM     76  O   UNL A   1      49.684  28.362  22.436  1.00  0.00    -0.237 OA
ATOM     77  O   UNL A   1      48.518  26.240  21.918  1.00  0.00    -0.237 OA
ATOM     78  O   UNL A   1      47.233  28.330  22.159  1.00  0.00    -0.744 OA
ENDBRANCH  71  75
ENDBRANCH  44  68
BRANCH  56  79
ATOM     79  C   UNL A   1      45.047  33.412  29.206  1.00  0.00     0.023 A 
ATOM     80  C   UNL A   1      45.013  34.407  28.216  1.00  0.00     0.031 A 
ATOM     81  C   UNL A   1      45.808  33.645  30.365  1.00  0.00     0.131 A 
ATOM     82  C   UNL A   1      45.770  35.576  28.380  1.00  0.00     0.055 A 
ATOM     83  C   UNL A   1      46.523  34.829  30.541  1.00  0.00     0.041 A 
ATOM     84  F   UNL A   1      45.872  32.722  31.337  1.00  0.00    -0.206 F 
ATOM     85  C   UNL A   1      46.516  35.798  29.541  1.00  0.00     0.022 A 
BRANCH  82  86
ATOM     86  S   UNL A   1      45.829  36.773  27.019  1.00  0.00     0.124 S 
ATOM     87  O   UNL A   1      46.240  35.937  25.895  1.00  0.00    -0.237 OA
ATOM     88  O   UNL A   1      44.456  37.267  26.977  1.00  0.00    -0.237 OA
ATOM     89  O   UNL A   1      46.824  37.748  27.462  1.00  0.00    -0.744 OA
ENDBRANCH  82  86
ENDBRANCH  56  79
ENDBRANCH  30  31
ENDBRANCH  23  25
ENDBRANCH  22  23
ENDBRANCH  21  22
ENDBRANCH   1  21
TORSDOF 20
ENDMDL
MODEL 3
REMARK VINA RESULT:     -10.5      4.923      9.790
REMARK SMILES CC[C@@H]1CCCN1C(=O)N(CC(=O)OCCOC(=O)c1ccc(-c2c3nc(c(-c4cc(S(=O)(=O)[O-])ccc4F)c4ccc([nH]4)c(-c4cc(S(=O)(=O)[O-])ccc4F)c4nc(c(-c5cc(S(=O)(=O)[O-])ccc5F)c5ccc2[nH]5)C=C4)C=C3)cc1)CC(F)(F)F
REMARK SMILES IDX 15 1 14 2 12 3 13 4 11 5 10 6 8 7 9 8 7 9 3 10 4 11 5 12
REMARK SMILES IDX 6 13 2 14 1 15 83 16 84 17 85 18 86 19 87 20 16 21 17 22
REMARK SMILES IDX 18 23 19 24 20 25 21 26 82 27 22 28 81 29 23 30 24 31 25 32
REMARK SMILES IDX 75 33 26 34 80 35 74 36 76 37 27 38 79 39 73 40 72 41 28 43
REMARK SMILES IDX 60 44 40 45 59 46 41 47 44 48 58 49 77 50 42 51 43 52 57 54
REMARK SMILES IDX 78 55 45 56 29 57 30 58 38 59 31 60 37 61 39 62 36 63 32 64
REMARK SMILES IDX 33 65 34 66 35 67 61 68 62 69 70 70 63 71 69 72 71 73 68 74
REMARK SMILES IDX 64 75 65 76 66 77 67 78 46 79 47 80 55 81 48 82 54 83 56 84
REMARK SMILES IDX 53 85 49 86 50 87 51 88 52 89
REMARK H PARENT 76 42 44 53
REMARK Flexibility Score: inf
ROOT
ATOM      1  C   UNL A   1      35.571  21.466  26.091  1.00  0.00     0.274 C 
ENDROOT
BRANCH   1   2
ATOM      2  O   UNL A   1      34.206  21.421  25.638  1.00  0.00    -0.461 OA
BRANCH   2   3
ATOM      3  C   UNL A   1      33.278  21.914  26.493  1.00  0.00     0.325 C 
ATOM      4  O   UNL A   1      33.364  21.837  27.715  1.00  0.00    -0.250 OA
BRANCH   3   5
ATOM      5  C   UNL A   1      32.132  22.662  25.794  1.00  0.00     0.244 C 
BRANCH   5   6
ATOM      6  N   UNL A   1      32.146  24.107  25.899  1.00  0.00    -0.304 N 
BRANCH   6   7
ATOM      7  C   UNL A   1      31.082  24.952  25.994  1.00  0.00     0.321 C 
ATOM      8  O   UNL A   1      30.176  24.620  26.773  1.00  0.00    -0.248 OA
BRANCH   7   9
ATOM      9  N   UNL A   1      30.926  26.118  25.276  1.00  0.00    -0.322 N 
ATOM     10  C   UNL A   1      31.534  27.487  25.180  1.00  0.00     0.086 C 
ATOM     11  C   UNL A   1      30.617  28.203  24.167  1.00  0.00     0.027 C 
ATOM     12  C   UNL A   1      30.231  27.115  23.203  1.00  0.00     0.024 C 
ATOM     13  C   UNL A   1      30.020  25.939  24.130  1.00  0.00     0.122 C 
BRANCH  10  14
ATOM     14  C   UNL A   1      31.655  28.367  26.434  1.00  0.00     0.022 C 
ATOM     15  C   UNL A   1      32.976  28.279  27.197  1.00  0.00     0.006 C 
ENDBRANCH  10  14
ENDBRANCH   7   9
ENDBRANCH   6   7
BRANCH   6  16
ATOM     16  C   UNL A   1      33.509  24.721  25.994  1.00  0.00     0.237 C 
BRANCH  16  17
ATOM     17  C   UNL A   1      34.299  25.003  24.703  1.00  0.00     0.406 C 
ATOM     18  F   UNL A   1      33.692  24.547  23.586  1.00  0.00    -0.169 F 
ATOM     19  F   UNL A   1      34.427  26.346  24.533  1.00  0.00    -0.169 F 
ATOM     20  F   UNL A   1      35.551  24.496  24.722  1.00  0.00    -0.169 F 
ENDBRANCH  16  17
ENDBRANCH   6  16
ENDBRANCH   5   6
ENDBRANCH   3   5
ENDBRANCH   2   3
ENDBRANCH   1   2
BRANCH   1  21
ATOM     21  C   UNL A   1      36.557  21.025  25.002  1.00  0.00     0.275 C 
BRANCH  21  22
ATOM     22  O   UNL A   1      37.742  21.844  24.965  1.00  0.00    -0.458 OA
BRANCH  22  23
ATOM     23  C   UNL A   1      38.737  21.442  25.791  1.00  0.00     0.338 C 
ATOM     24  O   UNL A   1      39.210  20.321  25.882  1.00  0.00    -0.246 OA
BRANCH  23  25
ATOM     25  C   UNL A   1      39.317  22.592  26.497  1.00  0.00     0.060 A 
ATOM     26  C   UNL A   1      38.861  23.867  26.157  1.00  0.00     0.016 A 
ATOM     27  C   UNL A   1      40.409  22.438  27.349  1.00  0.00     0.016 A 
ATOM     28  C   UNL A   1      39.516  24.997  26.616  1.00  0.00     0.010 A 
ATOM     29  C   UNL A   1      41.047  23.580  27.847  1.00  0.00     0.010 A 
ATOM     30  C   UNL A   1      40.618  24.863  27.462  1.00  0.00    -0.014 A 
BRANCH  30  31
ATOM     31  C   UNL A   1      41.356  26.081  27.863  1.00  0.00     0.031 A 
ATOM     32  C   UNL A   1      40.665  27.114  28.703  1.00  0.00     0.074 A 
ATOM     33  C   UNL A   1      42.653  26.215  27.535  1.00  0.00     0.049 A 
ATOM     34  N   UNL A   1      41.066  28.311  29.036  1.00  0.00    -0.248 NA
ATOM     35  C   UNL A   1      39.345  26.744  29.237  1.00  0.00     0.031 C 
ATOM     36  C   UNL A   1      43.450  25.219  26.814  1.00  0.00     0.029 A 
ATOM     37  N   UNL A   1      43.534  27.237  27.773  1.00  0.00    -0.354 N 
ATOM     38  C   UNL A   1      40.030  28.860  29.784  1.00  0.00     0.074 A 
ATOM     39  C   UNL A   1      38.985  27.859  29.854  1.00  0.00     0.031 C 
ATOM     40  C   UNL A   1      44.704  25.677  26.676  1.00  0.00     0.029 A 
ATOM     41  C   UNL A   1      44.777  27.026  27.226  1.00  0.00     0.049 A 
ATOM     42  H   UNL A   1      43.298  28.044  28.286  1.00  0.00     0.167 HD
ATOM     43  C   UNL A   1      39.963  30.090  30.350  1.00  0.00     0.034 A 
ATOM     44  C   UNL A   1      45.837  27.852  27.133  1.00  0.00     0.034 A 
ATOM     45  C   UNL A   1      41.028  31.059  30.271  1.00  0.00     0.049 A 
ATOM     46  C   UNL A   1      45.712  29.242  27.696  1.00  0.00     0.074 A 
ATOM     47  C   UNL A   1      41.066  32.352  30.762  1.00  0.00     0.029 A 
ATOM     48  N   UNL A   1      42.257  30.833  29.660  1.00  0.00    -0.354 N 
ATOM     49  N   UNL A   1      44.690  29.794  28.310  1.00  0.00    -0.248 NA
ATOM     50  C   UNL A   1      46.874  30.123  27.539  1.00  0.00     0.031 C 
ATOM     51  C   UNL A   1      42.296  32.921  30.409  1.00  0.00     0.029 A 
ATOM     52  C   UNL A   1      43.051  31.965  29.747  1.00  0.00     0.049 A 
ATOM     53  H   UNL A   1      42.524  29.990  29.226  1.00  0.00     0.167 HD
ATOM     54  C   UNL A   1      45.090  31.089  28.619  1.00  0.00     0.074 A 
ATOM     55  C   UNL A   1      46.452  31.226  28.140  1.00  0.00     0.031 C 
ATOM     56  C   UNL A   1      44.398  32.076  29.241  1.00  0.00     0.034 A 
BRANCH  43  57
ATOM     57  C   UNL A   1      38.665  30.466  31.019  1.00  0.00     0.023 A 
ATOM     58  C   UNL A   1      37.623  31.100  30.321  1.00  0.00     0.031 A 
ATOM     59  C   UNL A   1      38.497  30.246  32.398  1.00  0.00     0.131 A 
ATOM     60  C   UNL A   1      36.492  31.556  31.016  1.00  0.00     0.055 A 
ATOM     61  C   UNL A   1      37.338  30.637  33.071  1.00  0.00     0.041 A 
ATOM     62  F   UNL A   1      39.470  29.668  33.121  1.00  0.00    -0.206 F 
ATOM     63  C   UNL A   1      36.334  31.310  32.383  1.00  0.00     0.022 A 
BRANCH  60  64
ATOM     64  S   UNL A   1      35.297  32.603  30.141  1.00  0.00     0.124 S 
ATOM     65  O   UNL A   1      36.127  33.741  29.756  1.00  0.00    -0.237 OA
ATOM     66  O   UNL A   1      34.856  31.736  29.054  1.00  0.00    -0.237 OA
ATOM     67  O   UNL A   1      34.286  32.893  31.156  1.00  0.00    -0.744 OA
ENDBRANCH  60  64
ENDBRANCH  43  57
BRANCH  44  68
ATOM     68  C   UNL A   1      47.063  27.419  26.408  1.00  0.00     0.023 A 
ATOM     69  C   UNL A   1      47.237  27.693  25.043  1.00  0.00     0.031 A 
ATOM     70  C   UNL A   1      48.075  26.705  27.075  1.00  0.00     0.131 A 
ATOM     71  C   UNL A   1      48.387  27.235  24.383  1.00  0.00     0.055 A 
ATOM     72  C   UNL A   1      49.236  26.289  26.423  1.00  0.00     0.041 A 
ATOM     73  F   UNL A   1      47.957  26.420  28.382  1.00  0.00    -0.206 F 
ATOM     74  C   UNL A   1      49.393  26.545  25.066  1.00  0.00     0.022 A 
BRANCH  71  75
ATOM     75  S   UNL A   1      48.529  27.504  22.594  1.00  0.00     0.124 S 
ATOM     76  O   UNL A   1      47.348  28.316  22.320  1.00  0.00    -0.237 OA
ATOM     77  O   UNL A   1      49.814  28.186  22.493  1.00  0.00    -0.237 OA
ATOM     78  O   UNL A   1      48.498  26.152  22.043  1.00  0.00    -0.744 OA
ENDBRANCH  71  75
ENDBRANCH  44  68
BRANCH  56  79
ATOM     79  C   UNL A   1      45.133  33.371  29.458  1.00  0.00     0.023 A 
ATOM     80  C   UNL A   1      45.889  33.599  30.619  1.00  0.00     0.031 A 
ATOM     81  C   UNL A   1      45.051  34.396  28.499  1.00  0.00     0.131 A 
ATOM     82  C   UNL A   1      46.497  34.848  30.817  1.00  0.00     0.055 A 
ATOM     83  C   UNL A   1      45.694  35.619  28.682  1.00  0.00     0.041 A 
ATOM     84  F   UNL A   1      44.338  34.223  27.375  1.00  0.00    -0.206 F 
ATOM     85  C   UNL A   1      46.413  35.855  29.851  1.00  0.00     0.022 A 
BRANCH  82  86
ATOM     86  S   UNL A   1      47.337  35.167  32.393  1.00  0.00     0.124 S 
ATOM     87  O   UNL A   1      47.810  33.836  32.760  1.00  0.00    -0.237 OA
ATOM     88  O   UNL A   1      48.367  36.126  32.009  1.00  0.00    -0.237 OA
ATOM     89  O   UNL A   1      46.277  35.705  33.244  1.00  0.00    -0.744 OA
ENDBRANCH  82  86
ENDBRANCH  56  79
ENDBRANCH  30  31
ENDBRANCH  23  25
ENDBRANCH  22  23
ENDBRANCH  21  22
ENDBRANCH   1  21
TORSDOF 20
ENDMDL
