MODEL 1
REMARK VINA RESULT:     -12.9      0.000      0.000
REMARK SMILES CC1=C(C)C[C@H](C(=O)OCCOC(=O)c2ccc(-c3c4nc(c(-c5cc(S(=O)(=O)[O-])ccc5F)c5ccc([nH]5)c(-c5cc(S(=O)(=O)[O-])ccc5F)c5nc(c(-c6cc(S(=O)(=O)[O-])ccc6F)c6ccc3[nH]6)C=C5)C=C4)cc2)[C@@H](C(=O)Nc2nc(-c3ccc(C)cc3)c(C)s2)C1
REMARK SMILES IDX 10 1 9 2 7 3 8 4 6 5 1 6 2 7 3 8 95 9 4 10 5 11 78 12 79 13
REMARK SMILES IDX 80 14 81 15 82 17 83 18 94 19 84 20 92 21 93 22 85 23 86 24
REMARK SMILES IDX 91 25 87 26 90 27 88 28 89 29 11 30 12 31 13 32 14 33 15 34
REMARK SMILES IDX 16 35 77 36 17 37 76 38 18 39 19 40 20 41 70 42 21 43 75 44
REMARK SMILES IDX 69 45 71 46 22 47 74 48 68 49 67 50 23 52 55 53 35 54 54 55
REMARK SMILES IDX 36 56 39 57 53 58 72 59 37 60 38 61 52 63 73 64 40 65 24 66
REMARK SMILES IDX 25 67 33 68 26 69 32 70 34 71 31 72 27 73 28 74 29 75 30 76
REMARK SMILES IDX 56 77 57 78 65 79 58 80 64 81 66 82 63 83 59 84 60 85 61 86
REMARK SMILES IDX 62 87 41 88 42 89 50 90 43 91 49 92 51 93 48 94 44 95 45 96
REMARK SMILES IDX 46 97 47 98
REMARK H PARENT 81 16 71 51 39 62
REMARK Flexibility Score: inf
ROOT
ATOM      1  C   UNL A   1      36.488  22.642  23.540  1.00  0.00     0.274 C 
ENDROOT
BRANCH   1   2
ATOM      2  O   UNL A   1      35.062  22.710  23.359  1.00  0.00    -0.462 OA
BRANCH   2   3
ATOM      3  C   UNL A   1      34.366  23.444  24.274  1.00  0.00     0.310 C 
ATOM      4  O   UNL A   1      34.835  24.377  24.912  1.00  0.00    -0.252 OA
BRANCH   3   5
ATOM      5  C   UNL A   1      32.900  23.039  24.285  1.00  0.00     0.116 C 
ATOM      6  C   UNL A   1      32.879  18.810  25.566  1.00  0.00     0.039 C 
ATOM      7  C   UNL A   1      32.797  20.209  25.013  1.00  0.00    -0.074 C 
ATOM      8  C   UNL A   1      32.563  20.526  23.725  1.00  0.00    -0.073 C 
ATOM      9  C   UNL A   1      33.010  21.278  26.045  1.00  0.00     0.045 C 
ATOM     10  C   UNL A   1      32.268  19.517  22.649  1.00  0.00     0.039 C 
ATOM     11  C   UNL A   1      32.542  21.963  23.246  1.00  0.00     0.046 C 
ATOM     12  C   UNL A   1      32.425  22.656  25.720  1.00  0.00     0.097 C 
BRANCH  12  13
ATOM     13  C   UNL A   1      30.902  22.912  25.820  1.00  0.00     0.230 C 
ATOM     14  O   UNL A   1      30.188  22.062  26.378  1.00  0.00    -0.274 OA
ATOM     15  N   UNL A   1      30.209  23.941  25.272  1.00  0.00    -0.302 N 
ATOM     16  H   UNL A   1      29.247  23.790  25.125  1.00  0.00     0.172 HD
BRANCH  15  17
ATOM     17  C   UNL A   1      30.691  25.154  24.904  1.00  0.00     0.190 A 
ATOM     18  N   UNL A   1      31.173  26.015  25.762  1.00  0.00    -0.220 NA
ATOM     19  S   UNL A   1      30.492  25.718  23.311  1.00  0.00    -0.101 S 
ATOM     20  C   UNL A   1      31.736  27.072  25.068  1.00  0.00     0.086 A 
ATOM     21  C   UNL A   1      31.608  26.988  23.687  1.00  0.00     0.031 A 
ATOM     22  C   UNL A   1      32.276  27.746  22.597  1.00  0.00     0.059 C 
BRANCH  20  23
ATOM     23  C   UNL A   1      32.502  28.085  25.784  1.00  0.00     0.001 A 
ATOM     24  C   UNL A   1      31.930  29.340  26.030  1.00  0.00     0.010 A 
ATOM     25  C   UNL A   1      33.810  27.844  26.216  1.00  0.00     0.010 A 
ATOM     26  C   UNL A   1      32.634  30.317  26.740  1.00  0.00     0.004 A 
ATOM     27  C   UNL A   1      34.514  28.818  26.929  1.00  0.00     0.004 A 
ATOM     28  C   UNL A   1      33.925  30.055  27.212  1.00  0.00    -0.051 A 
ATOM     29  C   UNL A   1      34.672  31.105  27.979  1.00  0.00     0.044 C 
ENDBRANCH  20  23
ENDBRANCH  15  17
ENDBRANCH  12  13
ENDBRANCH   3   5
ENDBRANCH   2   3
ENDBRANCH   1   2
BRANCH   1  30
ATOM     30  C   UNL A   1      36.860  21.436  24.405  1.00  0.00     0.275 C 
BRANCH  30  31
ATOM     31  O   UNL A   1      37.302  21.850  25.711  1.00  0.00    -0.458 OA
BRANCH  31  32
ATOM     32  C   UNL A   1      38.580  21.525  26.015  1.00  0.00     0.338 C 
ATOM     33  O   UNL A   1      39.142  20.462  25.793  1.00  0.00    -0.246 OA
BRANCH  32  34
ATOM     34  C   UNL A   1      39.271  22.701  26.564  1.00  0.00     0.060 A 
ATOM     35  C   UNL A   1      38.854  23.962  26.138  1.00  0.00     0.016 A 
ATOM     36  C   UNL A   1      40.379  22.574  27.401  1.00  0.00     0.016 A 
ATOM     37  C   UNL A   1      39.541  25.105  26.528  1.00  0.00     0.010 A 
ATOM     38  C   UNL A   1      41.067  23.726  27.805  1.00  0.00     0.010 A 
ATOM     39  C   UNL A   1      40.662  24.998  27.358  1.00  0.00    -0.014 A 
BRANCH  39  40
ATOM     40  C   UNL A   1      41.460  26.213  27.662  1.00  0.00     0.031 A 
ATOM     41  C   UNL A   1      40.890  27.258  28.579  1.00  0.00     0.074 A 
ATOM     42  C   UNL A   1      42.709  26.350  27.177  1.00  0.00     0.049 A 
ATOM     43  N   UNL A   1      41.356  28.441  28.883  1.00  0.00    -0.248 NA
ATOM     44  C   UNL A   1      39.619  26.922  29.236  1.00  0.00     0.031 C 
ATOM     45  C   UNL A   1      43.408  25.361  26.355  1.00  0.00     0.029 A 
ATOM     46  N   UNL A   1      43.614  27.372  27.314  1.00  0.00    -0.354 N 
ATOM     47  C   UNL A   1      40.422  29.006  29.745  1.00  0.00     0.074 A 
ATOM     48  C   UNL A   1      39.354  28.039  29.895  1.00  0.00     0.031 C 
ATOM     49  C   UNL A   1      44.640  25.819  26.075  1.00  0.00     0.029 A 
ATOM     50  C   UNL A   1      44.792  27.158  26.637  1.00  0.00     0.049 A 
ATOM     51  H   UNL A   1      43.438  28.181  27.846  1.00  0.00     0.167 HD
ATOM     52  C   UNL A   1      40.455  30.220  30.352  1.00  0.00     0.034 A 
ATOM     53  C   UNL A   1      45.857  27.966  26.460  1.00  0.00     0.034 A 
ATOM     54  C   UNL A   1      41.535  31.165  30.198  1.00  0.00     0.049 A 
ATOM     55  C   UNL A   1      45.832  29.346  27.069  1.00  0.00     0.074 A 
ATOM     56  C   UNL A   1      41.661  32.432  30.741  1.00  0.00     0.029 A 
ATOM     57  N   UNL A   1      42.684  30.941  29.448  1.00  0.00    -0.354 N 
ATOM     58  N   UNL A   1      44.905  29.907  27.811  1.00  0.00    -0.248 NA
ATOM     59  C   UNL A   1      46.993  30.205  26.804  1.00  0.00     0.031 C 
ATOM     60  C   UNL A   1      42.856  32.994  30.276  1.00  0.00     0.029 A 
ATOM     61  C   UNL A   1      43.511  32.054  29.497  1.00  0.00     0.049 A 
ATOM     62  H   UNL A   1      42.882  30.114  28.954  1.00  0.00     0.167 HD
ATOM     63  C   UNL A   1      45.383  31.177  28.119  1.00  0.00     0.074 A 
ATOM     64  C   UNL A   1      46.683  31.295  27.493  1.00  0.00     0.031 C 
ATOM     65  C   UNL A   1      44.800  32.159  28.853  1.00  0.00     0.034 A 
BRANCH  52  66
ATOM     66  C   UNL A   1      39.248  30.608  31.171  1.00  0.00     0.023 A 
ATOM     67  C   UNL A   1      38.258  31.478  30.678  1.00  0.00     0.031 A 
ATOM     68  C   UNL A   1      39.117  30.147  32.493  1.00  0.00     0.131 A 
ATOM     69  C   UNL A   1      37.231  31.921  31.525  1.00  0.00     0.055 A 
ATOM     70  C   UNL A   1      38.048  30.529  33.305  1.00  0.00     0.041 A 
ATOM     71  F   UNL A   1      40.041  29.333  33.028  1.00  0.00    -0.206 F 
ATOM     72  C   UNL A   1      37.106  31.435  32.828  1.00  0.00     0.022 A 
BRANCH  69  73
ATOM     73  S   UNL A   1      36.151  33.262  30.953  1.00  0.00     0.124 S 
ATOM     74  O   UNL A   1      34.834  32.633  31.030  1.00  0.00    -0.237 OA
ATOM     75  O   UNL A   1      36.416  34.316  31.924  1.00  0.00    -0.237 OA
ATOM     76  O   UNL A   1      36.626  33.528  29.596  1.00  0.00    -0.744 OA
ENDBRANCH  69  73
ENDBRANCH  52  66
BRANCH  53  77
ATOM     77  C   UNL A   1      47.010  27.527  25.624  1.00  0.00     0.023 A 
ATOM     78  C   UNL A   1      47.122  27.915  24.280  1.00  0.00     0.031 A 
ATOM     79  C   UNL A   1      47.993  26.668  26.148  1.00  0.00     0.131 A 
ATOM     80  C   UNL A   1      48.173  27.417  23.494  1.00  0.00     0.055 A 
ATOM     81  C   UNL A   1      49.064  26.216  25.377  1.00  0.00     0.041 A 
ATOM     82  F   UNL A   1      47.930  26.263  27.426  1.00  0.00    -0.206 F 
ATOM     83  C   UNL A   1      49.152  26.582  24.037  1.00  0.00     0.022 A 
BRANCH  80  84
ATOM     84  S   UNL A   1      48.208  27.822  21.726  1.00  0.00     0.124 S 
ATOM     85  O   UNL A   1      46.892  28.421  21.532  1.00  0.00    -0.237 OA
ATOM     86  O   UNL A   1      49.346  28.733  21.646  1.00  0.00    -0.237 OA
ATOM     87  O   UNL A   1      48.406  26.525  21.083  1.00  0.00    -0.744 OA
ENDBRANCH  80  84
ENDBRANCH  53  77
BRANCH  65  88
ATOM     88  C   UNL A   1      45.597  33.424  29.051  1.00  0.00     0.023 A 
ATOM     89  C   UNL A   1      45.428  34.543  28.217  1.00  0.00     0.031 A 
ATOM     90  C   UNL A   1      46.556  33.498  30.076  1.00  0.00     0.131 A 
ATOM     91  C   UNL A   1      46.244  35.672  28.391  1.00  0.00     0.055 A 
ATOM     92  C   UNL A   1      47.330  34.642  30.276  1.00  0.00     0.041 A 
ATOM     93  F   UNL A   1      46.759  32.457  30.899  1.00  0.00    -0.206 F 
ATOM     94  C   UNL A   1      47.184  35.733  29.424  1.00  0.00     0.022 A 
BRANCH  91  95
ATOM     95  S   UNL A   1      46.122  37.031  27.196  1.00  0.00     0.124 S 
ATOM     96  O   UNL A   1      46.514  38.182  28.001  1.00  0.00    -0.237 OA
ATOM     97  O   UNL A   1      47.068  36.623  26.162  1.00  0.00    -0.237 OA
ATOM     98  O   UNL A   1      44.717  37.007  26.790  1.00  0.00    -0.744 OA
ENDBRANCH  91  95
ENDBRANCH  65  88
ENDBRANCH  39  40
ENDBRANCH  32  34
ENDBRANCH  31  32
ENDBRANCH  30  31
ENDBRANCH   1  30
TORSDOF 17
ENDMDL
MODEL 2
REMARK VINA RESULT:     -12.6      1.230      7.405
REMARK SMILES CC1=C(C)C[C@H](C(=O)OCCOC(=O)c2ccc(-c3c4nc(c(-c5cc(S(=O)(=O)[O-])ccc5F)c5ccc([nH]5)c(-c5cc(S(=O)(=O)[O-])ccc5F)c5nc(c(-c6cc(S(=O)(=O)[O-])ccc6F)c6ccc3[nH]6)C=C5)C=C4)cc2)[C@@H](C(=O)Nc2nc(-c3ccc(C)cc3)c(C)s2)C1
REMARK SMILES IDX 10 1 9 2 7 3 8 4 6 5 1 6 2 7 3 8 95 9 4 10 5 11 78 12 79 13
REMARK SMILES IDX 80 14 81 15 82 17 83 18 94 19 84 20 92 21 93 22 85 23 86 24
REMARK SMILES IDX 91 25 87 26 90 27 88 28 89 29 11 30 12 31 13 32 14 33 15 34
REMARK SMILES IDX 16 35 77 36 17 37 76 38 18 39 19 40 20 41 70 42 21 43 75 44
REMARK SMILES IDX 69 45 71 46 22 47 74 48 68 49 67 50 23 52 55 53 35 54 54 55
REMARK SMILES IDX 36 56 39 57 53 58 72 59 37 60 38 61 52 63 73 64 40 65 24 66
REMARK SMILES IDX 25 67 33 68 26 69 32 70 34 71 31 72 27 73 28 74 29 75 30 76
REMARK SMILES IDX 56 77 57 78 65 79 58 80 64 81 66 82 63 83 59 84 60 85 61 86
REMARK SMILES IDX 62 87 41 88 42 89 50 90 43 91 49 92 51 93 48 94 44 95 45 96
REMARK SMILES IDX 46 97 47 98
REMARK H PARENT 81 16 71 51 39 62
REMARK Flexibility Score: inf
ROOT
ATOM      1  C   UNL A   1      36.715  22.492  23.710  1.00  0.00     0.274 C 
ENDROOT
BRANCH   1   2
ATOM      2  O   UNL A   1      35.284  22.359  23.636  1.00  0.00    -0.462 OA
BRANCH   2   3
ATOM      3  C   UNL A   1      34.551  23.258  24.352  1.00  0.00     0.310 C 
ATOM      4  O   UNL A   1      35.007  24.272  24.863  1.00  0.00    -0.252 OA
BRANCH   3   5
ATOM      5  C   UNL A   1      33.071  22.906  24.304  1.00  0.00     0.116 C 
ATOM      6  C   UNL A   1      32.819  18.770  25.841  1.00  0.00     0.039 C 
ATOM      7  C   UNL A   1      32.821  20.133  25.199  1.00  0.00    -0.074 C 
ATOM      8  C   UNL A   1      32.671  20.375  23.882  1.00  0.00    -0.073 C 
ATOM      9  C   UNL A   1      33.017  21.258  26.173  1.00  0.00     0.045 C 
ATOM     10  C   UNL A   1      32.398  19.309  22.856  1.00  0.00     0.039 C 
ATOM     11  C   UNL A   1      32.731  21.778  23.315  1.00  0.00     0.046 C 
ATOM     12  C   UNL A   1      32.504  22.632  25.730  1.00  0.00     0.097 C 
BRANCH  12  13
ATOM     13  C   UNL A   1      30.988  22.946  25.726  1.00  0.00     0.230 C 
ATOM     14  O   UNL A   1      30.207  22.132  26.246  1.00  0.00    -0.274 OA
ATOM     15  N   UNL A   1      30.373  23.992  25.121  1.00  0.00    -0.302 N 
ATOM     16  H   UNL A   1      29.417  23.874  24.913  1.00  0.00     0.172 HD
BRANCH  15  17
ATOM     17  C   UNL A   1      30.923  25.181  24.771  1.00  0.00     0.190 A 
ATOM     18  N   UNL A   1      31.175  26.128  25.636  1.00  0.00    -0.220 NA
ATOM     19  S   UNL A   1      31.120  25.595  23.132  1.00  0.00    -0.101 S 
ATOM     20  C   UNL A   1      31.885  27.134  25.006  1.00  0.00     0.086 A 
ATOM     21  C   UNL A   1      32.102  26.924  23.650  1.00  0.00     0.031 A 
ATOM     22  C   UNL A   1      33.014  27.601  22.690  1.00  0.00     0.059 C 
BRANCH  20  23
ATOM     23  C   UNL A   1      32.446  28.228  25.790  1.00  0.00     0.001 A 
ATOM     24  C   UNL A   1      33.581  28.003  26.579  1.00  0.00     0.010 A 
ATOM     25  C   UNL A   1      31.864  29.500  25.792  1.00  0.00     0.010 A 
ATOM     26  C   UNL A   1      34.154  29.043  27.316  1.00  0.00     0.004 A 
ATOM     27  C   UNL A   1      32.437  30.542  26.526  1.00  0.00     0.004 A 
ATOM     28  C   UNL A   1      33.596  30.326  27.279  1.00  0.00    -0.051 A 
ATOM     29  C   UNL A   1      34.219  31.440  28.066  1.00  0.00     0.044 C 
ENDBRANCH  20  23
ENDBRANCH  15  17
ENDBRANCH  12  13
ENDBRANCH   3   5
ENDBRANCH   2   3
ENDBRANCH   1   2
BRANCH   1  30
ATOM     30  C   UNL A   1      37.314  21.365  24.554  1.00  0.00     0.275 C 
BRANCH  30  31
ATOM     31  O   UNL A   1      37.703  21.843  25.856  1.00  0.00    -0.458 OA
BRANCH  31  32
ATOM     32  C   UNL A   1      39.001  21.634  26.180  1.00  0.00     0.338 C 
ATOM     33  O   UNL A   1      39.648  20.611  26.008  1.00  0.00    -0.246 OA
BRANCH  32  34
ATOM     34  C   UNL A   1      39.591  22.885  26.680  1.00  0.00     0.060 A 
ATOM     35  C   UNL A   1      39.046  24.089  26.234  1.00  0.00     0.016 A 
ATOM     36  C   UNL A   1      40.728  22.885  27.488  1.00  0.00     0.016 A 
ATOM     37  C   UNL A   1      39.631  25.302  26.576  1.00  0.00     0.010 A 
ATOM     38  C   UNL A   1      41.314  24.108  27.843  1.00  0.00     0.010 A 
ATOM     39  C   UNL A   1      40.778  25.324  27.376  1.00  0.00    -0.014 A 
BRANCH  39  40
ATOM     40  C   UNL A   1      41.466  26.616  27.626  1.00  0.00     0.031 A 
ATOM     41  C   UNL A   1      42.825  26.853  27.030  1.00  0.00     0.074 A 
ATOM     42  C   UNL A   1      40.855  27.592  28.324  1.00  0.00     0.049 A 
ATOM     43  N   UNL A   1      43.652  27.849  27.217  1.00  0.00    -0.248 NA
ATOM     44  C   UNL A   1      43.316  25.825  26.102  1.00  0.00     0.031 C 
ATOM     45  C   UNL A   1      39.500  27.517  28.872  1.00  0.00     0.029 A 
ATOM     46  N   UNL A   1      41.293  28.842  28.683  1.00  0.00    -0.354 N 
ATOM     47  C   UNL A   1      44.777  27.554  26.453  1.00  0.00     0.074 A 
ATOM     48  C   UNL A   1      44.528  26.276  25.819  1.00  0.00     0.031 C 
ATOM     49  C   UNL A   1      39.211  28.678  29.483  1.00  0.00     0.029 A 
ATOM     50  C   UNL A   1      40.381  29.551  29.430  1.00  0.00     0.049 A 
ATOM     51  H   UNL A   1      42.175  29.198  28.428  1.00  0.00     0.167 HD
ATOM     52  C   UNL A   1      45.910  28.285  26.297  1.00  0.00     0.034 A 
ATOM     53  C   UNL A   1      40.492  30.750  30.035  1.00  0.00     0.034 A 
ATOM     54  C   UNL A   1      46.134  29.564  26.929  1.00  0.00     0.049 A 
ATOM     55  C   UNL A   1      41.794  31.503  29.924  1.00  0.00     0.074 A 
ATOM     56  C   UNL A   1      47.252  30.377  26.866  1.00  0.00     0.029 A 
ATOM     57  N   UNL A   1      45.213  30.221  27.737  1.00  0.00    -0.354 N 
ATOM     58  N   UNL A   1      42.886  31.177  29.272  1.00  0.00    -0.248 NA
ATOM     59  C   UNL A   1      41.881  32.781  30.643  1.00  0.00     0.031 C 
ATOM     60  C   UNL A   1      47.029  31.496  27.678  1.00  0.00     0.029 A 
ATOM     61  C   UNL A   1      45.746  31.417  28.195  1.00  0.00     0.049 A 
ATOM     62  H   UNL A   1      44.313  29.886  27.953  1.00  0.00     0.167 HD
ATOM     63  C   UNL A   1      43.782  32.221  29.486  1.00  0.00     0.074 A 
ATOM     64  C   UNL A   1      43.099  33.191  30.316  1.00  0.00     0.031 C 
ATOM     65  C   UNL A   1      45.054  32.366  29.035  1.00  0.00     0.034 A 
BRANCH  52  66
ATOM     66  C   UNL A   1      47.013  27.670  25.471  1.00  0.00     0.023 A 
ATOM     67  C   UNL A   1      47.265  28.069  24.145  1.00  0.00     0.031 A 
ATOM     68  C   UNL A   1      47.788  26.621  25.999  1.00  0.00     0.131 A 
ATOM     69  C   UNL A   1      48.206  27.372  23.371  1.00  0.00     0.055 A 
ATOM     70  C   UNL A   1      48.778  25.985  25.248  1.00  0.00     0.041 A 
ATOM     71  F   UNL A   1      47.579  26.181  27.250  1.00  0.00    -0.206 F 
ATOM     72  C   UNL A   1      48.980  26.347  23.921  1.00  0.00     0.022 A 
BRANCH  69  73
ATOM     73  S   UNL A   1      48.292  27.716  21.592  1.00  0.00     0.124 S 
ATOM     74  O   UNL A   1      46.935  28.179  21.315  1.00  0.00    -0.237 OA
ATOM     75  O   UNL A   1      49.341  28.725  21.517  1.00  0.00    -0.237 OA
ATOM     76  O   UNL A   1      48.631  26.419  21.009  1.00  0.00    -0.744 OA
ENDBRANCH  69  73
ENDBRANCH  52  66
BRANCH  53  77
ATOM     77  C   UNL A   1      39.370  31.292  30.852  1.00  0.00     0.023 A 
ATOM     78  C   UNL A   1      39.400  31.240  32.254  1.00  0.00     0.031 A 
ATOM     79  C   UNL A   1      38.224  31.828  30.236  1.00  0.00     0.131 A 
ATOM     80  C   UNL A   1      38.292  31.681  32.995  1.00  0.00     0.055 A 
ATOM     81  C   UNL A   1      37.145  32.312  30.977  1.00  0.00     0.041 A 
ATOM     82  F   UNL A   1      38.142  31.897  28.898  1.00  0.00    -0.206 F 
ATOM     83  C   UNL A   1      37.171  32.229  32.366  1.00  0.00     0.022 A 
BRANCH  80  84
ATOM     84  S   UNL A   1      38.305  31.467  34.795  1.00  0.00     0.124 S 
ATOM     85  O   UNL A   1      37.098  32.185  35.190  1.00  0.00    -0.237 OA
ATOM     86  O   UNL A   1      38.260  30.014  34.929  1.00  0.00    -0.237 OA
ATOM     87  O   UNL A   1      39.563  32.088  35.204  1.00  0.00    -0.744 OA
ENDBRANCH  80  84
ENDBRANCH  53  77
BRANCH  65  88
ATOM     88  C   UNL A   1      45.763  33.647  29.401  1.00  0.00     0.023 A 
ATOM     89  C   UNL A   1      45.697  34.788  28.583  1.00  0.00     0.031 A 
ATOM     90  C   UNL A   1      46.533  33.714  30.574  1.00  0.00     0.131 A 
ATOM     91  C   UNL A   1      46.432  35.934  28.924  1.00  0.00     0.055 A 
ATOM     92  C   UNL A   1      47.222  34.874  30.935  1.00  0.00     0.041 A 
ATOM     93  F   UNL A   1      46.631  32.652  31.390  1.00  0.00    -0.206 F 
ATOM     94  C   UNL A   1      47.183  35.988  30.102  1.00  0.00     0.022 A 
BRANCH  91  95
ATOM     95  S   UNL A   1      46.464  37.328  27.764  1.00  0.00     0.124 S 
ATOM     96  O   UNL A   1      47.550  36.952  26.864  1.00  0.00    -0.237 OA
ATOM     97  O   UNL A   1      45.121  37.291  27.193  1.00  0.00    -0.237 OA
ATOM     98  O   UNL A   1      46.740  38.481  28.619  1.00  0.00    -0.744 OA
ENDBRANCH  91  95
ENDBRANCH  65  88
ENDBRANCH  39  40
ENDBRANCH  32  34
ENDBRANCH  31  32
ENDBRANCH  30  31
ENDBRANCH   1  30
TORSDOF 17
ENDMDL
MODEL 3
REMARK VINA RESULT:     -12.4      1.755      2.502
REMARK SMILES CC1=C(C)C[C@H](C(=O)OCCOC(=O)c2ccc(-c3c4nc(c(-c5cc(S(=O)(=O)[O-])ccc5F)c5ccc([nH]5)c(-c5cc(S(=O)(=O)[O-])ccc5F)c5nc(c(-c6cc(S(=O)(=O)[O-])ccc6F)c6ccc3[nH]6)C=C5)C=C4)cc2)[C@@H](C(=O)Nc2nc(-c3ccc(C)cc3)c(C)s2)C1
REMARK SMILES IDX 10 1 9 2 7 3 8 4 6 5 1 6 2 7 3 8 95 9 4 10 5 11 78 12 79 13
REMARK SMILES IDX 80 14 81 15 82 17 83 18 94 19 84 20 92 21 93 22 85 23 86 24
REMARK SMILES IDX 91 25 87 26 90 27 88 28 89 29 11 30 12 31 13 32 14 33 15 34
REMARK SMILES IDX 16 35 77 36 17 37 76 38 18 39 19 40 20 41 70 42 21 43 75 44
REMARK SMILES IDX 69 45 71 46 22 47 74 48 68 49 67 50 23 52 55 53 35 54 54 55
REMARK SMILES IDX 36 56 39 57 53 58 72 59 37 60 38 61 52 63 73 64 40 65 24 66
REMARK SMILES IDX 25 67 33 68 26 69 32 70 34 71 31 72 27 73 28 74 29 75 30 76
REMARK SMILES IDX 56 77 57 78 65 79 58 80 64 81 66 82 63 83 59 84 60 85 61 86
REMARK SMILES IDX 62 87 41 88 42 89 50 90 43 91 49 92 51 93 48 94 44 95 45 96
REMARK SMILES IDX 46 97 47 98
REMARK H PARENT 81 16 71 51 39 62
REMARK Flexibility Score: inf
ROOT
ATOM      1  C   UNL A   1      36.195  22.942  23.706  1.00  0.00     0.274 C 
ENDROOT
BRANCH   1   2
ATOM      2  O   UNL A   1      34.928  22.545  23.152  1.00  0.00    -0.462 OA
BRANCH   2   3
ATOM      3  C   UNL A   1      33.961  23.505  23.096  1.00  0.00     0.310 C 
ATOM      4  O   UNL A   1      34.133  24.634  22.656  1.00  0.00    -0.252 OA
BRANCH   3   5
ATOM      5  C   UNL A   1      32.613  22.937  23.515  1.00  0.00     0.116 C 
ATOM      6  C   UNL A   1      33.526  18.997  25.297  1.00  0.00     0.039 C 
ATOM      7  C   UNL A   1      33.110  20.269  24.606  1.00  0.00    -0.074 C 
ATOM      8  C   UNL A   1      32.549  20.344  23.383  1.00  0.00    -0.073 C 
ATOM      9  C   UNL A   1      33.381  21.508  25.408  1.00  0.00     0.045 C 
ATOM     10  C   UNL A   1      32.180  19.147  22.551  1.00  0.00     0.039 C 
ATOM     11  C   UNL A   1      32.202  21.672  22.743  1.00  0.00     0.046 C 
ATOM     12  C   UNL A   1      32.535  22.737  25.060  1.00  0.00     0.097 C 
BRANCH  12  13
ATOM     13  C   UNL A   1      31.052  22.823  25.493  1.00  0.00     0.230 C 
ATOM     14  O   UNL A   1      30.523  21.829  26.018  1.00  0.00    -0.274 OA
ATOM     15  N   UNL A   1      30.197  23.855  25.280  1.00  0.00    -0.302 N 
ATOM     16  H   UNL A   1      29.237  23.636  25.296  1.00  0.00     0.172 HD
BRANCH  15  17
ATOM     17  C   UNL A   1      30.516  25.153  25.049  1.00  0.00     0.190 A 
ATOM     18  N   UNL A   1      29.972  25.855  24.090  1.00  0.00    -0.220 NA
ATOM     19  S   UNL A   1      31.816  25.885  25.867  1.00  0.00    -0.101 S 
ATOM     20  C   UNL A   1      30.370  27.175  24.219  1.00  0.00     0.086 A 
ATOM     21  C   UNL A   1      31.256  27.409  25.263  1.00  0.00     0.031 A 
ATOM     22  C   UNL A   1      31.708  28.677  25.894  1.00  0.00     0.059 C 
BRANCH  20  23
ATOM     23  C   UNL A   1      29.764  28.201  23.381  1.00  0.00     0.001 A 
ATOM     24  C   UNL A   1      30.583  29.063  22.641  1.00  0.00     0.010 A 
ATOM     25  C   UNL A   1      28.376  28.365  23.311  1.00  0.00     0.010 A 
ATOM     26  C   UNL A   1      30.025  30.037  21.808  1.00  0.00     0.004 A 
ATOM     27  C   UNL A   1      27.816  29.335  22.476  1.00  0.00     0.004 A 
ATOM     28  C   UNL A   1      28.635  30.167  21.704  1.00  0.00    -0.051 A 
ATOM     29  C   UNL A   1      28.042  31.208  20.804  1.00  0.00     0.044 C 
ENDBRANCH  20  23
ENDBRANCH  15  17
ENDBRANCH  12  13
ENDBRANCH   3   5
ENDBRANCH   2   3
ENDBRANCH   1   2
BRANCH   1  30
ATOM     30  C   UNL A   1      36.943  21.724  24.254  1.00  0.00     0.275 C 
BRANCH  30  31
ATOM     31  O   UNL A   1      37.278  21.902  25.643  1.00  0.00    -0.458 OA
BRANCH  31  32
ATOM     32  C   UNL A   1      38.545  21.564  25.977  1.00  0.00     0.338 C 
ATOM     33  O   UNL A   1      39.104  20.499  25.763  1.00  0.00    -0.246 OA
BRANCH  32  34
ATOM     34  C   UNL A   1      39.232  22.732  26.549  1.00  0.00     0.060 A 
ATOM     35  C   UNL A   1      38.794  24.000  26.167  1.00  0.00     0.016 A 
ATOM     36  C   UNL A   1      40.355  22.593  27.364  1.00  0.00     0.016 A 
ATOM     37  C   UNL A   1      39.475  25.139  26.579  1.00  0.00     0.010 A 
ATOM     38  C   UNL A   1      41.036  23.741  27.791  1.00  0.00     0.010 A 
ATOM     39  C   UNL A   1      40.610  25.021  27.388  1.00  0.00    -0.014 A 
BRANCH  39  40
ATOM     40  C   UNL A   1      41.400  26.235  27.714  1.00  0.00     0.031 A 
ATOM     41  C   UNL A   1      40.786  27.303  28.576  1.00  0.00     0.074 A 
ATOM     42  C   UNL A   1      42.676  26.353  27.300  1.00  0.00     0.049 A 
ATOM     43  N   UNL A   1      41.244  28.488  28.883  1.00  0.00    -0.248 NA
ATOM     44  C   UNL A   1      39.477  26.989  29.165  1.00  0.00     0.031 C 
ATOM     45  C   UNL A   1      43.413  25.344  26.540  1.00  0.00     0.029 A 
ATOM     46  N   UNL A   1      43.580  27.371  27.470  1.00  0.00    -0.354 N 
ATOM     47  C   UNL A   1      40.266  29.077  29.678  1.00  0.00     0.074 A 
ATOM     48  C   UNL A   1      39.183  28.121  29.785  1.00  0.00     0.031 C 
ATOM     49  C   UNL A   1      44.663  25.786  26.323  1.00  0.00     0.029 A 
ATOM     50  C   UNL A   1      44.794  27.135  26.868  1.00  0.00     0.049 A 
ATOM     51  H   UNL A   1      43.380  28.192  27.976  1.00  0.00     0.167 HD
ATOM     52  C   UNL A   1      40.274  30.302  30.263  1.00  0.00     0.034 A 
ATOM     53  C   UNL A   1      45.874  27.931  26.738  1.00  0.00     0.034 A 
ATOM     54  C   UNL A   1      41.370  31.236  30.154  1.00  0.00     0.049 A 
ATOM     55  C   UNL A   1      45.825  29.323  27.317  1.00  0.00     0.074 A 
ATOM     56  C   UNL A   1      41.474  32.513  30.679  1.00  0.00     0.029 A 
ATOM     57  N   UNL A   1      42.558  30.989  29.477  1.00  0.00    -0.354 N 
ATOM     58  N   UNL A   1      44.862  29.906  27.993  1.00  0.00    -0.248 NA
ATOM     59  C   UNL A   1      47.008  30.168  27.104  1.00  0.00     0.031 C 
ATOM     60  C   UNL A   1      42.700  33.056  30.274  1.00  0.00     0.029 A 
ATOM     61  C   UNL A   1      43.391  32.096  29.553  1.00  0.00     0.049 A 
ATOM     62  H   UNL A   1      42.777  30.150  29.011  1.00  0.00     0.167 HD
ATOM     63  C   UNL A   1      45.332  31.178  28.303  1.00  0.00     0.074 A 
ATOM     64  C   UNL A   1      46.668  31.274  27.752  1.00  0.00     0.031 C 
ATOM     65  C   UNL A   1      44.716  32.178  28.984  1.00  0.00     0.034 A 
BRANCH  52  66
ATOM     66  C   UNL A   1      39.025  30.715  31.003  1.00  0.00     0.023 A 
ATOM     67  C   UNL A   1      38.000  31.453  30.384  1.00  0.00     0.031 A 
ATOM     68  C   UNL A   1      38.886  30.418  32.370  1.00  0.00     0.131 A 
ATOM     69  C   UNL A   1      36.926  31.935  31.148  1.00  0.00     0.055 A 
ATOM     70  C   UNL A   1      37.775  30.832  33.107  1.00  0.00     0.041 A 
ATOM     71  F   UNL A   1      39.842  29.736  33.022  1.00  0.00    -0.206 F 
ATOM     72  C   UNL A   1      36.795  31.611  32.500  1.00  0.00     0.022 A 
BRANCH  69  73
ATOM     73  S   UNL A   1      35.784  33.124  30.389  1.00  0.00     0.124 S 
ATOM     74  O   UNL A   1      35.515  34.028  31.504  1.00  0.00    -0.237 OA
ATOM     75  O   UNL A   1      36.581  33.672  29.298  1.00  0.00    -0.237 OA
ATOM     76  O   UNL A   1      34.651  32.297  29.979  1.00  0.00    -0.744 OA
ENDBRANCH  69  73
ENDBRANCH  52  66
BRANCH  53  77
ATOM     77  C   UNL A   1      47.070  27.467  25.978  1.00  0.00     0.023 A 
ATOM     78  C   UNL A   1      47.245  27.798  24.626  1.00  0.00     0.031 A 
ATOM     79  C   UNL A   1      48.033  26.641  26.587  1.00  0.00     0.131 A 
ATOM     80  C   UNL A   1      48.337  27.276  23.914  1.00  0.00     0.055 A 
ATOM     81  C   UNL A   1      49.144  26.166  25.889  1.00  0.00     0.041 A 
ATOM     82  F   UNL A   1      47.910  26.292  27.877  1.00  0.00    -0.206 F 
ATOM     83  C   UNL A   1      49.294  26.474  24.541  1.00  0.00     0.022 A 
BRANCH  80  84
ATOM     84  S   UNL A   1      48.456  27.604  22.135  1.00  0.00     0.124 S 
ATOM     85  O   UNL A   1      49.596  28.512  22.074  1.00  0.00    -0.237 OA
ATOM     86  O   UNL A   1      48.671  26.266  21.593  1.00  0.00    -0.237 OA
ATOM     87  O   UNL A   1      47.162  28.203  21.811  1.00  0.00    -0.744 OA
ENDBRANCH  80  84
ENDBRANCH  53  77
BRANCH  65  88
ATOM     88  C   UNL A   1      45.511  33.441  29.203  1.00  0.00     0.023 A 
ATOM     89  C   UNL A   1      46.327  33.614  30.335  1.00  0.00     0.031 A 
ATOM     90  C   UNL A   1      45.430  34.494  28.276  1.00  0.00     0.131 A 
ATOM     91  C   UNL A   1      46.991  34.834  30.537  1.00  0.00     0.055 A 
ATOM     92  C   UNL A   1      46.132  35.687  28.456  1.00  0.00     0.041 A 
ATOM     93  F   UNL A   1      44.663  34.381  27.180  1.00  0.00    -0.206 F 
ATOM     94  C   UNL A   1      46.909  35.867  29.597  1.00  0.00     0.022 A 
BRANCH  91  95
ATOM     95  S   UNL A   1      47.897  35.090  32.087  1.00  0.00     0.124 S 
ATOM     96  O   UNL A   1      46.827  35.454  33.010  1.00  0.00    -0.237 OA
ATOM     97  O   UNL A   1      48.513  33.785  32.308  1.00  0.00    -0.237 OA
ATOM     98  O   UNL A   1      48.832  36.167  31.765  1.00  0.00    -0.744 OA
ENDBRANCH  91  95
ENDBRANCH  65  88
ENDBRANCH  39  40
ENDBRANCH  32  34
ENDBRANCH  31  32
ENDBRANCH  30  31
ENDBRANCH   1  30
TORSDOF 17
ENDMDL
