MODEL 1
REMARK VINA RESULT:     -12.4      0.000      0.000
REMARK SMILES Cc1noc(C[N@H+]2CCC[C@@H](c3ccc(C(=O)OCCOC(=O)c4ccc(-c5c6nc(c(-c7cc(S(=O)(=O)[O-])ccc7F)c7ccc([nH]7)c(-c7cc(S(=O)(=O)[O-])ccc7F)c7nc(c(-c8cc(S(=O)(=O)[O-])ccc8F)c8ccc5[nH]8)C=C7)C=C6)cc4)cc3)C2)n1
REMARK SMILES IDX 19 1 18 2 16 3 17 4 15 5 12 6 13 7 88 8 14 9 87 10 11 11
REMARK SMILES IDX 7 12 8 13 89 14 9 16 10 17 6 18 5 19 1 20 2 21 3 22 90 23
REMARK SMILES IDX 4 24 20 25 21 26 22 27 23 28 24 29 25 30 86 31 26 32 85 33
REMARK SMILES IDX 27 34 28 35 29 36 79 37 30 38 84 39 78 40 80 41 31 42 83 43
REMARK SMILES IDX 77 44 76 45 32 47 64 48 44 49 63 50 45 51 48 52 62 53 81 54
REMARK SMILES IDX 46 55 47 56 61 58 82 59 49 60 33 61 34 62 42 63 35 64 41 65
REMARK SMILES IDX 43 66 40 67 36 68 37 69 38 70 39 71 65 72 66 73 74 74 67 75
REMARK SMILES IDX 73 76 75 77 72 78 68 79 69 80 70 81 71 82 50 83 51 84 59 85
REMARK SMILES IDX 52 86 58 87 60 88 57 89 53 90 54 91 55 92 56 93
REMARK H PARENT 7 15 80 46 48 57
REMARK Flexibility Score: inf
ROOT
ATOM      1  C   UNL A   1      36.046  19.966  25.094  1.00  0.00     0.275 C 
ENDROOT
BRANCH   1   2
ATOM      2  O   UNL A   1      34.804  20.528  24.622  1.00  0.00    -0.458 OA
BRANCH   2   3
ATOM      3  C   UNL A   1      34.164  21.314  25.523  1.00  0.00     0.338 C 
ATOM      4  O   UNL A   1      33.746  20.970  26.617  1.00  0.00    -0.246 OA
BRANCH   3   5
ATOM      5  C   UNL A   1      34.107  22.716  25.057  1.00  0.00     0.060 A 
ATOM      6  C   UNL A   1      33.763  25.392  24.269  1.00  0.00    -0.039 A 
ATOM      7  C   UNL A   1      33.575  25.006  25.604  1.00  0.00     0.005 A 
ATOM      8  C   UNL A   1      34.192  24.427  23.345  1.00  0.00     0.005 A 
ATOM      9  C   UNL A   1      33.696  23.677  25.980  1.00  0.00     0.016 A 
ATOM     10  C   UNL A   1      34.382  23.094  23.739  1.00  0.00     0.016 A 
BRANCH   6  11
ATOM     11  C   UNL A   1      33.387  26.805  23.836  1.00  0.00     0.074 C 
ATOM     12  N   UNL A   1      31.341  28.142  23.106  1.00  0.00    -0.327 N 
ATOM     13  C   UNL A   1      31.541  29.048  24.246  1.00  0.00     0.262 C 
ATOM     14  C   UNL A   1      31.905  26.810  23.374  1.00  0.00     0.270 C 
ATOM     15  H   UNL A   1      31.837  28.544  22.310  1.00  0.00     0.348 HD
ATOM     16  C   UNL A   1      33.025  29.182  24.589  1.00  0.00     0.062 C 
ATOM     17  C   UNL A   1      33.627  27.828  24.955  1.00  0.00     0.020 C 
BRANCH  12  18
ATOM     18  C   UNL A   1      29.896  28.031  22.752  1.00  0.00     0.364 C 
BRANCH  18  19
ATOM     19  C   UNL A   1      29.191  29.306  22.391  1.00  0.00     0.281 A 
ATOM     20  C   UNL A   1      28.043  32.076  20.550  1.00  0.00     0.093 C 
ATOM     21  C   UNL A   1      28.341  31.017  21.536  1.00  0.00     0.169 A 
ATOM     22  N   UNL A   1      27.629  30.846  22.657  1.00  0.00    -0.063 NA
ATOM     23  N   UNL A   1      29.340  30.094  21.346  1.00  0.00    -0.191 NA
ATOM     24  O   UNL A   1      28.193  29.707  23.231  1.00  0.00    -0.333 OA
ENDBRANCH  18  19
ENDBRANCH  12  18
ENDBRANCH   6  11
ENDBRANCH   3   5
ENDBRANCH   2   3
ENDBRANCH   1   2
BRANCH   1  25
ATOM     25  C   UNL A   1      37.234  20.780  24.581  1.00  0.00     0.275 C 
BRANCH  25  26
ATOM     26  O   UNL A   1      37.627  21.751  25.567  1.00  0.00    -0.458 OA
BRANCH  26  27
ATOM     27  C   UNL A   1      38.851  21.560  26.117  1.00  0.00     0.338 C 
ATOM     28  O   UNL A   1      39.476  20.514  26.146  1.00  0.00    -0.246 OA
BRANCH  27  29
ATOM     29  C   UNL A   1      39.346  22.817  26.724  1.00  0.00     0.060 A 
ATOM     30  C   UNL A   1      38.828  24.052  26.340  1.00  0.00     0.016 A 
ATOM     31  C   UNL A   1      40.417  22.770  27.615  1.00  0.00     0.016 A 
ATOM     32  C   UNL A   1      39.444  25.238  26.753  1.00  0.00     0.010 A 
ATOM     33  C   UNL A   1      40.964  23.960  28.114  1.00  0.00     0.010 A 
ATOM     34  C   UNL A   1      40.522  25.214  27.651  1.00  0.00    -0.014 A 
BRANCH  34  35
ATOM     35  C   UNL A   1      41.240  26.467  28.050  1.00  0.00     0.031 A 
ATOM     36  C   UNL A   1      40.519  27.523  28.859  1.00  0.00     0.074 A 
ATOM     37  C   UNL A   1      42.530  26.682  27.714  1.00  0.00     0.049 A 
ATOM     38  N   UNL A   1      40.862  28.761  29.112  1.00  0.00    -0.248 NA
ATOM     39  C   UNL A   1      39.222  27.135  29.434  1.00  0.00     0.031 C 
ATOM     40  C   UNL A   1      43.386  25.750  26.979  1.00  0.00     0.029 A 
ATOM     41  N   UNL A   1      43.351  27.760  27.953  1.00  0.00    -0.354 N 
ATOM     42  C   UNL A   1      39.795  29.321  29.811  1.00  0.00     0.074 A 
ATOM     43  C   UNL A   1      38.789  28.285  29.928  1.00  0.00     0.031 C 
ATOM     44  C   UNL A   1      44.618  26.272  26.874  1.00  0.00     0.029 A 
ATOM     45  C   UNL A   1      44.620  27.615  27.442  1.00  0.00     0.049 A 
ATOM     46  H   UNL A   1      43.057  28.562  28.444  1.00  0.00     0.167 HD
ATOM     47  C   UNL A   1      39.662  30.578  30.308  1.00  0.00     0.034 A 
ATOM     48  C   UNL A   1      45.659  28.474  27.392  1.00  0.00     0.034 A 
ATOM     49  C   UNL A   1      40.695  31.585  30.249  1.00  0.00     0.049 A 
ATOM     50  C   UNL A   1      45.489  29.870  27.932  1.00  0.00     0.074 A 
ATOM     51  C   UNL A   1      40.668  32.883  30.731  1.00  0.00     0.029 A 
ATOM     52  N   UNL A   1      41.954  31.401  29.691  1.00  0.00    -0.354 N 
ATOM     53  N   UNL A   1      44.436  30.416  28.494  1.00  0.00    -0.248 NA
ATOM     54  C   UNL A   1      46.643  30.771  27.810  1.00  0.00     0.031 C 
ATOM     55  C   UNL A   1      41.890  33.496  30.426  1.00  0.00     0.029 A 
ATOM     56  C   UNL A   1      42.703  32.562  29.807  1.00  0.00     0.049 A 
ATOM     57  H   UNL A   1      42.268  30.566  29.274  1.00  0.00     0.167 HD
ATOM     58  C   UNL A   1      44.804  31.724  28.795  1.00  0.00     0.074 A 
ATOM     59  C   UNL A   1      46.182  31.878  28.374  1.00  0.00     0.031 C 
ATOM     60  C   UNL A   1      44.068  32.711  29.364  1.00  0.00     0.034 A 
BRANCH  47  61
ATOM     61  C   UNL A   1      38.325  30.949  30.908  1.00  0.00     0.023 A 
ATOM     62  C   UNL A   1      37.297  31.531  30.146  1.00  0.00     0.031 A 
ATOM     63  C   UNL A   1      38.094  30.754  32.282  1.00  0.00     0.131 A 
ATOM     64  C   UNL A   1      36.122  31.969  30.776  1.00  0.00     0.055 A 
ATOM     65  C   UNL A   1      36.890  31.117  32.888  1.00  0.00     0.041 A 
ATOM     66  F   UNL A   1      39.045  30.219  33.065  1.00  0.00    -0.206 F 
ATOM     67  C   UNL A   1      35.901  31.746  32.137  1.00  0.00     0.022 A 
BRANCH  64  68
ATOM     68  S   UNL A   1      34.951  32.975  29.823  1.00  0.00     0.124 S 
ATOM     69  O   UNL A   1      34.039  33.438  30.866  1.00  0.00    -0.237 OA
ATOM     70  O   UNL A   1      35.817  33.992  29.234  1.00  0.00    -0.237 OA
ATOM     71  O   UNL A   1      34.372  32.024  28.877  1.00  0.00    -0.744 OA
ENDBRANCH  64  68
ENDBRANCH  47  61
BRANCH  48  72
ATOM     72  C   UNL A   1      46.939  28.068  26.745  1.00  0.00     0.023 A 
ATOM     73  C   UNL A   1      47.070  28.059  25.348  1.00  0.00     0.031 A 
ATOM     74  C   UNL A   1      48.040  27.656  27.516  1.00  0.00     0.131 A 
ATOM     75  C   UNL A   1      48.270  27.623  24.763  1.00  0.00     0.055 A 
ATOM     76  C   UNL A   1      49.246  27.268  26.932  1.00  0.00     0.041 A 
ATOM     77  F   UNL A   1      47.963  27.646  28.857  1.00  0.00    -0.206 F 
ATOM     78  C   UNL A   1      49.362  27.242  25.546  1.00  0.00     0.022 A 
BRANCH  75  79
ATOM     79  S   UNL A   1      48.365  27.510  22.956  1.00  0.00     0.124 S 
ATOM     80  O   UNL A   1      49.623  28.194  22.680  1.00  0.00    -0.237 OA
ATOM     81  O   UNL A   1      48.358  26.066  22.744  1.00  0.00    -0.237 OA
ATOM     82  O   UNL A   1      47.161  28.208  22.507  1.00  0.00    -0.744 OA
ENDBRANCH  75  79
ENDBRANCH  48  72
BRANCH  60  83
ATOM     83  C   UNL A   1      44.761  34.030  29.591  1.00  0.00     0.023 A 
ATOM     84  C   UNL A   1      44.686  35.072  28.649  1.00  0.00     0.031 A 
ATOM     85  C   UNL A   1      45.531  34.234  30.748  1.00  0.00     0.131 A 
ATOM     86  C   UNL A   1      45.411  36.255  28.859  1.00  0.00     0.055 A 
ATOM     87  C   UNL A   1      46.213  35.431  30.974  1.00  0.00     0.041 A 
ATOM     88  F   UNL A   1      45.637  33.270  31.677  1.00  0.00    -0.206 F 
ATOM     89  C   UNL A   1      46.165  36.445  30.021  1.00  0.00     0.022 A 
BRANCH  86  90
ATOM     90  S   UNL A   1      45.423  37.516  27.555  1.00  0.00     0.124 S 
ATOM     91  O   UNL A   1      45.521  38.751  28.326  1.00  0.00    -0.237 OA
ATOM     92  O   UNL A   1      46.604  37.153  26.779  1.00  0.00    -0.237 OA
ATOM     93  O   UNL A   1      44.147  37.314  26.870  1.00  0.00    -0.744 OA
ENDBRANCH  86  90
ENDBRANCH  60  83
ENDBRANCH  34  35
ENDBRANCH  27  29
ENDBRANCH  26  27
ENDBRANCH  25  26
ENDBRANCH   1  25
TORSDOF 17
ENDMDL
MODEL 2
REMARK VINA RESULT:     -12.4      5.440     10.739
REMARK SMILES Cc1noc(C[N@H+]2CCC[C@@H](c3ccc(C(=O)OCCOC(=O)c4ccc(-c5c6nc(c(-c7cc(S(=O)(=O)[O-])ccc7F)c7ccc([nH]7)c(-c7cc(S(=O)(=O)[O-])ccc7F)c7nc(c(-c8cc(S(=O)(=O)[O-])ccc8F)c8ccc5[nH]8)C=C7)C=C6)cc4)cc3)C2)n1
REMARK SMILES IDX 19 1 18 2 16 3 17 4 15 5 12 6 13 7 88 8 14 9 87 10 11 11
REMARK SMILES IDX 7 12 8 13 89 14 9 16 10 17 6 18 5 19 1 20 2 21 3 22 90 23
REMARK SMILES IDX 4 24 20 25 21 26 22 27 23 28 24 29 25 30 86 31 26 32 85 33
REMARK SMILES IDX 27 34 28 35 29 36 79 37 30 38 84 39 78 40 80 41 31 42 83 43
REMARK SMILES IDX 77 44 76 45 32 47 64 48 44 49 63 50 45 51 48 52 62 53 81 54
REMARK SMILES IDX 46 55 47 56 61 58 82 59 49 60 33 61 34 62 42 63 35 64 41 65
REMARK SMILES IDX 43 66 40 67 36 68 37 69 38 70 39 71 65 72 66 73 74 74 67 75
REMARK SMILES IDX 73 76 75 77 72 78 68 79 69 80 70 81 71 82 50 83 51 84 59 85
REMARK SMILES IDX 52 86 58 87 60 88 57 89 53 90 54 91 55 92 56 93
REMARK H PARENT 7 15 80 46 48 57
REMARK Flexibility Score: inf
ROOT
ATOM      1  C   UNL A   1      31.062  29.743  24.864  1.00  0.00     0.275 C 
ENDROOT
BRANCH   1   2
ATOM      2  O   UNL A   1      31.218  28.857  23.737  1.00  0.00    -0.458 OA
BRANCH   2   3
ATOM      3  C   UNL A   1      30.299  27.862  23.673  1.00  0.00     0.338 C 
ATOM      4  O   UNL A   1      29.280  27.859  23.000  1.00  0.00    -0.246 OA
BRANCH   3   5
ATOM      5  C   UNL A   1      30.727  26.691  24.468  1.00  0.00     0.060 A 
ATOM      6  C   UNL A   1      31.602  24.353  25.759  1.00  0.00    -0.039 A 
ATOM      7  C   UNL A   1      32.440  25.039  24.867  1.00  0.00     0.005 A 
ATOM      8  C   UNL A   1      30.340  24.896  26.046  1.00  0.00     0.005 A 
ATOM      9  C   UNL A   1      31.988  26.163  24.194  1.00  0.00     0.016 A 
ATOM     10  C   UNL A   1      29.908  26.073  25.416  1.00  0.00     0.016 A 
BRANCH   6  11
ATOM     11  C   UNL A   1      32.031  22.992  26.296  1.00  0.00     0.074 C 
ATOM     12  N   UNL A   1      32.553  20.640  25.458  1.00  0.00    -0.327 N 
ATOM     13  C   UNL A   1      33.914  20.760  26.002  1.00  0.00     0.262 C 
ATOM     14  C   UNL A   1      31.985  21.959  25.139  1.00  0.00     0.270 C 
ATOM     15  H   UNL A   1      31.975  20.210  26.181  1.00  0.00     0.348 HD
ATOM     16  C   UNL A   1      33.929  21.640  27.254  1.00  0.00     0.062 C 
ATOM     17  C   UNL A   1      33.423  23.046  26.943  1.00  0.00     0.020 C 
BRANCH  12  18
ATOM     18  C   UNL A   1      32.530  19.761  24.253  1.00  0.00     0.364 C 
BRANCH  18  19
ATOM     19  C   UNL A   1      32.805  18.303  24.478  1.00  0.00     0.281 A 
ATOM     20  C   UNL A   1      32.519  14.999  25.653  1.00  0.00     0.093 C 
ATOM     21  C   UNL A   1      32.860  16.274  24.991  1.00  0.00     0.169 A 
ATOM     22  N   UNL A   1      33.685  16.349  23.938  1.00  0.00    -0.063 NA
ATOM     23  N   UNL A   1      32.311  17.473  25.375  1.00  0.00    -0.191 NA
ATOM     24  O   UNL A   1      33.652  17.700  23.594  1.00  0.00    -0.333 OA
ENDBRANCH  18  19
ENDBRANCH  12  18
ENDBRANCH   6  11
ENDBRANCH   3   5
ENDBRANCH   2   3
ENDBRANCH   1   2
BRANCH   1  25
ATOM     25  C   UNL A   1      32.413  30.013  25.527  1.00  0.00     0.275 C 
BRANCH  25  26
ATOM     26  O   UNL A   1      32.215  30.489  26.870  1.00  0.00    -0.458 OA
BRANCH  26  27
ATOM     27  C   UNL A   1      32.912  31.603  27.203  1.00  0.00     0.338 C 
ATOM     28  O   UNL A   1      32.532  32.756  27.087  1.00  0.00    -0.246 OA
BRANCH  27  29
ATOM     29  C   UNL A   1      34.250  31.240  27.721  1.00  0.00     0.060 A 
ATOM     30  C   UNL A   1      34.572  29.916  28.014  1.00  0.00     0.016 A 
ATOM     31  C   UNL A   1      35.165  32.249  28.019  1.00  0.00     0.016 A 
ATOM     32  C   UNL A   1      35.750  29.607  28.701  1.00  0.00     0.010 A 
ATOM     33  C   UNL A   1      36.394  31.926  28.610  1.00  0.00     0.010 A 
ATOM     34  C   UNL A   1      36.685  30.607  29.009  1.00  0.00    -0.014 A 
BRANCH  34  35
ATOM     35  C   UNL A   1      37.920  30.310  29.806  1.00  0.00     0.031 A 
ATOM     36  C   UNL A   1      39.015  29.456  29.207  1.00  0.00     0.074 A 
ATOM     37  C   UNL A   1      38.090  30.794  31.055  1.00  0.00     0.049 A 
ATOM     38  N   UNL A   1      40.045  28.891  29.786  1.00  0.00    -0.248 NA
ATOM     39  C   UNL A   1      38.918  29.183  27.765  1.00  0.00     0.031 C 
ATOM     40  C   UNL A   1      37.156  31.671  31.764  1.00  0.00     0.029 A 
ATOM     41  N   UNL A   1      39.118  30.619  31.952  1.00  0.00    -0.354 N 
ATOM     42  C   UNL A   1      40.675  28.136  28.798  1.00  0.00     0.074 A 
ATOM     43  C   UNL A   1      39.899  28.312  27.586  1.00  0.00     0.031 C 
ATOM     44  C   UNL A   1      37.676  31.995  32.958  1.00  0.00     0.029 A 
ATOM     45  C   UNL A   1      38.931  31.276  33.147  1.00  0.00     0.049 A 
ATOM     46  H   UNL A   1      39.915  30.074  31.757  1.00  0.00     0.167 HD
ATOM     47  C   UNL A   1      41.791  27.369  28.889  1.00  0.00     0.034 A 
ATOM     48  C   UNL A   1      39.656  31.270  34.284  1.00  0.00     0.034 A 
ATOM     49  C   UNL A   1      42.599  27.252  30.080  1.00  0.00     0.049 A 
ATOM     50  C   UNL A   1      40.882  30.399  34.373  1.00  0.00     0.074 A 
ATOM     51  C   UNL A   1      43.754  26.513  30.274  1.00  0.00     0.029 A 
ATOM     52  N   UNL A   1      42.350  27.912  31.277  1.00  0.00    -0.354 N 
ATOM     53  N   UNL A   1      41.402  29.611  33.464  1.00  0.00    -0.248 NA
ATOM     54  C   UNL A   1      41.604  30.405  35.653  1.00  0.00     0.031 C 
ATOM     55  C   UNL A   1      44.177  26.690  31.598  1.00  0.00     0.029 A 
ATOM     56  C   UNL A   1      43.320  27.587  32.213  1.00  0.00     0.049 A 
ATOM     57  H   UNL A   1      41.593  28.522  31.437  1.00  0.00     0.167 HD
ATOM     58  C   UNL A   1      42.517  29.028  34.062  1.00  0.00     0.074 A 
ATOM     59  C   UNL A   1      42.605  29.575  35.401  1.00  0.00     0.031 C 
ATOM     60  C   UNL A   1      43.386  28.121  33.552  1.00  0.00     0.034 A 
BRANCH  47  61
ATOM     61  C   UNL A   1      42.169  26.548  27.676  1.00  0.00     0.023 A 
ATOM     62  C   UNL A   1      41.786  25.204  27.531  1.00  0.00     0.031 A 
ATOM     63  C   UNL A   1      42.968  27.116  26.666  1.00  0.00     0.131 A 
ATOM     64  C   UNL A   1      42.266  24.452  26.448  1.00  0.00     0.055 A 
ATOM     65  C   UNL A   1      43.375  26.385  25.548  1.00  0.00     0.041 A 
ATOM     66  F   UNL A   1      43.381  28.390  26.757  1.00  0.00    -0.206 F 
ATOM     67  C   UNL A   1      43.039  25.039  25.443  1.00  0.00     0.022 A 
BRANCH  64  68
ATOM     68  S   UNL A   1      41.997  22.658  26.451  1.00  0.00     0.124 S 
ATOM     69  O   UNL A   1      42.664  22.261  27.688  1.00  0.00    -0.237 OA
ATOM     70  O   UNL A   1      40.541  22.559  26.449  1.00  0.00    -0.237 OA
ATOM     71  O   UNL A   1      42.655  22.210  25.226  1.00  0.00    -0.744 OA
ENDBRANCH  64  68
ENDBRANCH  47  61
BRANCH  48  72
ATOM     72  C   UNL A   1      39.207  32.063  35.464  1.00  0.00     0.023 A 
ATOM     73  C   UNL A   1      38.503  31.456  36.516  1.00  0.00     0.031 A 
ATOM     74  C   UNL A   1      39.454  33.444  35.542  1.00  0.00     0.131 A 
ATOM     75  C   UNL A   1      38.048  32.236  37.590  1.00  0.00     0.055 A 
ATOM     76  C   UNL A   1      39.039  34.207  36.635  1.00  0.00     0.041 A 
ATOM     77  F   UNL A   1      40.122  34.071  34.561  1.00  0.00    -0.206 F 
ATOM     78  C   UNL A   1      38.324  33.603  37.664  1.00  0.00     0.022 A 
BRANCH  75  79
ATOM     79  S   UNL A   1      37.039  31.444  38.872  1.00  0.00     0.124 S 
ATOM     80  O   UNL A   1      37.893  31.575  40.047  1.00  0.00    -0.237 OA
ATOM     81  O   UNL A   1      35.834  32.268  38.858  1.00  0.00    -0.237 OA
ATOM     82  O   UNL A   1      36.864  30.081  38.374  1.00  0.00    -0.744 OA
ENDBRANCH  75  79
ENDBRANCH  48  72
BRANCH  60  83
ATOM     83  C   UNL A   1      44.524  27.694  34.444  1.00  0.00     0.023 A 
ATOM     84  C   UNL A   1      44.407  26.593  35.309  1.00  0.00     0.031 A 
ATOM     85  C   UNL A   1      45.728  28.420  34.449  1.00  0.00     0.131 A 
ATOM     86  C   UNL A   1      45.460  26.277  36.183  1.00  0.00     0.055 A 
ATOM     87  C   UNL A   1      46.789  28.073  35.286  1.00  0.00     0.041 A 
ATOM     88  F   UNL A   1      45.888  29.481  33.642  1.00  0.00    -0.206 F 
ATOM     89  C   UNL A   1      46.654  27.004  36.167  1.00  0.00     0.022 A 
BRANCH  86  90
ATOM     90  S   UNL A   1      45.221  24.952  37.397  1.00  0.00     0.124 S 
ATOM     91  O   UNL A   1      44.019  25.393  38.098  1.00  0.00    -0.237 OA
ATOM     92  O   UNL A   1      45.068  23.774  36.549  1.00  0.00    -0.237 OA
ATOM     93  O   UNL A   1      46.448  24.985  38.190  1.00  0.00    -0.744 OA
ENDBRANCH  86  90
ENDBRANCH  60  83
ENDBRANCH  34  35
ENDBRANCH  27  29
ENDBRANCH  26  27
ENDBRANCH  25  26
ENDBRANCH   1  25
TORSDOF 17
ENDMDL
MODEL 3
REMARK VINA RESULT:     -12.2      1.551      1.781
REMARK SMILES Cc1noc(C[N@H+]2CCC[C@@H](c3ccc(C(=O)OCCOC(=O)c4ccc(-c5c6nc(c(-c7cc(S(=O)(=O)[O-])ccc7F)c7ccc([nH]7)c(-c7cc(S(=O)(=O)[O-])ccc7F)c7nc(c(-c8cc(S(=O)(=O)[O-])ccc8F)c8ccc5[nH]8)C=C7)C=C6)cc4)cc3)C2)n1
REMARK SMILES IDX 19 1 18 2 16 3 17 4 15 5 12 6 13 7 88 8 14 9 87 10 11 11
REMARK SMILES IDX 7 12 8 13 89 14 9 16 10 17 6 18 5 19 1 20 2 21 3 22 90 23
REMARK SMILES IDX 4 24 20 25 21 26 22 27 23 28 24 29 25 30 86 31 26 32 85 33
REMARK SMILES IDX 27 34 28 35 29 36 79 37 30 38 84 39 78 40 80 41 31 42 83 43
REMARK SMILES IDX 77 44 76 45 32 47 64 48 44 49 63 50 45 51 48 52 62 53 81 54
REMARK SMILES IDX 46 55 47 56 61 58 82 59 49 60 33 61 34 62 42 63 35 64 41 65
REMARK SMILES IDX 43 66 40 67 36 68 37 69 38 70 39 71 65 72 66 73 74 74 67 75
REMARK SMILES IDX 73 76 75 77 72 78 68 79 69 80 70 81 71 82 50 83 51 84 59 85
REMARK SMILES IDX 52 86 58 87 60 88 57 89 53 90 54 91 55 92 56 93
REMARK H PARENT 7 15 80 46 48 57
REMARK Flexibility Score: inf
ROOT
ATOM      1  C   UNL A   1      35.430  19.850  25.100  1.00  0.00     0.275 C 
ENDROOT
BRANCH   1   2
ATOM      2  O   UNL A   1      34.420  20.862  24.915  1.00  0.00    -0.458 OA
BRANCH   2   3
ATOM      3  C   UNL A   1      34.072  21.522  26.047  1.00  0.00     0.338 C 
ATOM      4  O   UNL A   1      33.887  21.027  27.147  1.00  0.00    -0.246 OA
BRANCH   3   5
ATOM      5  C   UNL A   1      34.029  22.982  25.818  1.00  0.00     0.060 A 
ATOM      6  C   UNL A   1      33.702  25.729  25.322  1.00  0.00    -0.039 A 
ATOM      7  C   UNL A   1      32.866  25.058  26.226  1.00  0.00     0.005 A 
ATOM      8  C   UNL A   1      34.751  25.017  24.720  1.00  0.00     0.005 A 
ATOM      9  C   UNL A   1      32.997  23.693  26.430  1.00  0.00     0.016 A 
ATOM     10  C   UNL A   1      34.927  23.650  24.979  1.00  0.00     0.016 A 
BRANCH   6  11
ATOM     11  C   UNL A   1      33.383  27.169  24.932  1.00  0.00     0.074 C 
ATOM     12  N   UNL A   1      31.385  28.620  24.294  1.00  0.00    -0.327 N 
ATOM     13  C   UNL A   1      31.661  29.488  25.448  1.00  0.00     0.262 C 
ATOM     14  C   UNL A   1      31.891  27.256  24.516  1.00  0.00     0.270 C 
ATOM     15  H   UNL A   1      31.876  29.016  23.492  1.00  0.00     0.348 HD
ATOM     16  C   UNL A   1      33.160  29.542  25.749  1.00  0.00     0.062 C 
ATOM     17  C   UNL A   1      33.706  28.153  26.066  1.00  0.00     0.020 C 
BRANCH  12  18
ATOM     18  C   UNL A   1      29.927  28.587  23.981  1.00  0.00     0.364 C 
BRANCH  18  19
ATOM     19  C   UNL A   1      29.425  29.605  22.998  1.00  0.00     0.281 A 
ATOM     20  C   UNL A   1      28.144  32.594  21.655  1.00  0.00     0.093 C 
ATOM     21  C   UNL A   1      28.710  31.257  21.932  1.00  0.00     0.169 A 
ATOM     22  N   UNL A   1      29.242  30.481  20.978  1.00  0.00    -0.063 NA
ATOM     23  N   UNL A   1      28.782  30.736  23.201  1.00  0.00    -0.191 NA
ATOM     24  O   UNL A   1      29.718  29.378  21.685  1.00  0.00    -0.333 OA
ENDBRANCH  18  19
ENDBRANCH  12  18
ENDBRANCH   6  11
ENDBRANCH   3   5
ENDBRANCH   2   3
ENDBRANCH   1   2
BRANCH   1  25
ATOM     25  C   UNL A   1      36.791  20.353  24.616  1.00  0.00     0.275 C 
BRANCH  25  26
ATOM     26  O   UNL A   1      37.348  21.266  25.577  1.00  0.00    -0.458 OA
BRANCH  26  27
ATOM     27  C   UNL A   1      38.653  21.068  25.881  1.00  0.00     0.338 C 
ATOM     28  O   UNL A   1      39.285  20.038  25.723  1.00  0.00    -0.246 OA
BRANCH  27  29
ATOM     29  C   UNL A   1      39.237  22.293  26.474  1.00  0.00     0.060 A 
ATOM     30  C   UNL A   1      38.747  23.555  26.142  1.00  0.00     0.016 A 
ATOM     31  C   UNL A   1      40.359  22.189  27.295  1.00  0.00     0.016 A 
ATOM     32  C   UNL A   1      39.435  24.708  26.533  1.00  0.00     0.010 A 
ATOM     33  C   UNL A   1      40.984  23.346  27.775  1.00  0.00     0.010 A 
ATOM     34  C   UNL A   1      40.566  24.625  27.360  1.00  0.00    -0.014 A 
BRANCH  34  35
ATOM     35  C   UNL A   1      41.359  25.842  27.732  1.00  0.00     0.031 A 
ATOM     36  C   UNL A   1      40.731  26.915  28.594  1.00  0.00     0.074 A 
ATOM     37  C   UNL A   1      42.635  26.008  27.324  1.00  0.00     0.049 A 
ATOM     38  N   UNL A   1      41.141  28.134  28.843  1.00  0.00    -0.248 NA
ATOM     39  C   UNL A   1      39.455  26.572  29.240  1.00  0.00     0.031 C 
ATOM     40  C   UNL A   1      43.407  25.051  26.528  1.00  0.00     0.029 A 
ATOM     41  N   UNL A   1      43.513  27.047  27.527  1.00  0.00    -0.354 N 
ATOM     42  C   UNL A   1      40.140  28.727  29.609  1.00  0.00     0.074 A 
ATOM     43  C   UNL A   1      39.100  27.732  29.773  1.00  0.00     0.031 C 
ATOM     44  C   UNL A   1      44.651  25.523  26.357  1.00  0.00     0.029 A 
ATOM     45  C   UNL A   1      44.744  26.857  26.941  1.00  0.00     0.049 A 
ATOM     46  H   UNL A   1      43.283  27.852  28.045  1.00  0.00     0.167 HD
ATOM     47  C   UNL A   1      40.090  29.981  30.129  1.00  0.00     0.034 A 
ATOM     48  C   UNL A   1      45.813  27.673  26.840  1.00  0.00     0.034 A 
ATOM     49  C   UNL A   1      41.160  30.945  30.021  1.00  0.00     0.049 A 
ATOM     50  C   UNL A   1      45.734  29.067  27.406  1.00  0.00     0.074 A 
ATOM     51  C   UNL A   1      41.215  32.236  30.520  1.00  0.00     0.029 A 
ATOM     52  N   UNL A   1      42.375  30.716  29.389  1.00  0.00    -0.354 N 
ATOM     53  N   UNL A   1      44.739  29.647  28.035  1.00  0.00    -0.248 NA
ATOM     54  C   UNL A   1      46.916  29.920  27.227  1.00  0.00     0.031 C 
ATOM     55  C   UNL A   1      42.443  32.802  30.152  1.00  0.00     0.029 A 
ATOM     56  C   UNL A   1      43.178  31.844  29.475  1.00  0.00     0.049 A 
ATOM     57  H   UNL A   1      42.629  29.876  28.943  1.00  0.00     0.167 HD
ATOM     58  C   UNL A   1      45.180  30.934  28.330  1.00  0.00     0.074 A 
ATOM     59  C   UNL A   1      46.536  31.037  27.831  1.00  0.00     0.031 C 
ATOM     60  C   UNL A   1      44.521  31.942  28.954  1.00  0.00     0.034 A 
BRANCH  47  61
ATOM     61  C   UNL A   1      38.807  30.398  30.811  1.00  0.00     0.023 A 
ATOM     62  C   UNL A   1      37.825  31.163  30.158  1.00  0.00     0.031 A 
ATOM     63  C   UNL A   1      38.585  30.057  32.158  1.00  0.00     0.131 A 
ATOM     64  C   UNL A   1      36.711  31.629  30.873  1.00  0.00     0.055 A 
ATOM     65  C   UNL A   1      37.434  30.454  32.841  1.00  0.00     0.041 A 
ATOM     66  F   UNL A   1      39.495  29.343  32.840  1.00  0.00    -0.206 F 
ATOM     67  C   UNL A   1      36.496  31.260  32.203  1.00  0.00     0.022 A 
BRANCH  64  68
ATOM     68  S   UNL A   1      35.625  32.850  30.086  1.00  0.00     0.124 S 
ATOM     69  O   UNL A   1      34.316  32.461  30.605  1.00  0.00    -0.237 OA
ATOM     70  O   UNL A   1      36.160  34.114  30.582  1.00  0.00    -0.237 OA
ATOM     71  O   UNL A   1      35.817  32.610  28.657  1.00  0.00    -0.744 OA
ENDBRANCH  64  68
ENDBRANCH  47  61
BRANCH  48  72
ATOM     72  C   UNL A   1      47.035  27.223  26.114  1.00  0.00     0.023 A 
ATOM     73  C   UNL A   1      48.076  26.569  26.790  1.00  0.00     0.031 A 
ATOM     74  C   UNL A   1      47.189  27.467  24.739  1.00  0.00     0.131 A 
ATOM     75  C   UNL A   1      49.238  26.203  26.093  1.00  0.00     0.055 A 
ATOM     76  C   UNL A   1      48.326  27.059  24.040  1.00  0.00     0.041 A 
ATOM     77  F   UNL A   1      46.222  28.091  24.047  1.00  0.00    -0.206 F 
ATOM     78  C   UNL A   1      49.363  26.430  24.720  1.00  0.00     0.022 A 
BRANCH  75  79
ATOM     79  S   UNL A   1      50.612  25.468  27.019  1.00  0.00     0.124 S 
ATOM     80  O   UNL A   1      51.561  25.163  25.954  1.00  0.00    -0.237 OA
ATOM     81  O   UNL A   1      50.984  26.555  27.919  1.00  0.00    -0.237 OA
ATOM     82  O   UNL A   1      50.004  24.307  27.667  1.00  0.00    -0.744 OA
ENDBRANCH  75  79
ENDBRANCH  48  72
BRANCH  60  83
ATOM     83  C   UNL A   1      45.281  33.228  29.156  1.00  0.00     0.023 A 
ATOM     84  C   UNL A   1      45.186  34.290  28.239  1.00  0.00     0.031 A 
ATOM     85  C   UNL A   1      46.135  33.378  30.262  1.00  0.00     0.131 A 
ATOM     86  C   UNL A   1      45.971  35.440  28.419  1.00  0.00     0.055 A 
ATOM     87  C   UNL A   1      46.878  34.542  30.461  1.00  0.00     0.041 A 
ATOM     88  F   UNL A   1      46.262  32.392  31.164  1.00  0.00    -0.206 F 
ATOM     89  C   UNL A   1      46.808  35.575  29.531  1.00  0.00     0.022 A 
BRANCH  86  90
ATOM     90  S   UNL A   1      45.947  36.724  27.140  1.00  0.00     0.124 S 
ATOM     91  O   UNL A   1      44.516  36.952  26.963  1.00  0.00    -0.237 OA
ATOM     92  O   UNL A   1      46.692  37.809  27.771  1.00  0.00    -0.237 OA
ATOM     93  O   UNL A   1      46.618  36.093  26.005  1.00  0.00    -0.744 OA
ENDBRANCH  86  90
ENDBRANCH  60  83
ENDBRANCH  34  35
ENDBRANCH  27  29
ENDBRANCH  26  27
ENDBRANCH  25  26
ENDBRANCH   1  25
TORSDOF 17
ENDMDL
