MODEL 1
REMARK VINA RESULT:     -12.3      0.000      0.000
REMARK SMILES C[C@@H](C(=O)OCCOC(=O)c1ccc(-c2c3nc(c(-c4cc(S(=O)(=O)[O-])ccc4F)c4ccc([nH]4)c(-c4cc(S(=O)(=O)[O-])ccc4F)c4nc(c(-c5cc(S(=O)(=O)[O-])ccc5F)c5ccc2[nH]5)C=C4)C=C3)cc1)c1ccc(C[C@H]2CCCC2=O)cc1[N+](=O)[O-]
REMARK SMILES IDX 6 1 5 2 3 3 4 4 2 5 1 6 74 7 75 8 86 9 76 10 85 11 77 12
REMARK SMILES IDX 87 13 88 14 89 15 78 16 79 17 80 18 83 19 81 20 82 21 84 22
REMARK SMILES IDX 7 23 8 24 9 25 10 26 11 27 12 28 73 29 13 30 72 31 14 32
REMARK SMILES IDX 15 33 16 34 66 35 17 36 71 37 65 38 67 39 18 40 70 41 64 42
REMARK SMILES IDX 63 43 19 45 51 46 31 47 50 48 32 49 35 50 49 51 68 52 33 53
REMARK SMILES IDX 34 54 48 56 69 57 36 58 20 59 21 60 29 61 22 62 28 63 30 64
REMARK SMILES IDX 27 65 23 66 24 67 25 68 26 69 52 70 53 71 61 72 54 73 60 74
REMARK SMILES IDX 62 75 59 76 55 77 56 78 57 79 58 80 37 81 38 82 46 83 39 84
REMARK SMILES IDX 45 85 47 86 44 87 40 88 41 89 42 90 43 91
REMARK H PARENT 67 44 35 55
REMARK Flexibility Score: inf
ROOT
ATOM      1  C   UNL A   1      33.808  20.413  24.345  1.00  0.00     0.274 C 
ENDROOT
BRANCH   1   2
ATOM      2  O   UNL A   1      32.814  20.817  25.317  1.00  0.00    -0.462 OA
BRANCH   2   3
ATOM      3  C   UNL A   1      32.577  22.154  25.471  1.00  0.00     0.313 C 
ATOM      4  O   UNL A   1      31.461  22.650  25.361  1.00  0.00    -0.252 OA
BRANCH   3   5
ATOM      5  C   UNL A   1      33.862  22.975  25.796  1.00  0.00     0.133 C 
ATOM      6  C   UNL A   1      34.082  23.028  27.319  1.00  0.00     0.025 C 
BRANCH   5   7
ATOM      7  C   UNL A   1      33.870  24.389  25.144  1.00  0.00     0.044 A 
ATOM      8  C   UNL A   1      33.639  25.532  25.956  1.00  0.00     0.012 A 
ATOM      9  C   UNL A   1      33.947  24.624  23.744  1.00  0.00     0.273 A 
ATOM     10  C   UNL A   1      33.302  26.773  25.416  1.00  0.00     0.004 A 
ATOM     11  C   UNL A   1      33.600  25.876  23.199  1.00  0.00     0.089 A 
ATOM     12  C   UNL A   1      33.162  26.905  24.041  1.00  0.00    -0.040 A 
BRANCH   9  13
ATOM     13  N   UNL A   1      34.305  23.571  22.779  1.00  0.00     0.063 N 
ATOM     14  O   UNL A   1      35.502  23.261  22.676  1.00  0.00    -0.258 OA
ATOM     15  O   UNL A   1      33.384  23.021  22.158  1.00  0.00    -0.258 OA
ENDBRANCH   9  13
BRANCH  12  16
ATOM     16  C   UNL A   1      32.320  28.023  23.506  1.00  0.00     0.047 C 
BRANCH  16  17
ATOM     17  C   UNL A   1      30.757  27.938  23.639  1.00  0.00     0.060 C 
ATOM     18  C   UNL A   1      29.507  29.264  22.816  1.00  0.00     0.012 C 
ATOM     19  C   UNL A   1      29.699  26.278  23.888  1.00  0.00     0.136 C 
ATOM     20  C   UNL A   1      27.569  28.659  23.115  1.00  0.00     0.009 C 
ATOM     21  C   UNL A   1      27.670  26.746  23.877  1.00  0.00     0.076 C 
ATOM     22  O   UNL A   1      30.207  25.163  23.820  1.00  0.00    -0.299 OA
ENDBRANCH  16  17
ENDBRANCH  12  16
ENDBRANCH   5   7
ENDBRANCH   3   5
ENDBRANCH   2   3
ENDBRANCH   1   2
BRANCH   1  23
ATOM     23  C   UNL A   1      35.121  19.971  25.003  1.00  0.00     0.275 C 
BRANCH  23  24
ATOM     24  O   UNL A   1      36.155  20.921  24.734  1.00  0.00    -0.458 OA
BRANCH  24  25
ATOM     25  C   UNL A   1      37.405  20.482  25.010  1.00  0.00     0.338 C 
ATOM     26  O   UNL A   1      37.917  19.425  24.696  1.00  0.00    -0.246 OA
BRANCH  25  27
ATOM     27  C   UNL A   1      38.122  21.606  25.597  1.00  0.00     0.060 A 
ATOM     28  C   UNL A   1      37.471  22.801  25.752  1.00  0.00     0.016 A 
ATOM     29  C   UNL A   1      39.352  21.482  26.147  1.00  0.00     0.016 A 
ATOM     30  C   UNL A   1      38.067  23.953  26.321  1.00  0.00     0.010 A 
ATOM     31  C   UNL A   1      39.882  22.618  26.794  1.00  0.00     0.010 A 
ATOM     32  C   UNL A   1      39.401  24.133  26.885  1.00  0.00    -0.014 A 
BRANCH  32  33
ATOM     33  C   UNL A   1      40.436  25.846  27.624  1.00  0.00     0.031 A 
ATOM     34  C   UNL A   1      42.223  26.244  27.173  1.00  0.00     0.074 A 
ATOM     35  C   UNL A   1      40.175  26.938  28.576  1.00  0.00     0.049 A 
ATOM     36  N   UNL A   1      42.962  27.337  27.335  1.00  0.00    -0.248 NA
ATOM     37  C   UNL A   1      43.118  25.158  26.563  1.00  0.00     0.031 C 
ATOM     38  C   UNL A   1      39.005  27.055  29.515  1.00  0.00     0.029 A 
ATOM     39  N   UNL A   1      40.687  28.232  28.730  1.00  0.00    -0.354 N 
ATOM     40  C   UNL A   1      44.264  27.055  26.807  1.00  0.00     0.074 A 
ATOM     41  C   UNL A   1      44.268  25.721  26.320  1.00  0.00     0.031 C 
ATOM     42  C   UNL A   1      38.603  28.317  29.548  1.00  0.00     0.029 A 
ATOM     43  C   UNL A   1      39.779  29.111  29.344  1.00  0.00     0.049 A 
ATOM     44  H   UNL A   1      41.589  28.498  28.437  1.00  0.00     0.167 HD
ATOM     45  C   UNL A   1      45.447  27.729  26.770  1.00  0.00     0.034 A 
ATOM     46  C   UNL A   1      39.800  30.347  29.897  1.00  0.00     0.034 A 
ATOM     47  C   UNL A   1      45.665  28.953  27.466  1.00  0.00     0.049 A 
ATOM     48  C   UNL A   1      41.117  31.023  29.971  1.00  0.00     0.074 A 
ATOM     49  C   UNL A   1      46.845  29.651  27.638  1.00  0.00     0.029 A 
ATOM     50  N   UNL A   1      44.684  29.610  28.181  1.00  0.00    -0.354 N 
ATOM     51  N   UNL A   1      42.253  30.645  29.443  1.00  0.00    -0.248 NA
ATOM     52  C   UNL A   1      41.177  32.246  30.774  1.00  0.00     0.031 C 
ATOM     53  C   UNL A   1      46.596  30.681  28.544  1.00  0.00     0.029 A 
ATOM     54  C   UNL A   1      45.241  30.693  28.826  1.00  0.00     0.049 A 
ATOM     55  H   UNL A   1      43.737  29.346  28.225  1.00  0.00     0.167 HD
ATOM     56  C   UNL A   1      43.173  31.592  29.853  1.00  0.00     0.074 A 
ATOM     57  C   UNL A   1      42.452  32.570  30.642  1.00  0.00     0.031 C 
ATOM     58  C   UNL A   1      44.502  31.639  29.606  1.00  0.00     0.034 A 
BRANCH  45  59
ATOM     59  C   UNL A   1      46.648  27.033  26.104  1.00  0.00     0.023 A 
ATOM     60  C   UNL A   1      47.609  26.318  26.854  1.00  0.00     0.031 A 
ATOM     61  C   UNL A   1      46.913  27.226  24.733  1.00  0.00     0.131 A 
ATOM     62  C   UNL A   1      48.816  25.911  26.248  1.00  0.00     0.055 A 
ATOM     63  C   UNL A   1      48.072  26.735  24.120  1.00  0.00     0.041 A 
ATOM     64  F   UNL A   1      46.075  27.945  23.969  1.00  0.00    -0.206 F 
ATOM     65  C   UNL A   1      49.040  26.089  24.882  1.00  0.00     0.022 A 
BRANCH  62  66
ATOM     66  S   UNL A   1      50.177  25.312  27.298  1.00  0.00     0.124 S 
ATOM     67  O   UNL A   1      49.566  24.146  27.929  1.00  0.00    -0.237 OA
ATOM     68  O   UNL A   1      51.231  25.041  26.328  1.00  0.00    -0.237 OA
ATOM     69  O   UNL A   1      50.435  26.434  28.198  1.00  0.00    -0.744 OA
ENDBRANCH  62  66
ENDBRANCH  45  59
BRANCH  46  70
ATOM     70  C   UNL A   1      38.593  30.903  30.640  1.00  0.00     0.023 A 
ATOM     71  C   UNL A   1      37.514  31.506  29.971  1.00  0.00     0.031 A 
ATOM     72  C   UNL A   1      38.494  30.818  32.051  1.00  0.00     0.131 A 
ATOM     73  C   UNL A   1      36.394  31.959  30.703  1.00  0.00     0.055 A 
ATOM     74  C   UNL A   1      37.337  31.159  32.752  1.00  0.00     0.041 A 
ATOM     75  F   UNL A   1      39.507  30.316  32.777  1.00  0.00    -0.206 F 
ATOM     76  C   UNL A   1      36.278  31.743  32.077  1.00  0.00     0.022 A 
BRANCH  73  77
ATOM     77  S   UNL A   1      35.122  32.942  29.858  1.00  0.00     0.124 S 
ATOM     78  O   UNL A   1      35.925  33.973  29.212  1.00  0.00    -0.237 OA
ATOM     79  O   UNL A   1      34.510  31.954  28.977  1.00  0.00    -0.237 OA
ATOM     80  O   UNL A   1      34.272  33.412  30.952  1.00  0.00    -0.744 OA
ENDBRANCH  73  77
ENDBRANCH  46  70
BRANCH  58  81
ATOM     81  C   UNL A   1      45.231  32.826  30.127  1.00  0.00     0.023 A 
ATOM     82  C   UNL A   1      45.376  33.984  29.354  1.00  0.00     0.031 A 
ATOM     83  C   UNL A   1      45.823  32.770  31.399  1.00  0.00     0.131 A 
ATOM     84  C   UNL A   1      46.187  35.014  29.827  1.00  0.00     0.055 A 
ATOM     85  C   UNL A   1      46.547  33.842  31.904  1.00  0.00     0.041 A 
ATOM     86  F   UNL A   1      45.708  31.669  32.158  1.00  0.00    -0.206 F 
ATOM     87  C   UNL A   1      46.751  34.965  31.106  1.00  0.00     0.022 A 
BRANCH  84  88
ATOM     88  S   UNL A   1      46.624  36.337  28.674  1.00  0.00     0.124 S 
ATOM     89  O   UNL A   1      46.028  37.502  29.320  1.00  0.00    -0.237 OA
ATOM     90  O   UNL A   1      48.082  36.285  28.675  1.00  0.00    -0.237 OA
ATOM     91  O   UNL A   1      45.987  35.923  27.426  1.00  0.00    -0.744 OA
ENDBRANCH  84  88
ENDBRANCH  58  81
ENDBRANCH  32  33
ENDBRANCH  25  27
ENDBRANCH  24  25
ENDBRANCH  23  24
ENDBRANCH   1  23
TORSDOF 18
ENDMDL
MODEL 2
REMARK VINA RESULT:     -12.2      4.942      7.392
REMARK SMILES C[C@@H](C(=O)OCCOC(=O)c1ccc(-c2c3nc(c(-c4cc(S(=O)(=O)[O-])ccc4F)c4ccc([nH]4)c(-c4cc(S(=O)(=O)[O-])ccc4F)c4nc(c(-c5cc(S(=O)(=O)[O-])ccc5F)c5ccc2[nH]5)C=C4)C=C3)cc1)c1ccc(C[C@H]2CCCC2=O)cc1[N+](=O)[O-]
REMARK SMILES IDX 6 1 5 2 3 3 4 4 2 5 1 6 74 7 75 8 86 9 76 10 85 11 77 12
REMARK SMILES IDX 87 13 88 14 89 15 78 16 79 17 80 18 83 19 81 20 82 21 84 22
REMARK SMILES IDX 7 23 8 24 9 25 10 26 11 27 12 28 73 29 13 30 72 31 14 32
REMARK SMILES IDX 15 33 16 34 66 35 17 36 71 37 65 38 67 39 18 40 70 41 64 42
REMARK SMILES IDX 63 43 19 45 51 46 31 47 50 48 32 49 35 50 49 51 68 52 33 53
REMARK SMILES IDX 34 54 48 56 69 57 36 58 20 59 21 60 29 61 22 62 28 63 30 64
REMARK SMILES IDX 27 65 23 66 24 67 25 68 26 69 52 70 53 71 61 72 54 73 60 74
REMARK SMILES IDX 62 75 59 76 55 77 56 78 57 79 58 80 37 81 38 82 46 83 39 84
REMARK SMILES IDX 45 85 47 86 44 87 40 88 41 89 42 90 43 91
REMARK H PARENT 67 44 35 55
REMARK Flexibility Score: inf
ROOT
ATOM      1  C   UNL A   1      30.624  28.124  23.311  1.00  0.00     0.274 C 
ENDROOT
BRANCH   1   2
ATOM      2  O   UNL A   1      30.725  26.968  24.178  1.00  0.00    -0.462 OA
BRANCH   2   3
ATOM      3  C   UNL A   1      31.504  25.924  23.764  1.00  0.00     0.313 C 
ATOM      4  O   UNL A   1      31.041  24.905  23.263  1.00  0.00    -0.252 OA
BRANCH   3   5
ATOM      5  C   UNL A   1      33.028  26.161  23.995  1.00  0.00     0.133 C 
ATOM      6  C   UNL A   1      33.731  26.413  22.648  1.00  0.00     0.025 C 
BRANCH   5   7
ATOM      7  C   UNL A   1      33.708  25.030  24.820  1.00  0.00     0.044 A 
ATOM      8  C   UNL A   1      34.907  24.439  24.336  1.00  0.00     0.012 A 
ATOM      9  C   UNL A   1      33.135  24.424  25.971  1.00  0.00     0.273 A 
ATOM     10  C   UNL A   1      35.387  23.224  24.822  1.00  0.00     0.004 A 
ATOM     11  C   UNL A   1      33.618  23.193  26.458  1.00  0.00     0.089 A 
ATOM     12  C   UNL A   1      34.667  22.545  25.797  1.00  0.00    -0.040 A 
BRANCH   9  13
ATOM     13  N   UNL A   1      31.968  24.988  26.669  1.00  0.00     0.063 N 
ATOM     14  O   UNL A   1      32.064  26.138  27.125  1.00  0.00    -0.258 OA
ATOM     15  O   UNL A   1      30.939  24.299  26.721  1.00  0.00    -0.258 OA
ENDBRANCH   9  13
BRANCH  12  16
ATOM     16  C   UNL A   1      34.862  21.067  25.939  1.00  0.00     0.047 C 
BRANCH  16  17
ATOM     17  C   UNL A   1      34.319  20.111  24.817  1.00  0.00     0.060 C 
ATOM     18  C   UNL A   1      34.845  18.188  24.657  1.00  0.00     0.012 C 
ATOM     19  C   UNL A   1      32.567  20.270  23.899  1.00  0.00     0.136 C 
ATOM     20  C   UNL A   1      33.766  17.302  23.153  1.00  0.00     0.009 C 
ATOM     21  C   UNL A   1      32.323  18.665  22.595  1.00  0.00     0.076 C 
ATOM     22  O   UNL A   1      31.715  21.078  24.254  1.00  0.00    -0.299 OA
ENDBRANCH  16  17
ENDBRANCH  12  16
ENDBRANCH   5   7
ENDBRANCH   3   5
ENDBRANCH   2   3
ENDBRANCH   1   2
BRANCH   1  23
ATOM     23  C   UNL A   1      30.624  29.442  24.094  1.00  0.00     0.275 C 
BRANCH  23  24
ATOM     24  O   UNL A   1      31.634  29.418  25.107  1.00  0.00    -0.458 OA
BRANCH  24  25
ATOM     25  C   UNL A   1      31.754  30.570  25.805  1.00  0.00     0.338 C 
ATOM     26  O   UNL A   1      30.973  31.501  25.863  1.00  0.00    -0.246 OA
BRANCH  25  27
ATOM     27  C   UNL A   1      32.925  30.420  26.658  1.00  0.00     0.060 A 
ATOM     28  C   UNL A   1      33.697  29.297  26.535  1.00  0.00     0.016 A 
ATOM     29  C   UNL A   1      33.380  31.414  27.457  1.00  0.00     0.016 A 
ATOM     30  C   UNL A   1      34.862  29.055  27.305  1.00  0.00     0.010 A 
ATOM     31  C   UNL A   1      34.595  31.185  28.136  1.00  0.00     0.010 A 
ATOM     32  C   UNL A   1      35.510  29.893  28.308  1.00  0.00    -0.014 A 
BRANCH  32  33
ATOM     33  C   UNL A   1      37.164  29.562  29.614  1.00  0.00     0.031 A 
ATOM     34  C   UNL A   1      38.688  28.571  29.114  1.00  0.00     0.074 A 
ATOM     35  C   UNL A   1      37.505  29.844  31.018  1.00  0.00     0.049 A 
ATOM     36  N   UNL A   1      39.888  28.436  29.673  1.00  0.00    -0.248 NA
ATOM     37  C   UNL A   1      38.636  27.652  27.887  1.00  0.00     0.031 C 
ATOM     38  C   UNL A   1      36.584  30.382  32.079  1.00  0.00     0.029 A 
ATOM     39  N   UNL A   1      38.713  29.980  31.712  1.00  0.00    -0.354 N 
ATOM     40  C   UNL A   1      40.644  27.539  28.850  1.00  0.00     0.074 A 
ATOM     41  C   UNL A   1      39.826  27.137  27.761  1.00  0.00     0.031 C 
ATOM     42  C   UNL A   1      37.244  31.259  32.821  1.00  0.00     0.029 A 
ATOM     43  C   UNL A   1      38.607  30.811  32.840  1.00  0.00     0.049 A 
ATOM     44  H   UNL A   1      39.550  29.539  31.439  1.00  0.00     0.167 HD
ATOM     45  C   UNL A   1      41.872  26.957  28.948  1.00  0.00     0.034 A 
ATOM     46  C   UNL A   1      39.347  31.121  33.930  1.00  0.00     0.034 A 
ATOM     47  C   UNL A   1      42.681  27.046  30.117  1.00  0.00     0.049 A 
ATOM     48  C   UNL A   1      40.625  30.387  34.099  1.00  0.00     0.074 A 
ATOM     49  C   UNL A   1      43.861  26.385  30.404  1.00  0.00     0.029 A 
ATOM     50  N   UNL A   1      42.337  27.787  31.230  1.00  0.00    -0.354 N 
ATOM     51  N   UNL A   1      41.210  29.574  33.257  1.00  0.00    -0.248 NA
ATOM     52  C   UNL A   1      41.304  30.550  35.385  1.00  0.00     0.031 C 
ATOM     53  C   UNL A   1      44.178  26.651  31.736  1.00  0.00     0.029 A 
ATOM     54  C   UNL A   1      43.268  27.573  32.223  1.00  0.00     0.049 A 
ATOM     55  H   UNL A   1      41.550  28.373  31.303  1.00  0.00     0.167 HD
ATOM     56  C   UNL A   1      42.337  29.121  33.918  1.00  0.00     0.074 A 
ATOM     57  C   UNL A   1      42.363  29.778  35.210  1.00  0.00     0.031 C 
ATOM     58  C   UNL A   1      43.263  28.231  33.495  1.00  0.00     0.034 A 
BRANCH  45  59
ATOM     59  C   UNL A   1      42.307  26.009  27.817  1.00  0.00     0.023 A 
ATOM     60  C   UNL A   1      41.756  24.715  27.671  1.00  0.00     0.031 A 
ATOM     61  C   UNL A   1      43.393  26.344  26.984  1.00  0.00     0.131 A 
ATOM     62  C   UNL A   1      42.349  23.791  26.787  1.00  0.00     0.055 A 
ATOM     63  C   UNL A   1      43.917  25.450  26.042  1.00  0.00     0.041 A 
ATOM     64  F   UNL A   1      44.007  27.532  27.105  1.00  0.00    -0.206 F 
ATOM     65  C   UNL A   1      43.406  24.159  25.953  1.00  0.00     0.022 A 
BRANCH  62  66
ATOM     66  S   UNL A   1      41.854  22.042  26.869  1.00  0.00     0.124 S 
ATOM     67  O   UNL A   1      42.626  21.574  28.016  1.00  0.00    -0.237 OA
ATOM     68  O   UNL A   1      40.410  22.127  27.057  1.00  0.00    -0.237 OA
ATOM     69  O   UNL A   1      42.281  21.503  25.579  1.00  0.00    -0.744 OA
ENDBRANCH  62  66
ENDBRANCH  45  59
BRANCH  46  70
ATOM     70  C   UNL A   1      38.783  31.976  35.056  1.00  0.00     0.023 A 
ATOM     71  C   UNL A   1      38.331  31.421  36.265  1.00  0.00     0.031 A 
ATOM     72  C   UNL A   1      38.706  33.387  34.941  1.00  0.00     0.131 A 
ATOM     73  C   UNL A   1      37.866  32.262  37.299  1.00  0.00     0.055 A 
ATOM     74  C   UNL A   1      38.358  34.217  36.007  1.00  0.00     0.041 A 
ATOM     75  F   UNL A   1      39.055  33.998  33.797  1.00  0.00    -0.206 F 
ATOM     76  C   UNL A   1      37.925  33.654  37.196  1.00  0.00     0.022 A 
BRANCH  73  77
ATOM     77  S   UNL A   1      37.071  31.523  38.754  1.00  0.00     0.124 S 
ATOM     78  O   UNL A   1      36.931  30.131  38.341  1.00  0.00    -0.237 OA
ATOM     79  O   UNL A   1      38.049  31.789  39.803  1.00  0.00    -0.237 OA
ATOM     80  O   UNL A   1      35.816  32.264  38.871  1.00  0.00    -0.744 OA
ENDBRANCH  73  77
ENDBRANCH  46  70
BRANCH  58  81
ATOM     81  C   UNL A   1      44.414  27.989  34.405  1.00  0.00     0.023 A 
ATOM     82  C   UNL A   1      44.320  27.079  35.464  1.00  0.00     0.031 A 
ATOM     83  C   UNL A   1      45.601  28.716  34.226  1.00  0.00     0.131 A 
ATOM     84  C   UNL A   1      45.373  26.992  36.374  1.00  0.00     0.055 A 
ATOM     85  C   UNL A   1      46.683  28.548  35.079  1.00  0.00     0.041 A 
ATOM     86  F   UNL A   1      45.715  29.602  33.223  1.00  0.00    -0.206 F 
ATOM     87  C   UNL A   1      46.563  27.698  36.175  1.00  0.00     0.022 A 
BRANCH  84  88
ATOM     88  S   UNL A   1      45.088  26.070  37.903  1.00  0.00     0.124 S 
ATOM     89  O   UNL A   1      45.028  24.696  37.414  1.00  0.00    -0.237 OA
ATOM     90  O   UNL A   1      46.263  26.410  38.698  1.00  0.00    -0.237 OA
ATOM     91  O   UNL A   1      43.824  26.612  38.396  1.00  0.00    -0.744 OA
ENDBRANCH  84  88
ENDBRANCH  58  81
ENDBRANCH  32  33
ENDBRANCH  25  27
ENDBRANCH  24  25
ENDBRANCH  23  24
ENDBRANCH   1  23
TORSDOF 18
ENDMDL
MODEL 3
REMARK VINA RESULT:     -12.1      1.481      1.877
REMARK SMILES C[C@@H](C(=O)OCCOC(=O)c1ccc(-c2c3nc(c(-c4cc(S(=O)(=O)[O-])ccc4F)c4ccc([nH]4)c(-c4cc(S(=O)(=O)[O-])ccc4F)c4nc(c(-c5cc(S(=O)(=O)[O-])ccc5F)c5ccc2[nH]5)C=C4)C=C3)cc1)c1ccc(C[C@H]2CCCC2=O)cc1[N+](=O)[O-]
REMARK SMILES IDX 6 1 5 2 3 3 4 4 2 5 1 6 74 7 75 8 86 9 76 10 85 11 77 12
REMARK SMILES IDX 87 13 88 14 89 15 78 16 79 17 80 18 83 19 81 20 82 21 84 22
REMARK SMILES IDX 7 23 8 24 9 25 10 26 11 27 12 28 73 29 13 30 72 31 14 32
REMARK SMILES IDX 15 33 16 34 66 35 17 36 71 37 65 38 67 39 18 40 70 41 64 42
REMARK SMILES IDX 63 43 19 45 51 46 31 47 50 48 32 49 35 50 49 51 68 52 33 53
REMARK SMILES IDX 34 54 48 56 69 57 36 58 20 59 21 60 29 61 22 62 28 63 30 64
REMARK SMILES IDX 27 65 23 66 24 67 25 68 26 69 52 70 53 71 61 72 54 73 60 74
REMARK SMILES IDX 62 75 59 76 55 77 56 78 57 79 58 80 37 81 38 82 46 83 39 84
REMARK SMILES IDX 45 85 47 86 44 87 40 88 41 89 42 90 43 91
REMARK H PARENT 67 44 35 55
REMARK Flexibility Score: inf
ROOT
ATOM      1  C   UNL A   1      33.770  20.603  24.250  1.00  0.00     0.274 C 
ENDROOT
BRANCH   1   2
ATOM      2  O   UNL A   1      32.775  20.979  25.234  1.00  0.00    -0.462 OA
BRANCH   2   3
ATOM      3  C   UNL A   1      32.547  22.311  25.437  1.00  0.00     0.313 C 
ATOM      4  O   UNL A   1      31.431  22.814  25.367  1.00  0.00    -0.252 OA
BRANCH   3   5
ATOM      5  C   UNL A   1      33.843  23.116  25.760  1.00  0.00     0.133 C 
ATOM      6  C   UNL A   1      34.123  23.075  27.274  1.00  0.00     0.025 C 
BRANCH   5   7
ATOM      7  C   UNL A   1      33.822  24.568  25.197  1.00  0.00     0.044 A 
ATOM      8  C   UNL A   1      33.691  25.661  26.095  1.00  0.00     0.012 A 
ATOM      9  C   UNL A   1      33.774  24.888  23.813  1.00  0.00     0.273 A 
ATOM     10  C   UNL A   1      33.333  26.939  25.665  1.00  0.00     0.004 A 
ATOM     11  C   UNL A   1      33.406  26.177  23.380  1.00  0.00     0.089 A 
ATOM     12  C   UNL A   1      33.069  27.158  24.319  1.00  0.00    -0.040 A 
BRANCH   9  13
ATOM     13  N   UNL A   1      34.019  23.891  22.756  1.00  0.00     0.063 N 
ATOM     14  O   UNL A   1      33.081  23.611  21.994  1.00  0.00    -0.258 OA
ATOM     15  O   UNL A   1      35.163  23.425  22.658  1.00  0.00    -0.258 OA
ENDBRANCH   9  13
BRANCH  12  16
ATOM     16  C   UNL A   1      32.207  28.320  23.933  1.00  0.00     0.047 C 
BRANCH  16  17
ATOM     17  C   UNL A   1      30.682  28.081  23.644  1.00  0.00     0.060 C 
ATOM     18  C   UNL A   1      29.656  26.518  24.354  1.00  0.00     0.012 C 
ATOM     19  C   UNL A   1      29.333  29.488  23.269  1.00  0.00     0.136 C 
ATOM     20  C   UNL A   1      27.675  26.711  23.855  1.00  0.00     0.009 C 
ATOM     21  C   UNL A   1      27.455  28.610  23.082  1.00  0.00     0.076 C 
ATOM     22  O   UNL A   1      29.591  30.683  23.372  1.00  0.00    -0.299 OA
ENDBRANCH  16  17
ENDBRANCH  12  16
ENDBRANCH   5   7
ENDBRANCH   3   5
ENDBRANCH   2   3
ENDBRANCH   1   2
BRANCH   1  23
ATOM     23  C   UNL A   1      35.064  20.092  24.894  1.00  0.00     0.275 C 
BRANCH  23  24
ATOM     24  O   UNL A   1      36.138  21.000  24.637  1.00  0.00    -0.458 OA
BRANCH  24  25
ATOM     25  C   UNL A   1      37.358  20.541  24.998  1.00  0.00     0.338 C 
ATOM     26  O   UNL A   1      37.863  19.464  24.743  1.00  0.00    -0.246 OA
BRANCH  25  27
ATOM     27  C   UNL A   1      38.066  21.664  25.599  1.00  0.00     0.060 A 
ATOM     28  C   UNL A   1      37.406  22.851  25.766  1.00  0.00     0.016 A 
ATOM     29  C   UNL A   1      39.297  21.543  26.148  1.00  0.00     0.016 A 
ATOM     30  C   UNL A   1      37.993  24.002  26.348  1.00  0.00     0.010 A 
ATOM     31  C   UNL A   1      39.818  22.676  26.808  1.00  0.00     0.010 A 
ATOM     32  C   UNL A   1      39.325  24.186  26.915  1.00  0.00    -0.014 A 
BRANCH  32  33
ATOM     33  C   UNL A   1      40.346  25.899  27.674  1.00  0.00     0.031 A 
ATOM     34  C   UNL A   1      42.128  26.318  27.224  1.00  0.00     0.074 A 
ATOM     35  C   UNL A   1      40.077  26.976  28.640  1.00  0.00     0.049 A 
ATOM     36  N   UNL A   1      42.858  27.416  27.399  1.00  0.00    -0.248 NA
ATOM     37  C   UNL A   1      43.032  25.248  26.599  1.00  0.00     0.031 C 
ATOM     38  C   UNL A   1      38.907  27.072  29.581  1.00  0.00     0.029 A 
ATOM     39  N   UNL A   1      40.578  28.273  28.808  1.00  0.00    -0.354 N 
ATOM     40  C   UNL A   1      44.162  27.152  26.865  1.00  0.00     0.074 A 
ATOM     41  C   UNL A   1      44.176  25.825  26.361  1.00  0.00     0.031 C 
ATOM     42  C   UNL A   1      38.494  28.330  29.631  1.00  0.00     0.029 A 
ATOM     43  C   UNL A   1      39.663  29.137  29.435  1.00  0.00     0.049 A 
ATOM     44  H   UNL A   1      41.476  28.551  28.518  1.00  0.00     0.167 HD
ATOM     45  C   UNL A   1      45.338  27.837  26.835  1.00  0.00     0.034 A 
ATOM     46  C   UNL A   1      39.673  30.365  30.003  1.00  0.00     0.034 A 
ATOM     47  C   UNL A   1      45.547  29.054  27.545  1.00  0.00     0.049 A 
ATOM     48  C   UNL A   1      40.985  31.052  30.084  1.00  0.00     0.074 A 
ATOM     49  C   UNL A   1      46.721  29.761  27.724  1.00  0.00     0.029 A 
ATOM     50  N   UNL A   1      44.561  29.693  28.270  1.00  0.00    -0.354 N 
ATOM     51  N   UNL A   1      42.123  30.691  29.549  1.00  0.00    -0.248 NA
ATOM     52  C   UNL A   1      41.035  32.265  30.901  1.00  0.00     0.031 C 
ATOM     53  C   UNL A   1      46.464  30.777  28.643  1.00  0.00     0.029 A 
ATOM     54  C   UNL A   1      45.109  30.773  28.928  1.00  0.00     0.049 A 
ATOM     55  H   UNL A   1      43.617  29.420  28.312  1.00  0.00     0.167 HD
ATOM     56  C   UNL A   1      43.036  31.641  29.970  1.00  0.00     0.074 A 
ATOM     57  C   UNL A   1      42.307  32.603  30.772  1.00  0.00     0.031 C 
ATOM     58  C   UNL A   1      44.364  31.703  29.721  1.00  0.00     0.034 A 
BRANCH  45  59
ATOM     59  C   UNL A   1      46.544  27.160  26.157  1.00  0.00     0.023 A 
ATOM     60  C   UNL A   1      47.528  26.468  26.900  1.00  0.00     0.031 A 
ATOM     61  C   UNL A   1      46.789  27.350  24.783  1.00  0.00     0.131 A 
ATOM     62  C   UNL A   1      48.734  26.080  26.282  1.00  0.00     0.055 A 
ATOM     63  C   UNL A   1      47.950  26.878  24.159  1.00  0.00     0.041 A 
ATOM     64  F   UNL A   1      45.929  28.049  24.025  1.00  0.00    -0.206 F 
ATOM     65  C   UNL A   1      48.939  26.255  24.912  1.00  0.00     0.022 A 
BRANCH  62  66
ATOM     66  S   UNL A   1      50.119  25.513  27.318  1.00  0.00     0.124 S 
ATOM     67  O   UNL A   1      50.114  26.513  28.383  1.00  0.00    -0.237 OA
ATOM     68  O   UNL A   1      49.704  24.168  27.698  1.00  0.00    -0.237 OA
ATOM     69  O   UNL A   1      51.270  25.578  26.419  1.00  0.00    -0.744 OA
ENDBRANCH  62  66
ENDBRANCH  45  59
BRANCH  46  70
ATOM     70  C   UNL A   1      38.463  30.902  30.755  1.00  0.00     0.023 A 
ATOM     71  C   UNL A   1      37.397  31.541  30.100  1.00  0.00     0.031 A 
ATOM     72  C   UNL A   1      38.348  30.760  32.161  1.00  0.00     0.131 A 
ATOM     73  C   UNL A   1      36.273  31.973  30.837  1.00  0.00     0.055 A 
ATOM     74  C   UNL A   1      37.186  31.082  32.863  1.00  0.00     0.041 A 
ATOM     75  F   UNL A   1      39.348  30.220  32.877  1.00  0.00    -0.206 F 
ATOM     76  C   UNL A   1      36.140  31.703  32.200  1.00  0.00     0.022 A 
BRANCH  73  77
ATOM     77  S   UNL A   1      35.018  33.002  30.020  1.00  0.00     0.124 S 
ATOM     78  O   UNL A   1      34.142  33.341  31.135  1.00  0.00    -0.237 OA
ATOM     79  O   UNL A   1      35.824  34.090  29.478  1.00  0.00    -0.237 OA
ATOM     80  O   UNL A   1      34.436  32.103  29.024  1.00  0.00    -0.744 OA
ENDBRANCH  73  77
ENDBRANCH  46  70
BRANCH  58  81
ATOM     81  C   UNL A   1      45.083  32.890  30.255  1.00  0.00     0.023 A 
ATOM     82  C   UNL A   1      45.650  32.879  31.534  1.00  0.00     0.031 A 
ATOM     83  C   UNL A   1      45.156  34.059  29.480  1.00  0.00     0.131 A 
ATOM     84  C   UNL A   1      46.188  34.059  32.044  1.00  0.00     0.055 A 
ATOM     85  C   UNL A   1      45.783  35.202  29.960  1.00  0.00     0.041 A 
ATOM     86  F   UNL A   1      44.612  34.101  28.253  1.00  0.00    -0.206 F 
ATOM     87  C   UNL A   1      46.283  35.212  31.259  1.00  0.00     0.022 A 
BRANCH  84  88
ATOM     88  S   UNL A   1      46.602  34.102  33.804  1.00  0.00     0.124 S 
ATOM     89  O   UNL A   1      47.825  33.307  33.840  1.00  0.00    -0.237 OA
ATOM     90  O   UNL A   1      46.765  35.530  34.054  1.00  0.00    -0.237 OA
ATOM     91  O   UNL A   1      45.440  33.487  34.441  1.00  0.00    -0.744 OA
ENDBRANCH  84  88
ENDBRANCH  58  81
ENDBRANCH  32  33
ENDBRANCH  25  27
ENDBRANCH  24  25
ENDBRANCH  23  24
ENDBRANCH   1  23
TORSDOF 18
ENDMDL
