MODEL 1
REMARK VINA RESULT:     -11.9      0.000      0.000
REMARK SMILES C[C@@H](C(=O)OCCOC(=O)c1ccc(-c2c3nc(c(-c4cc(S(=O)(=O)[O-])ccc4F)c4ccc([nH]4)c(-c4cc(S(=O)(=O)[O-])ccc4F)c4nc(c(-c5cc(S(=O)(=O)[O-])ccc5F)c5ccc2[nH]5)C=C4)C=C3)cc1)c1ccc(C[C@H]2CCC[C@H]2O)cc1
REMARK SMILES IDX 6 1 5 2 3 3 4 4 2 5 1 6 74 7 75 8 86 9 76 10 85 11 77 12
REMARK SMILES IDX 78 13 79 14 80 15 83 16 81 17 82 18 84 19 7 21 8 22 9 23
REMARK SMILES IDX 10 24 11 25 12 26 73 27 13 28 72 29 14 30 15 31 16 32 66 33
REMARK SMILES IDX 17 34 71 35 65 36 67 37 18 38 70 39 64 40 63 41 19 43 51 44
REMARK SMILES IDX 31 45 50 46 32 47 35 48 49 49 68 50 33 51 34 52 48 54 69 55
REMARK SMILES IDX 36 56 20 57 21 58 29 59 22 60 28 61 30 62 27 63 23 64 24 65
REMARK SMILES IDX 25 66 26 67 52 68 53 69 61 70 54 71 60 72 62 73 59 74 55 75
REMARK SMILES IDX 56 76 57 77 58 78 37 79 38 80 46 81 39 82 45 83 47 84 44 85
REMARK SMILES IDX 40 86 41 87 42 88 43 89
REMARK H PARENT 84 20 67 42 35 53
REMARK Flexibility Score: inf
ROOT
ATOM      1  C   UNL A   1      34.839  21.424  25.357  1.00  0.00     0.274 C 
ENDROOT
BRANCH   1   2
ATOM      2  O   UNL A   1      35.066  22.764  24.878  1.00  0.00    -0.462 OA
BRANCH   2   3
ATOM      3  C   UNL A   1      34.609  23.049  23.625  1.00  0.00     0.313 C 
ATOM      4  O   UNL A   1      35.344  23.267  22.667  1.00  0.00    -0.252 OA
BRANCH   3   5
ATOM      5  C   UNL A   1      33.079  23.130  23.560  1.00  0.00     0.126 C 
ATOM      6  C   UNL A   1      32.464  22.175  22.529  1.00  0.00     0.025 C 
BRANCH   5   7
ATOM      7  C   UNL A   1      32.597  24.571  23.422  1.00  0.00    -0.034 A 
ATOM      8  C   UNL A   1      32.687  25.204  22.171  1.00  0.00     0.005 A 
ATOM      9  C   UNL A   1      32.029  25.293  24.482  1.00  0.00     0.005 A 
ATOM     10  C   UNL A   1      32.229  26.512  21.987  1.00  0.00     0.004 A 
ATOM     11  C   UNL A   1      31.583  26.608  24.299  1.00  0.00     0.004 A 
ATOM     12  C   UNL A   1      31.685  27.237  23.053  1.00  0.00    -0.048 A 
BRANCH  12  13
ATOM     13  C   UNL A   1      31.161  28.639  22.836  1.00  0.00     0.041 C 
BRANCH  13  14
ATOM     14  C   UNL A   1      29.749  28.809  22.256  1.00  0.00     0.022 C 
ATOM     15  C   UNL A   1      28.586  28.511  23.222  1.00  0.00     0.007 C 
ATOM     16  C   UNL A   1      29.395  30.145  21.580  1.00  0.00     0.117 C 
ATOM     17  C   UNL A   1      27.518  29.565  22.940  1.00  0.00     0.003 C 
ATOM     18  C   UNL A   1      27.870  30.133  21.571  1.00  0.00     0.032 C 
BRANCH  16  19
ATOM     19  O   UNL A   1      29.829  31.302  22.281  1.00  0.00    -0.393 OA
ATOM     20  H   UNL A   1      29.129  31.596  22.884  1.00  0.00     0.210 HD
ENDBRANCH  16  19
ENDBRANCH  13  14
ENDBRANCH  12  13
ENDBRANCH   5   7
ENDBRANCH   3   5
ENDBRANCH   2   3
ENDBRANCH   1   2
BRANCH   1  21
ATOM     21  C   UNL A   1      36.067  20.564  25.081  1.00  0.00     0.275 C 
BRANCH  21  22
ATOM     22  O   UNL A   1      37.208  21.420  24.902  1.00  0.00    -0.458 OA
BRANCH  22  23
ATOM     23  C   UNL A   1      38.343  21.043  25.533  1.00  0.00     0.338 C 
ATOM     24  O   UNL A   1      38.817  19.917  25.578  1.00  0.00    -0.246 OA
BRANCH  23  25
ATOM     25  C   UNL A   1      38.954  22.208  26.204  1.00  0.00     0.060 A 
ATOM     26  C   UNL A   1      38.432  23.486  26.022  1.00  0.00     0.016 A 
ATOM     27  C   UNL A   1      40.126  22.039  26.944  1.00  0.00     0.016 A 
ATOM     28  C   UNL A   1      39.135  24.595  26.496  1.00  0.00     0.010 A 
ATOM     29  C   UNL A   1      40.777  23.154  27.491  1.00  0.00     0.010 A 
ATOM     30  C   UNL A   1      40.324  24.458  27.230  1.00  0.00    -0.014 A 
BRANCH  30  31
ATOM     31  C   UNL A   1      41.128  25.658  27.639  1.00  0.00     0.031 A 
ATOM     32  C   UNL A   1      40.516  26.715  28.535  1.00  0.00     0.074 A 
ATOM     33  C   UNL A   1      42.419  25.808  27.271  1.00  0.00     0.049 A 
ATOM     34  N   UNL A   1      40.939  27.925  28.805  1.00  0.00    -0.248 NA
ATOM     35  C   UNL A   1      39.252  26.366  29.201  1.00  0.00     0.031 C 
ATOM     36  C   UNL A   1      43.194  24.858  26.474  1.00  0.00     0.029 A 
ATOM     37  N   UNL A   1      43.316  26.818  27.538  1.00  0.00    -0.354 N 
ATOM     38  C   UNL A   1      39.951  28.513  29.592  1.00  0.00     0.074 A 
ATOM     39  C   UNL A   1      38.914  27.516  29.766  1.00  0.00     0.031 C 
ATOM     40  C   UNL A   1      44.459  25.292  26.373  1.00  0.00     0.029 A 
ATOM     41  C   UNL A   1      44.561  26.611  26.987  1.00  0.00     0.049 A 
ATOM     42  H   UNL A   1      43.089  27.613  28.071  1.00  0.00     0.167 HD
ATOM     43  C   UNL A   1      39.906  29.767  30.109  1.00  0.00     0.034 A 
ATOM     44  C   UNL A   1      45.649  27.406  26.923  1.00  0.00     0.034 A 
ATOM     45  C   UNL A   1      40.982  30.727  30.004  1.00  0.00     0.049 A 
ATOM     46  C   UNL A   1      45.580  28.796  27.493  1.00  0.00     0.074 A 
ATOM     47  C   UNL A   1      41.037  32.020  30.498  1.00  0.00     0.029 A 
ATOM     48  N   UNL A   1      42.203  30.489  29.389  1.00  0.00    -0.354 N 
ATOM     49  N   UNL A   1      44.582  29.391  28.105  1.00  0.00    -0.248 NA
ATOM     50  C   UNL A   1      46.776  29.637  27.335  1.00  0.00     0.031 C 
ATOM     51  C   UNL A   1      42.271  32.579  30.144  1.00  0.00     0.029 A 
ATOM     52  C   UNL A   1      43.011  31.614  29.482  1.00  0.00     0.049 A 
ATOM     53  H   UNL A   1      42.459  29.647  28.949  1.00  0.00     0.167 HD
ATOM     54  C   UNL A   1      45.028  30.677  28.392  1.00  0.00     0.074 A 
ATOM     55  C   UNL A   1      46.395  30.761  27.922  1.00  0.00     0.031 C 
ATOM     56  C   UNL A   1      44.361  31.701  28.981  1.00  0.00     0.034 A 
BRANCH  43  57
ATOM     57  C   UNL A   1      38.625  30.202  30.780  1.00  0.00     0.023 A 
ATOM     58  C   UNL A   1      37.602  30.873  30.090  1.00  0.00     0.031 A 
ATOM     59  C   UNL A   1      38.438  29.951  32.152  1.00  0.00     0.131 A 
ATOM     60  C   UNL A   1      36.470  31.324  30.787  1.00  0.00     0.055 A 
ATOM     61  C   UNL A   1      37.276  30.335  32.824  1.00  0.00     0.041 A 
ATOM     62  F   UNL A   1      39.389  29.329  32.868  1.00  0.00    -0.206 F 
ATOM     63  C   UNL A   1      36.289  31.040  32.143  1.00  0.00     0.022 A 
BRANCH  60  64
ATOM     64  S   UNL A   1      35.297  32.407  29.925  1.00  0.00     0.124 S 
ATOM     65  O   UNL A   1      34.802  31.528  28.870  1.00  0.00    -0.237 OA
ATOM     66  O   UNL A   1      34.345  32.740  30.979  1.00  0.00    -0.237 OA
ATOM     67  O   UNL A   1      36.129  33.516  29.463  1.00  0.00    -0.744 OA
ENDBRANCH  60  64
ENDBRANCH  43  57
BRANCH  44  68
ATOM     68  C   UNL A   1      46.871  26.945  26.201  1.00  0.00     0.023 A 
ATOM     69  C   UNL A   1      47.932  26.334  26.886  1.00  0.00     0.031 A 
ATOM     70  C   UNL A   1      47.003  27.142  24.814  1.00  0.00     0.131 A 
ATOM     71  C   UNL A   1      49.090  25.960  26.185  1.00  0.00     0.055 A 
ATOM     72  C   UNL A   1      48.132  26.718  24.113  1.00  0.00     0.041 A 
ATOM     73  F   UNL A   1      46.020  27.731  24.115  1.00  0.00    -0.206 F 
ATOM     74  C   UNL A   1      49.189  26.131  24.801  1.00  0.00     0.022 A 
BRANCH  71  75
ATOM     75  S   UNL A   1      50.501  25.306  27.118  1.00  0.00     0.124 S 
ATOM     76  O   UNL A   1      50.878  26.456  27.931  1.00  0.00    -0.237 OA
ATOM     77  O   UNL A   1      49.900  24.185  27.832  1.00  0.00    -0.237 OA
ATOM     78  O   UNL A   1      51.457  24.937  26.076  1.00  0.00    -0.744 OA
ENDBRANCH  71  75
ENDBRANCH  44  68
BRANCH  56  79
ATOM     79  C   UNL A   1      45.119  32.991  29.160  1.00  0.00     0.023 A 
ATOM     80  C   UNL A   1      45.130  33.979  28.160  1.00  0.00     0.031 A 
ATOM     81  C   UNL A   1      45.864  33.222  30.330  1.00  0.00     0.131 A 
ATOM     82  C   UNL A   1      45.912  35.132  28.326  1.00  0.00     0.055 A 
ATOM     83  C   UNL A   1      46.603  34.392  30.510  1.00  0.00     0.041 A 
ATOM     84  F   UNL A   1      45.888  32.310  31.315  1.00  0.00    -0.206 F 
ATOM     85  C   UNL A   1      46.640  35.350  29.500  1.00  0.00     0.022 A 
BRANCH  82  86
ATOM     86  S   UNL A   1      46.036  36.310  26.952  1.00  0.00     0.124 S 
ATOM     87  O   UNL A   1      44.688  36.868  26.907  1.00  0.00    -0.237 OA
ATOM     88  O   UNL A   1      47.085  37.215  27.409  1.00  0.00    -0.237 OA
ATOM     89  O   UNL A   1      46.398  35.471  25.811  1.00  0.00    -0.744 OA
ENDBRANCH  82  86
ENDBRANCH  56  79
ENDBRANCH  30  31
ENDBRANCH  23  25
ENDBRANCH  22  23
ENDBRANCH  21  22
ENDBRANCH   1  21
TORSDOF 18
ENDMDL
MODEL 2
REMARK VINA RESULT:     -11.8      5.161     10.452
REMARK SMILES C[C@@H](C(=O)OCCOC(=O)c1ccc(-c2c3nc(c(-c4cc(S(=O)(=O)[O-])ccc4F)c4ccc([nH]4)c(-c4cc(S(=O)(=O)[O-])ccc4F)c4nc(c(-c5cc(S(=O)(=O)[O-])ccc5F)c5ccc2[nH]5)C=C4)C=C3)cc1)c1ccc(C[C@H]2CCC[C@H]2O)cc1
REMARK SMILES IDX 6 1 5 2 3 3 4 4 2 5 1 6 74 7 75 8 86 9 76 10 85 11 77 12
REMARK SMILES IDX 78 13 79 14 80 15 83 16 81 17 82 18 84 19 7 21 8 22 9 23
REMARK SMILES IDX 10 24 11 25 12 26 73 27 13 28 72 29 14 30 15 31 16 32 66 33
REMARK SMILES IDX 17 34 71 35 65 36 67 37 18 38 70 39 64 40 63 41 19 43 51 44
REMARK SMILES IDX 31 45 50 46 32 47 35 48 49 49 68 50 33 51 34 52 48 54 69 55
REMARK SMILES IDX 36 56 20 57 21 58 29 59 22 60 28 61 30 62 27 63 23 64 24 65
REMARK SMILES IDX 25 66 26 67 52 68 53 69 61 70 54 71 60 72 62 73 59 74 55 75
REMARK SMILES IDX 56 76 57 77 58 78 37 79 38 80 46 81 39 82 45 83 47 84 44 85
REMARK SMILES IDX 40 86 41 87 42 88 43 89
REMARK H PARENT 84 20 67 42 35 53
REMARK Flexibility Score: inf
ROOT
ATOM      1  C   UNL A   1      32.094  27.788  26.244  1.00  0.00     0.274 C 
ENDROOT
BRANCH   1   2
ATOM      2  O   UNL A   1      31.045  26.989  26.826  1.00  0.00    -0.462 OA
BRANCH   2   3
ATOM      3  C   UNL A   1      30.658  25.885  26.125  1.00  0.00     0.313 C 
ATOM      4  O   UNL A   1      29.782  25.113  26.500  1.00  0.00    -0.252 OA
BRANCH   3   5
ATOM      5  C   UNL A   1      31.483  25.682  24.847  1.00  0.00     0.126 C 
ATOM      6  C   UNL A   1      30.675  25.899  23.562  1.00  0.00     0.025 C 
BRANCH   5   7
ATOM      7  C   UNL A   1      32.244  24.359  24.874  1.00  0.00    -0.034 A 
ATOM      8  C   UNL A   1      33.209  24.147  25.873  1.00  0.00     0.005 A 
ATOM      9  C   UNL A   1      32.003  23.319  23.965  1.00  0.00     0.005 A 
ATOM     10  C   UNL A   1      33.909  22.940  25.958  1.00  0.00     0.004 A 
ATOM     11  C   UNL A   1      32.714  22.115  24.043  1.00  0.00     0.004 A 
ATOM     12  C   UNL A   1      33.682  21.914  25.034  1.00  0.00    -0.048 A 
BRANCH  12  13
ATOM     13  C   UNL A   1      34.419  20.599  25.155  1.00  0.00     0.041 C 
BRANCH  13  14
ATOM     14  C   UNL A   1      33.736  19.327  24.631  1.00  0.00     0.022 C 
ATOM     15  C   UNL A   1      34.677  18.168  24.251  1.00  0.00     0.007 C 
ATOM     16  C   UNL A   1      32.621  18.695  25.482  1.00  0.00     0.117 C 
ATOM     17  C   UNL A   1      33.988  16.888  24.720  1.00  0.00     0.003 C 
ATOM     18  C   UNL A   1      32.529  17.276  24.930  1.00  0.00     0.032 C 
BRANCH  16  19
ATOM     19  O   UNL A   1      32.903  18.616  26.872  1.00  0.00    -0.393 OA
ATOM     20  H   UNL A   1      32.314  17.966  27.285  1.00  0.00     0.210 HD
ENDBRANCH  16  19
ENDBRANCH  13  14
ENDBRANCH  12  13
ENDBRANCH   5   7
ENDBRANCH   3   5
ENDBRANCH   2   3
ENDBRANCH   1   2
BRANCH   1  21
ATOM     21  C   UNL A   1      31.616  29.228  26.086  1.00  0.00     0.275 C 
BRANCH  21  22
ATOM     22  O   UNL A   1      32.756  30.080  25.882  1.00  0.00    -0.458 OA
BRANCH  22  23
ATOM     23  C   UNL A   1      33.012  30.979  26.858  1.00  0.00     0.338 C 
ATOM     24  O   UNL A   1      32.274  31.875  27.242  1.00  0.00    -0.246 OA
BRANCH  23  25
ATOM     25  C   UNL A   1      34.360  30.746  27.414  1.00  0.00     0.060 A 
ATOM     26  C   UNL A   1      34.810  29.451  27.663  1.00  0.00     0.016 A 
ATOM     27  C   UNL A   1      35.150  31.835  27.786  1.00  0.00     0.016 A 
ATOM     28  C   UNL A   1      35.998  29.255  28.370  1.00  0.00     0.010 A 
ATOM     29  C   UNL A   1      36.384  31.625  28.418  1.00  0.00     0.010 A 
ATOM     30  C   UNL A   1      36.805  30.332  28.771  1.00  0.00    -0.014 A 
BRANCH  30  31
ATOM     31  C   UNL A   1      38.021  30.116  29.625  1.00  0.00     0.031 A 
ATOM     32  C   UNL A   1      39.199  29.331  29.087  1.00  0.00     0.074 A 
ATOM     33  C   UNL A   1      38.124  30.648  30.863  1.00  0.00     0.049 A 
ATOM     34  N   UNL A   1      40.226  28.828  29.726  1.00  0.00    -0.248 NA
ATOM     35  C   UNL A   1      39.212  29.066  27.641  1.00  0.00     0.031 C 
ATOM     36  C   UNL A   1      37.123  31.491  31.514  1.00  0.00     0.029 A 
ATOM     37  N   UNL A   1      39.139  30.569  31.791  1.00  0.00    -0.354 N 
ATOM     38  C   UNL A   1      40.954  28.109  28.780  1.00  0.00     0.074 A 
ATOM     39  C   UNL A   1      40.255  28.258  27.520  1.00  0.00     0.031 C 
ATOM     40  C   UNL A   1      37.596  31.905  32.700  1.00  0.00     0.029 A 
ATOM     41  C   UNL A   1      38.878  31.259  32.954  1.00  0.00     0.049 A 
ATOM     42  H   UNL A   1      39.971  30.067  31.638  1.00  0.00     0.167 HD
ATOM     43  C   UNL A   1      42.090  27.386  28.948  1.00  0.00     0.034 A 
ATOM     44  C   UNL A   1      39.554  31.325  34.119  1.00  0.00     0.034 A 
ATOM     45  C   UNL A   1      42.830  27.312  30.187  1.00  0.00     0.049 A 
ATOM     46  C   UNL A   1      40.807  30.510  34.292  1.00  0.00     0.074 A 
ATOM     47  C   UNL A   1      43.995  26.612  30.458  1.00  0.00     0.029 A 
ATOM     48  N   UNL A   1      42.497  27.985  31.354  1.00  0.00    -0.354 N 
ATOM     49  N   UNL A   1      41.401  29.716  33.432  1.00  0.00    -0.248 NA
ATOM     50  C   UNL A   1      41.461  30.574  35.607  1.00  0.00     0.031 C 
ATOM     51  C   UNL A   1      44.340  26.826  31.798  1.00  0.00     0.029 A 
ATOM     52  C   UNL A   1      43.426  27.708  32.347  1.00  0.00     0.049 A 
ATOM     53  H   UNL A   1      41.715  28.573  31.462  1.00  0.00     0.167 HD
ATOM     54  C   UNL A   1      42.492  29.179  34.108  1.00  0.00     0.074 A 
ATOM     55  C   UNL A   1      42.496  29.766  35.432  1.00  0.00     0.031 C 
ATOM     56  C   UNL A   1      43.403  28.271  33.675  1.00  0.00     0.034 A 
BRANCH  43  57
ATOM     57  C   UNL A   1      42.571  26.557  27.780  1.00  0.00     0.023 A 
ATOM     58  C   UNL A   1      42.096  25.259  27.529  1.00  0.00     0.031 A 
ATOM     59  C   UNL A   1      43.546  27.080  26.910  1.00  0.00     0.131 A 
ATOM     60  C   UNL A   1      42.640  24.507  26.476  1.00  0.00     0.055 A 
ATOM     61  C   UNL A   1      44.029  26.356  25.818  1.00  0.00     0.041 A 
ATOM     62  F   UNL A   1      44.052  28.308  27.110  1.00  0.00    -0.206 F 
ATOM     63  C   UNL A   1      43.586  25.055  25.604  1.00  0.00     0.022 A 
BRANCH  60  64
ATOM     64  S   UNL A   1      42.193  22.755  26.340  1.00  0.00     0.124 S 
ATOM     65  O   UNL A   1      40.745  22.803  26.524  1.00  0.00    -0.237 OA
ATOM     66  O   UNL A   1      42.656  22.415  25.000  1.00  0.00    -0.237 OA
ATOM     67  O   UNL A   1      42.932  22.127  27.434  1.00  0.00    -0.744 OA
ENDBRANCH  60  64
ENDBRANCH  43  57
BRANCH  44  68
ATOM     68  C   UNL A   1      39.006  32.118  35.258  1.00  0.00     0.023 A 
ATOM     69  C   UNL A   1      38.436  31.489  36.375  1.00  0.00     0.031 A 
ATOM     70  C   UNL A   1      39.017  33.525  35.225  1.00  0.00     0.131 A 
ATOM     71  C   UNL A   1      37.881  32.265  37.405  1.00  0.00     0.055 A 
ATOM     72  C   UNL A   1      38.515  34.292  36.277  1.00  0.00     0.041 A 
ATOM     73  F   UNL A   1      39.542  34.175  34.174  1.00  0.00    -0.206 F 
ATOM     74  C   UNL A   1      37.934  33.661  37.372  1.00  0.00     0.022 A 
BRANCH  71  75
ATOM     75  S   UNL A   1      37.025  31.424  38.765  1.00  0.00     0.124 S 
ATOM     76  O   UNL A   1      37.980  31.579  39.857  1.00  0.00    -0.237 OA
ATOM     77  O   UNL A   1      35.794  32.199  38.875  1.00  0.00    -0.237 OA
ATOM     78  O   UNL A   1      36.857  30.059  38.271  1.00  0.00    -0.744 OA
ENDBRANCH  71  75
ENDBRANCH  44  68
BRANCH  56  79
ATOM     79  C   UNL A   1      44.485  27.878  34.647  1.00  0.00     0.023 A 
ATOM     80  C   UNL A   1      44.232  26.986  35.704  1.00  0.00     0.031 A 
ATOM     81  C   UNL A   1      45.775  28.426  34.535  1.00  0.00     0.131 A 
ATOM     82  C   UNL A   1      45.241  26.706  36.638  1.00  0.00     0.055 A 
ATOM     83  C   UNL A   1      46.789  28.107  35.441  1.00  0.00     0.041 A 
ATOM     84  F   UNL A   1      46.069  29.285  33.546  1.00  0.00    -0.206 F 
ATOM     85  C   UNL A   1      46.521  27.252  36.506  1.00  0.00     0.022 A 
BRANCH  82  86
ATOM     86  S   UNL A   1      44.837  25.681  38.080  1.00  0.00     0.124 S 
ATOM     87  O   UNL A   1      44.597  24.378  37.469  1.00  0.00    -0.237 OA
ATOM     88  O   UNL A   1      46.045  25.793  38.891  1.00  0.00    -0.237 OA
ATOM     89  O   UNL A   1      43.654  26.330  38.642  1.00  0.00    -0.744 OA
ENDBRANCH  82  86
ENDBRANCH  56  79
ENDBRANCH  30  31
ENDBRANCH  23  25
ENDBRANCH  22  23
ENDBRANCH  21  22
ENDBRANCH   1  21
TORSDOF 18
ENDMDL
MODEL 3
REMARK VINA RESULT:     -11.8      4.837     10.367
REMARK SMILES C[C@@H](C(=O)OCCOC(=O)c1ccc(-c2c3nc(c(-c4cc(S(=O)(=O)[O-])ccc4F)c4ccc([nH]4)c(-c4cc(S(=O)(=O)[O-])ccc4F)c4nc(c(-c5cc(S(=O)(=O)[O-])ccc5F)c5ccc2[nH]5)C=C4)C=C3)cc1)c1ccc(C[C@H]2CCC[C@H]2O)cc1
REMARK SMILES IDX 6 1 5 2 3 3 4 4 2 5 1 6 74 7 75 8 86 9 76 10 85 11 77 12
REMARK SMILES IDX 78 13 79 14 80 15 83 16 81 17 82 18 84 19 7 21 8 22 9 23
REMARK SMILES IDX 10 24 11 25 12 26 73 27 13 28 72 29 14 30 15 31 16 32 66 33
REMARK SMILES IDX 17 34 71 35 65 36 67 37 18 38 70 39 64 40 63 41 19 43 51 44
REMARK SMILES IDX 31 45 50 46 32 47 35 48 49 49 68 50 33 51 34 52 48 54 69 55
REMARK SMILES IDX 36 56 20 57 21 58 29 59 22 60 28 61 30 62 27 63 23 64 24 65
REMARK SMILES IDX 25 66 26 67 52 68 53 69 61 70 54 71 60 72 62 73 59 74 55 75
REMARK SMILES IDX 56 76 57 77 58 78 37 79 38 80 46 81 39 82 45 83 47 84 44 85
REMARK SMILES IDX 40 86 41 87 42 88 43 89
REMARK H PARENT 84 20 67 42 35 53
REMARK Flexibility Score: inf
ROOT
ATOM      1  C   UNL A   1      31.288  29.055  24.462  1.00  0.00     0.274 C 
ENDROOT
BRANCH   1   2
ATOM      2  O   UNL A   1      32.303  28.050  24.652  1.00  0.00    -0.462 OA
BRANCH   2   3
ATOM      3  C   UNL A   1      31.966  26.771  24.319  1.00  0.00     0.313 C 
ATOM      4  O   UNL A   1      30.857  26.287  24.517  1.00  0.00    -0.252 OA
BRANCH   3   5
ATOM      5  C   UNL A   1      33.145  25.987  23.728  1.00  0.00     0.126 C 
ATOM      6  C   UNL A   1      33.440  26.344  22.267  1.00  0.00     0.025 C 
BRANCH   5   7
ATOM      7  C   UNL A   1      33.001  24.487  23.973  1.00  0.00    -0.034 A 
ATOM      8  C   UNL A   1      33.230  23.981  25.264  1.00  0.00     0.005 A 
ATOM      9  C   UNL A   1      32.613  23.582  22.974  1.00  0.00     0.005 A 
ATOM     10  C   UNL A   1      33.080  22.620  25.544  1.00  0.00     0.004 A 
ATOM     11  C   UNL A   1      32.476  22.217  23.254  1.00  0.00     0.004 A 
ATOM     12  C   UNL A   1      32.716  21.717  24.539  1.00  0.00    -0.048 A 
BRANCH  12  13
ATOM     13  C   UNL A   1      32.522  20.252  24.860  1.00  0.00     0.041 C 
BRANCH  13  14
ATOM     14  C   UNL A   1      33.295  19.214  24.033  1.00  0.00     0.022 C 
ATOM     15  C   UNL A   1      34.640  18.751  24.626  1.00  0.00     0.007 C 
ATOM     16  C   UNL A   1      32.563  17.929  23.610  1.00  0.00     0.117 C 
ATOM     17  C   UNL A   1      34.730  17.250  24.355  1.00  0.00     0.003 C 
ATOM     18  C   UNL A   1      33.706  16.982  23.259  1.00  0.00     0.032 C 
BRANCH  16  19
ATOM     19  O   UNL A   1      31.778  17.325  24.628  1.00  0.00    -0.393 OA
ATOM     20  H   UNL A   1      31.444  18.010  25.228  1.00  0.00     0.210 HD
ENDBRANCH  16  19
ENDBRANCH  13  14
ENDBRANCH  12  13
ENDBRANCH   5   7
ENDBRANCH   3   5
ENDBRANCH   2   3
ENDBRANCH   1   2
BRANCH   1  21
ATOM     21  C   UNL A   1      31.403  30.115  25.552  1.00  0.00     0.275 C 
BRANCH  21  22
ATOM     22  O   UNL A   1      32.794  30.354  25.827  1.00  0.00    -0.458 OA
BRANCH  22  23
ATOM     23  C   UNL A   1      33.066  31.173  26.868  1.00  0.00     0.338 C 
ATOM     24  O   UNL A   1      32.338  32.043  27.325  1.00  0.00    -0.246 OA
BRANCH  23  25
ATOM     25  C   UNL A   1      34.416  30.886  27.393  1.00  0.00     0.060 A 
ATOM     26  C   UNL A   1      34.828  29.574  27.610  1.00  0.00     0.016 A 
ATOM     27  C   UNL A   1      35.247  31.943  27.768  1.00  0.00     0.016 A 
ATOM     28  C   UNL A   1      36.022  29.327  28.291  1.00  0.00     0.010 A 
ATOM     29  C   UNL A   1      36.485  31.682  28.372  1.00  0.00     0.010 A 
ATOM     30  C   UNL A   1      36.871  30.370  28.695  1.00  0.00    -0.014 A 
BRANCH  30  31
ATOM     31  C   UNL A   1      38.095  30.100  29.521  1.00  0.00     0.031 A 
ATOM     32  C   UNL A   1      39.224  29.261  28.958  1.00  0.00     0.074 A 
ATOM     33  C   UNL A   1      38.252  30.628  30.754  1.00  0.00     0.049 A 
ATOM     34  N   UNL A   1      40.241  28.712  29.573  1.00  0.00    -0.248 NA
ATOM     35  C   UNL A   1      39.191  28.994  27.512  1.00  0.00     0.031 C 
ATOM     36  C   UNL A   1      37.305  31.518  31.427  1.00  0.00     0.029 A 
ATOM     37  N   UNL A   1      39.283  30.505  31.659  1.00  0.00    -0.354 N 
ATOM     38  C   UNL A   1      40.914  27.960  28.613  1.00  0.00     0.074 A 
ATOM     39  C   UNL A   1      40.193  28.139  27.370  1.00  0.00     0.031 C 
ATOM     40  C   UNL A   1      37.824  31.911  32.600  1.00  0.00     0.029 A 
ATOM     41  C   UNL A   1      39.081  31.208  32.826  1.00  0.00     0.049 A 
ATOM     42  H   UNL A   1      40.087  29.965  31.488  1.00  0.00     0.167 HD
ATOM     43  C   UNL A   1      42.019  27.185  28.756  1.00  0.00     0.034 A 
ATOM     44  C   UNL A   1      39.786  31.245  33.976  1.00  0.00     0.034 A 
ATOM     45  C   UNL A   1      42.783  27.080  29.978  1.00  0.00     0.049 A 
ATOM     46  C   UNL A   1      41.004  30.373  34.121  1.00  0.00     0.074 A 
ATOM     47  C   UNL A   1      43.921  26.327  30.224  1.00  0.00     0.029 A 
ATOM     48  N   UNL A   1      42.508  27.769  31.151  1.00  0.00    -0.354 N 
ATOM     49  N   UNL A   1      41.542  29.552  33.250  1.00  0.00    -0.248 NA
ATOM     50  C   UNL A   1      41.691  30.408  35.420  1.00  0.00     0.031 C 
ATOM     51  C   UNL A   1      44.306  26.527  31.555  1.00  0.00     0.029 A 
ATOM     52  C   UNL A   1      43.447  27.451  32.123  1.00  0.00     0.049 A 
ATOM     53  H   UNL A   1      41.757  28.392  31.276  1.00  0.00     0.167 HD
ATOM     54  C   UNL A   1      42.622  28.966  33.901  1.00  0.00     0.074 A 
ATOM     55  C   UNL A   1      42.684  29.554  35.223  1.00  0.00     0.031 C 
ATOM     56  C   UNL A   1      43.480  28.017  33.450  1.00  0.00     0.034 A 
BRANCH  43  57
ATOM     57  C   UNL A   1      42.434  26.334  27.580  1.00  0.00     0.023 A 
ATOM     58  C   UNL A   1      41.979  25.017  27.403  1.00  0.00     0.031 A 
ATOM     59  C   UNL A   1      43.325  26.855  26.623  1.00  0.00     0.131 A 
ATOM     60  C   UNL A   1      42.464  24.248  26.334  1.00  0.00     0.055 A 
ATOM     61  C   UNL A   1      43.745  26.111  25.519  1.00  0.00     0.041 A 
ATOM     62  F   UNL A   1      43.809  28.102  26.748  1.00  0.00    -0.206 F 
ATOM     63  C   UNL A   1      43.325  24.792  25.378  1.00  0.00     0.022 A 
BRANCH  60  64
ATOM     64  S   UNL A   1      42.059  22.480  26.284  1.00  0.00     0.124 S 
ATOM     65  O   UNL A   1      40.599  22.511  26.267  1.00  0.00    -0.237 OA
ATOM     66  O   UNL A   1      42.703  22.045  25.050  1.00  0.00    -0.237 OA
ATOM     67  O   UNL A   1      42.649  21.958  27.515  1.00  0.00    -0.744 OA
ENDBRANCH  60  64
ENDBRANCH  43  57
BRANCH  44  68
ATOM     68  C   UNL A   1      39.301  32.063  35.124  1.00  0.00     0.023 A 
ATOM     69  C   UNL A   1      39.745  33.380  35.318  1.00  0.00     0.031 A 
ATOM     70  C   UNL A   1      38.405  31.521  36.066  1.00  0.00     0.131 A 
ATOM     71  C   UNL A   1      39.310  34.104  36.439  1.00  0.00     0.055 A 
ATOM     72  C   UNL A   1      37.933  32.264  37.147  1.00  0.00     0.041 A 
ATOM     73  F   UNL A   1      37.958  30.263  35.930  1.00  0.00    -0.206 F 
ATOM     74  C   UNL A   1      38.393  33.562  37.344  1.00  0.00     0.022 A 
BRANCH  71  75
ATOM     75  S   UNL A   1      40.013  35.749  36.741  1.00  0.00     0.124 S 
ATOM     76  O   UNL A   1      39.653  36.454  35.516  1.00  0.00    -0.237 OA
ATOM     77  O   UNL A   1      39.310  36.163  37.950  1.00  0.00    -0.237 OA
ATOM     78  O   UNL A   1      41.440  35.484  36.912  1.00  0.00    -0.744 OA
ENDBRANCH  71  75
ENDBRANCH  44  68
BRANCH  56  79
ATOM     79  C   UNL A   1      44.566  27.576  34.398  1.00  0.00     0.023 A 
ATOM     80  C   UNL A   1      44.382  26.486  35.266  1.00  0.00     0.031 A 
ATOM     81  C   UNL A   1      45.785  28.273  34.456  1.00  0.00     0.131 A 
ATOM     82  C   UNL A   1      45.382  26.155  36.193  1.00  0.00     0.055 A 
ATOM     83  C   UNL A   1      46.796  27.909  35.347  1.00  0.00     0.041 A 
ATOM     84  F   UNL A   1      46.011  29.322  33.649  1.00  0.00    -0.206 F 
ATOM     85  C   UNL A   1      46.593  26.853  36.231  1.00  0.00     0.022 A 
BRANCH  82  86
ATOM     86  S   UNL A   1      45.050  24.849  37.409  1.00  0.00     0.124 S 
ATOM     87  O   UNL A   1      46.253  24.890  38.234  1.00  0.00    -0.237 OA
ATOM     88  O   UNL A   1      43.824  25.320  38.044  1.00  0.00    -0.237 OA
ATOM     89  O   UNL A   1      44.900  23.648  36.590  1.00  0.00    -0.744 OA
ENDBRANCH  82  86
ENDBRANCH  56  79
ENDBRANCH  30  31
ENDBRANCH  23  25
ENDBRANCH  22  23
ENDBRANCH  21  22
ENDBRANCH   1  21
TORSDOF 18
ENDMDL
