MODEL 1
REMARK VINA RESULT:     -11.8      0.000      0.000
REMARK SMILES O=C(C[C@@H]([NH2+]Cc1ccccc1)C(=O)OCCOC(=O)c1ccc(-c2c3nc(c(-c4cc(S(=O)(=O)[O-])ccc4F)c4ccc([nH]4)c(-c4cc(S(=O)(=O)[O-])ccc4F)c4nc(c(-c5cc(S(=O)(=O)[O-])ccc5F)c5ccc2[nH]5)C=C4)C=C3)cc1)Nc1cccc(Cl)c1Cl
REMARK SMILES IDX 16 1 15 2 13 3 14 4 4 5 3 6 2 7 1 8 84 9 85 11 86 12 91 13
REMARK SMILES IDX 87 14 89 15 92 16 88 17 90 18 5 19 6 22 7 23 8 24 12 25 9 26
REMARK SMILES IDX 11 27 10 28 17 29 18 30 19 31 20 32 21 33 22 34 83 35 23 36
REMARK SMILES IDX 82 37 24 38 25 39 26 40 76 41 27 42 81 43 75 44 77 45 28 46
REMARK SMILES IDX 80 47 74 48 73 49 29 51 61 52 41 53 60 54 42 55 45 56 59 57
REMARK SMILES IDX 78 58 43 59 44 60 58 62 79 63 46 64 30 65 31 66 39 67 32 68
REMARK SMILES IDX 38 69 40 70 37 71 33 72 34 73 35 74 36 75 62 76 63 77 71 78
REMARK SMILES IDX 64 79 70 80 72 81 69 82 65 83 66 84 67 85 68 86 47 87 48 88
REMARK SMILES IDX 56 89 49 90 55 91 57 92 54 93 50 94 51 95 52 96 53 97
REMARK H PARENT 84 10 5 20 5 21 77 50 45 61
REMARK Flexibility Score: inf
ROOT
ATOM      1  C   UNL A   1      35.942  20.815  24.929  1.00  0.00     0.274 C 
ENDROOT
BRANCH   1   2
ATOM      2  O   UNL A   1      35.517  21.819  23.986  1.00  0.00    -0.458 OA
BRANCH   2   3
ATOM      3  C   UNL A   1      34.507  22.624  24.419  1.00  0.00     0.365 C 
ATOM      4  O   UNL A   1      34.599  23.326  25.422  1.00  0.00    -0.245 OA
BRANCH   3   5
ATOM      5  C   UNL A   1      33.239  22.563  23.542  1.00  0.00     0.303 C 
BRANCH   5   6
ATOM      6  C   UNL A   1      33.422  23.331  22.222  1.00  0.00     0.177 C 
BRANCH   6   7
ATOM      7  C   UNL A   1      33.197  24.813  22.414  1.00  0.00     0.231 C 
ATOM      8  O   UNL A   1      34.028  25.644  22.067  1.00  0.00    -0.274 OA
ATOM      9  N   UNL A   1      32.036  25.089  23.120  1.00  0.00    -0.325 N 
ATOM     10  H   UNL A   1      31.479  24.331  23.409  1.00  0.00     0.169 HD
BRANCH   9  11
ATOM     11  C   UNL A   1      31.606  26.393  23.448  1.00  0.00     0.061 A 
ATOM     12  C   UNL A   1      30.856  27.053  22.463  1.00  0.00     0.028 A 
ATOM     13  C   UNL A   1      31.916  27.058  24.654  1.00  0.00     0.083 A 
ATOM     14  C   UNL A   1      30.353  28.333  22.691  1.00  0.00     0.004 A 
ATOM     15  C   UNL A   1      31.423  28.357  24.863  1.00  0.00     0.061 A 
ATOM     16  Cl  UNL A   1      33.066  26.383  25.770  1.00  0.00    -0.080 Cl
ATOM     17  C   UNL A   1      30.632  28.982  23.891  1.00  0.00     0.022 A 
ATOM     18  Cl  UNL A   1      31.797  29.286  26.276  1.00  0.00    -0.083 Cl
ENDBRANCH   9  11
ENDBRANCH   6   7
ENDBRANCH   5   6
BRANCH   5  19
ATOM     19  N   UNL A   1      32.771  21.164  23.264  1.00  0.00    -0.330 N 
ATOM     20  H   UNL A   1      33.556  20.636  22.880  1.00  0.00     0.347 HD
ATOM     21  H   UNL A   1      31.988  21.242  22.615  1.00  0.00     0.347 HD
BRANCH  19  22
ATOM     22  C   UNL A   1      32.266  20.442  24.449  1.00  0.00     0.298 C 
BRANCH  22  23
ATOM     23  C   UNL A   1      32.638  18.978  24.479  1.00  0.00     0.006 A 
ATOM     24  C   UNL A   1      32.661  18.276  25.692  1.00  0.00     0.009 A 
ATOM     25  C   UNL A   1      32.966  18.291  23.300  1.00  0.00     0.009 A 
ATOM     26  C   UNL A   1      32.985  16.920  25.724  1.00  0.00     0.001 A 
ATOM     27  C   UNL A   1      33.289  16.932  23.336  1.00  0.00     0.001 A 
ATOM     28  C   UNL A   1      33.291  16.245  24.548  1.00  0.00     0.000 A 
ENDBRANCH  22  23
ENDBRANCH  19  22
ENDBRANCH   5  19
ENDBRANCH   3   5
ENDBRANCH   2   3
ENDBRANCH   1   2
BRANCH   1  29
ATOM     29  C   UNL A   1      37.465  20.772  25.115  1.00  0.00     0.275 C 
BRANCH  29  30
ATOM     30  O   UNL A   1      38.006  21.992  25.660  1.00  0.00    -0.458 OA
BRANCH  30  31
ATOM     31  C   UNL A   1      39.165  21.839  26.350  1.00  0.00     0.338 C 
ATOM     32  O   UNL A   1      39.834  20.821  26.410  1.00  0.00    -0.246 OA
BRANCH  31  33
ATOM     33  C   UNL A   1      39.616  23.127  26.911  1.00  0.00     0.060 A 
ATOM     34  C   UNL A   1      39.010  24.290  26.428  1.00  0.00     0.016 A 
ATOM     35  C   UNL A   1      40.665  23.211  27.831  1.00  0.00     0.016 A 
ATOM     36  C   UNL A   1      39.428  25.541  26.875  1.00  0.00     0.010 A 
ATOM     37  C   UNL A   1      41.106  24.472  28.256  1.00  0.00     0.010 A 
ATOM     38  C   UNL A   1      40.492  25.642  27.777  1.00  0.00    -0.014 A 
BRANCH  38  39
ATOM     39  C   UNL A   1      41.000  26.987  28.140  1.00  0.00     0.031 A 
ATOM     40  C   UNL A   1      42.418  27.354  27.815  1.00  0.00     0.074 A 
ATOM     41  C   UNL A   1      40.173  27.890  28.696  1.00  0.00     0.049 A 
ATOM     42  N   UNL A   1      43.068  28.459  28.075  1.00  0.00    -0.248 NA
ATOM     43  C   UNL A   1      43.208  26.338  27.107  1.00  0.00     0.031 C 
ATOM     44  C   UNL A   1      38.763  27.653  29.000  1.00  0.00     0.029 A 
ATOM     45  N   UNL A   1      40.386  29.186  29.091  1.00  0.00    -0.354 N 
ATOM     46  C   UNL A   1      44.351  28.269  27.574  1.00  0.00     0.074 A 
ATOM     47  C   UNL A   1      44.388  26.935  27.010  1.00  0.00     0.031 C 
ATOM     48  C   UNL A   1      38.229  28.774  29.510  1.00  0.00     0.029 A 
ATOM     49  C   UNL A   1      39.273  29.790  29.631  1.00  0.00     0.049 A 
ATOM     50  H   UNL A   1      41.254  29.642  28.997  1.00  0.00     0.167 HD
ATOM     51  C   UNL A   1      45.400  29.129  27.593  1.00  0.00     0.034 A 
ATOM     52  C   UNL A   1      39.126  31.009  30.188  1.00  0.00     0.034 A 
ATOM     53  C   UNL A   1      45.343  30.449  28.176  1.00  0.00     0.049 A 
ATOM     54  C   UNL A   1      40.330  31.918  30.265  1.00  0.00     0.074 A 
ATOM     55  C   UNL A   1      46.350  31.393  28.275  1.00  0.00     0.029 A 
ATOM     56  N   UNL A   1      44.217  31.010  28.769  1.00  0.00    -0.354 N 
ATOM     57  N   UNL A   1      41.550  31.714  29.823  1.00  0.00    -0.248 NA
ATOM     58  C   UNL A   1      40.140  33.216  30.925  1.00  0.00     0.031 C 
ATOM     59  C   UNL A   1      45.853  32.495  28.983  1.00  0.00     0.029 A 
ATOM     60  C   UNL A   1      44.514  32.273  29.260  1.00  0.00     0.049 A 
ATOM     61  H   UNL A   1      43.337  30.574  28.831  1.00  0.00     0.167 HD
ATOM     62  C   UNL A   1      42.266  32.865  30.138  1.00  0.00     0.074 A 
ATOM     63  C   UNL A   1      41.335  33.769  30.784  1.00  0.00     0.031 C 
ATOM     64  C   UNL A   1      43.575  33.152  29.917  1.00  0.00     0.034 A 
BRANCH  51  65
ATOM     65  C   UNL A   1      46.710  28.630  27.036  1.00  0.00     0.023 A 
ATOM     66  C   UNL A   1      46.914  28.449  25.657  1.00  0.00     0.031 A 
ATOM     67  C   UNL A   1      47.760  28.289  27.908  1.00  0.00     0.131 A 
ATOM     68  C   UNL A   1      48.112  27.880  25.196  1.00  0.00     0.055 A 
ATOM     69  C   UNL A   1      48.977  27.793  27.438  1.00  0.00     0.041 A 
ATOM     70  F   UNL A   1      47.614  28.417  29.236  1.00  0.00    -0.206 F 
ATOM     71  C   UNL A   1      49.154  27.571  26.075  1.00  0.00     0.022 A 
BRANCH  68  72
ATOM     72  S   UNL A   1      48.241  27.419  23.446  1.00  0.00     0.124 S 
ATOM     73  O   UNL A   1      49.586  27.884  23.119  1.00  0.00    -0.237 OA
ATOM     74  O   UNL A   1      48.053  25.974  23.486  1.00  0.00    -0.237 OA
ATOM     75  O   UNL A   1      47.158  28.172  22.814  1.00  0.00    -0.744 OA
ENDBRANCH  68  72
ENDBRANCH  51  65
BRANCH  52  76
ATOM     76  C   UNL A   1      37.819  31.428  30.774  1.00  0.00     0.023 A 
ATOM     77  C   UNL A   1      36.858  32.105  30.006  1.00  0.00     0.031 A 
ATOM     78  C   UNL A   1      37.538  31.213  32.136  1.00  0.00     0.131 A 
ATOM     79  C   UNL A   1      35.685  32.581  30.612  1.00  0.00     0.055 A 
ATOM     80  C   UNL A   1      36.344  31.637  32.721  1.00  0.00     0.041 A 
ATOM     81  F   UNL A   1      38.422  30.577  32.921  1.00  0.00    -0.206 F 
ATOM     82  C   UNL A   1      35.414  32.339  31.961  1.00  0.00     0.022 A 
BRANCH  79  83
ATOM     83  S   UNL A   1      34.554  33.609  29.633  1.00  0.00     0.124 S 
ATOM     84  O   UNL A   1      35.474  34.554  29.012  1.00  0.00    -0.237 OA
ATOM     85  O   UNL A   1      33.946  32.626  28.743  1.00  0.00    -0.237 OA
ATOM     86  O   UNL A   1      33.656  34.178  30.637  1.00  0.00    -0.744 OA
ENDBRANCH  79  83
ENDBRANCH  52  76
BRANCH  64  87
ATOM     87  C   UNL A   1      44.057  34.517  30.349  1.00  0.00     0.023 A 
ATOM     88  C   UNL A   1      43.905  35.649  29.529  1.00  0.00     0.031 A 
ATOM     89  C   UNL A   1      44.690  34.680  31.593  1.00  0.00     0.131 A 
ATOM     90  C   UNL A   1      44.428  36.885  29.940  1.00  0.00     0.055 A 
ATOM     91  C   UNL A   1      45.156  35.924  32.023  1.00  0.00     0.041 A 
ATOM     92  F   UNL A   1      44.863  33.633  32.415  1.00  0.00    -0.206 F 
ATOM     93  C   UNL A   1      45.039  37.032  31.189  1.00  0.00     0.022 A 
BRANCH  90  94
ATOM     94  S   UNL A   1      44.378  38.282  28.784  1.00  0.00     0.124 S 
ATOM     95  O   UNL A   1      42.943  38.459  28.584  1.00  0.00    -0.237 OA
ATOM     96  O   UNL A   1      45.053  39.336  29.536  1.00  0.00    -0.237 OA
ATOM     97  O   UNL A   1      45.111  37.788  27.619  1.00  0.00    -0.744 OA
ENDBRANCH  90  94
ENDBRANCH  64  87
ENDBRANCH  38  39
ENDBRANCH  31  33
ENDBRANCH  30  31
ENDBRANCH  29  30
ENDBRANCH   1  29
TORSDOF 20
ENDMDL
MODEL 2
REMARK VINA RESULT:     -11.8      1.419      7.536
REMARK SMILES O=C(C[C@@H]([NH2+]Cc1ccccc1)C(=O)OCCOC(=O)c1ccc(-c2c3nc(c(-c4cc(S(=O)(=O)[O-])ccc4F)c4ccc([nH]4)c(-c4cc(S(=O)(=O)[O-])ccc4F)c4nc(c(-c5cc(S(=O)(=O)[O-])ccc5F)c5ccc2[nH]5)C=C4)C=C3)cc1)Nc1cccc(Cl)c1Cl
REMARK SMILES IDX 16 1 15 2 13 3 14 4 4 5 3 6 2 7 1 8 84 9 85 11 86 12 91 13
REMARK SMILES IDX 87 14 89 15 92 16 88 17 90 18 5 19 6 22 7 23 8 24 12 25 9 26
REMARK SMILES IDX 11 27 10 28 17 29 18 30 19 31 20 32 21 33 22 34 83 35 23 36
REMARK SMILES IDX 82 37 24 38 25 39 26 40 76 41 27 42 81 43 75 44 77 45 28 46
REMARK SMILES IDX 80 47 74 48 73 49 29 51 61 52 41 53 60 54 42 55 45 56 59 57
REMARK SMILES IDX 78 58 43 59 44 60 58 62 79 63 46 64 30 65 31 66 39 67 32 68
REMARK SMILES IDX 38 69 40 70 37 71 33 72 34 73 35 74 36 75 62 76 63 77 71 78
REMARK SMILES IDX 64 79 70 80 72 81 69 82 65 83 66 84 67 85 68 86 47 87 48 88
REMARK SMILES IDX 56 89 49 90 55 91 57 92 54 93 50 94 51 95 52 96 53 97
REMARK H PARENT 84 10 5 20 5 21 77 50 45 61
REMARK Flexibility Score: inf
ROOT
ATOM      1  C   UNL A   1      36.450  22.239  23.956  1.00  0.00     0.274 C 
ENDROOT
BRANCH   1   2
ATOM      2  O   UNL A   1      35.049  21.926  23.829  1.00  0.00    -0.458 OA
BRANCH   2   3
ATOM      3  C   UNL A   1      34.250  22.464  24.792  1.00  0.00     0.365 C 
ATOM      4  O   UNL A   1      34.694  22.991  25.807  1.00  0.00    -0.245 OA
BRANCH   3   5
ATOM      5  C   UNL A   1      32.741  22.340  24.493  1.00  0.00     0.303 C 
BRANCH   5   6
ATOM      6  C   UNL A   1      32.399  22.829  23.075  1.00  0.00     0.177 C 
BRANCH   6   7
ATOM      7  C   UNL A   1      32.631  24.317  22.937  1.00  0.00     0.231 C 
ATOM      8  O   UNL A   1      33.261  24.788  21.998  1.00  0.00    -0.274 OA
ATOM      9  N   UNL A   1      32.168  25.032  24.031  1.00  0.00    -0.325 N 
ATOM     10  H   UNL A   1      31.738  24.532  24.762  1.00  0.00     0.169 HD
BRANCH   9  11
ATOM     11  C   UNL A   1      32.279  26.433  24.158  1.00  0.00     0.061 A 
ATOM     12  C   UNL A   1      33.530  26.910  24.579  1.00  0.00     0.028 A 
ATOM     13  C   UNL A   1      31.223  27.343  23.934  1.00  0.00     0.083 A 
ATOM     14  C   UNL A   1      33.762  28.279  24.708  1.00  0.00     0.004 A 
ATOM     15  C   UNL A   1      31.463  28.719  24.091  1.00  0.00     0.061 A 
ATOM     16  Cl  UNL A   1      29.599  26.775  23.686  1.00  0.00    -0.080 Cl
ATOM     17  C   UNL A   1      32.732  29.181  24.459  1.00  0.00     0.022 A 
ATOM     18  Cl  UNL A   1      30.224  29.914  23.903  1.00  0.00    -0.083 Cl
ENDBRANCH   9  11
ENDBRANCH   6   7
ENDBRANCH   5   6
BRANCH   5  19
ATOM     19  N   UNL A   1      32.202  20.955  24.705  1.00  0.00    -0.330 N 
ATOM     20  H   UNL A   1      31.195  21.025  24.854  1.00  0.00     0.347 HD
ATOM     21  H   UNL A   1      32.698  20.569  25.508  1.00  0.00     0.347 HD
BRANCH  19  22
ATOM     22  C   UNL A   1      32.438  20.029  23.579  1.00  0.00     0.298 C 
BRANCH  22  23
ATOM     23  C   UNL A   1      32.841  18.637  24.006  1.00  0.00     0.006 A 
ATOM     24  C   UNL A   1      32.663  18.221  25.332  1.00  0.00     0.009 A 
ATOM     25  C   UNL A   1      33.399  17.733  23.089  1.00  0.00     0.009 A 
ATOM     26  C   UNL A   1      33.016  16.931  25.728  1.00  0.00     0.001 A 
ATOM     27  C   UNL A   1      33.750  16.441  23.488  1.00  0.00     0.001 A 
ATOM     28  C   UNL A   1      33.551  16.038  24.806  1.00  0.00     0.000 A 
ENDBRANCH  22  23
ENDBRANCH  19  22
ENDBRANCH   5  19
ENDBRANCH   3   5
ENDBRANCH   2   3
ENDBRANCH   1   2
BRANCH   1  29
ATOM     29  C   UNL A   1      37.262  21.109  24.606  1.00  0.00     0.275 C 
BRANCH  29  30
ATOM     30  O   UNL A   1      37.674  21.406  25.954  1.00  0.00    -0.458 OA
BRANCH  30  31
ATOM     31  C   UNL A   1      38.995  21.213  26.199  1.00  0.00     0.338 C 
ATOM     32  O   UNL A   1      39.630  20.202  25.946  1.00  0.00    -0.246 OA
BRANCH  31  33
ATOM     33  C   UNL A   1      39.627  22.455  26.682  1.00  0.00     0.060 A 
ATOM     34  C   UNL A   1      39.165  23.663  26.153  1.00  0.00     0.016 A 
ATOM     35  C   UNL A   1      40.705  22.445  27.570  1.00  0.00     0.016 A 
ATOM     36  C   UNL A   1      39.756  24.869  26.524  1.00  0.00     0.010 A 
ATOM     37  C   UNL A   1      41.321  23.655  27.918  1.00  0.00     0.010 A 
ATOM     38  C   UNL A   1      40.851  24.871  27.393  1.00  0.00    -0.014 A 
BRANCH  38  39
ATOM     39  C   UNL A   1      41.542  26.153  27.674  1.00  0.00     0.031 A 
ATOM     40  C   UNL A   1      40.859  27.191  28.515  1.00  0.00     0.074 A 
ATOM     41  C   UNL A   1      42.797  26.351  27.232  1.00  0.00     0.049 A 
ATOM     42  N   UNL A   1      41.271  28.387  28.850  1.00  0.00    -0.248 NA
ATOM     43  C   UNL A   1      39.536  26.835  29.044  1.00  0.00     0.031 C 
ATOM     44  C   UNL A   1      43.569  25.383  26.456  1.00  0.00     0.029 A 
ATOM     45  N   UNL A   1      43.648  27.416  27.380  1.00  0.00    -0.354 N 
ATOM     46  C   UNL A   1      40.251  28.935  29.620  1.00  0.00     0.074 A 
ATOM     47  C   UNL A   1      39.196  27.944  29.686  1.00  0.00     0.031 C 
ATOM     48  C   UNL A   1      44.791  25.888  26.217  1.00  0.00     0.029 A 
ATOM     49  C   UNL A   1      44.867  27.240  26.765  1.00  0.00     0.049 A 
ATOM     50  H   UNL A   1      43.409  28.232  27.878  1.00  0.00     0.167 HD
ATOM     51  C   UNL A   1      40.201  30.157  30.208  1.00  0.00     0.034 A 
ATOM     52  C   UNL A   1      45.908  28.087  26.633  1.00  0.00     0.034 A 
ATOM     53  C   UNL A   1      41.259  31.135  30.115  1.00  0.00     0.049 A 
ATOM     54  C   UNL A   1      45.795  29.469  27.233  1.00  0.00     0.074 A 
ATOM     55  C   UNL A   1      41.305  32.411  30.647  1.00  0.00     0.029 A 
ATOM     56  N   UNL A   1      42.458  30.948  29.435  1.00  0.00    -0.354 N 
ATOM     57  N   UNL A   1      44.811  29.991  27.927  1.00  0.00    -0.248 NA
ATOM     58  C   UNL A   1      46.930  30.377  27.023  1.00  0.00     0.031 C 
ATOM     59  C   UNL A   1      42.498  33.017  30.236  1.00  0.00     0.029 A 
ATOM     60  C   UNL A   1      43.234  32.095  29.510  1.00  0.00     0.049 A 
ATOM     61  H   UNL A   1      42.718  30.121  28.968  1.00  0.00     0.167 HD
ATOM     62  C   UNL A   1      45.216  31.283  28.249  1.00  0.00     0.074 A 
ATOM     63  C   UNL A   1      46.545  31.451  27.695  1.00  0.00     0.031 C 
ATOM     64  C   UNL A   1      44.552  32.248  28.937  1.00  0.00     0.034 A 
BRANCH  51  65
ATOM     65  C   UNL A   1      38.929  30.521  30.932  1.00  0.00     0.023 A 
ATOM     66  C   UNL A   1      37.860  31.163  30.285  1.00  0.00     0.031 A 
ATOM     67  C   UNL A   1      38.803  30.256  32.309  1.00  0.00     0.131 A 
ATOM     68  C   UNL A   1      36.741  31.578  31.026  1.00  0.00     0.055 A 
ATOM     69  C   UNL A   1      37.657  30.605  33.025  1.00  0.00     0.041 A 
ATOM     70  F   UNL A   1      39.802  29.668  32.985  1.00  0.00    -0.206 F 
ATOM     71  C   UNL A   1      36.623  31.284  32.387  1.00  0.00     0.022 A 
BRANCH  68  72
ATOM     72  S   UNL A   1      35.502  32.629  30.218  1.00  0.00     0.124 S 
ATOM     73  O   UNL A   1      34.362  32.484  31.119  1.00  0.00    -0.237 OA
ATOM     74  O   UNL A   1      36.153  33.934  30.211  1.00  0.00    -0.237 OA
ATOM     75  O   UNL A   1      35.332  32.010  28.904  1.00  0.00    -0.744 OA
ENDBRANCH  68  72
ENDBRANCH  51  65
BRANCH  52  76
ATOM     76  C   UNL A   1      47.120  27.691  25.857  1.00  0.00     0.023 A 
ATOM     77  C   UNL A   1      47.232  27.973  24.486  1.00  0.00     0.031 A 
ATOM     78  C   UNL A   1      48.159  26.963  26.465  1.00  0.00     0.131 A 
ATOM     79  C   UNL A   1      48.334  27.493  23.760  1.00  0.00     0.055 A 
ATOM     80  C   UNL A   1      49.281  26.538  25.751  1.00  0.00     0.041 A 
ATOM     81  F   UNL A   1      48.102  26.659  27.771  1.00  0.00    -0.206 F 
ATOM     82  C   UNL A   1      49.366  26.790  24.386  1.00  0.00     0.022 A 
BRANCH  79  83
ATOM     83  S   UNL A   1      48.355  27.718  21.959  1.00  0.00     0.124 S 
ATOM     84  O   UNL A   1      47.045  28.312  21.719  1.00  0.00    -0.237 OA
ATOM     85  O   UNL A   1      49.503  28.598  21.777  1.00  0.00    -0.237 OA
ATOM     86  O   UNL A   1      48.527  26.359  21.449  1.00  0.00    -0.744 OA
ENDBRANCH  79  83
ENDBRANCH  52  76
BRANCH  64  87
ATOM     87  C   UNL A   1      45.278  33.554  29.155  1.00  0.00     0.023 A 
ATOM     88  C   UNL A   1      45.250  34.584  28.199  1.00  0.00     0.031 A 
ATOM     89  C   UNL A   1      46.019  33.761  30.331  1.00  0.00     0.131 A 
ATOM     90  C   UNL A   1      45.994  35.755  28.412  1.00  0.00     0.055 A 
ATOM     91  C   UNL A   1      46.711  34.952  30.564  1.00  0.00     0.041 A 
ATOM     92  F   UNL A   1      46.082  32.809  31.276  1.00  0.00    -0.206 F 
ATOM     93  C   UNL A   1      46.711  35.951  29.595  1.00  0.00     0.022 A 
BRANCH  90  94
ATOM     94  S   UNL A   1      46.084  36.986  27.082  1.00  0.00     0.124 S 
ATOM     95  O   UNL A   1      47.177  37.842  27.534  1.00  0.00    -0.237 OA
ATOM     96  O   UNL A   1      46.359  36.163  25.910  1.00  0.00    -0.237 OA
ATOM     97  O   UNL A   1      44.761  37.609  27.103  1.00  0.00    -0.744 OA
ENDBRANCH  90  94
ENDBRANCH  64  87
ENDBRANCH  38  39
ENDBRANCH  31  33
ENDBRANCH  30  31
ENDBRANCH  29  30
ENDBRANCH   1  29
TORSDOF 20
ENDMDL
MODEL 3
REMARK VINA RESULT:     -11.6      1.559      1.885
REMARK SMILES O=C(C[C@@H]([NH2+]Cc1ccccc1)C(=O)OCCOC(=O)c1ccc(-c2c3nc(c(-c4cc(S(=O)(=O)[O-])ccc4F)c4ccc([nH]4)c(-c4cc(S(=O)(=O)[O-])ccc4F)c4nc(c(-c5cc(S(=O)(=O)[O-])ccc5F)c5ccc2[nH]5)C=C4)C=C3)cc1)Nc1cccc(Cl)c1Cl
REMARK SMILES IDX 16 1 15 2 13 3 14 4 4 5 3 6 2 7 1 8 84 9 85 11 86 12 91 13
REMARK SMILES IDX 87 14 89 15 92 16 88 17 90 18 5 19 6 22 7 23 8 24 12 25 9 26
REMARK SMILES IDX 11 27 10 28 17 29 18 30 19 31 20 32 21 33 22 34 83 35 23 36
REMARK SMILES IDX 82 37 24 38 25 39 26 40 76 41 27 42 81 43 75 44 77 45 28 46
REMARK SMILES IDX 80 47 74 48 73 49 29 51 61 52 41 53 60 54 42 55 45 56 59 57
REMARK SMILES IDX 78 58 43 59 44 60 58 62 79 63 46 64 30 65 31 66 39 67 32 68
REMARK SMILES IDX 38 69 40 70 37 71 33 72 34 73 35 74 36 75 62 76 63 77 71 78
REMARK SMILES IDX 64 79 70 80 72 81 69 82 65 83 66 84 67 85 68 86 47 87 48 88
REMARK SMILES IDX 56 89 49 90 55 91 57 92 54 93 50 94 51 95 52 96 53 97
REMARK H PARENT 84 10 5 20 5 21 77 50 45 61
REMARK Flexibility Score: inf
ROOT
ATOM      1  C   UNL A   1      36.123  20.734  24.734  1.00  0.00     0.274 C 
ENDROOT
BRANCH   1   2
ATOM      2  O   UNL A   1      35.543  22.035  24.951  1.00  0.00    -0.458 OA
BRANCH   2   3
ATOM      3  C   UNL A   1      35.237  22.726  23.818  1.00  0.00     0.365 C 
ATOM      4  O   UNL A   1      36.006  22.816  22.866  1.00  0.00    -0.245 OA
BRANCH   3   5
ATOM      5  C   UNL A   1      33.844  23.389  23.847  1.00  0.00     0.303 C 
BRANCH   5   6
ATOM      6  C   UNL A   1      33.489  24.026  22.492  1.00  0.00     0.177 C 
BRANCH   6   7
ATOM      7  C   UNL A   1      33.285  25.518  22.624  1.00  0.00     0.231 C 
ATOM      8  O   UNL A   1      33.654  26.300  21.756  1.00  0.00    -0.274 OA
ATOM      9  N   UNL A   1      32.767  25.878  23.859  1.00  0.00    -0.325 N 
ATOM     10  H   UNL A   1      32.574  25.163  24.506  1.00  0.00     0.169 HD
BRANCH   9  11
ATOM     11  C   UNL A   1      32.502  27.211  24.242  1.00  0.00     0.061 A 
ATOM     12  C   UNL A   1      33.422  27.784  25.132  1.00  0.00     0.028 A 
ATOM     13  C   UNL A   1      31.376  27.953  23.824  1.00  0.00     0.083 A 
ATOM     14  C   UNL A   1      33.277  29.105  25.552  1.00  0.00     0.004 A 
ATOM     15  C   UNL A   1      31.228  29.277  24.274  1.00  0.00     0.061 A 
ATOM     16  Cl  UNL A   1      30.081  27.189  22.953  1.00  0.00    -0.080 Cl
ATOM     17  C   UNL A   1      32.184  29.852  25.120  1.00  0.00     0.022 A 
ATOM     18  Cl  UNL A   1      29.854  30.254  23.875  1.00  0.00    -0.083 Cl
ENDBRANCH   9  11
ENDBRANCH   6   7
ENDBRANCH   5   6
BRANCH   5  19
ATOM     19  N   UNL A   1      32.749  22.460  24.283  1.00  0.00    -0.330 N 
ATOM     20  H   UNL A   1      31.935  23.022  24.533  1.00  0.00     0.347 HD
ATOM     21  H   UNL A   1      33.118  21.922  25.067  1.00  0.00     0.347 HD
BRANCH  19  22
ATOM     22  C   UNL A   1      32.336  21.479  23.259  1.00  0.00     0.298 C 
BRANCH  22  23
ATOM     23  C   UNL A   1      32.531  20.040  23.675  1.00  0.00     0.006 A 
ATOM     24  C   UNL A   1      32.720  19.710  25.023  1.00  0.00     0.009 A 
ATOM     25  C   UNL A   1      32.528  19.007  22.725  1.00  0.00     0.009 A 
ATOM     26  C   UNL A   1      32.882  18.381  25.416  1.00  0.00     0.001 A 
ATOM     27  C   UNL A   1      32.689  17.677  23.121  1.00  0.00     0.001 A 
ATOM     28  C   UNL A   1      32.859  17.364  24.468  1.00  0.00     0.000 A 
ENDBRANCH  22  23
ENDBRANCH  19  22
ENDBRANCH   5  19
ENDBRANCH   3   5
ENDBRANCH   2   3
ENDBRANCH   1   2
BRANCH   1  29
ATOM     29  C   UNL A   1      37.636  20.699  24.991  1.00  0.00     0.275 C 
BRANCH  29  30
ATOM     30  O   UNL A   1      38.039  21.490  26.126  1.00  0.00    -0.458 OA
BRANCH  30  31
ATOM     31  C   UNL A   1      39.372  21.476  26.383  1.00  0.00     0.338 C 
ATOM     32  O   UNL A   1      40.146  20.576  26.101  1.00  0.00    -0.246 OA
BRANCH  31  33
ATOM     33  C   UNL A   1      39.817  22.775  26.922  1.00  0.00     0.060 A 
ATOM     34  C   UNL A   1      39.305  23.931  26.327  1.00  0.00     0.016 A 
ATOM     35  C   UNL A   1      40.777  22.872  27.933  1.00  0.00     0.016 A 
ATOM     36  C   UNL A   1      39.727  25.189  26.751  1.00  0.00     0.010 A 
ATOM     37  C   UNL A   1      41.225  24.137  28.337  1.00  0.00     0.010 A 
ATOM     38  C   UNL A   1      40.704  25.301  27.744  1.00  0.00    -0.014 A 
BRANCH  38  39
ATOM     39  C   UNL A   1      41.227  26.645  28.089  1.00  0.00     0.031 A 
ATOM     40  C   UNL A   1      42.630  27.012  27.705  1.00  0.00     0.074 A 
ATOM     41  C   UNL A   1      40.424  27.547  28.682  1.00  0.00     0.049 A 
ATOM     42  N   UNL A   1      43.291  28.117  27.940  1.00  0.00    -0.248 NA
ATOM     43  C   UNL A   1      43.390  25.998  26.962  1.00  0.00     0.031 C 
ATOM     44  C   UNL A   1      39.029  27.309  29.045  1.00  0.00     0.029 A 
ATOM     45  N   UNL A   1      40.654  28.842  29.070  1.00  0.00    -0.354 N 
ATOM     46  C   UNL A   1      44.551  27.928  27.385  1.00  0.00     0.074 A 
ATOM     47  C   UNL A   1      44.564  26.596  26.816  1.00  0.00     0.031 C 
ATOM     48  C   UNL A   1      38.517  28.429  29.580  1.00  0.00     0.029 A 
ATOM     49  C   UNL A   1      39.566  29.445  29.659  1.00  0.00     0.049 A 
ATOM     50  H   UNL A   1      41.518  29.298  28.941  1.00  0.00     0.167 HD
ATOM     51  C   UNL A   1      45.600  28.788  27.361  1.00  0.00     0.034 A 
ATOM     52  C   UNL A   1      39.443  30.662  30.225  1.00  0.00     0.034 A 
ATOM     53  C   UNL A   1      45.569  30.107  27.949  1.00  0.00     0.049 A 
ATOM     54  C   UNL A   1      40.649  31.571  30.252  1.00  0.00     0.074 A 
ATOM     55  C   UNL A   1      46.579  31.051  28.007  1.00  0.00     0.029 A 
ATOM     56  N   UNL A   1      44.469  30.666  28.590  1.00  0.00    -0.354 N 
ATOM     57  N   UNL A   1      41.849  31.368  29.758  1.00  0.00    -0.248 NA
ATOM     58  C   UNL A   1      40.487  32.868  30.923  1.00  0.00     0.031 C 
ATOM     59  C   UNL A   1      46.113  32.150  28.738  1.00  0.00     0.029 A 
ATOM     60  C   UNL A   1      44.787  31.928  29.071  1.00  0.00     0.049 A 
ATOM     61  H   UNL A   1      43.592  30.230  28.688  1.00  0.00     0.167 HD
ATOM     62  C   UNL A   1      42.578  32.518  30.045  1.00  0.00     0.074 A 
ATOM     63  C   UNL A   1      41.675  33.420  30.732  1.00  0.00     0.031 C 
ATOM     64  C   UNL A   1      43.876  32.806  29.770  1.00  0.00     0.034 A 
BRANCH  51  65
ATOM     65  C   UNL A   1      46.885  28.290  26.748  1.00  0.00     0.023 A 
ATOM     66  C   UNL A   1      47.090  28.271  25.357  1.00  0.00     0.031 A 
ATOM     67  C   UNL A   1      47.908  27.785  27.572  1.00  0.00     0.131 A 
ATOM     68  C   UNL A   1      48.259  27.699  24.831  1.00  0.00     0.055 A 
ATOM     69  C   UNL A   1      49.099  27.284  27.045  1.00  0.00     0.041 A 
ATOM     70  F   UNL A   1      47.758  27.754  28.905  1.00  0.00    -0.206 F 
ATOM     71  C   UNL A   1      49.275  27.225  25.666  1.00  0.00     0.022 A 
BRANCH  68  72
ATOM     72  S   UNL A   1      48.378  27.453  23.037  1.00  0.00     0.124 S 
ATOM     73  O   UNL A   1      47.219  28.203  22.561  1.00  0.00    -0.237 OA
ATOM     74  O   UNL A   1      49.683  28.023  22.726  1.00  0.00    -0.237 OA
ATOM     75  O   UNL A   1      48.278  26.002  22.883  1.00  0.00    -0.744 OA
ENDBRANCH  68  72
ENDBRANCH  51  65
BRANCH  52  76
ATOM     76  C   UNL A   1      38.161  31.079  30.867  1.00  0.00     0.023 A 
ATOM     77  C   UNL A   1      37.168  31.757  30.141  1.00  0.00     0.031 A 
ATOM     78  C   UNL A   1      37.939  30.863  32.239  1.00  0.00     0.131 A 
ATOM     79  C   UNL A   1      36.022  32.232  30.797  1.00  0.00     0.055 A 
ATOM     80  C   UNL A   1      36.771  31.286  32.875  1.00  0.00     0.041 A 
ATOM     81  F   UNL A   1      38.857  30.227  32.984  1.00  0.00    -0.206 F 
ATOM     82  C   UNL A   1      35.809  31.988  32.156  1.00  0.00     0.022 A 
BRANCH  79  83
ATOM     83  S   UNL A   1      34.850  33.260  29.869  1.00  0.00     0.124 S 
ATOM     84  O   UNL A   1      35.742  34.203  29.206  1.00  0.00    -0.237 OA
ATOM     85  O   UNL A   1      34.200  32.277  29.008  1.00  0.00    -0.237 OA
ATOM     86  O   UNL A   1      33.999  33.832  30.911  1.00  0.00    -0.744 OA
ENDBRANCH  79  83
ENDBRANCH  52  76
BRANCH  64  87
ATOM     87  C   UNL A   1      44.376  34.169  30.184  1.00  0.00     0.023 A 
ATOM     88  C   UNL A   1      44.960  34.391  31.444  1.00  0.00     0.031 A 
ATOM     89  C   UNL A   1      44.253  35.262  29.309  1.00  0.00     0.131 A 
ATOM     90  C   UNL A   1      45.350  35.688  31.815  1.00  0.00     0.055 A 
ATOM     91  C   UNL A   1      44.696  36.539  29.661  1.00  0.00     0.041 A 
ATOM     92  F   UNL A   1      43.701  35.107  28.095  1.00  0.00    -0.206 F 
ATOM     93  C   UNL A   1      45.236  36.759  30.925  1.00  0.00     0.022 A 
BRANCH  90  94
ATOM     94  S   UNL A   1      45.930  35.974  33.510  1.00  0.00     0.124 S 
ATOM     95  O   UNL A   1      44.819  36.723  34.088  1.00  0.00    -0.237 OA
ATOM     96  O   UNL A   1      46.115  34.616  34.011  1.00  0.00    -0.237 OA
ATOM     97  O   UNL A   1      47.163  36.738  33.325  1.00  0.00    -0.744 OA
ENDBRANCH  90  94
ENDBRANCH  64  87
ENDBRANCH  38  39
ENDBRANCH  31  33
ENDBRANCH  30  31
ENDBRANCH  29  30
ENDBRANCH   1  29
TORSDOF 20
ENDMDL
