MODEL 1
REMARK VINA RESULT:     -11.7      0.000      0.000
REMARK SMILES CC1=Nn2c(nnc(CCC(=O)OCCOC(=O)c3ccc(-c4c5nc(c(-c6cc(S(=O)(=O)[O-])ccc6F)c6ccc([nH]6)c(-c6cc(S(=O)(=O)[O-])ccc6F)c6nc(c(-c7cc(S(=O)(=O)[O-])ccc7F)c7ccc4[nH]7)C=C6)C=C5)cc3)c2=O)SC1
REMARK SMILES IDX 15 1 14 2 13 3 11 4 12 5 10 6 9 7 8 8 1 9 2 10 3 11 85 12
REMARK SMILES IDX 4 13 84 14 5 15 82 16 6 17 83 18 7 19 16 20 17 21 18 22
REMARK SMILES IDX 19 23 20 24 81 25 21 26 80 27 22 28 23 29 24 30 74 31 25 32
REMARK SMILES IDX 79 33 73 34 75 35 26 36 78 37 72 38 71 39 27 41 59 42 39 43
REMARK SMILES IDX 58 44 40 45 43 46 57 47 76 48 41 49 42 50 56 52 77 53 44 54
REMARK SMILES IDX 28 55 29 56 37 57 30 58 36 59 38 60 35 61 31 62 32 63 33 64
REMARK SMILES IDX 34 65 60 66 61 67 69 68 62 69 68 70 70 71 67 72 63 73 64 74
REMARK SMILES IDX 65 75 66 76 45 77 46 78 54 79 47 80 53 81 55 82 52 83 48 84
REMARK SMILES IDX 49 85 50 86 51 87
REMARK H PARENT 75 40 43 51
REMARK Flexibility Score: inf
ROOT
ATOM      1  C   UNL A   1      36.549  20.363  25.001  1.00  0.00     0.275 C 
ENDROOT
BRANCH   1   2
ATOM      2  C   UNL A   1      35.044  20.641  25.000  1.00  0.00     0.274 C 
BRANCH   2   3
ATOM      3  O   UNL A   1      34.289  19.464  24.652  1.00  0.00    -0.462 OA
BRANCH   3   4
ATOM      4  C   UNL A   1      32.938  19.547  24.752  1.00  0.00     0.306 C 
ATOM      5  O   UNL A   1      32.196  18.607  25.002  1.00  0.00    -0.252 OA
BRANCH   4   6
ATOM      6  C   UNL A   1      32.439  20.936  24.422  1.00  0.00     0.129 C 
BRANCH   6   7
ATOM      7  C   UNL A   1      31.654  21.611  25.547  1.00  0.00     0.076 C 
BRANCH   7   8
ATOM      8  C   UNL A   1      31.153  22.962  25.099  1.00  0.00     0.131 A 
ATOM      9  C   UNL A   1      31.789  28.321  27.626  1.00  0.00     0.064 C 
ATOM     10  C   UNL A   1      31.349  27.456  26.465  1.00  0.00     0.046 C 
ATOM     11  N   UNL A   1      31.270  26.192  26.707  1.00  0.00    -0.172 NA
ATOM     12  C   UNL A   1      31.042  28.156  25.184  1.00  0.00     0.131 C 
ATOM     13  N   UNL A   1      31.013  25.279  25.720  1.00  0.00    -0.169 N 
ATOM     14  S   UNL A   1      30.592  27.134  23.809  1.00  0.00    -0.078 SA
ATOM     15  C   UNL A   1      30.843  25.514  24.383  1.00  0.00     0.214 A 
ATOM     16  C   UNL A   1      30.830  23.985  26.152  1.00  0.00     0.296 A 
ATOM     17  N   UNL A   1      30.803  24.581  23.483  1.00  0.00    -0.123 NA
ATOM     18  O   UNL A   1      30.430  23.630  27.252  1.00  0.00    -0.265 OA
ATOM     19  N   UNL A   1      31.118  23.263  23.838  1.00  0.00    -0.147 NA
ENDBRANCH   7   8
ENDBRANCH   6   7
ENDBRANCH   4   6
ENDBRANCH   3   4
ENDBRANCH   2   3
ENDBRANCH   1   2
BRANCH   1  20
ATOM     20  O   UNL A   1      37.252  21.366  25.753  1.00  0.00    -0.458 OA
BRANCH  20  21
ATOM     21  C   UNL A   1      38.574  21.146  25.927  1.00  0.00     0.338 C 
ATOM     22  O   UNL A   1      39.199  20.125  25.716  1.00  0.00    -0.246 OA
BRANCH  21  23
ATOM     23  C   UNL A   1      39.221  22.394  26.336  1.00  0.00     0.060 A 
ATOM     24  C   UNL A   1      38.688  23.601  25.880  1.00  0.00     0.016 A 
ATOM     25  C   UNL A   1      40.389  22.361  27.100  1.00  0.00     0.016 A 
ATOM     26  C   UNL A   1      39.322  24.796  26.200  1.00  0.00     0.010 A 
ATOM     27  C   UNL A   1      41.017  23.563  27.428  1.00  0.00     0.010 A 
ATOM     28  C   UNL A   1      40.488  24.784  26.979  1.00  0.00    -0.014 A 
BRANCH  28  29
ATOM     29  C   UNL A   1      41.148  26.060  27.329  1.00  0.00     0.031 A 
ATOM     30  C   UNL A   1      42.532  26.352  26.829  1.00  0.00     0.074 A 
ATOM     31  C   UNL A   1      40.480  26.957  28.078  1.00  0.00     0.049 A 
ATOM     32  N   UNL A   1      43.292  27.387  27.070  1.00  0.00    -0.248 NA
ATOM     33  C   UNL A   1      43.139  25.348  25.943  1.00  0.00     0.031 C 
ATOM     34  C   UNL A   1      39.111  26.786  28.570  1.00  0.00     0.029 A 
ATOM     35  N   UNL A   1      40.851  28.191  28.543  1.00  0.00    -0.354 N 
ATOM     36  C   UNL A   1      44.467  27.165  26.363  1.00  0.00     0.074 A 
ATOM     37  C   UNL A   1      44.331  25.881  25.708  1.00  0.00     0.031 C 
ATOM     38  C   UNL A   1      38.751  27.886  29.250  1.00  0.00     0.029 A 
ATOM     39  C   UNL A   1      39.875  28.816  29.284  1.00  0.00     0.049 A 
ATOM     40  H   UNL A   1      41.732  28.592  28.365  1.00  0.00     0.167 HD
ATOM     41  C   UNL A   1      45.554  27.969  26.266  1.00  0.00     0.034 A 
ATOM     42  C   UNL A   1      39.893  29.998  29.929  1.00  0.00     0.034 A 
ATOM     43  C   UNL A   1      45.672  29.241  26.934  1.00  0.00     0.049 A 
ATOM     44  C   UNL A   1      41.145  30.831  29.876  1.00  0.00     0.074 A 
ATOM     45  C   UNL A   1      46.737  30.125  26.923  1.00  0.00     0.029 A 
ATOM     46  N   UNL A   1      44.690  29.811  27.733  1.00  0.00    -0.354 N 
ATOM     47  N   UNL A   1      42.272  30.583  29.248  1.00  0.00    -0.248 NA
ATOM     48  C   UNL A   1      41.136  32.094  30.624  1.00  0.00     0.031 C 
ATOM     49  C   UNL A   1      46.419  31.204  27.754  1.00  0.00     0.029 A 
ATOM     50  C   UNL A   1      45.132  31.024  28.235  1.00  0.00     0.049 A 
ATOM     51  H   UNL A   1      43.808  29.411  27.915  1.00  0.00     0.167 HD
ATOM     52  C   UNL A   1      43.098  31.671  29.508  1.00  0.00     0.074 A 
ATOM     53  C   UNL A   1      42.341  32.577  30.349  1.00  0.00     0.031 C 
ATOM     54  C   UNL A   1      44.364  31.903  29.083  1.00  0.00     0.034 A 
BRANCH  41  55
ATOM     55  C   UNL A   1      46.712  27.478  25.440  1.00  0.00     0.023 A 
ATOM     56  C   UNL A   1      46.897  27.896  24.111  1.00  0.00     0.031 A 
ATOM     57  C   UNL A   1      47.653  26.592  25.994  1.00  0.00     0.131 A 
ATOM     58  C   UNL A   1      47.978  27.399  23.367  1.00  0.00     0.055 A 
ATOM     59  C   UNL A   1      48.759  26.147  25.267  1.00  0.00     0.041 A 
ATOM     60  F   UNL A   1      47.512  26.148  27.253  1.00  0.00    -0.206 F 
ATOM     61  C   UNL A   1      48.922  26.545  23.944  1.00  0.00     0.022 A 
BRANCH  58  62
ATOM     62  S   UNL A   1      48.099  27.830  21.610  1.00  0.00     0.124 S 
ATOM     63  O   UNL A   1      49.243  28.740  21.608  1.00  0.00    -0.237 OA
ATOM     64  O   UNL A   1      48.313  26.534  20.977  1.00  0.00    -0.237 OA
ATOM     65  O   UNL A   1      46.811  28.458  21.322  1.00  0.00    -0.744 OA
ENDBRANCH  58  62
ENDBRANCH  41  55
BRANCH  42  66
ATOM     66  C   UNL A   1      38.700  30.447  30.694  1.00  0.00     0.023 A 
ATOM     67  C   UNL A   1      37.677  31.179  30.070  1.00  0.00     0.031 A 
ATOM     68  C   UNL A   1      38.561  30.143  32.060  1.00  0.00     0.131 A 
ATOM     69  C   UNL A   1      36.568  31.600  30.819  1.00  0.00     0.055 A 
ATOM     70  C   UNL A   1      37.438  30.532  32.790  1.00  0.00     0.041 A 
ATOM     71  F   UNL A   1      39.511  29.441  32.698  1.00  0.00    -0.206 F 
ATOM     72  C   UNL A   1      36.435  31.270  32.170  1.00  0.00     0.022 A 
BRANCH  69  73
ATOM     73  S   UNL A   1      35.304  32.617  30.006  1.00  0.00     0.124 S 
ATOM     74  O   UNL A   1      34.893  31.754  28.904  1.00  0.00    -0.237 OA
ATOM     75  O   UNL A   1      34.328  32.803  31.075  1.00  0.00    -0.237 OA
ATOM     76  O   UNL A   1      36.035  33.821  29.617  1.00  0.00    -0.744 OA
ENDBRANCH  69  73
ENDBRANCH  42  66
BRANCH  54  77
ATOM     77  C   UNL A   1      45.000  33.202  29.496  1.00  0.00     0.023 A 
ATOM     78  C   UNL A   1      44.878  34.359  28.711  1.00  0.00     0.031 A 
ATOM     79  C   UNL A   1      45.694  33.289  30.716  1.00  0.00     0.131 A 
ATOM     80  C   UNL A   1      45.467  35.556  29.144  1.00  0.00     0.055 A 
ATOM     81  C   UNL A   1      46.242  34.491  31.159  1.00  0.00     0.041 A 
ATOM     82  F   UNL A   1      45.831  32.209  31.500  1.00  0.00    -0.206 F 
ATOM     83  C   UNL A   1      46.133  35.633  30.371  1.00  0.00     0.022 A 
BRANCH  80  84
ATOM     84  S   UNL A   1      45.365  37.017  28.074  1.00  0.00     0.124 S 
ATOM     85  O   UNL A   1      44.079  36.819  27.414  1.00  0.00    -0.237 OA
ATOM     86  O   UNL A   1      45.427  38.117  29.031  1.00  0.00    -0.237 OA
ATOM     87  O   UNL A   1      46.535  36.889  27.206  1.00  0.00    -0.744 OA
ENDBRANCH  80  84
ENDBRANCH  54  77
ENDBRANCH  28  29
ENDBRANCH  21  23
ENDBRANCH  20  21
ENDBRANCH   1  20
TORSDOF 16
ENDMDL
MODEL 2
REMARK VINA RESULT:     -11.6      5.341      7.925
REMARK SMILES CC1=Nn2c(nnc(CCC(=O)OCCOC(=O)c3ccc(-c4c5nc(c(-c6cc(S(=O)(=O)[O-])ccc6F)c6ccc([nH]6)c(-c6cc(S(=O)(=O)[O-])ccc6F)c6nc(c(-c7cc(S(=O)(=O)[O-])ccc7F)c7ccc4[nH]7)C=C6)C=C5)cc3)c2=O)SC1
REMARK SMILES IDX 15 1 14 2 13 3 11 4 12 5 10 6 9 7 8 8 1 9 2 10 3 11 85 12
REMARK SMILES IDX 4 13 84 14 5 15 82 16 6 17 83 18 7 19 16 20 17 21 18 22
REMARK SMILES IDX 19 23 20 24 81 25 21 26 80 27 22 28 23 29 24 30 74 31 25 32
REMARK SMILES IDX 79 33 73 34 75 35 26 36 78 37 72 38 71 39 27 41 59 42 39 43
REMARK SMILES IDX 58 44 40 45 43 46 57 47 76 48 41 49 42 50 56 52 77 53 44 54
REMARK SMILES IDX 28 55 29 56 37 57 30 58 36 59 38 60 35 61 31 62 32 63 33 64
REMARK SMILES IDX 34 65 60 66 61 67 69 68 62 69 68 70 70 71 67 72 63 73 64 74
REMARK SMILES IDX 65 75 66 76 45 77 46 78 54 79 47 80 53 81 55 82 52 83 48 84
REMARK SMILES IDX 49 85 50 86 51 87
REMARK H PARENT 75 40 43 51
REMARK Flexibility Score: inf
ROOT
ATOM      1  C   UNL A   1      31.411  30.362  25.664  1.00  0.00     0.275 C 
ENDROOT
BRANCH   1   2
ATOM      2  C   UNL A   1      31.310  29.637  24.320  1.00  0.00     0.274 C 
BRANCH   2   3
ATOM      3  O   UNL A   1      30.041  29.879  23.681  1.00  0.00    -0.462 OA
BRANCH   3   4
ATOM      4  C   UNL A   1      29.717  29.080  22.635  1.00  0.00     0.306 C 
ATOM      5  O   UNL A   1      29.149  29.455  21.618  1.00  0.00    -0.252 OA
BRANCH   4   6
ATOM      6  C   UNL A   1      30.055  27.633  22.912  1.00  0.00     0.129 C 
BRANCH   6   7
ATOM      7  C   UNL A   1      31.140  27.051  22.005  1.00  0.00     0.076 C 
BRANCH   7   8
ATOM      8  C   UNL A   1      31.437  25.623  22.393  1.00  0.00     0.131 A 
ATOM      9  C   UNL A   1      36.647  22.954  23.506  1.00  0.00     0.064 C 
ATOM     10  C   UNL A   1      35.134  22.934  23.491  1.00  0.00     0.046 C 
ATOM     11  N   UNL A   1      34.569  23.879  22.819  1.00  0.00    -0.172 NA
ATOM     12  C   UNL A   1      34.469  21.827  24.235  1.00  0.00     0.131 C 
ATOM     13  N   UNL A   1      33.213  24.063  22.826  1.00  0.00    -0.169 N 
ATOM     14  S   UNL A   1      32.698  21.846  24.271  1.00  0.00    -0.078 SA
ATOM     15  C   UNL A   1      32.273  23.356  23.526  1.00  0.00     0.214 A 
ATOM     16  C   UNL A   1      32.748  25.027  21.960  1.00  0.00     0.296 A 
ATOM     17  N   UNL A   1      31.032  23.714  23.638  1.00  0.00    -0.123 NA
ATOM     18  O   UNL A   1      33.278  25.396  20.923  1.00  0.00    -0.265 OA
ATOM     19  N   UNL A   1      30.632  24.975  23.177  1.00  0.00    -0.147 NA
ENDBRANCH   7   8
ENDBRANCH   6   7
ENDBRANCH   4   6
ENDBRANCH   3   4
ENDBRANCH   2   3
ENDBRANCH   1   2
BRANCH   1  20
ATOM     20  O   UNL A   1      32.757  30.320  26.166  1.00  0.00    -0.458 OA
BRANCH  20  21
ATOM     21  C   UNL A   1      33.137  31.383  26.909  1.00  0.00     0.338 C 
ATOM     22  O   UNL A   1      32.559  32.444  27.052  1.00  0.00    -0.246 OA
BRANCH  21  23
ATOM     23  C   UNL A   1      34.358  31.047  27.644  1.00  0.00     0.060 A 
ATOM     24  C   UNL A   1      34.570  29.716  28.008  1.00  0.00     0.016 A 
ATOM     25  C   UNL A   1      35.241  32.055  28.035  1.00  0.00     0.016 A 
ATOM     26  C   UNL A   1      35.689  29.381  28.763  1.00  0.00     0.010 A 
ATOM     27  C   UNL A   1      36.368  31.714  28.784  1.00  0.00     0.010 A 
ATOM     28  C   UNL A   1      36.596  30.378  29.151  1.00  0.00    -0.014 A 
BRANCH  28  29
ATOM     29  C   UNL A   1      37.792  30.012  29.940  1.00  0.00     0.031 A 
ATOM     30  C   UNL A   1      38.850  29.136  29.338  1.00  0.00     0.074 A 
ATOM     31  C   UNL A   1      37.922  30.495  31.189  1.00  0.00     0.049 A 
ATOM     32  N   UNL A   1      39.939  28.666  29.887  1.00  0.00    -0.248 NA
ATOM     33  C   UNL A   1      38.658  28.735  27.936  1.00  0.00     0.031 C 
ATOM     34  C   UNL A   1      36.971  31.395  31.845  1.00  0.00     0.029 A 
ATOM     35  N   UNL A   1      38.908  30.313  32.124  1.00  0.00    -0.354 N 
ATOM     36  C   UNL A   1      40.568  27.918  28.899  1.00  0.00     0.074 A 
ATOM     37  C   UNL A   1      39.721  27.971  27.726  1.00  0.00     0.031 C 
ATOM     38  C   UNL A   1      37.432  31.703  33.068  1.00  0.00     0.029 A 
ATOM     39  C   UNL A   1      38.683  30.987  33.300  1.00  0.00     0.049 A 
ATOM     40  H   UNL A   1      39.702  29.752  31.968  1.00  0.00     0.167 HD
ATOM     41  C   UNL A   1      41.749  27.257  28.969  1.00  0.00     0.034 A 
ATOM     42  C   UNL A   1      39.396  31.010  34.442  1.00  0.00     0.034 A 
ATOM     43  C   UNL A   1      42.572  27.210  30.151  1.00  0.00     0.049 A 
ATOM     44  C   UNL A   1      40.660  30.197  34.522  1.00  0.00     0.074 A 
ATOM     45  C   UNL A   1      43.775  26.552  30.339  1.00  0.00     0.029 A 
ATOM     46  N   UNL A   1      42.277  27.849  31.349  1.00  0.00    -0.354 N 
ATOM     47  N   UNL A   1      41.215  29.448  33.597  1.00  0.00    -0.248 NA
ATOM     48  C   UNL A   1      41.388  30.221  35.796  1.00  0.00     0.031 C 
ATOM     49  C   UNL A   1      44.181  26.751  31.663  1.00  0.00     0.029 A 
ATOM     50  C   UNL A   1      43.264  27.584  32.284  1.00  0.00     0.049 A 
ATOM     51  H   UNL A   1      41.483  28.409  31.509  1.00  0.00     0.167 HD
ATOM     52  C   UNL A   1      42.369  28.929  34.172  1.00  0.00     0.074 A 
ATOM     53  C   UNL A   1      42.432  29.449  35.523  1.00  0.00     0.031 C 
ATOM     54  C   UNL A   1      43.297  28.103  33.629  1.00  0.00     0.034 A 
BRANCH  41  55
ATOM     55  C   UNL A   1      42.198  26.502  27.747  1.00  0.00     0.023 A 
ATOM     56  C   UNL A   1      41.916  25.136  27.582  1.00  0.00     0.031 A 
ATOM     57  C   UNL A   1      42.905  27.163  26.726  1.00  0.00     0.131 A 
ATOM     58  C   UNL A   1      42.371  24.463  26.437  1.00  0.00     0.055 A 
ATOM     59  C   UNL A   1      43.303  26.501  25.564  1.00  0.00     0.041 A 
ATOM     60  F   UNL A   1      43.216  28.463  26.843  1.00  0.00    -0.206 F 
ATOM     61  C   UNL A   1      43.043  25.142  25.417  1.00  0.00     0.022 A 
BRANCH  58  62
ATOM     62  S   UNL A   1      42.132  22.669  26.328  1.00  0.00     0.124 S 
ATOM     63  O   UNL A   1      42.941  22.195  27.448  1.00  0.00    -0.237 OA
ATOM     64  O   UNL A   1      40.688  22.529  26.478  1.00  0.00    -0.237 OA
ATOM     65  O   UNL A   1      42.654  22.335  25.003  1.00  0.00    -0.744 OA
ENDBRANCH  58  62
ENDBRANCH  41  55
BRANCH  42  66
ATOM     66  C   UNL A   1      38.920  31.811  35.601  1.00  0.00     0.023 A 
ATOM     67  C   UNL A   1      38.230  31.205  36.662  1.00  0.00     0.031 A 
ATOM     68  C   UNL A   1      39.156  33.196  35.668  1.00  0.00     0.131 A 
ATOM     69  C   UNL A   1      37.782  31.986  37.738  1.00  0.00     0.055 A 
ATOM     70  C   UNL A   1      38.741  33.962  36.758  1.00  0.00     0.041 A 
ATOM     71  F   UNL A   1      39.817  33.819  34.679  1.00  0.00    -0.206 F 
ATOM     72  C   UNL A   1      38.044  33.358  37.799  1.00  0.00     0.022 A 
BRANCH  69  73
ATOM     73  S   UNL A   1      36.819  31.189  39.052  1.00  0.00     0.124 S 
ATOM     74  O   UNL A   1      37.770  31.191  40.159  1.00  0.00    -0.237 OA
ATOM     75  O   UNL A   1      35.678  32.089  39.185  1.00  0.00    -0.237 OA
ATOM     76  O   UNL A   1      36.510  29.873  38.497  1.00  0.00    -0.744 OA
ENDBRANCH  69  73
ENDBRANCH  42  66
BRANCH  54  77
ATOM     77  C   UNL A   1      44.476  27.736  34.487  1.00  0.00     0.023 A 
ATOM     78  C   UNL A   1      44.437  26.630  35.352  1.00  0.00     0.031 A 
ATOM     79  C   UNL A   1      45.669  28.475  34.398  1.00  0.00     0.131 A 
ATOM     80  C   UNL A   1      45.568  26.308  36.117  1.00  0.00     0.055 A 
ATOM     81  C   UNL A   1      46.802  28.125  35.131  1.00  0.00     0.041 A 
ATOM     82  F   UNL A   1      45.752  29.537  33.581  1.00  0.00    -0.206 F 
ATOM     83  C   UNL A   1      46.754  27.039  35.999  1.00  0.00     0.022 A 
BRANCH  80  84
ATOM     84  S   UNL A   1      45.466  24.925  37.286  1.00  0.00     0.124 S 
ATOM     85  O   UNL A   1      45.220  23.795  36.396  1.00  0.00    -0.237 OA
ATOM     86  O   UNL A   1      46.775  24.956  37.930  1.00  0.00    -0.237 OA
ATOM     87  O   UNL A   1      44.345  25.289  38.152  1.00  0.00    -0.744 OA
ENDBRANCH  80  84
ENDBRANCH  54  77
ENDBRANCH  28  29
ENDBRANCH  21  23
ENDBRANCH  20  21
ENDBRANCH   1  20
TORSDOF 16
ENDMDL
MODEL 3
REMARK VINA RESULT:     -11.5      1.114      7.749
REMARK SMILES CC1=Nn2c(nnc(CCC(=O)OCCOC(=O)c3ccc(-c4c5nc(c(-c6cc(S(=O)(=O)[O-])ccc6F)c6ccc([nH]6)c(-c6cc(S(=O)(=O)[O-])ccc6F)c6nc(c(-c7cc(S(=O)(=O)[O-])ccc7F)c7ccc4[nH]7)C=C6)C=C5)cc3)c2=O)SC1
REMARK SMILES IDX 15 1 14 2 13 3 11 4 12 5 10 6 9 7 8 8 1 9 2 10 3 11 85 12
REMARK SMILES IDX 4 13 84 14 5 15 82 16 6 17 83 18 7 19 16 20 17 21 18 22
REMARK SMILES IDX 19 23 20 24 81 25 21 26 80 27 22 28 23 29 24 30 74 31 25 32
REMARK SMILES IDX 79 33 73 34 75 35 26 36 78 37 72 38 71 39 27 41 59 42 39 43
REMARK SMILES IDX 58 44 40 45 43 46 57 47 76 48 41 49 42 50 56 52 77 53 44 54
REMARK SMILES IDX 28 55 29 56 37 57 30 58 36 59 38 60 35 61 31 62 32 63 33 64
REMARK SMILES IDX 34 65 60 66 61 67 69 68 62 69 68 70 70 71 67 72 63 73 64 74
REMARK SMILES IDX 65 75 66 76 45 77 46 78 54 79 47 80 53 81 55 82 52 83 48 84
REMARK SMILES IDX 49 85 50 86 51 87
REMARK H PARENT 75 40 43 51
REMARK Flexibility Score: inf
ROOT
ATOM      1  C   UNL A   1      36.578  20.615  25.064  1.00  0.00     0.275 C 
ENDROOT
BRANCH   1   2
ATOM      2  C   UNL A   1      35.237  21.250  24.690  1.00  0.00     0.274 C 
BRANCH   2   3
ATOM      3  O   UNL A   1      34.200  20.258  24.562  1.00  0.00    -0.462 OA
BRANCH   3   4
ATOM      4  C   UNL A   1      32.920  20.685  24.706  1.00  0.00     0.306 C 
ATOM      5  O   UNL A   1      31.968  19.964  24.974  1.00  0.00    -0.252 OA
BRANCH   4   6
ATOM      6  C   UNL A   1      32.786  22.160  24.401  1.00  0.00     0.129 C 
BRANCH   6   7
ATOM      7  C   UNL A   1      32.205  22.470  23.021  1.00  0.00     0.076 C 
BRANCH   7   8
ATOM      8  C   UNL A   1      32.422  23.924  22.677  1.00  0.00     0.131 A 
ATOM      9  C   UNL A   1      31.774  28.801  26.039  1.00  0.00     0.064 C 
ATOM     10  C   UNL A   1      32.221  28.136  24.756  1.00  0.00     0.046 C 
ATOM     11  N   UNL A   1      31.795  26.932  24.571  1.00  0.00    -0.172 NA
ATOM     12  C   UNL A   1      33.084  28.943  23.846  1.00  0.00     0.131 C 
ATOM     13  N   UNL A   1      32.224  26.164  23.522  1.00  0.00    -0.169 N 
ATOM     14  S   UNL A   1      33.661  28.138  22.377  1.00  0.00    -0.078 SA
ATOM     15  C   UNL A   1      33.147  26.490  22.565  1.00  0.00     0.214 A 
ATOM     16  C   UNL A   1      31.584  24.953  23.383  1.00  0.00     0.296 A 
ATOM     17  N   UNL A   1      33.649  25.640  21.724  1.00  0.00    -0.123 NA
ATOM     18  O   UNL A   1      30.451  24.678  23.749  1.00  0.00    -0.265 OA
ATOM     19  N   UNL A   1      33.386  24.273  21.882  1.00  0.00    -0.147 NA
ENDBRANCH   7   8
ENDBRANCH   6   7
ENDBRANCH   4   6
ENDBRANCH   3   4
ENDBRANCH   2   3
ENDBRANCH   1   2
BRANCH   1  20
ATOM     20  O   UNL A   1      37.309  21.462  25.967  1.00  0.00    -0.458 OA
BRANCH  20  21
ATOM     21  C   UNL A   1      38.640  21.233  26.036  1.00  0.00     0.338 C 
ATOM     22  O   UNL A   1      39.242  20.218  25.743  1.00  0.00    -0.246 OA
BRANCH  21  23
ATOM     23  C   UNL A   1      39.321  22.464  26.441  1.00  0.00     0.060 A 
ATOM     24  C   UNL A   1      38.863  23.678  25.926  1.00  0.00     0.016 A 
ATOM     25  C   UNL A   1      40.451  22.403  27.258  1.00  0.00     0.016 A 
ATOM     26  C   UNL A   1      39.534  24.854  26.244  1.00  0.00     0.010 A 
ATOM     27  C   UNL A   1      41.116  23.586  27.582  1.00  0.00     0.010 A 
ATOM     28  C   UNL A   1      40.661  24.815  27.076  1.00  0.00    -0.014 A 
BRANCH  28  29
ATOM     29  C   UNL A   1      41.360  26.072  27.422  1.00  0.00     0.031 A 
ATOM     30  C   UNL A   1      40.673  27.106  28.263  1.00  0.00     0.074 A 
ATOM     31  C   UNL A   1      42.621  26.256  26.990  1.00  0.00     0.049 A 
ATOM     32  N   UNL A   1      41.100  28.286  28.627  1.00  0.00    -0.248 NA
ATOM     33  C   UNL A   1      39.331  26.769  28.761  1.00  0.00     0.031 C 
ATOM     34  C   UNL A   1      43.391  25.287  26.208  1.00  0.00     0.029 A 
ATOM     35  N   UNL A   1      43.481  27.311  27.158  1.00  0.00    -0.354 N 
ATOM     36  C   UNL A   1      40.084  28.835  29.400  1.00  0.00     0.074 A 
ATOM     37  C   UNL A   1      39.006  27.869  29.427  1.00  0.00     0.031 C 
ATOM     38  C   UNL A   1      44.618  25.784  25.983  1.00  0.00     0.029 A 
ATOM     39  C   UNL A   1      44.705  27.122  26.561  1.00  0.00     0.049 A 
ATOM     40  H   UNL A   1      43.245  28.125  27.657  1.00  0.00     0.167 HD
ATOM     41  C   UNL A   1      40.064  30.032  30.033  1.00  0.00     0.034 A 
ATOM     42  C   UNL A   1      45.769  27.943  26.476  1.00  0.00     0.034 A 
ATOM     43  C   UNL A   1      41.146  30.983  29.986  1.00  0.00     0.049 A 
ATOM     44  C   UNL A   1      45.687  29.303  27.116  1.00  0.00     0.074 A 
ATOM     45  C   UNL A   1      41.221  32.235  30.572  1.00  0.00     0.029 A 
ATOM     46  N   UNL A   1      42.345  30.787  29.312  1.00  0.00    -0.354 N 
ATOM     47  N   UNL A   1      44.696  29.831  27.798  1.00  0.00    -0.248 NA
ATOM     48  C   UNL A   1      46.854  30.180  26.968  1.00  0.00     0.031 C 
ATOM     49  C   UNL A   1      42.442  32.815  30.212  1.00  0.00     0.029 A 
ATOM     50  C   UNL A   1      43.155  31.901  29.453  1.00  0.00     0.049 A 
ATOM     51  H   UNL A   1      42.583  29.974  28.809  1.00  0.00     0.167 HD
ATOM     52  C   UNL A   1      45.131  31.095  28.179  1.00  0.00     0.074 A 
ATOM     53  C   UNL A   1      46.472  31.251  27.651  1.00  0.00     0.031 C 
ATOM     54  C   UNL A   1      44.483  32.038  28.905  1.00  0.00     0.034 A 
BRANCH  41  55
ATOM     55  C   UNL A   1      38.820  30.394  30.799  1.00  0.00     0.023 A 
ATOM     56  C   UNL A   1      37.771  31.112  30.199  1.00  0.00     0.031 A 
ATOM     57  C   UNL A   1      38.673  30.001  32.141  1.00  0.00     0.131 A 
ATOM     58  C   UNL A   1      36.636  31.448  30.953  1.00  0.00     0.055 A 
ATOM     59  C   UNL A   1      37.517  30.288  32.868  1.00  0.00     0.041 A 
ATOM     60  F   UNL A   1      39.653  29.330  32.766  1.00  0.00    -0.206 F 
ATOM     61  C   UNL A   1      36.492  31.021  32.276  1.00  0.00     0.022 A 
BRANCH  58  62
ATOM     62  S   UNL A   1      35.373  32.511  30.202  1.00  0.00     0.124 S 
ATOM     63  O   UNL A   1      36.151  33.701  29.866  1.00  0.00    -0.237 OA
ATOM     64  O   UNL A   1      34.911  31.710  29.074  1.00  0.00    -0.237 OA
ATOM     65  O   UNL A   1      34.397  32.694  31.275  1.00  0.00    -0.744 OA
ENDBRANCH  58  62
ENDBRANCH  41  55
BRANCH  42  66
ATOM     66  C   UNL A   1      46.987  27.509  25.741  1.00  0.00     0.023 A 
ATOM     67  C   UNL A   1      47.150  27.802  24.378  1.00  0.00     0.031 A 
ATOM     68  C   UNL A   1      48.011  26.800  26.395  1.00  0.00     0.131 A 
ATOM     69  C   UNL A   1      48.304  27.370  23.707  1.00  0.00     0.055 A 
ATOM     70  C   UNL A   1      49.173  26.407  25.731  1.00  0.00     0.041 A 
ATOM     71  F   UNL A   1      47.902  26.502  27.699  1.00  0.00    -0.206 F 
ATOM     72  C   UNL A   1      49.322  26.687  24.377  1.00  0.00     0.022 A 
BRANCH  69  73
ATOM     73  S   UNL A   1      48.448  27.690  21.927  1.00  0.00     0.124 S 
ATOM     74  O   UNL A   1      47.154  28.295  21.629  1.00  0.00    -0.237 OA
ATOM     75  O   UNL A   1      49.602  28.580  21.868  1.00  0.00    -0.237 OA
ATOM     76  O   UNL A   1      48.660  26.360  21.359  1.00  0.00    -0.744 OA
ENDBRANCH  69  73
ENDBRANCH  42  66
BRANCH  54  77
ATOM     77  C   UNL A   1      45.228  33.311  29.199  1.00  0.00     0.023 A 
ATOM     78  C   UNL A   1      45.081  34.450  28.391  1.00  0.00     0.031 A 
ATOM     79  C   UNL A   1      46.056  33.396  30.333  1.00  0.00     0.131 A 
ATOM     80  C   UNL A   1      45.775  35.625  28.715  1.00  0.00     0.055 A 
ATOM     81  C   UNL A   1      46.712  34.579  30.671  1.00  0.00     0.041 A 
ATOM     82  F   UNL A   1      46.222  32.334  31.136  1.00  0.00    -0.206 F 
ATOM     83  C   UNL A   1      46.576  35.700  29.858  1.00  0.00     0.022 A 
BRANCH  80  84
ATOM     84  S   UNL A   1      45.633  37.057  27.611  1.00  0.00     0.124 S 
ATOM     85  O   UNL A   1      44.782  36.533  26.546  1.00  0.00    -0.237 OA
ATOM     86  O   UNL A   1      45.026  38.064  28.474  1.00  0.00    -0.237 OA
ATOM     87  O   UNL A   1      47.015  37.329  27.222  1.00  0.00    -0.744 OA
ENDBRANCH  80  84
ENDBRANCH  54  77
ENDBRANCH  28  29
ENDBRANCH  21  23
ENDBRANCH  20  21
ENDBRANCH   1  20
TORSDOF 16
ENDMDL
