MODEL 1
REMARK VINA RESULT:     -12.7      0.000      0.000
REMARK SMILES O=C(OCCOC(=O)C1(C/C=C/c2ccccc2)Cc2ccccc2C1)c1ccc(-c2c3nc(c(-c4cc(S(=O)(=O)[O-])ccc4F)c4ccc([nH]4)c(-c4cc(S(=O)(=O)[O-])ccc4F)c4nc(c(-c5cc(S(=O)(=O)[O-])ccc5F)c5ccc2[nH]5)C=C4)C=C3)cc1
REMARK SMILES IDX 4 1 3 2 2 3 1 4 27 5 28 6 89 7 29 8 88 9 30 10 31 11 32 12
REMARK SMILES IDX 82 13 33 14 87 15 81 16 83 17 34 18 86 19 80 20 79 21 35 23
REMARK SMILES IDX 67 24 47 25 66 26 48 27 51 28 65 29 84 30 49 31 50 32 64 34
REMARK SMILES IDX 85 35 52 36 36 37 37 38 45 39 38 40 44 41 46 42 43 43 39 44
REMARK SMILES IDX 40 45 41 46 42 47 68 48 69 49 77 50 70 51 76 52 78 53 75 54
REMARK SMILES IDX 71 55 72 56 73 57 74 58 53 59 54 60 62 61 55 62 61 63 63 64
REMARK SMILES IDX 60 65 56 66 57 67 58 68 59 69 5 70 6 71 7 72 8 73 9 74 19 75
REMARK SMILES IDX 26 76 20 77 25 78 21 79 24 80 22 81 23 82 10 83 11 84 12 85
REMARK SMILES IDX 13 86 14 87 18 88 15 89 17 90 16 91
REMARK H PARENT 83 22 51 33
REMARK Flexibility Score: inf
ROOT
ATOM      1  C   UNL A   1      37.333  21.100  24.545  1.00  0.00     0.275 C 
ENDROOT
BRANCH   1   2
ATOM      2  O   UNL A   1      37.808  21.157  25.900  1.00  0.00    -0.458 OA
BRANCH   2   3
ATOM      3  C   UNL A   1      39.123  21.247  26.179  1.00  0.00     0.338 C 
ATOM      4  O   UNL A   1      39.905  20.374  25.814  1.00  0.00    -0.246 OA
BRANCH   3   5
ATOM      5  C   UNL A   1      39.587  22.514  26.825  1.00  0.00     0.060 A 
ATOM      6  C   UNL A   1      40.671  22.630  27.698  1.00  0.00     0.016 A 
ATOM      7  C   UNL A   1      38.939  23.684  26.439  1.00  0.00     0.016 A 
ATOM      8  C   UNL A   1      41.163  23.892  28.074  1.00  0.00     0.010 A 
ATOM      9  C   UNL A   1      39.486  24.938  26.727  1.00  0.00     0.010 A 
ATOM     10  C   UNL A   1      40.615  25.067  27.547  1.00  0.00    -0.014 A 
BRANCH  10  11
ATOM     11  C   UNL A   1      41.163  26.422  27.872  1.00  0.00     0.031 A 
ATOM     12  C   UNL A   1      42.582  26.761  27.474  1.00  0.00     0.074 A 
ATOM     13  C   UNL A   1      40.450  27.317  28.596  1.00  0.00     0.049 A 
ATOM     14  N   UNL A   1      43.303  27.812  27.774  1.00  0.00    -0.248 NA
ATOM     15  C   UNL A   1      43.310  25.753  26.686  1.00  0.00     0.031 C 
ATOM     16  C   UNL A   1      39.096  27.113  29.119  1.00  0.00     0.029 A 
ATOM     17  N   UNL A   1      40.772  28.580  29.040  1.00  0.00    -0.354 N 
ATOM     18  C   UNL A   1      44.567  27.561  27.251  1.00  0.00     0.074 A 
ATOM     19  C   UNL A   1      44.548  26.212  26.736  1.00  0.00     0.031 C 
ATOM     20  C   UNL A   1      38.715  28.194  29.819  1.00  0.00     0.029 A 
ATOM     21  C   UNL A   1      39.795  29.171  29.814  1.00  0.00     0.049 A 
ATOM     22  H   UNL A   1      41.626  29.021  28.826  1.00  0.00     0.167 HD
ATOM     23  C   UNL A   1      45.625  28.400  27.126  1.00  0.00     0.034 A 
ATOM     24  C   UNL A   1      39.769  30.363  30.448  1.00  0.00     0.034 A 
ATOM     25  C   UNL A   1      45.589  29.778  27.529  1.00  0.00     0.049 A 
ATOM     26  C   UNL A   1      40.941  31.294  30.280  1.00  0.00     0.074 A 
ATOM     27  C   UNL A   1      46.517  30.775  27.282  1.00  0.00     0.029 A 
ATOM     28  N   UNL A   1      44.560  30.360  28.256  1.00  0.00    -0.354 N 
ATOM     29  N   UNL A   1      42.070  31.088  29.643  1.00  0.00    -0.248 NA
ATOM     30  C   UNL A   1      40.821  32.630  30.878  1.00  0.00     0.031 C 
ATOM     31  C   UNL A   1      46.068  31.948  27.896  1.00  0.00     0.029 A 
ATOM     32  C   UNL A   1      44.841  31.695  28.488  1.00  0.00     0.049 A 
ATOM     33  H   UNL A   1      43.750  29.892  28.561  1.00  0.00     0.167 HD
ATOM     34  C   UNL A   1      42.773  32.286  29.726  1.00  0.00     0.074 A 
ATOM     35  C   UNL A   1      41.942  33.207  30.472  1.00  0.00     0.031 C 
ATOM     36  C   UNL A   1      43.993  32.598  29.222  1.00  0.00     0.034 A 
BRANCH  23  37
ATOM     37  C   UNL A   1      46.875  27.855  26.478  1.00  0.00     0.023 A 
ATOM     38  C   UNL A   1      47.176  28.124  25.132  1.00  0.00     0.031 A 
ATOM     39  C   UNL A   1      47.752  27.023  27.193  1.00  0.00     0.131 A 
ATOM     40  C   UNL A   1      48.252  27.480  24.509  1.00  0.00     0.055 A 
ATOM     41  C   UNL A   1      48.881  26.459  26.593  1.00  0.00     0.041 A 
ATOM     42  F   UNL A   1      47.517  26.724  28.480  1.00  0.00    -0.206 F 
ATOM     43  C   UNL A   1      49.125  26.669  25.237  1.00  0.00     0.022 A 
BRANCH  40  44
ATOM     44  S   UNL A   1      48.398  27.597  22.706  1.00  0.00     0.124 S 
ATOM     45  O   UNL A   1      48.466  26.187  22.327  1.00  0.00    -0.237 OA
ATOM     46  O   UNL A   1      47.175  28.297  22.333  1.00  0.00    -0.237 OA
ATOM     47  O   UNL A   1      49.635  28.350  22.510  1.00  0.00    -0.744 OA
ENDBRANCH  40  44
ENDBRANCH  23  37
BRANCH  24  48
ATOM     48  C   UNL A   1      38.612  30.759  31.306  1.00  0.00     0.023 A 
ATOM     49  C   UNL A   1      37.456  31.338  30.760  1.00  0.00     0.031 A 
ATOM     50  C   UNL A   1      38.688  30.641  32.704  1.00  0.00     0.131 A 
ATOM     51  C   UNL A   1      36.449  31.829  31.609  1.00  0.00     0.055 A 
ATOM     52  C   UNL A   1      37.662  31.084  33.543  1.00  0.00     0.041 A 
ATOM     53  F   UNL A   1      39.776  30.103  33.278  1.00  0.00    -0.206 F 
ATOM     54  C   UNL A   1      36.541  31.698  32.996  1.00  0.00     0.022 A 
BRANCH  51  55
ATOM     55  S   UNL A   1      35.064  32.747  30.875  1.00  0.00     0.124 S 
ATOM     56  O   UNL A   1      34.042  32.622  31.908  1.00  0.00    -0.237 OA
ATOM     57  O   UNL A   1      35.644  34.075  30.702  1.00  0.00    -0.237 OA
ATOM     58  O   UNL A   1      34.794  32.021  29.636  1.00  0.00    -0.744 OA
ENDBRANCH  51  55
ENDBRANCH  24  48
BRANCH  36  59
ATOM     59  C   UNL A   1      44.469  34.011  29.416  1.00  0.00     0.023 A 
ATOM     60  C   UNL A   1      44.071  35.041  28.550  1.00  0.00     0.031 A 
ATOM     61  C   UNL A   1      45.324  34.327  30.486  1.00  0.00     0.131 A 
ATOM     62  C   UNL A   1      44.562  36.339  28.745  1.00  0.00     0.055 A 
ATOM     63  C   UNL A   1      45.764  35.631  30.707  1.00  0.00     0.041 A 
ATOM     64  F   UNL A   1      45.733  33.374  31.339  1.00  0.00    -0.206 F 
ATOM     65  C   UNL A   1      45.390  36.644  29.829  1.00  0.00     0.022 A 
BRANCH  62  66
ATOM     66  S   UNL A   1      44.148  37.615  27.526  1.00  0.00     0.124 S 
ATOM     67  O   UNL A   1      43.641  38.688  28.374  1.00  0.00    -0.237 OA
ATOM     68  O   UNL A   1      45.435  37.865  26.883  1.00  0.00    -0.237 OA
ATOM     69  O   UNL A   1      43.150  36.967  26.678  1.00  0.00    -0.744 OA
ENDBRANCH  62  66
ENDBRANCH  36  59
ENDBRANCH  10  11
ENDBRANCH   3   5
ENDBRANCH   2   3
ENDBRANCH   1   2
BRANCH   1  70
ATOM     70  C   UNL A   1      36.923  22.394  23.826  1.00  0.00     0.274 C 
BRANCH  70  71
ATOM     71  O   UNL A   1      35.841  23.129  24.429  1.00  0.00    -0.462 OA
BRANCH  71  72
ATOM     72  C   UNL A   1      34.872  23.548  23.551  1.00  0.00     0.313 C 
ATOM     73  O   UNL A   1      34.924  23.365  22.339  1.00  0.00    -0.252 OA
BRANCH  72  74
ATOM     74  C   UNL A   1      33.739  24.315  24.228  1.00  0.00     0.079 C 
ATOM     75  C   UNL A   1      34.321  25.101  25.438  1.00  0.00     0.055 C 
ATOM     76  C   UNL A   1      33.183  25.430  23.301  1.00  0.00     0.055 C 
ATOM     77  C   UNL A   1      33.379  26.257  25.526  1.00  0.00    -0.044 A 
ATOM     78  C   UNL A   1      32.700  26.427  24.314  1.00  0.00    -0.044 A 
ATOM     79  C   UNL A   1      33.106  27.057  26.619  1.00  0.00     0.004 A 
ATOM     80  C   UNL A   1      31.695  27.367  24.187  1.00  0.00     0.004 A 
ATOM     81  C   UNL A   1      32.091  28.005  26.502  1.00  0.00     0.000 A 
ATOM     82  C   UNL A   1      31.382  28.151  25.299  1.00  0.00     0.000 A 
BRANCH  74  83
ATOM     83  C   UNL A   1      32.568  23.397  24.673  1.00  0.00     0.047 C 
BRANCH  83  84
ATOM     84  C   UNL A   1      32.575  21.997  24.114  1.00  0.00    -0.025 C 
ATOM     85  C   UNL A   1      32.787  20.895  24.858  1.00  0.00     0.004 C 
BRANCH  85  86
ATOM     86  C   UNL A   1      33.210  19.619  24.245  1.00  0.00    -0.026 A 
ATOM     87  C   UNL A   1      32.368  19.009  23.300  1.00  0.00     0.008 A 
ATOM     88  C   UNL A   1      34.348  18.922  24.670  1.00  0.00     0.008 A 
ATOM     89  C   UNL A   1      32.610  17.701  22.866  1.00  0.00     0.001 A 
ATOM     90  C   UNL A   1      34.590  17.616  24.236  1.00  0.00     0.001 A 
ATOM     91  C   UNL A   1      33.711  17.000  23.348  1.00  0.00     0.000 A 
ENDBRANCH  85  86
ENDBRANCH  83  84
ENDBRANCH  74  83
ENDBRANCH  72  74
ENDBRANCH  71  72
ENDBRANCH  70  71
ENDBRANCH   1  70
TORSDOF 17
ENDMDL
MODEL 2
REMARK VINA RESULT:     -12.6      1.164      3.137
REMARK SMILES O=C(OCCOC(=O)C1(C/C=C/c2ccccc2)Cc2ccccc2C1)c1ccc(-c2c3nc(c(-c4cc(S(=O)(=O)[O-])ccc4F)c4ccc([nH]4)c(-c4cc(S(=O)(=O)[O-])ccc4F)c4nc(c(-c5cc(S(=O)(=O)[O-])ccc5F)c5ccc2[nH]5)C=C4)C=C3)cc1
REMARK SMILES IDX 4 1 3 2 2 3 1 4 27 5 28 6 89 7 29 8 88 9 30 10 31 11 32 12
REMARK SMILES IDX 82 13 33 14 87 15 81 16 83 17 34 18 86 19 80 20 79 21 35 23
REMARK SMILES IDX 67 24 47 25 66 26 48 27 51 28 65 29 84 30 49 31 50 32 64 34
REMARK SMILES IDX 85 35 52 36 36 37 37 38 45 39 38 40 44 41 46 42 43 43 39 44
REMARK SMILES IDX 40 45 41 46 42 47 68 48 69 49 77 50 70 51 76 52 78 53 75 54
REMARK SMILES IDX 71 55 72 56 73 57 74 58 53 59 54 60 62 61 55 62 61 63 63 64
REMARK SMILES IDX 60 65 56 66 57 67 58 68 59 69 5 70 6 71 7 72 8 73 9 74 19 75
REMARK SMILES IDX 26 76 20 77 25 78 21 79 24 80 22 81 23 82 10 83 11 84 12 85
REMARK SMILES IDX 13 86 14 87 18 88 15 89 17 90 16 91
REMARK H PARENT 83 22 51 33
REMARK Flexibility Score: inf
ROOT
ATOM      1  C   UNL A   1      38.000  19.885  25.042  1.00  0.00     0.275 C 
ENDROOT
BRANCH   1   2
ATOM      2  O   UNL A   1      38.666  21.095  25.438  1.00  0.00    -0.458 OA
BRANCH   2   3
ATOM      3  C   UNL A   1      39.683  21.080  26.322  1.00  0.00     0.338 C 
ATOM      4  O   UNL A   1      40.338  20.058  26.509  1.00  0.00    -0.246 OA
BRANCH   3   5
ATOM      5  C   UNL A   1      40.048  22.388  26.948  1.00  0.00     0.060 A 
ATOM      6  C   UNL A   1      41.058  22.581  27.894  1.00  0.00     0.016 A 
ATOM      7  C   UNL A   1      39.387  23.515  26.468  1.00  0.00     0.016 A 
ATOM      8  C   UNL A   1      41.472  23.876  28.252  1.00  0.00     0.010 A 
ATOM      9  C   UNL A   1      39.863  24.800  26.744  1.00  0.00     0.010 A 
ATOM     10  C   UNL A   1      40.921  25.007  27.639  1.00  0.00    -0.014 A 
BRANCH  10  11
ATOM     11  C   UNL A   1      41.390  26.395  27.948  1.00  0.00     0.031 A 
ATOM     12  C   UNL A   1      42.795  26.803  27.562  1.00  0.00     0.074 A 
ATOM     13  C   UNL A   1      40.621  27.261  28.648  1.00  0.00     0.049 A 
ATOM     14  N   UNL A   1      43.453  27.896  27.852  1.00  0.00    -0.248 NA
ATOM     15  C   UNL A   1      43.585  25.823  26.800  1.00  0.00     0.031 C 
ATOM     16  C   UNL A   1      39.274  26.993  29.158  1.00  0.00     0.029 A 
ATOM     17  N   UNL A   1      40.869  28.546  29.075  1.00  0.00    -0.354 N 
ATOM     18  C   UNL A   1      44.736  27.706  27.349  1.00  0.00     0.074 A 
ATOM     19  C   UNL A   1      44.797  26.349  26.856  1.00  0.00     0.031 C 
ATOM     20  C   UNL A   1      38.826  28.063  29.835  1.00  0.00     0.029 A 
ATOM     21  C   UNL A   1      39.852  29.096  29.827  1.00  0.00     0.049 A 
ATOM     22  H   UNL A   1      41.700  29.029  28.864  1.00  0.00     0.167 HD
ATOM     23  C   UNL A   1      45.749  28.599  27.223  1.00  0.00     0.034 A 
ATOM     24  C   UNL A   1      39.753  30.295  30.441  1.00  0.00     0.034 A 
ATOM     25  C   UNL A   1      45.634  29.979  27.602  1.00  0.00     0.049 A 
ATOM     26  C   UNL A   1      40.875  31.285  30.271  1.00  0.00     0.074 A 
ATOM     27  C   UNL A   1      46.509  31.020  27.350  1.00  0.00     0.029 A 
ATOM     28  N   UNL A   1      44.565  30.516  28.306  1.00  0.00    -0.354 N 
ATOM     29  N   UNL A   1      42.022  31.131  29.651  1.00  0.00    -0.248 NA
ATOM     30  C   UNL A   1      40.676  32.623  30.845  1.00  0.00     0.031 C 
ATOM     31  C   UNL A   1      45.990  32.178  27.938  1.00  0.00     0.029 A 
ATOM     32  C   UNL A   1      44.771  31.868  28.520  1.00  0.00     0.049 A 
ATOM     33  H   UNL A   1      43.778  30.009  28.610  1.00  0.00     0.167 HD
ATOM     34  C   UNL A   1      42.659  32.366  29.723  1.00  0.00     0.074 A 
ATOM     35  C   UNL A   1      41.770  33.253  30.443  1.00  0.00     0.031 C 
ATOM     36  C   UNL A   1      43.866  32.736  29.228  1.00  0.00     0.034 A 
BRANCH  23  37
ATOM     37  C   UNL A   1      47.034  28.111  26.599  1.00  0.00     0.023 A 
ATOM     38  C   UNL A   1      47.254  28.203  25.213  1.00  0.00     0.031 A 
ATOM     39  C   UNL A   1      48.033  27.510  27.384  1.00  0.00     0.131 A 
ATOM     40  C   UNL A   1      48.381  27.602  24.639  1.00  0.00     0.055 A 
ATOM     41  C   UNL A   1      49.202  26.998  26.816  1.00  0.00     0.041 A 
ATOM     42  F   UNL A   1      47.880  27.389  28.712  1.00  0.00    -0.206 F 
ATOM     43  C   UNL A   1      49.372  27.022  25.433  1.00  0.00     0.022 A 
BRANCH  40  44
ATOM     44  S   UNL A   1      48.450  27.455  22.833  1.00  0.00     0.124 S 
ATOM     45  O   UNL A   1      49.740  28.077  22.540  1.00  0.00    -0.237 OA
ATOM     46  O   UNL A   1      48.379  26.013  22.629  1.00  0.00    -0.237 OA
ATOM     47  O   UNL A   1      47.283  28.209  22.382  1.00  0.00    -0.744 OA
ENDBRANCH  40  44
ENDBRANCH  23  37
BRANCH  24  48
ATOM     48  C   UNL A   1      38.565  30.641  31.278  1.00  0.00     0.023 A 
ATOM     49  C   UNL A   1      37.442  31.280  30.730  1.00  0.00     0.031 A 
ATOM     50  C   UNL A   1      38.580  30.414  32.664  1.00  0.00     0.131 A 
ATOM     51  C   UNL A   1      36.405  31.720  31.572  1.00  0.00     0.055 A 
ATOM     52  C   UNL A   1      37.525  30.807  33.492  1.00  0.00     0.041 A 
ATOM     53  F   UNL A   1      39.635  29.816  33.239  1.00  0.00    -0.206 F 
ATOM     54  C   UNL A   1      36.436  31.480  32.948  1.00  0.00     0.022 A 
BRANCH  51  55
ATOM     55  S   UNL A   1      35.065  32.715  30.856  1.00  0.00     0.124 S 
ATOM     56  O   UNL A   1      35.715  34.008  30.679  1.00  0.00    -0.237 OA
ATOM     57  O   UNL A   1      34.764  31.974  29.634  1.00  0.00    -0.237 OA
ATOM     58  O   UNL A   1      34.024  32.672  31.881  1.00  0.00    -0.744 OA
ENDBRANCH  51  55
ENDBRANCH  24  48
BRANCH  36  59
ATOM     59  C   UNL A   1      44.262  34.174  29.403  1.00  0.00     0.023 A 
ATOM     60  C   UNL A   1      43.781  35.175  28.545  1.00  0.00     0.031 A 
ATOM     61  C   UNL A   1      45.125  34.547  30.449  1.00  0.00     0.131 A 
ATOM     62  C   UNL A   1      44.200  36.501  28.722  1.00  0.00     0.055 A 
ATOM     63  C   UNL A   1      45.494  35.875  30.654  1.00  0.00     0.041 A 
ATOM     64  F   UNL A   1      45.612  33.623  31.294  1.00  0.00    -0.206 F 
ATOM     65  C   UNL A   1      45.037  36.860  29.783  1.00  0.00     0.022 A 
BRANCH  62  66
ATOM     66  S   UNL A   1      43.680  37.743  27.510  1.00  0.00     0.124 S 
ATOM     67  O   UNL A   1      44.959  38.201  26.980  1.00  0.00    -0.237 OA
ATOM     68  O   UNL A   1      42.853  36.963  26.595  1.00  0.00    -0.237 OA
ATOM     69  O   UNL A   1      42.954  38.724  28.315  1.00  0.00    -0.744 OA
ENDBRANCH  62  66
ENDBRANCH  36  59
ENDBRANCH  10  11
ENDBRANCH   3   5
ENDBRANCH   2   3
ENDBRANCH   1   2
BRANCH   1  70
ATOM     70  C   UNL A   1      36.497  19.911  24.723  1.00  0.00     0.274 C 
BRANCH  70  71
ATOM     71  O   UNL A   1      35.733  20.930  25.396  1.00  0.00    -0.462 OA
BRANCH  71  72
ATOM     72  C   UNL A   1      34.379  20.874  25.169  1.00  0.00     0.313 C 
ATOM     73  O   UNL A   1      33.735  19.831  25.130  1.00  0.00    -0.252 OA
BRANCH  72  74
ATOM     74  C   UNL A   1      33.757  22.246  24.919  1.00  0.00     0.079 C 
ATOM     75  C   UNL A   1      34.135  22.712  23.485  1.00  0.00     0.055 C 
ATOM     76  C   UNL A   1      32.207  22.161  24.880  1.00  0.00     0.055 C 
ATOM     77  C   UNL A   1      32.978  23.593  23.141  1.00  0.00    -0.044 A 
ATOM     78  C   UNL A   1      31.883  23.303  23.962  1.00  0.00    -0.044 A 
ATOM     79  C   UNL A   1      32.927  24.613  22.210  1.00  0.00     0.004 A 
ATOM     80  C   UNL A   1      30.729  24.062  23.905  1.00  0.00     0.004 A 
ATOM     81  C   UNL A   1      31.768  25.387  22.147  1.00  0.00     0.000 A 
ATOM     82  C   UNL A   1      30.683  25.122  22.997  1.00  0.00     0.000 A 
BRANCH  74  83
ATOM     83  C   UNL A   1      34.178  23.303  25.977  1.00  0.00     0.047 C 
BRANCH  83  84
ATOM     84  C   UNL A   1      34.150  24.741  25.525  1.00  0.00    -0.025 C 
ATOM     85  C   UNL A   1      33.352  25.681  26.067  1.00  0.00     0.004 C 
BRANCH  85  86
ATOM     86  C   UNL A   1      33.032  26.931  25.347  1.00  0.00    -0.026 A 
ATOM     87  C   UNL A   1      31.765  27.511  25.529  1.00  0.00     0.008 A 
ATOM     88  C   UNL A   1      33.885  27.483  24.384  1.00  0.00     0.008 A 
ATOM     89  C   UNL A   1      31.333  28.555  24.704  1.00  0.00     0.001 A 
ATOM     90  C   UNL A   1      33.453  28.527  23.561  1.00  0.00     0.001 A 
ATOM     91  C   UNL A   1      32.171  29.050  23.710  1.00  0.00     0.000 A 
ENDBRANCH  85  86
ENDBRANCH  83  84
ENDBRANCH  74  83
ENDBRANCH  72  74
ENDBRANCH  71  72
ENDBRANCH  70  71
ENDBRANCH   1  70
TORSDOF 17
ENDMDL
MODEL 3
REMARK VINA RESULT:     -12.5      1.607      8.201
REMARK SMILES O=C(OCCOC(=O)C1(C/C=C/c2ccccc2)Cc2ccccc2C1)c1ccc(-c2c3nc(c(-c4cc(S(=O)(=O)[O-])ccc4F)c4ccc([nH]4)c(-c4cc(S(=O)(=O)[O-])ccc4F)c4nc(c(-c5cc(S(=O)(=O)[O-])ccc5F)c5ccc2[nH]5)C=C4)C=C3)cc1
REMARK SMILES IDX 4 1 3 2 2 3 1 4 27 5 28 6 89 7 29 8 88 9 30 10 31 11 32 12
REMARK SMILES IDX 82 13 33 14 87 15 81 16 83 17 34 18 86 19 80 20 79 21 35 23
REMARK SMILES IDX 67 24 47 25 66 26 48 27 51 28 65 29 84 30 49 31 50 32 64 34
REMARK SMILES IDX 85 35 52 36 36 37 37 38 45 39 38 40 44 41 46 42 43 43 39 44
REMARK SMILES IDX 40 45 41 46 42 47 68 48 69 49 77 50 70 51 76 52 78 53 75 54
REMARK SMILES IDX 71 55 72 56 73 57 74 58 53 59 54 60 62 61 55 62 61 63 63 64
REMARK SMILES IDX 60 65 56 66 57 67 58 68 59 69 5 70 6 71 7 72 8 73 9 74 19 75
REMARK SMILES IDX 26 76 20 77 25 78 21 79 24 80 22 81 23 82 10 83 11 84 12 85
REMARK SMILES IDX 13 86 14 87 18 88 15 89 17 90 16 91
REMARK H PARENT 83 22 51 33
REMARK Flexibility Score: inf
ROOT
ATOM      1  C   UNL A   1      36.007  20.956  25.337  1.00  0.00     0.275 C 
ENDROOT
BRANCH   1   2
ATOM      2  O   UNL A   1      37.320  21.210  24.813  1.00  0.00    -0.458 OA
BRANCH   2   3
ATOM      3  C   UNL A   1      38.428  20.923  25.524  1.00  0.00     0.338 C 
ATOM      4  O   UNL A   1      38.912  19.796  25.506  1.00  0.00    -0.246 OA
BRANCH   3   5
ATOM      5  C   UNL A   1      39.098  22.070  26.214  1.00  0.00     0.060 A 
ATOM      6  C   UNL A   1      40.242  21.980  27.010  1.00  0.00     0.016 A 
ATOM      7  C   UNL A   1      38.589  23.338  25.953  1.00  0.00     0.016 A 
ATOM      8  C   UNL A   1      40.922  23.137  27.428  1.00  0.00     0.010 A 
ATOM      9  C   UNL A   1      39.316  24.486  26.279  1.00  0.00     0.010 A 
ATOM     10  C   UNL A   1      40.503  24.409  27.020  1.00  0.00    -0.014 A 
BRANCH  10  11
ATOM     11  C   UNL A   1      41.247  25.654  27.390  1.00  0.00     0.031 A 
ATOM     12  C   UNL A   1      40.521  26.758  28.128  1.00  0.00     0.074 A 
ATOM     13  C   UNL A   1      42.528  25.855  26.999  1.00  0.00     0.049 A 
ATOM     14  N   UNL A   1      40.924  27.967  28.422  1.00  0.00    -0.248 NA
ATOM     15  C   UNL A   1      39.132  26.484  28.531  1.00  0.00     0.031 C 
ATOM     16  C   UNL A   1      43.342  24.921  26.218  1.00  0.00     0.029 A 
ATOM     17  N   UNL A   1      43.370  26.928  27.186  1.00  0.00    -0.354 N 
ATOM     18  C   UNL A   1      39.826  28.598  28.998  1.00  0.00     0.074 A 
ATOM     19  C   UNL A   1      38.712  27.685  28.889  1.00  0.00     0.031 C 
ATOM     20  C   UNL A   1      44.549  25.462  25.981  1.00  0.00     0.029 A 
ATOM     21  C   UNL A   1      44.601  26.790  26.577  1.00  0.00     0.049 A 
ATOM     22  H   UNL A   1      43.117  27.724  27.706  1.00  0.00     0.167 HD
ATOM     23  C   UNL A   1      39.762  29.791  29.640  1.00  0.00     0.034 A 
ATOM     24  C   UNL A   1      45.653  27.633  26.507  1.00  0.00     0.034 A 
ATOM     25  C   UNL A   1      40.905  30.634  29.852  1.00  0.00     0.049 A 
ATOM     26  C   UNL A   1      45.576  28.943  27.245  1.00  0.00     0.074 A 
ATOM     27  C   UNL A   1      41.011  31.761  30.647  1.00  0.00     0.029 A 
ATOM     28  N   UNL A   1      42.150  30.432  29.273  1.00  0.00    -0.354 N 
ATOM     29  N   UNL A   1      44.570  29.450  27.919  1.00  0.00    -0.248 NA
ATOM     30  C   UNL A   1      46.786  29.776  27.251  1.00  0.00     0.031 C 
ATOM     31  C   UNL A   1      42.309  32.265  30.515  1.00  0.00     0.029 A 
ATOM     32  C   UNL A   1      43.024  31.428  29.672  1.00  0.00     0.049 A 
ATOM     33  H   UNL A   1      42.378  29.691  28.667  1.00  0.00     0.167 HD
ATOM     34  C   UNL A   1      45.043  30.639  28.465  1.00  0.00     0.074 A 
ATOM     35  C   UNL A   1      46.422  30.772  28.045  1.00  0.00     0.031 C 
ATOM     36  C   UNL A   1      44.397  31.535  29.253  1.00  0.00     0.034 A 
BRANCH  23  37
ATOM     37  C   UNL A   1      38.424  30.209  30.201  1.00  0.00     0.023 A 
ATOM     38  C   UNL A   1      37.536  31.005  29.456  1.00  0.00     0.031 A 
ATOM     39  C   UNL A   1      38.047  29.851  31.506  1.00  0.00     0.131 A 
ATOM     40  C   UNL A   1      36.375  31.511  30.054  1.00  0.00     0.055 A 
ATOM     41  C   UNL A   1      36.840  30.280  32.065  1.00  0.00     0.041 A 
ATOM     42  F   UNL A   1      38.854  29.098  32.270  1.00  0.00    -0.206 F 
ATOM     43  C   UNL A   1      36.006  31.133  31.346  1.00  0.00     0.022 A 
BRANCH  40  44
ATOM     44  S   UNL A   1      35.443  32.791  29.171  1.00  0.00     0.124 S 
ATOM     45  O   UNL A   1      35.098  32.098  27.932  1.00  0.00    -0.237 OA
ATOM     46  O   UNL A   1      34.334  33.059  30.079  1.00  0.00    -0.237 OA
ATOM     47  O   UNL A   1      36.407  33.879  29.023  1.00  0.00    -0.744 OA
ENDBRANCH  40  44
ENDBRANCH  23  37
BRANCH  24  48
ATOM     48  C   UNL A   1      46.870  27.289  25.711  1.00  0.00     0.023 A 
ATOM     49  C   UNL A   1      47.078  27.811  24.424  1.00  0.00     0.031 A 
ATOM     50  C   UNL A   1      47.800  26.357  26.200  1.00  0.00     0.131 A 
ATOM     51  C   UNL A   1      48.158  27.354  23.649  1.00  0.00     0.055 A 
ATOM     52  C   UNL A   1      48.902  25.944  25.446  1.00  0.00     0.041 A 
ATOM     53  F   UNL A   1      47.642  25.821  27.419  1.00  0.00    -0.206 F 
ATOM     54  C   UNL A   1      49.076  26.431  24.154  1.00  0.00     0.022 A 
BRANCH  51  55
ATOM     55  S   UNL A   1      48.282  27.903  21.922  1.00  0.00     0.124 S 
ATOM     56  O   UNL A   1      47.105  28.754  21.794  1.00  0.00    -0.237 OA
ATOM     57  O   UNL A   1      49.573  28.585  21.918  1.00  0.00    -0.237 OA
ATOM     58  O   UNL A   1      48.238  26.653  21.165  1.00  0.00    -0.744 OA
ENDBRANCH  51  55
ENDBRANCH  24  48
BRANCH  36  59
ATOM     59  C   UNL A   1      45.198  32.704  29.752  1.00  0.00     0.023 A 
ATOM     60  C   UNL A   1      45.285  33.897  29.018  1.00  0.00     0.031 A 
ATOM     61  C   UNL A   1      45.873  32.624  30.983  1.00  0.00     0.131 A 
ATOM     62  C   UNL A   1      46.068  34.954  29.502  1.00  0.00     0.055 A 
ATOM     63  C   UNL A   1      46.605  33.699  31.486  1.00  0.00     0.041 A 
ATOM     64  F   UNL A   1      45.820  31.502  31.719  1.00  0.00    -0.206 F 
ATOM     65  C   UNL A   1      46.713  34.869  30.740  1.00  0.00     0.022 A 
BRANCH  62  66
ATOM     66  S   UNL A   1      46.280  36.423  28.463  1.00  0.00     0.124 S 
ATOM     67  O   UNL A   1      45.518  36.062  27.272  1.00  0.00    -0.237 OA
ATOM     68  O   UNL A   1      45.706  37.480  29.290  1.00  0.00    -0.237 OA
ATOM     69  O   UNL A   1      47.727  36.504  28.274  1.00  0.00    -0.744 OA
ENDBRANCH  62  66
ENDBRANCH  36  59
ENDBRANCH  10  11
ENDBRANCH   3   5
ENDBRANCH   2   3
ENDBRANCH   1   2
BRANCH   1  70
ATOM     70  C   UNL A   1      34.778  21.558  24.639  1.00  0.00     0.274 C 
BRANCH  70  71
ATOM     71  O   UNL A   1      34.776  22.992  24.502  1.00  0.00    -0.462 OA
BRANCH  71  72
ATOM     72  C   UNL A   1      33.772  23.491  23.708  1.00  0.00     0.313 C 
ATOM     73  O   UNL A   1      33.277  22.879  22.767  1.00  0.00    -0.252 OA
BRANCH  72  74
ATOM     74  C   UNL A   1      33.363  24.913  24.083  1.00  0.00     0.079 C 
ATOM     75  C   UNL A   1      32.090  24.848  24.974  1.00  0.00     0.055 C 
ATOM     76  C   UNL A   1      34.421  25.579  25.005  1.00  0.00     0.055 C 
ATOM     77  C   UNL A   1      32.233  26.090  25.793  1.00  0.00    -0.044 A 
ATOM     78  C   UNL A   1      33.561  26.530  25.784  1.00  0.00    -0.044 A 
ATOM     79  C   UNL A   1      31.245  26.803  26.444  1.00  0.00     0.004 A 
ATOM     80  C   UNL A   1      33.920  27.722  26.383  1.00  0.00     0.004 A 
ATOM     81  C   UNL A   1      31.596  28.010  27.049  1.00  0.00     0.000 A 
ATOM     82  C   UNL A   1      32.921  28.472  27.008  1.00  0.00     0.000 A 
BRANCH  74  83
ATOM     83  C   UNL A   1      33.129  25.821  22.845  1.00  0.00     0.047 C 
BRANCH  83  84
ATOM     84  C   UNL A   1      31.731  26.358  22.670  1.00  0.00    -0.025 C 
ATOM     85  C   UNL A   1      31.430  27.670  22.656  1.00  0.00     0.004 C 
BRANCH  85  86
ATOM     86  C   UNL A   1      30.056  28.150  22.915  1.00  0.00    -0.026 A 
ATOM     87  C   UNL A   1      29.128  27.267  23.492  1.00  0.00     0.008 A 
ATOM     88  C   UNL A   1      29.603  29.401  22.481  1.00  0.00     0.008 A 
ATOM     89  C   UNL A   1      27.769  27.593  23.545  1.00  0.00     0.001 A 
ATOM     90  C   UNL A   1      28.245  29.728  22.535  1.00  0.00     0.001 A 
ATOM     91  C   UNL A   1      27.327  28.816  23.050  1.00  0.00     0.000 A 
ENDBRANCH  85  86
ENDBRANCH  83  84
ENDBRANCH  74  83
ENDBRANCH  72  74
ENDBRANCH  71  72
ENDBRANCH  70  71
ENDBRANCH   1  70
TORSDOF 17
ENDMDL
