MODEL 1
REMARK VINA RESULT:     -11.1      0.000      0.000
REMARK SMILES Cc1nsc(NC(=O)CC[C@H](C)CC[NH3+])c1C(=O)OCCOC(=O)c1ccc(-c2c3nc(c(-c4cc(S(=O)(=O)[O-])ccc4F)c4ccc([nH]4)c(-c4cc(S(=O)(=O)[O-])ccc4F)c4nc(c(-c5cc(S(=O)(=O)[O-])ccc5F)c5ccc2[nH]5)C=C4)C=C3)cc1
REMARK SMILES IDX 17 1 18 2 16 3 1 4 2 5 3 6 4 7 5 8 6 9 7 10 8 12 9 13 10 14
REMARK SMILES IDX 11 15 12 16 13 17 14 18 15 19 19 23 20 24 21 25 22 26 23 27
REMARK SMILES IDX 24 28 25 29 26 30 87 31 27 32 86 33 28 34 29 35 30 36 80 37
REMARK SMILES IDX 31 38 85 39 79 40 81 41 32 42 84 43 78 44 77 45 33 47 65 48
REMARK SMILES IDX 45 49 64 50 46 51 49 52 63 53 82 54 47 55 48 56 62 58 83 59
REMARK SMILES IDX 50 60 34 61 35 62 43 63 36 64 42 65 44 66 41 67 37 68 38 69
REMARK SMILES IDX 39 70 40 71 66 72 67 73 75 74 68 75 74 76 76 77 73 78 69 79
REMARK SMILES IDX 70 80 71 81 72 82 51 83 52 84 60 85 53 86 59 87 61 88 58 89
REMARK SMILES IDX 54 90 55 91 56 92 57 93
REMARK H PARENT 6 11 15 20 15 21 15 22 81 46 49 57
REMARK Flexibility Score: inf
ROOT
ATOM      1  C   UNL A   1      31.735  27.626  26.940  1.00  0.00     0.343 C 
ATOM      2  O   UNL A   1      31.051  27.689  27.960  1.00  0.00    -0.246 OA
ENDROOT
BRANCH   1   3
ATOM      3  C   UNL A   1      31.200  27.160  25.668  1.00  0.00     0.117 A 
ATOM      4  C   UNL A   1      31.084  29.394  24.273  1.00  0.00     0.069 C 
ATOM      5  C   UNL A   1      31.020  27.915  24.446  1.00  0.00     0.068 A 
ATOM      6  N   UNL A   1      30.761  27.192  23.353  1.00  0.00    -0.195 NA
ATOM      7  S   UNL A   1      30.584  25.614  23.802  1.00  0.00    -0.017 S 
ATOM      8  C   UNL A   1      30.616  25.910  25.475  1.00  0.00     0.130 A 
BRANCH   8   9
ATOM      9  N   UNL A   1      30.196  24.994  26.419  1.00  0.00    -0.316 N 
ATOM     10  C   UNL A   1      30.662  23.747  26.739  1.00  0.00     0.225 C 
ATOM     11  H   UNL A   1      29.426  25.289  26.957  1.00  0.00     0.170 HD
ATOM     12  O   UNL A   1      30.015  23.118  27.588  1.00  0.00    -0.275 OA
BRANCH  10  13
ATOM     13  C   UNL A   1      31.875  23.076  26.103  1.00  0.00     0.101 C 
BRANCH  13  14
ATOM     14  C   UNL A   1      33.262  23.302  26.742  1.00  0.00     0.013 C 
BRANCH  14  15
ATOM     15  C   UNL A   1      34.419  22.445  26.191  1.00  0.00    -0.008 C 
ATOM     16  C   UNL A   1      35.661  23.300  25.998  1.00  0.00     0.008 C 
BRANCH  15  17
ATOM     17  C   UNL A   1      34.100  21.705  24.879  1.00  0.00     0.064 C 
BRANCH  17  18
ATOM     18  C   UNL A   1      34.068  20.175  25.075  1.00  0.00     0.259 C 
BRANCH  18  19
ATOM     19  N   UNL A   1      33.269  19.785  26.240  1.00  0.00    -0.358 N 
ATOM     20  H   UNL A   1      32.824  20.612  26.638  1.00  0.00     0.344 HD
ATOM     21  H   UNL A   1      33.875  19.356  26.939  1.00  0.00     0.344 HD
ATOM     22  H   UNL A   1      32.554  19.118  25.953  1.00  0.00     0.344 HD
ENDBRANCH  18  19
ENDBRANCH  17  18
ENDBRANCH  15  17
ENDBRANCH  14  15
ENDBRANCH  13  14
ENDBRANCH  10  13
ENDBRANCH   8   9
ENDBRANCH   1   3
BRANCH   1  23
ATOM     23  O   UNL A   1      33.064  27.931  26.889  1.00  0.00    -0.458 OA
BRANCH  23  24
ATOM     24  C   UNL A   1      33.478  29.250  27.296  1.00  0.00     0.275 C 
BRANCH  24  25
ATOM     25  C   UNL A   1      34.993  29.413  27.290  1.00  0.00     0.275 C 
BRANCH  25  26
ATOM     26  O   UNL A   1      35.470  29.721  28.599  1.00  0.00    -0.458 OA
BRANCH  26  27
ATOM     27  C   UNL A   1      36.720  30.231  28.624  1.00  0.00     0.338 C 
ATOM     28  O   UNL A   1      37.023  31.399  28.809  1.00  0.00    -0.246 OA
BRANCH  27  29
ATOM     29  C   UNL A   1      37.677  29.214  28.184  1.00  0.00     0.060 A 
ATOM     30  C   UNL A   1      37.931  28.181  29.082  1.00  0.00     0.016 A 
ATOM     31  C   UNL A   1      38.559  29.515  27.145  1.00  0.00     0.016 A 
ATOM     32  C   UNL A   1      39.206  27.687  29.174  1.00  0.00     0.010 A 
ATOM     33  C   UNL A   1      39.811  28.951  27.178  1.00  0.00     0.010 A 
ATOM     34  C   UNL A   1      40.155  28.150  28.268  1.00  0.00    -0.014 A 
BRANCH  34  35
ATOM     35  C   UNL A   1      41.514  27.672  28.427  1.00  0.00     0.031 A 
ATOM     36  C   UNL A   1      41.764  26.370  27.749  1.00  0.00     0.074 A 
ATOM     37  C   UNL A   1      42.447  28.462  28.992  1.00  0.00     0.049 A 
ATOM     38  N   UNL A   1      42.339  25.307  28.204  1.00  0.00    -0.248 NA
ATOM     39  C   UNL A   1      41.142  26.184  26.422  1.00  0.00     0.031 C 
ATOM     40  C   UNL A   1      42.299  29.859  29.418  1.00  0.00     0.029 A 
ATOM     41  N   UNL A   1      43.782  28.252  29.102  1.00  0.00    -0.354 N 
ATOM     42  C   UNL A   1      42.313  24.382  27.160  1.00  0.00     0.074 A 
ATOM     43  C   UNL A   1      41.411  24.906  26.177  1.00  0.00     0.031 C 
ATOM     44  C   UNL A   1      43.516  30.445  29.406  1.00  0.00     0.029 A 
ATOM     45  C   UNL A   1      44.513  29.435  29.094  1.00  0.00     0.049 A 
ATOM     46  H   UNL A   1      44.189  27.360  29.179  1.00  0.00     0.167 HD
ATOM     47  C   UNL A   1      43.193  23.350  27.089  1.00  0.00     0.034 A 
ATOM     48  C   UNL A   1      45.801  29.579  28.681  1.00  0.00     0.034 A 
ATOM     49  C   UNL A   1      43.760  23.064  28.384  1.00  0.00     0.049 A 
ATOM     50  C   UNL A   1      46.409  28.218  28.693  1.00  0.00     0.074 A 
ATOM     51  C   UNL A   1      43.220  22.675  29.595  1.00  0.00     0.029 A 
ATOM     52  N   UNL A   1      45.021  23.536  28.674  1.00  0.00    -0.354 N 
ATOM     53  N   UNL A   1      46.556  27.502  29.779  1.00  0.00    -0.248 NA
ATOM     54  C   UNL A   1      46.384  27.451  27.453  1.00  0.00     0.031 C 
ATOM     55  C   UNL A   1      43.954  23.405  30.572  1.00  0.00     0.029 A 
ATOM     56  C   UNL A   1      44.942  24.137  29.907  1.00  0.00     0.049 A 
ATOM     57  H   UNL A   1      45.823  23.460  28.108  1.00  0.00     0.167 HD
ATOM     58  C   UNL A   1      46.230  26.203  29.408  1.00  0.00     0.074 A 
ATOM     59  C   UNL A   1      46.222  26.218  27.946  1.00  0.00     0.031 C 
ATOM     60  C   UNL A   1      45.706  25.306  30.297  1.00  0.00     0.034 A 
BRANCH  47  61
ATOM     61  C   UNL A   1      43.798  22.834  25.801  1.00  0.00     0.023 A 
ATOM     62  C   UNL A   1      43.819  21.438  25.626  1.00  0.00     0.031 A 
ATOM     63  C   UNL A   1      44.602  23.574  24.902  1.00  0.00     0.131 A 
ATOM     64  C   UNL A   1      44.698  20.837  24.711  1.00  0.00     0.055 A 
ATOM     65  C   UNL A   1      45.421  22.974  23.941  1.00  0.00     0.041 A 
ATOM     66  F   UNL A   1      44.720  24.905  24.949  1.00  0.00    -0.206 F 
ATOM     67  C   UNL A   1      45.504  21.596  23.869  1.00  0.00     0.022 A 
BRANCH  64  68
ATOM     68  S   UNL A   1      44.922  19.043  24.798  1.00  0.00     0.124 S 
ATOM     69  O   UNL A   1      43.562  18.590  25.075  1.00  0.00    -0.237 OA
ATOM     70  O   UNL A   1      45.443  18.743  23.469  1.00  0.00    -0.237 OA
ATOM     71  O   UNL A   1      45.870  18.874  25.895  1.00  0.00    -0.744 OA
ENDBRANCH  64  68
ENDBRANCH  47  61
BRANCH  48  72
ATOM     72  C   UNL A   1      46.312  30.740  27.892  1.00  0.00     0.023 A 
ATOM     73  C   UNL A   1      45.475  31.581  27.135  1.00  0.00     0.031 A 
ATOM     74  C   UNL A   1      47.667  31.142  28.011  1.00  0.00     0.131 A 
ATOM     75  C   UNL A   1      46.006  32.736  26.508  1.00  0.00     0.055 A 
ATOM     76  C   UNL A   1      48.189  32.268  27.372  1.00  0.00     0.041 A 
ATOM     77  F   UNL A   1      48.521  30.489  28.814  1.00  0.00    -0.206 F 
ATOM     78  C   UNL A   1      47.357  33.074  26.616  1.00  0.00     0.022 A 
BRANCH  75  79
ATOM     79  S   UNL A   1      44.914  33.871  25.593  1.00  0.00     0.124 S 
ATOM     80  O   UNL A   1      43.914  34.215  26.598  1.00  0.00    -0.237 OA
ATOM     81  O   UNL A   1      45.831  34.933  25.198  1.00  0.00    -0.237 OA
ATOM     82  O   UNL A   1      44.416  33.050  24.487  1.00  0.00    -0.744 OA
ENDBRANCH  75  79
ENDBRANCH  48  72
BRANCH  60  83
ATOM     83  C   UNL A   1      45.683  25.643  31.773  1.00  0.00     0.023 A 
ATOM     84  C   UNL A   1      46.782  25.485  32.647  1.00  0.00     0.031 A 
ATOM     85  C   UNL A   1      44.566  26.354  32.249  1.00  0.00     0.131 A 
ATOM     86  C   UNL A   1      46.738  26.042  33.941  1.00  0.00     0.055 A 
ATOM     87  C   UNL A   1      44.533  26.918  33.523  1.00  0.00     0.041 A 
ATOM     88  F   UNL A   1      43.506  26.568  31.451  1.00  0.00    -0.206 F 
ATOM     89  C   UNL A   1      45.621  26.766  34.374  1.00  0.00     0.022 A 
BRANCH  86  90
ATOM     90  S   UNL A   1      48.146  25.857  35.083  1.00  0.00     0.124 S 
ATOM     91  O   UNL A   1      47.546  26.056  36.397  1.00  0.00    -0.237 OA
ATOM     92  O   UNL A   1      48.619  24.506  34.791  1.00  0.00    -0.237 OA
ATOM     93  O   UNL A   1      49.064  26.921  34.669  1.00  0.00    -0.744 OA
ENDBRANCH  86  90
ENDBRANCH  60  83
ENDBRANCH  34  35
ENDBRANCH  27  29
ENDBRANCH  26  27
ENDBRANCH  25  26
ENDBRANCH  24  25
ENDBRANCH  23  24
ENDBRANCH   1  23
TORSDOF 21
ENDMDL
MODEL 2
REMARK VINA RESULT:     -11.0      2.591      7.997
REMARK SMILES Cc1nsc(NC(=O)CC[C@H](C)CC[NH3+])c1C(=O)OCCOC(=O)c1ccc(-c2c3nc(c(-c4cc(S(=O)(=O)[O-])ccc4F)c4ccc([nH]4)c(-c4cc(S(=O)(=O)[O-])ccc4F)c4nc(c(-c5cc(S(=O)(=O)[O-])ccc5F)c5ccc2[nH]5)C=C4)C=C3)cc1
REMARK SMILES IDX 17 1 18 2 16 3 1 4 2 5 3 6 4 7 5 8 6 9 7 10 8 12 9 13 10 14
REMARK SMILES IDX 11 15 12 16 13 17 14 18 15 19 19 23 20 24 21 25 22 26 23 27
REMARK SMILES IDX 24 28 25 29 26 30 87 31 27 32 86 33 28 34 29 35 30 36 80 37
REMARK SMILES IDX 31 38 85 39 79 40 81 41 32 42 84 43 78 44 77 45 33 47 65 48
REMARK SMILES IDX 45 49 64 50 46 51 49 52 63 53 82 54 47 55 48 56 62 58 83 59
REMARK SMILES IDX 50 60 34 61 35 62 43 63 36 64 42 65 44 66 41 67 37 68 38 69
REMARK SMILES IDX 39 70 40 71 66 72 67 73 75 74 68 75 74 76 76 77 73 78 69 79
REMARK SMILES IDX 70 80 71 81 72 82 51 83 52 84 60 85 53 86 59 87 61 88 58 89
REMARK SMILES IDX 54 90 55 91 56 92 57 93
REMARK H PARENT 6 11 15 20 15 21 15 22 81 46 49 57
REMARK Flexibility Score: inf
ROOT
ATOM      1  C   UNL A   1      31.815  27.046  26.492  1.00  0.00     0.343 C 
ATOM      2  O   UNL A   1      31.027  27.297  27.403  1.00  0.00    -0.246 OA
ENDROOT
BRANCH   1   3
ATOM      3  C   UNL A   1      31.559  26.009  25.501  1.00  0.00     0.117 A 
ATOM      4  C   UNL A   1      31.633  23.822  26.970  1.00  0.00     0.069 C 
ATOM      5  C   UNL A   1      31.360  24.593  25.724  1.00  0.00     0.068 A 
ATOM      6  N   UNL A   1      30.882  23.906  24.684  1.00  0.00    -0.195 NA
ATOM      7  S   UNL A   1      30.803  24.918  23.382  1.00  0.00    -0.017 S 
ATOM      8  C   UNL A   1      31.621  26.210  24.124  1.00  0.00     0.130 A 
BRANCH   8   9
ATOM      9  N   UNL A   1      32.156  27.274  23.426  1.00  0.00    -0.316 N 
ATOM     10  C   UNL A   1      31.655  28.518  23.150  1.00  0.00     0.225 C 
ATOM     11  H   UNL A   1      33.056  27.110  23.062  1.00  0.00     0.170 HD
ATOM     12  O   UNL A   1      32.344  29.238  22.414  1.00  0.00    -0.275 OA
BRANCH  10  13
ATOM     13  C   UNL A   1      30.312  29.049  23.641  1.00  0.00     0.101 C 
BRANCH  13  14
ATOM     14  C   UNL A   1      29.072  28.860  22.742  1.00  0.00     0.013 C 
BRANCH  14  15
ATOM     15  C   UNL A   1      28.121  30.068  22.623  1.00  0.00    -0.008 C 
ATOM     16  C   UNL A   1      28.093  30.576  21.190  1.00  0.00     0.008 C 
BRANCH  15  17
ATOM     17  C   UNL A   1      28.445  31.236  23.572  1.00  0.00     0.064 C 
BRANCH  17  18
ATOM     18  C   UNL A   1      28.519  32.582  22.824  1.00  0.00     0.259 C 
BRANCH  18  19
ATOM     19  N   UNL A   1      29.648  33.402  23.274  1.00  0.00    -0.358 N 
ATOM     20  H   UNL A   1      30.500  32.841  23.263  1.00  0.00     0.344 HD
ATOM     21  H   UNL A   1      29.471  33.732  24.222  1.00  0.00     0.344 HD
ATOM     22  H   UNL A   1      29.757  34.201  22.651  1.00  0.00     0.344 HD
ENDBRANCH  18  19
ENDBRANCH  17  18
ENDBRANCH  15  17
ENDBRANCH  14  15
ENDBRANCH  13  14
ENDBRANCH  10  13
ENDBRANCH   8   9
ENDBRANCH   1   3
BRANCH   1  23
ATOM     23  O   UNL A   1      33.023  27.661  26.333  1.00  0.00    -0.458 OA
BRANCH  23  24
ATOM     24  C   UNL A   1      33.472  28.560  27.366  1.00  0.00     0.275 C 
BRANCH  24  25
ATOM     25  C   UNL A   1      33.999  29.875  26.805  1.00  0.00     0.275 C 
BRANCH  25  26
ATOM     26  O   UNL A   1      35.412  29.965  26.978  1.00  0.00    -0.458 OA
BRANCH  26  27
ATOM     27  C   UNL A   1      35.808  31.001  27.749  1.00  0.00     0.338 C 
ATOM     28  O   UNL A   1      35.582  32.183  27.547  1.00  0.00    -0.246 OA
BRANCH  27  29
ATOM     29  C   UNL A   1      36.744  30.526  28.770  1.00  0.00     0.060 A 
ATOM     30  C   UNL A   1      37.752  31.412  29.139  1.00  0.00     0.016 A 
ATOM     31  C   UNL A   1      36.851  29.155  29.010  1.00  0.00     0.016 A 
ATOM     32  C   UNL A   1      38.999  30.915  29.411  1.00  0.00     0.010 A 
ATOM     33  C   UNL A   1      38.078  28.657  29.374  1.00  0.00     0.010 A 
ATOM     34  C   UNL A   1      39.162  29.533  29.438  1.00  0.00    -0.014 A 
BRANCH  34  35
ATOM     35  C   UNL A   1      40.503  29.027  29.655  1.00  0.00     0.031 A 
ATOM     36  C   UNL A   1      40.862  28.906  31.095  1.00  0.00     0.074 A 
ATOM     37  C   UNL A   1      41.228  28.565  28.618  1.00  0.00     0.049 A 
ATOM     38  N   UNL A   1      41.927  29.301  31.709  1.00  0.00    -0.248 NA
ATOM     39  C   UNL A   1      39.806  28.411  32.002  1.00  0.00     0.031 C 
ATOM     40  C   UNL A   1      40.797  28.410  27.223  1.00  0.00     0.029 A 
ATOM     41  N   UNL A   1      42.427  27.933  28.636  1.00  0.00    -0.354 N 
ATOM     42  C   UNL A   1      41.754  28.940  33.045  1.00  0.00     0.074 A 
ATOM     43  C   UNL A   1      40.375  28.576  33.192  1.00  0.00     0.031 C 
ATOM     44  C   UNL A   1      41.552  27.452  26.642  1.00  0.00     0.029 A 
ATOM     45  C   UNL A   1      42.576  27.035  27.585  1.00  0.00     0.049 A 
ATOM     46  H   UNL A   1      43.117  28.094  29.318  1.00  0.00     0.167 HD
ATOM     47  C   UNL A   1      42.806  28.770  33.889  1.00  0.00     0.034 A 
ATOM     48  C   UNL A   1      43.362  25.925  27.585  1.00  0.00     0.034 A 
ATOM     49  C   UNL A   1      43.976  29.459  33.402  1.00  0.00     0.049 A 
ATOM     50  C   UNL A   1      44.354  26.102  28.682  1.00  0.00     0.074 A 
ATOM     51  C   UNL A   1      44.255  30.785  33.130  1.00  0.00     0.029 A 
ATOM     52  N   UNL A   1      44.950  28.733  32.754  1.00  0.00    -0.354 N 
ATOM     53  N   UNL A   1      45.246  27.060  28.702  1.00  0.00    -0.248 NA
ATOM     54  C   UNL A   1      44.032  25.541  29.990  1.00  0.00     0.031 C 
ATOM     55  C   UNL A   1      45.037  30.755  31.940  1.00  0.00     0.029 A 
ATOM     56  C   UNL A   1      45.247  29.415  31.599  1.00  0.00     0.049 A 
ATOM     57  H   UNL A   1      45.355  27.889  33.057  1.00  0.00     0.167 HD
ATOM     58  C   UNL A   1      45.287  27.497  30.020  1.00  0.00     0.074 A 
ATOM     59  C   UNL A   1      44.586  26.464  30.782  1.00  0.00     0.031 C 
ATOM     60  C   UNL A   1      45.615  28.783  30.347  1.00  0.00     0.034 A 
BRANCH  47  61
ATOM     61  C   UNL A   1      42.873  27.704  34.961  1.00  0.00     0.023 A 
ATOM     62  C   UNL A   1      43.586  26.532  34.644  1.00  0.00     0.031 A 
ATOM     63  C   UNL A   1      42.060  27.630  36.117  1.00  0.00     0.131 A 
ATOM     64  C   UNL A   1      43.374  25.342  35.358  1.00  0.00     0.055 A 
ATOM     65  C   UNL A   1      41.910  26.462  36.869  1.00  0.00     0.041 A 
ATOM     66  F   UNL A   1      41.295  28.641  36.540  1.00  0.00    -0.206 F 
ATOM     67  C   UNL A   1      42.537  25.296  36.468  1.00  0.00     0.022 A 
BRANCH  64  68
ATOM     68  S   UNL A   1      44.049  23.808  34.675  1.00  0.00     0.124 S 
ATOM     69  O   UNL A   1      44.962  24.316  33.655  1.00  0.00    -0.237 OA
ATOM     70  O   UNL A   1      44.667  23.204  35.850  1.00  0.00    -0.237 OA
ATOM     71  O   UNL A   1      42.868  23.118  34.164  1.00  0.00    -0.744 OA
ENDBRANCH  64  68
ENDBRANCH  47  61
BRANCH  48  72
ATOM     72  C   UNL A   1      42.974  24.614  26.983  1.00  0.00     0.023 A 
ATOM     73  C   UNL A   1      43.832  23.864  26.158  1.00  0.00     0.031 A 
ATOM     74  C   UNL A   1      41.759  23.987  27.362  1.00  0.00     0.131 A 
ATOM     75  C   UNL A   1      43.448  22.572  25.718  1.00  0.00     0.055 A 
ATOM     76  C   UNL A   1      41.375  22.724  26.906  1.00  0.00     0.041 A 
ATOM     77  F   UNL A   1      40.927  24.555  28.250  1.00  0.00    -0.206 F 
ATOM     78  C   UNL A   1      42.222  22.008  26.081  1.00  0.00     0.022 A 
BRANCH  75  79
ATOM     79  S   UNL A   1      44.587  21.565  24.715  1.00  0.00     0.124 S 
ATOM     80  O   UNL A   1      45.840  21.691  25.451  1.00  0.00    -0.237 OA
ATOM     81  O   UNL A   1      43.947  20.255  24.740  1.00  0.00    -0.237 OA
ATOM     82  O   UNL A   1      44.572  22.228  23.410  1.00  0.00    -0.744 OA
ENDBRANCH  75  79
ENDBRANCH  48  72
BRANCH  60  83
ATOM     83  C   UNL A   1      46.168  29.708  29.283  1.00  0.00     0.023 A 
ATOM     84  C   UNL A   1      45.379  30.558  28.475  1.00  0.00     0.031 A 
ATOM     85  C   UNL A   1      47.563  29.883  29.251  1.00  0.00     0.131 A 
ATOM     86  C   UNL A   1      45.998  31.547  27.683  1.00  0.00     0.055 A 
ATOM     87  C   UNL A   1      48.169  30.874  28.480  1.00  0.00     0.041 A 
ATOM     88  F   UNL A   1      48.361  29.129  30.026  1.00  0.00    -0.206 F 
ATOM     89  C   UNL A   1      47.388  31.711  27.693  1.00  0.00     0.022 A 
BRANCH  86  90
ATOM     90  S   UNL A   1      45.002  32.659  26.637  1.00  0.00     0.124 S 
ATOM     91  O   UNL A   1      46.004  33.429  25.910  1.00  0.00    -0.237 OA
ATOM     92  O   UNL A   1      44.209  31.726  25.842  1.00  0.00    -0.237 OA
ATOM     93  O   UNL A   1      44.227  33.437  27.607  1.00  0.00    -0.744 OA
ENDBRANCH  86  90
ENDBRANCH  60  83
ENDBRANCH  34  35
ENDBRANCH  27  29
ENDBRANCH  26  27
ENDBRANCH  25  26
ENDBRANCH  24  25
ENDBRANCH  23  24
ENDBRANCH   1  23
TORSDOF 21
ENDMDL
MODEL 3
REMARK VINA RESULT:     -10.9      4.342      6.572
REMARK SMILES Cc1nsc(NC(=O)CC[C@H](C)CC[NH3+])c1C(=O)OCCOC(=O)c1ccc(-c2c3nc(c(-c4cc(S(=O)(=O)[O-])ccc4F)c4ccc([nH]4)c(-c4cc(S(=O)(=O)[O-])ccc4F)c4nc(c(-c5cc(S(=O)(=O)[O-])ccc5F)c5ccc2[nH]5)C=C4)C=C3)cc1
REMARK SMILES IDX 17 1 18 2 16 3 1 4 2 5 3 6 4 7 5 8 6 9 7 10 8 12 9 13 10 14
REMARK SMILES IDX 11 15 12 16 13 17 14 18 15 19 19 23 20 24 21 25 22 26 23 27
REMARK SMILES IDX 24 28 25 29 26 30 87 31 27 32 86 33 28 34 29 35 30 36 80 37
REMARK SMILES IDX 31 38 85 39 79 40 81 41 32 42 84 43 78 44 77 45 33 47 65 48
REMARK SMILES IDX 45 49 64 50 46 51 49 52 63 53 82 54 47 55 48 56 62 58 83 59
REMARK SMILES IDX 50 60 34 61 35 62 43 63 36 64 42 65 44 66 41 67 37 68 38 69
REMARK SMILES IDX 39 70 40 71 66 72 67 73 75 74 68 75 74 76 76 77 73 78 69 79
REMARK SMILES IDX 70 80 71 81 72 82 51 83 52 84 60 85 53 86 59 87 61 88 58 89
REMARK SMILES IDX 54 90 55 91 56 92 57 93
REMARK H PARENT 6 11 15 20 15 21 15 22 81 46 49 57
REMARK Flexibility Score: inf
ROOT
ATOM      1  C   UNL A   1      38.677  33.708  31.437  1.00  0.00     0.343 C 
ATOM      2  O   UNL A   1      39.200  34.810  31.276  1.00  0.00    -0.246 OA
ENDROOT
BRANCH   1   3
ATOM      3  C   UNL A   1      38.529  33.098  32.753  1.00  0.00     0.117 A 
ATOM      4  C   UNL A   1      41.015  32.433  33.326  1.00  0.00     0.069 C 
ATOM      5  C   UNL A   1      39.574  32.639  33.644  1.00  0.00     0.068 A 
ATOM      6  N   UNL A   1      39.188  32.366  34.893  1.00  0.00    -0.195 NA
ATOM      7  S   UNL A   1      37.546  32.514  34.975  1.00  0.00    -0.017 S 
ATOM      8  C   UNL A   1      37.310  32.712  33.304  1.00  0.00     0.130 A 
BRANCH   8   9
ATOM      9  N   UNL A   1      36.083  32.576  32.686  1.00  0.00    -0.316 N 
ATOM     10  C   UNL A   1      35.132  33.502  32.351  1.00  0.00     0.225 C 
ATOM     11  H   UNL A   1      35.850  31.650  32.445  1.00  0.00     0.170 HD
ATOM     12  O   UNL A   1      34.077  33.060  31.875  1.00  0.00    -0.275 OA
BRANCH  10  13
ATOM     13  C   UNL A   1      35.265  35.007  32.558  1.00  0.00     0.101 C 
BRANCH  13  14
ATOM     14  C   UNL A   1      34.171  35.739  33.365  1.00  0.00     0.013 C 
BRANCH  14  15
ATOM     15  C   UNL A   1      33.138  36.541  32.548  1.00  0.00    -0.008 C 
ATOM     16  C   UNL A   1      31.793  35.831  32.558  1.00  0.00     0.008 C 
BRANCH  15  17
ATOM     17  C   UNL A   1      33.553  36.828  31.094  1.00  0.00     0.064 C 
BRANCH  17  18
ATOM     18  C   UNL A   1      32.781  35.948  30.091  1.00  0.00     0.259 C 
BRANCH  18  19
ATOM     19  N   UNL A   1      32.793  36.513  28.739  1.00  0.00    -0.358 N 
ATOM     20  H   UNL A   1      33.596  37.134  28.637  1.00  0.00     0.344 HD
ATOM     21  H   UNL A   1      31.935  37.040  28.582  1.00  0.00     0.344 HD
ATOM     22  H   UNL A   1      32.858  35.759  28.056  1.00  0.00     0.344 HD
ENDBRANCH  18  19
ENDBRANCH  17  18
ENDBRANCH  15  17
ENDBRANCH  14  15
ENDBRANCH  13  14
ENDBRANCH  10  13
ENDBRANCH   8   9
ENDBRANCH   1   3
BRANCH   1  23
ATOM     23  O   UNL A   1      38.227  32.918  30.420  1.00  0.00    -0.458 OA
BRANCH  23  24
ATOM     24  C   UNL A   1      37.455  33.531  29.369  1.00  0.00     0.275 C 
BRANCH  24  25
ATOM     25  C   UNL A   1      36.269  32.676  28.942  1.00  0.00     0.275 C 
BRANCH  25  26
ATOM     26  O   UNL A   1      36.715  31.447  28.371  1.00  0.00    -0.458 OA
BRANCH  26  27
ATOM     27  C   UNL A   1      36.688  30.401  29.226  1.00  0.00     0.338 C 
ATOM     28  O   UNL A   1      36.129  30.364  30.310  1.00  0.00    -0.246 OA
BRANCH  27  29
ATOM     29  C   UNL A   1      37.613  29.364  28.764  1.00  0.00     0.060 A 
ATOM     30  C   UNL A   1      37.946  28.382  29.693  1.00  0.00     0.016 A 
ATOM     31  C   UNL A   1      38.406  29.610  27.642  1.00  0.00     0.016 A 
ATOM     32  C   UNL A   1      39.227  27.897  29.707  1.00  0.00     0.010 A 
ATOM     33  C   UNL A   1      39.660  29.052  27.603  1.00  0.00     0.010 A 
ATOM     34  C   UNL A   1      40.097  28.312  28.704  1.00  0.00    -0.014 A 
BRANCH  34  35
ATOM     35  C   UNL A   1      41.467  27.846  28.777  1.00  0.00     0.031 A 
ATOM     36  C   UNL A   1      41.689  26.552  28.076  1.00  0.00     0.074 A 
ATOM     37  C   UNL A   1      42.425  28.643  29.290  1.00  0.00     0.049 A 
ATOM     38  N   UNL A   1      42.300  25.492  28.489  1.00  0.00    -0.248 NA
ATOM     39  C   UNL A   1      40.989  26.367  26.788  1.00  0.00     0.031 C 
ATOM     40  C   UNL A   1      42.290  30.035  29.733  1.00  0.00     0.029 A 
ATOM     41  N   UNL A   1      43.766  28.446  29.317  1.00  0.00    -0.354 N 
ATOM     42  C   UNL A   1      42.220  24.573  27.443  1.00  0.00     0.074 A 
ATOM     43  C   UNL A   1      41.255  25.093  26.519  1.00  0.00     0.031 C 
ATOM     44  C   UNL A   1      43.498  30.634  29.651  1.00  0.00     0.029 A 
ATOM     45  C   UNL A   1      44.484  29.635  29.273  1.00  0.00     0.049 A 
ATOM     46  H   UNL A   1      44.186  27.557  29.363  1.00  0.00     0.167 HD
ATOM     47  C   UNL A   1      43.104  23.549  27.311  1.00  0.00     0.034 A 
ATOM     48  C   UNL A   1      45.743  29.794  28.784  1.00  0.00     0.034 A 
ATOM     49  C   UNL A   1      43.751  23.261  28.568  1.00  0.00     0.049 A 
ATOM     50  C   UNL A   1      46.364  28.440  28.750  1.00  0.00     0.074 A 
ATOM     51  C   UNL A   1      43.289  22.860  29.807  1.00  0.00     0.029 A 
ATOM     52  N   UNL A   1      45.022  23.745  28.784  1.00  0.00    -0.354 N 
ATOM     53  N   UNL A   1      46.583  27.719  29.821  1.00  0.00    -0.248 NA
ATOM     54  C   UNL A   1      46.272  27.680  27.509  1.00  0.00     0.031 C 
ATOM     55  C   UNL A   1      44.074  23.591  30.742  1.00  0.00     0.029 A 
ATOM     56  C   UNL A   1      45.012  24.337  30.023  1.00  0.00     0.049 A 
ATOM     57  H   UNL A   1      45.789  23.679  28.171  1.00  0.00     0.167 HD
ATOM     58  C   UNL A   1      46.248  26.419  29.462  1.00  0.00     0.074 A 
ATOM     59  C   UNL A   1      46.151  26.443  28.003  1.00  0.00     0.031 C 
ATOM     60  C   UNL A   1      45.788  25.512  30.375  1.00  0.00     0.034 A 
BRANCH  47  61
ATOM     61  C   UNL A   1      43.635  23.047  25.986  1.00  0.00     0.023 A 
ATOM     62  C   UNL A   1      43.497  21.671  25.730  1.00  0.00     0.031 A 
ATOM     63  C   UNL A   1      44.508  23.746  25.119  1.00  0.00     0.131 A 
ATOM     64  C   UNL A   1      44.295  21.031  24.767  1.00  0.00     0.055 A 
ATOM     65  C   UNL A   1      45.245  23.116  24.111  1.00  0.00     0.041 A 
ATOM     66  F   UNL A   1      44.775  25.050  25.242  1.00  0.00    -0.206 F 
ATOM     67  C   UNL A   1      45.172  21.745  23.957  1.00  0.00     0.022 A 
BRANCH  64  68
ATOM     68  S   UNL A   1      44.316  19.222  24.745  1.00  0.00     0.124 S 
ATOM     69  O   UNL A   1      42.982  18.905  25.246  1.00  0.00    -0.237 OA
ATOM     70  O   UNL A   1      44.558  18.944  23.334  1.00  0.00    -0.237 OA
ATOM     71  O   UNL A   1      45.415  18.887  25.646  1.00  0.00    -0.744 OA
ENDBRANCH  64  68
ENDBRANCH  47  61
BRANCH  48  72
ATOM     72  C   UNL A   1      46.194  30.966  27.973  1.00  0.00     0.023 A 
ATOM     73  C   UNL A   1      45.333  31.694  27.131  1.00  0.00     0.031 A 
ATOM     74  C   UNL A   1      47.497  31.497  28.151  1.00  0.00     0.131 A 
ATOM     75  C   UNL A   1      45.794  32.867  26.484  1.00  0.00     0.055 A 
ATOM     76  C   UNL A   1      47.954  32.640  27.492  1.00  0.00     0.041 A 
ATOM     77  F   UNL A   1      48.356  30.959  29.032  1.00  0.00    -0.206 F 
ATOM     78  C   UNL A   1      47.100  33.334  26.654  1.00  0.00     0.022 A 
BRANCH  75  79
ATOM     79  S   UNL A   1      44.662  33.857  25.456  1.00  0.00     0.124 S 
ATOM     80  O   UNL A   1      44.251  32.898  24.438  1.00  0.00    -0.237 OA
ATOM     81  O   UNL A   1      43.644  34.261  26.418  1.00  0.00    -0.237 OA
ATOM     82  O   UNL A   1      45.508  34.947  24.967  1.00  0.00    -0.744 OA
ENDBRANCH  75  79
ENDBRANCH  48  72
BRANCH  60  83
ATOM     83  C   UNL A   1      45.850  25.839  31.852  1.00  0.00     0.023 A 
ATOM     84  C   UNL A   1      44.726  26.153  32.649  1.00  0.00     0.031 A 
ATOM     85  C   UNL A   1      47.073  25.605  32.507  1.00  0.00     0.131 A 
ATOM     86  C   UNL A   1      44.853  26.210  34.052  1.00  0.00     0.055 A 
ATOM     87  C   UNL A   1      47.190  25.646  33.895  1.00  0.00     0.041 A 
ATOM     88  F   UNL A   1      48.166  25.265  31.804  1.00  0.00    -0.206 F 
ATOM     89  C   UNL A   1      46.080  25.947  34.674  1.00  0.00     0.022 A 
BRANCH  86  90
ATOM     90  S   UNL A   1      43.417  26.608  35.101  1.00  0.00     0.124 S 
ATOM     91  O   UNL A   1      42.792  27.729  34.410  1.00  0.00    -0.237 OA
ATOM     92  O   UNL A   1      42.666  25.356  35.104  1.00  0.00    -0.237 OA
ATOM     93  O   UNL A   1      44.021  26.953  36.391  1.00  0.00    -0.744 OA
ENDBRANCH  86  90
ENDBRANCH  60  83
ENDBRANCH  34  35
ENDBRANCH  27  29
ENDBRANCH  26  27
ENDBRANCH  25  26
ENDBRANCH  24  25
ENDBRANCH  23  24
ENDBRANCH   1  23
TORSDOF 21
ENDMDL
