MODEL 1
REMARK VINA RESULT:     -12.3      0.000      0.000
REMARK SMILES O=C(OCCOC(=O)c1cc(Br)ccc1N1CC2(CCCCC2)C1)c1ccc(-c2c3nc(c(-c4cc(S(=O)(=O)[O-])ccc4F)c4ccc([nH]4)c(-c4cc(S(=O)(=O)[O-])ccc4F)c4nc(c(-c5cc(S(=O)(=O)[O-])ccc5F)c5ccc2[nH]5)C=C4)C=C3)cc1
REMARK SMILES IDX 4 1 3 2 2 3 1 4 25 5 26 6 87 7 27 8 86 9 28 10 29 11 30 12
REMARK SMILES IDX 80 13 31 14 85 15 79 16 81 17 32 18 84 19 78 20 77 21 33 23
REMARK SMILES IDX 65 24 45 25 64 26 46 27 49 28 63 29 82 30 47 31 48 32 62 34
REMARK SMILES IDX 83 35 50 36 34 37 35 38 43 39 36 40 42 41 44 42 41 43 37 44
REMARK SMILES IDX 38 45 39 46 40 47 66 48 67 49 75 50 68 51 74 52 76 53 73 54
REMARK SMILES IDX 69 55 70 56 71 57 72 58 51 59 52 60 60 61 53 62 59 63 61 64
REMARK SMILES IDX 58 65 54 66 55 67 56 68 57 69 5 70 6 71 7 72 8 73 9 74 10 75
REMARK SMILES IDX 15 76 11 77 14 78 12 79 13 80 16 81 17 82 24 83 18 84 19 85
REMARK SMILES IDX 23 86 20 87 22 88 21 89
REMARK H PARENT 81 22 49 33
REMARK Flexibility Score: inf
ROOT
ATOM      1  C   UNL A   1      32.163  30.430  25.993  1.00  0.00     0.275 C 
ENDROOT
BRANCH   1   2
ATOM      2  O   UNL A   1      32.702  30.535  27.311  1.00  0.00    -0.458 OA
BRANCH   2   3
ATOM      3  C   UNL A   1      33.280  31.730  27.583  1.00  0.00     0.338 C 
ATOM      4  O   UNL A   1      32.868  32.827  27.229  1.00  0.00    -0.246 OA
BRANCH   3   5
ATOM      5  C   UNL A   1      34.619  31.455  28.154  1.00  0.00     0.060 A 
ATOM      6  C   UNL A   1      34.901  30.183  28.659  1.00  0.00     0.016 A 
ATOM      7  C   UNL A   1      35.636  32.413  28.048  1.00  0.00     0.016 A 
ATOM      8  C   UNL A   1      36.185  29.871  29.060  1.00  0.00     0.010 A 
ATOM      9  C   UNL A   1      36.943  32.084  28.397  1.00  0.00     0.010 A 
ATOM     10  C   UNL A   1      37.204  30.820  28.935  1.00  0.00    -0.014 A 
BRANCH  10  11
ATOM     11  C   UNL A   1      38.488  30.493  29.574  1.00  0.00     0.031 A 
ATOM     12  C   UNL A   1      38.707  30.994  30.967  1.00  0.00     0.074 A 
ATOM     13  C   UNL A   1      39.308  29.611  28.978  1.00  0.00     0.049 A 
ATOM     14  N   UNL A   1      39.601  30.628  31.841  1.00  0.00    -0.248 NA
ATOM     15  C   UNL A   1      37.770  32.021  31.454  1.00  0.00     0.031 C 
ATOM     16  C   UNL A   1      39.104  29.046  27.643  1.00  0.00     0.029 A 
ATOM     17  N   UNL A   1      40.448  29.005  29.425  1.00  0.00    -0.354 N 
ATOM     18  C   UNL A   1      39.293  31.330  33.000  1.00  0.00     0.074 A 
ATOM     19  C   UNL A   1      38.199  32.218  32.688  1.00  0.00     0.031 C 
ATOM     20  C   UNL A   1      40.097  28.182  27.375  1.00  0.00     0.029 A 
ATOM     21  C   UNL A   1      41.000  28.135  28.516  1.00  0.00     0.049 A 
ATOM     22  H   UNL A   1      40.838  29.178  30.313  1.00  0.00     0.167 HD
ATOM     23  C   UNL A   1      39.848  31.198  34.227  1.00  0.00     0.034 A 
ATOM     24  C   UNL A   1      42.108  27.378  28.614  1.00  0.00     0.034 A 
ATOM     25  C   UNL A   1      40.968  30.329  34.473  1.00  0.00     0.049 A 
ATOM     26  C   UNL A   1      42.803  27.354  29.949  1.00  0.00     0.074 A 
ATOM     27  C   UNL A   1      41.672  30.125  35.643  1.00  0.00     0.029 A 
ATOM     28  N   UNL A   1      41.563  29.526  33.501  1.00  0.00    -0.354 N 
ATOM     29  N   UNL A   1      42.482  27.994  31.053  1.00  0.00    -0.248 NA
ATOM     30  C   UNL A   1      43.969  26.478  30.071  1.00  0.00     0.031 C 
ATOM     31  C   UNL A   1      42.726  29.247  35.364  1.00  0.00     0.029 A 
ATOM     32  C   UNL A   1      42.641  28.849  34.036  1.00  0.00     0.049 A 
ATOM     33  H   UNL A   1      41.258  29.453  32.567  1.00  0.00     0.167 HD
ATOM     34  C   UNL A   1      43.384  27.564  32.017  1.00  0.00     0.074 A 
ATOM     35  C   UNL A   1      44.257  26.608  31.358  1.00  0.00     0.031 C 
ATOM     36  C   UNL A   1      43.482  27.910  33.327  1.00  0.00     0.034 A 
BRANCH  23  37
ATOM     37  C   UNL A   1      39.264  32.049  35.326  1.00  0.00     0.023 A 
ATOM     38  C   UNL A   1      39.673  33.385  35.515  1.00  0.00     0.031 A 
ATOM     39  C   UNL A   1      38.380  31.494  36.266  1.00  0.00     0.131 A 
ATOM     40  C   UNL A   1      39.272  34.086  36.663  1.00  0.00     0.055 A 
ATOM     41  C   UNL A   1      37.921  32.226  37.364  1.00  0.00     0.041 A 
ATOM     42  F   UNL A   1      37.982  30.217  36.157  1.00  0.00    -0.206 F 
ATOM     43  C   UNL A   1      38.381  33.522  37.578  1.00  0.00     0.022 A 
BRANCH  40  44
ATOM     44  S   UNL A   1      40.060  35.681  37.029  1.00  0.00     0.124 S 
ATOM     45  O   UNL A   1      39.659  36.479  35.874  1.00  0.00    -0.237 OA
ATOM     46  O   UNL A   1      39.452  36.049  38.303  1.00  0.00    -0.237 OA
ATOM     47  O   UNL A   1      41.483  35.354  37.090  1.00  0.00    -0.744 OA
ENDBRANCH  40  44
ENDBRANCH  23  37
BRANCH  24  48
ATOM     48  C   UNL A   1      42.612  26.615  27.437  1.00  0.00     0.023 A 
ATOM     49  C   UNL A   1      42.308  25.259  27.237  1.00  0.00     0.031 A 
ATOM     50  C   UNL A   1      43.439  27.249  26.490  1.00  0.00     0.131 A 
ATOM     51  C   UNL A   1      42.856  24.574  26.138  1.00  0.00     0.055 A 
ATOM     52  C   UNL A   1      43.948  26.574  25.378  1.00  0.00     0.041 A 
ATOM     53  F   UNL A   1      43.761  28.545  26.631  1.00  0.00    -0.206 F 
ATOM     54  C   UNL A   1      43.667  25.224  25.204  1.00  0.00     0.022 A 
BRANCH  51  55
ATOM     55  S   UNL A   1      42.555  22.790  25.982  1.00  0.00     0.124 S 
ATOM     56  O   UNL A   1      43.017  22.525  24.624  1.00  0.00    -0.237 OA
ATOM     57  O   UNL A   1      43.381  22.251  27.057  1.00  0.00    -0.237 OA
ATOM     58  O   UNL A   1      41.113  22.669  26.184  1.00  0.00    -0.744 OA
ENDBRANCH  51  55
ENDBRANCH  24  48
BRANCH  36  59
ATOM     59  C   UNL A   1      44.549  27.205  34.119  1.00  0.00     0.023 A 
ATOM     60  C   UNL A   1      44.293  25.989  34.769  1.00  0.00     0.031 A 
ATOM     61  C   UNL A   1      45.831  27.771  34.230  1.00  0.00     0.131 A 
ATOM     62  C   UNL A   1      45.289  25.404  35.558  1.00  0.00     0.055 A 
ATOM     63  C   UNL A   1      46.839  27.150  34.965  1.00  0.00     0.041 A 
ATOM     64  F   UNL A   1      46.122  28.933  33.625  1.00  0.00    -0.206 F 
ATOM     65  C   UNL A   1      46.566  25.966  35.646  1.00  0.00     0.022 A 
BRANCH  62  66
ATOM     66  S   UNL A   1      44.861  23.947  36.546  1.00  0.00     0.124 S 
ATOM     67  O   UNL A   1      44.434  24.550  37.804  1.00  0.00    -0.237 OA
ATOM     68  O   UNL A   1      43.809  23.326  35.747  1.00  0.00    -0.237 OA
ATOM     69  O   UNL A   1      46.114  23.196  36.609  1.00  0.00    -0.744 OA
ENDBRANCH  62  66
ENDBRANCH  36  59
ENDBRANCH  10  11
ENDBRANCH   3   5
ENDBRANCH   2   3
ENDBRANCH   1   2
BRANCH   1  70
ATOM     70  C   UNL A   1      33.113  29.640  25.075  1.00  0.00     0.275 C 
BRANCH  70  71
ATOM     71  O   UNL A   1      32.627  28.312  24.772  1.00  0.00    -0.458 OA
BRANCH  71  72
ATOM     72  C   UNL A   1      32.209  28.070  23.506  1.00  0.00     0.340 C 
ATOM     73  O   UNL A   1      32.914  27.946  22.519  1.00  0.00    -0.246 OA
BRANCH  72  74
ATOM     74  C   UNL A   1      30.730  28.142  23.457  1.00  0.00     0.084 A 
ATOM     75  C   UNL A   1      30.165  29.261  22.832  1.00  0.00     0.033 A 
ATOM     76  C   UNL A   1      29.921  27.059  23.862  1.00  0.00     0.051 A 
ATOM     77  C   UNL A   1      28.787  29.306  22.629  1.00  0.00     0.018 A 
ATOM     78  C   UNL A   1      28.532  27.169  23.720  1.00  0.00     0.028 A 
ATOM     79  Br  UNL A   1      28.031  30.691  21.587  1.00  0.00    -0.051 Br
ATOM     80  C   UNL A   1      27.964  28.289  23.109  1.00  0.00     0.018 A 
BRANCH  76  81
ATOM     81  N   UNL A   1      30.494  25.873  24.325  1.00  0.00    -0.370 N 
ATOM     82  C   UNL A   1      30.570  25.367  25.655  1.00  0.00     0.125 C 
ATOM     83  C   UNL A   1      30.501  24.552  23.765  1.00  0.00     0.125 C 
ATOM     84  C   UNL A   1      31.312  24.158  25.036  1.00  0.00     0.005 C 
ATOM     85  C   UNL A   1      31.035  22.845  25.762  1.00  0.00     0.011 C 
ATOM     86  C   UNL A   1      32.825  24.347  24.792  1.00  0.00     0.011 C 
ATOM     87  C   UNL A   1      31.792  22.839  27.095  1.00  0.00     0.001 C 
ATOM     88  C   UNL A   1      33.602  24.299  26.101  1.00  0.00     0.001 C 
ATOM     89  C   UNL A   1      33.295  23.031  26.892  1.00  0.00     0.000 C 
ENDBRANCH  76  81
ENDBRANCH  72  74
ENDBRANCH  71  72
ENDBRANCH  70  71
ENDBRANCH   1  70
TORSDOF 15
ENDMDL
MODEL 2
REMARK VINA RESULT:     -12.2      2.216      3.020
REMARK SMILES O=C(OCCOC(=O)c1cc(Br)ccc1N1CC2(CCCCC2)C1)c1ccc(-c2c3nc(c(-c4cc(S(=O)(=O)[O-])ccc4F)c4ccc([nH]4)c(-c4cc(S(=O)(=O)[O-])ccc4F)c4nc(c(-c5cc(S(=O)(=O)[O-])ccc5F)c5ccc2[nH]5)C=C4)C=C3)cc1
REMARK SMILES IDX 4 1 3 2 2 3 1 4 25 5 26 6 87 7 27 8 86 9 28 10 29 11 30 12
REMARK SMILES IDX 80 13 31 14 85 15 79 16 81 17 32 18 84 19 78 20 77 21 33 23
REMARK SMILES IDX 65 24 45 25 64 26 46 27 49 28 63 29 82 30 47 31 48 32 62 34
REMARK SMILES IDX 83 35 50 36 34 37 35 38 43 39 36 40 42 41 44 42 41 43 37 44
REMARK SMILES IDX 38 45 39 46 40 47 66 48 67 49 75 50 68 51 74 52 76 53 73 54
REMARK SMILES IDX 69 55 70 56 71 57 72 58 51 59 52 60 60 61 53 62 59 63 61 64
REMARK SMILES IDX 58 65 54 66 55 67 56 68 57 69 5 70 6 71 7 72 8 73 9 74 10 75
REMARK SMILES IDX 15 76 11 77 14 78 12 79 13 80 16 81 17 82 24 83 18 84 19 85
REMARK SMILES IDX 23 86 20 87 22 88 21 89
REMARK H PARENT 81 22 49 33
REMARK Flexibility Score: inf
ROOT
ATOM      1  C   UNL A   1      32.605  29.948  26.841  1.00  0.00     0.275 C 
ENDROOT
BRANCH   1   2
ATOM      2  O   UNL A   1      34.030  29.943  26.930  1.00  0.00    -0.458 OA
BRANCH   2   3
ATOM      3  C   UNL A   1      34.534  30.807  27.844  1.00  0.00     0.338 C 
ATOM      4  O   UNL A   1      34.072  31.903  28.131  1.00  0.00    -0.246 OA
BRANCH   3   5
ATOM      5  C   UNL A   1      35.870  30.304  28.239  1.00  0.00     0.060 A 
ATOM      6  C   UNL A   1      36.018  29.630  29.455  1.00  0.00     0.016 A 
ATOM      7  C   UNL A   1      36.939  30.370  27.335  1.00  0.00     0.016 A 
ATOM      8  C   UNL A   1      37.223  29.032  29.767  1.00  0.00     0.010 A 
ATOM      9  C   UNL A   1      38.135  29.719  27.621  1.00  0.00     0.010 A 
ATOM     10  C   UNL A   1      38.282  29.080  28.857  1.00  0.00    -0.014 A 
BRANCH  10  11
ATOM     11  C   UNL A   1      39.588  28.610  29.343  1.00  0.00     0.031 A 
ATOM     12  C   UNL A   1      40.105  29.214  30.610  1.00  0.00     0.074 A 
ATOM     13  C   UNL A   1      40.156  27.541  28.760  1.00  0.00     0.049 A 
ATOM     14  N   UNL A   1      41.064  28.799  31.388  1.00  0.00    -0.248 NA
ATOM     15  C   UNL A   1      39.428  30.434  31.084  1.00  0.00     0.031 C 
ATOM     16  C   UNL A   1      39.653  26.877  27.555  1.00  0.00     0.029 A 
ATOM     17  N   UNL A   1      41.248  26.802  29.116  1.00  0.00    -0.354 N 
ATOM     18  C   UNL A   1      41.059  29.665  32.474  1.00  0.00     0.074 A 
ATOM     19  C   UNL A   1      40.077  30.689  32.206  1.00  0.00     0.031 C 
ATOM     20  C   UNL A   1      40.446  25.832  27.266  1.00  0.00     0.029 A 
ATOM     21  C   UNL A   1      41.505  25.756  28.262  1.00  0.00     0.049 A 
ATOM     22  H   UNL A   1      41.799  27.001  29.907  1.00  0.00     0.167 HD
ATOM     23  C   UNL A   1      41.780  29.575  33.616  1.00  0.00     0.034 A 
ATOM     24  C   UNL A   1      42.487  24.836  28.301  1.00  0.00     0.034 A 
ATOM     25  C   UNL A   1      42.781  28.560  33.813  1.00  0.00     0.049 A 
ATOM     26  C   UNL A   1      43.378  24.839  29.514  1.00  0.00     0.074 A 
ATOM     27  C   UNL A   1      43.627  28.367  34.887  1.00  0.00     0.029 A 
ATOM     28  N   UNL A   1      43.079  27.566  32.883  1.00  0.00    -0.354 N 
ATOM     29  N   UNL A   1      43.342  25.641  30.556  1.00  0.00    -0.248 NA
ATOM     30  C   UNL A   1      44.401  23.795  29.584  1.00  0.00     0.031 C 
ATOM     31  C   UNL A   1      44.475  27.296  34.580  1.00  0.00     0.029 A 
ATOM     32  C   UNL A   1      44.115  26.776  33.344  1.00  0.00     0.049 A 
ATOM     33  H   UNL A   1      42.619  27.444  32.021  1.00  0.00     0.167 HD
ATOM     34  C   UNL A   1      44.314  25.171  31.430  1.00  0.00     0.074 A 
ATOM     35  C   UNL A   1      44.912  24.013  30.787  1.00  0.00     0.031 C 
ATOM     36  C   UNL A   1      44.677  25.636  32.654  1.00  0.00     0.034 A 
BRANCH  23  37
ATOM     37  C   UNL A   1      41.520  30.628  34.663  1.00  0.00     0.023 A 
ATOM     38  C   UNL A   1      40.343  30.617  35.438  1.00  0.00     0.031 A 
ATOM     39  C   UNL A   1      42.393  31.718  34.811  1.00  0.00     0.131 A 
ATOM     40  C   UNL A   1      40.029  31.715  36.253  1.00  0.00     0.055 A 
ATOM     41  C   UNL A   1      42.112  32.770  35.686  1.00  0.00     0.041 A 
ATOM     42  F   UNL A   1      43.513  31.800  34.076  1.00  0.00    -0.206 F 
ATOM     43  C   UNL A   1      40.917  32.782  36.400  1.00  0.00     0.022 A 
BRANCH  40  44
ATOM     44  S   UNL A   1      38.372  31.808  36.991  1.00  0.00     0.124 S 
ATOM     45  O   UNL A   1      37.942  30.413  36.923  1.00  0.00    -0.237 OA
ATOM     46  O   UNL A   1      38.648  32.327  38.326  1.00  0.00    -0.237 OA
ATOM     47  O   UNL A   1      37.652  32.719  36.104  1.00  0.00    -0.744 OA
ENDBRANCH  40  44
ENDBRANCH  23  37
BRANCH  24  48
ATOM     48  C   UNL A   1      42.669  23.874  27.176  1.00  0.00     0.023 A 
ATOM     49  C   UNL A   1      42.141  22.574  27.209  1.00  0.00     0.031 A 
ATOM     50  C   UNL A   1      43.412  24.253  26.041  1.00  0.00     0.131 A 
ATOM     51  C   UNL A   1      42.391  21.690  26.145  1.00  0.00     0.055 A 
ATOM     52  C   UNL A   1      43.623  23.384  24.969  1.00  0.00     0.041 A 
ATOM     53  F   UNL A   1      43.939  25.485  25.956  1.00  0.00    -0.206 F 
ATOM     54  C   UNL A   1      43.121  22.089  25.023  1.00  0.00     0.022 A 
BRANCH  51  55
ATOM     55  S   UNL A   1      41.810  19.975  26.278  1.00  0.00     0.124 S 
ATOM     56  O   UNL A   1      42.275  19.601  27.608  1.00  0.00    -0.237 OA
ATOM     57  O   UNL A   1      40.368  20.135  26.123  1.00  0.00    -0.237 OA
ATOM     58  O   UNL A   1      42.483  19.301  25.169  1.00  0.00    -0.744 OA
ENDBRANCH  51  55
ENDBRANCH  24  48
BRANCH  36  59
ATOM     59  C   UNL A   1      45.738  24.850  33.372  1.00  0.00     0.023 A 
ATOM     60  C   UNL A   1      45.424  23.690  34.096  1.00  0.00     0.031 A 
ATOM     61  C   UNL A   1      47.076  25.280  33.338  1.00  0.00     0.131 A 
ATOM     62  C   UNL A   1      46.429  23.030  34.813  1.00  0.00     0.055 A 
ATOM     63  C   UNL A   1      48.082  24.581  34.001  1.00  0.00     0.041 A 
ATOM     64  F   UNL A   1      47.423  26.384  32.657  1.00  0.00    -0.206 F 
ATOM     65  C   UNL A   1      47.758  23.456  34.755  1.00  0.00     0.022 A 
BRANCH  62  66
ATOM     66  S   UNL A   1      45.954  21.660  35.899  1.00  0.00     0.124 S 
ATOM     67  O   UNL A   1      44.899  21.013  35.124  1.00  0.00    -0.237 OA
ATOM     68  O   UNL A   1      47.202  20.913  36.023  1.00  0.00    -0.237 OA
ATOM     69  O   UNL A   1      45.509  22.328  37.119  1.00  0.00    -0.744 OA
ENDBRANCH  62  66
ENDBRANCH  36  59
ENDBRANCH  10  11
ENDBRANCH   3   5
ENDBRANCH   2   3
ENDBRANCH   1   2
BRANCH   1  70
ATOM     70  C   UNL A   1      32.019  28.630  27.376  1.00  0.00     0.275 C 
BRANCH  70  71
ATOM     71  O   UNL A   1      32.435  27.477  26.610  1.00  0.00    -0.458 OA
BRANCH  71  72
ATOM     72  C   UNL A   1      31.473  26.616  26.198  1.00  0.00     0.340 C 
ATOM     73  O   UNL A   1      30.930  25.756  26.870  1.00  0.00    -0.246 OA
BRANCH  72  74
ATOM     74  C   UNL A   1      31.282  26.759  24.735  1.00  0.00     0.084 A 
ATOM     75  C   UNL A   1      30.524  27.851  24.294  1.00  0.00     0.033 A 
ATOM     76  C   UNL A   1      31.968  25.939  23.814  1.00  0.00     0.051 A 
ATOM     77  C   UNL A   1      30.437  28.114  22.928  1.00  0.00     0.018 A 
ATOM     78  C   UNL A   1      31.794  26.178  22.444  1.00  0.00     0.028 A 
ATOM     79  Br  UNL A   1      29.616  29.706  22.324  1.00  0.00    -0.051 Br
ATOM     80  C   UNL A   1      31.029  27.259  22.000  1.00  0.00     0.018 A 
BRANCH  76  81
ATOM     81  N   UNL A   1      32.860  24.960  24.254  1.00  0.00    -0.370 N 
ATOM     82  C   UNL A   1      32.777  23.543  24.129  1.00  0.00     0.125 C 
ATOM     83  C   UNL A   1      34.294  24.929  24.260  1.00  0.00     0.125 C 
ATOM     84  C   UNL A   1      34.132  23.507  24.876  1.00  0.00     0.005 C 
ATOM     85  C   UNL A   1      35.033  22.359  24.434  1.00  0.00     0.011 C 
ATOM     86  C   UNL A   1      34.056  23.590  26.416  1.00  0.00     0.011 C 
ATOM     87  C   UNL A   1      34.493  21.045  25.010  1.00  0.00     0.001 C 
ATOM     88  C   UNL A   1      33.563  22.278  27.012  1.00  0.00     0.001 C 
ATOM     89  C   UNL A   1      34.397  21.094  26.535  1.00  0.00     0.000 C 
ENDBRANCH  76  81
ENDBRANCH  72  74
ENDBRANCH  71  72
ENDBRANCH  70  71
ENDBRANCH   1  70
TORSDOF 15
ENDMDL
MODEL 3
REMARK VINA RESULT:     -12.2      5.134     10.208
REMARK SMILES O=C(OCCOC(=O)c1cc(Br)ccc1N1CC2(CCCCC2)C1)c1ccc(-c2c3nc(c(-c4cc(S(=O)(=O)[O-])ccc4F)c4ccc([nH]4)c(-c4cc(S(=O)(=O)[O-])ccc4F)c4nc(c(-c5cc(S(=O)(=O)[O-])ccc5F)c5ccc2[nH]5)C=C4)C=C3)cc1
REMARK SMILES IDX 4 1 3 2 2 3 1 4 25 5 26 6 87 7 27 8 86 9 28 10 29 11 30 12
REMARK SMILES IDX 80 13 31 14 85 15 79 16 81 17 32 18 84 19 78 20 77 21 33 23
REMARK SMILES IDX 65 24 45 25 64 26 46 27 49 28 63 29 82 30 47 31 48 32 62 34
REMARK SMILES IDX 83 35 50 36 34 37 35 38 43 39 36 40 42 41 44 42 41 43 37 44
REMARK SMILES IDX 38 45 39 46 40 47 66 48 67 49 75 50 68 51 74 52 76 53 73 54
REMARK SMILES IDX 69 55 70 56 71 57 72 58 51 59 52 60 60 61 53 62 59 63 61 64
REMARK SMILES IDX 58 65 54 66 55 67 56 68 57 69 5 70 6 71 7 72 8 73 9 74 10 75
REMARK SMILES IDX 15 76 11 77 14 78 12 79 13 80 16 81 17 82 24 83 18 84 19 85
REMARK SMILES IDX 23 86 20 87 22 88 21 89
REMARK H PARENT 81 22 49 33
REMARK Flexibility Score: inf
ROOT
ATOM      1  C   UNL A   1      37.448  22.036  24.886  1.00  0.00     0.275 C 
ENDROOT
BRANCH   1   2
ATOM      2  O   UNL A   1      37.862  23.093  25.753  1.00  0.00    -0.458 OA
BRANCH   2   3
ATOM      3  C   UNL A   1      39.073  22.898  26.330  1.00  0.00     0.338 C 
ATOM      4  O   UNL A   1      39.625  21.818  26.498  1.00  0.00    -0.246 OA
BRANCH   3   5
ATOM      5  C   UNL A   1      39.482  24.181  26.945  1.00  0.00     0.060 A 
ATOM      6  C   UNL A   1      40.025  25.186  26.139  1.00  0.00     0.016 A 
ATOM      7  C   UNL A   1      39.188  24.439  28.291  1.00  0.00     0.016 A 
ATOM      8  C   UNL A   1      40.275  26.435  26.672  1.00  0.00     0.010 A 
ATOM      9  C   UNL A   1      39.385  25.713  28.815  1.00  0.00     0.010 A 
ATOM     10  C   UNL A   1      39.963  26.699  28.008  1.00  0.00    -0.014 A 
BRANCH  10  11
ATOM     11  C   UNL A   1      40.450  27.973  28.558  1.00  0.00     0.031 A 
ATOM     12  C   UNL A   1      41.913  28.259  28.431  1.00  0.00     0.074 A 
ATOM     13  C   UNL A   1      39.558  28.895  28.959  1.00  0.00     0.049 A 
ATOM     14  N   UNL A   1      42.545  29.389  28.572  1.00  0.00    -0.248 NA
ATOM     15  C   UNL A   1      42.778  27.124  28.060  1.00  0.00     0.031 C 
ATOM     16  C   UNL A   1      38.111  28.682  29.041  1.00  0.00     0.029 A 
ATOM     17  N   UNL A   1      39.725  30.198  29.331  1.00  0.00    -0.354 N 
ATOM     18  C   UNL A   1      43.867  29.116  28.243  1.00  0.00     0.074 A 
ATOM     19  C   UNL A   1      43.967  27.697  27.998  1.00  0.00     0.031 C 
ATOM     20  C   UNL A   1      37.523  29.817  29.452  1.00  0.00     0.029 A 
ATOM     21  C   UNL A   1      38.549  30.830  29.659  1.00  0.00     0.049 A 
ATOM     22  H   UNL A   1      40.604  30.641  29.364  1.00  0.00     0.167 HD
ATOM     23  C   UNL A   1      44.890  29.991  28.108  1.00  0.00     0.034 A 
ATOM     24  C   UNL A   1      38.338  32.094  30.068  1.00  0.00     0.034 A 
ATOM     25  C   UNL A   1      44.748  31.390  28.410  1.00  0.00     0.049 A 
ATOM     26  C   UNL A   1      39.521  33.024  30.052  1.00  0.00     0.074 A 
ATOM     27  C   UNL A   1      45.699  32.391  28.373  1.00  0.00     0.029 A 
ATOM     28  N   UNL A   1      43.558  31.982  28.830  1.00  0.00    -0.354 N 
ATOM     29  N   UNL A   1      40.763  32.765  29.703  1.00  0.00    -0.248 NA
ATOM     30  C   UNL A   1      39.274  34.415  30.433  1.00  0.00     0.031 C 
ATOM     31  C   UNL A   1      45.099  33.571  28.828  1.00  0.00     0.029 A 
ATOM     32  C   UNL A   1      43.756  33.326  29.083  1.00  0.00     0.049 A 
ATOM     33  H   UNL A   1      42.699  31.510  28.931  1.00  0.00     0.167 HD
ATOM     34  C   UNL A   1      41.439  33.976  29.781  1.00  0.00     0.074 A 
ATOM     35  C   UNL A   1      40.460  34.961  30.209  1.00  0.00     0.031 C 
ATOM     36  C   UNL A   1      42.741  34.260  29.516  1.00  0.00     0.034 A 
BRANCH  23  37
ATOM     37  C   UNL A   1      46.215  29.417  27.671  1.00  0.00     0.023 A 
ATOM     38  C   UNL A   1      46.461  29.086  26.323  1.00  0.00     0.031 A 
ATOM     39  C   UNL A   1      47.197  29.089  28.618  1.00  0.00     0.131 A 
ATOM     40  C   UNL A   1      47.616  28.366  25.978  1.00  0.00     0.055 A 
ATOM     41  C   UNL A   1      48.382  28.443  28.254  1.00  0.00     0.041 A 
ATOM     42  F   UNL A   1      47.005  29.349  29.920  1.00  0.00    -0.206 F 
ATOM     43  C   UNL A   1      48.589  28.062  26.931  1.00  0.00     0.022 A 
BRANCH  40  44
ATOM     44  S   UNL A   1      47.750  27.689  24.297  1.00  0.00     0.124 S 
ATOM     45  O   UNL A   1      47.353  26.300  24.508  1.00  0.00    -0.237 OA
ATOM     46  O   UNL A   1      46.812  28.516  23.547  1.00  0.00    -0.237 OA
ATOM     47  O   UNL A   1      49.159  27.884  23.962  1.00  0.00    -0.744 OA
ENDBRANCH  40  44
ENDBRANCH  23  37
BRANCH  24  48
ATOM     48  C   UNL A   1      36.985  32.529  30.521  1.00  0.00     0.023 A 
ATOM     49  C   UNL A   1      36.057  33.118  29.650  1.00  0.00     0.031 A 
ATOM     50  C   UNL A   1      36.613  32.372  31.871  1.00  0.00     0.131 A 
ATOM     51  C   UNL A   1      34.816  33.560  30.143  1.00  0.00     0.055 A 
ATOM     52  C   UNL A   1      35.364  32.776  32.347  1.00  0.00     0.041 A 
ATOM     53  F   UNL A   1      37.462  31.813  32.748  1.00  0.00    -0.206 F 
ATOM     54  C   UNL A   1      34.461  33.385  31.483  1.00  0.00     0.022 A 
BRANCH  51  55
ATOM     55  S   UNL A   1      33.692  34.439  29.021  1.00  0.00     0.124 S 
ATOM     56  O   UNL A   1      32.652  34.897  29.935  1.00  0.00    -0.237 OA
ATOM     57  O   UNL A   1      34.564  35.472  28.472  1.00  0.00    -0.237 OA
ATOM     58  O   UNL A   1      33.279  33.405  28.074  1.00  0.00    -0.744 OA
ENDBRANCH  51  55
ENDBRANCH  24  48
BRANCH  36  59
ATOM     59  C   UNL A   1      43.142  35.703  29.645  1.00  0.00     0.023 A 
ATOM     60  C   UNL A   1      42.931  36.616  28.601  1.00  0.00     0.031 A 
ATOM     61  C   UNL A   1      43.755  36.160  30.825  1.00  0.00     0.131 A 
ATOM     62  C   UNL A   1      43.388  37.933  28.731  1.00  0.00     0.055 A 
ATOM     63  C   UNL A   1      44.149  37.488  30.972  1.00  0.00     0.041 A 
ATOM     64  F   UNL A   1      43.977  35.322  31.850  1.00  0.00    -0.206 F 
ATOM     65  C   UNL A   1      43.978  38.380  29.917  1.00  0.00     0.022 A 
BRANCH  62  66
ATOM     66  S   UNL A   1      43.284  39.028  27.292  1.00  0.00     0.124 S 
ATOM     67  O   UNL A   1      42.090  38.526  26.618  1.00  0.00    -0.237 OA
ATOM     68  O   UNL A   1      43.160  40.344  27.909  1.00  0.00    -0.237 OA
ATOM     69  O   UNL A   1      44.542  38.789  26.588  1.00  0.00    -0.744 OA
ENDBRANCH  62  66
ENDBRANCH  36  59
ENDBRANCH  10  11
ENDBRANCH   3   5
ENDBRANCH   2   3
ENDBRANCH   1   2
BRANCH   1  70
ATOM     70  C   UNL A   1      36.659  22.590  23.686  1.00  0.00     0.275 C 
BRANCH  70  71
ATOM     71  O   UNL A   1      35.627  23.525  24.075  1.00  0.00    -0.458 OA
BRANCH  71  72
ATOM     72  C   UNL A   1      34.499  23.561  23.326  1.00  0.00     0.340 C 
ATOM     73  O   UNL A   1      34.327  24.198  22.300  1.00  0.00    -0.246 OA
BRANCH  72  74
ATOM     74  C   UNL A   1      33.419  22.831  24.030  1.00  0.00     0.084 A 
ATOM     75  C   UNL A   1      33.372  21.441  23.861  1.00  0.00     0.033 A 
ATOM     76  C   UNL A   1      32.578  23.470  24.966  1.00  0.00     0.051 A 
ATOM     77  C   UNL A   1      32.471  20.692  24.614  1.00  0.00     0.018 A 
ATOM     78  C   UNL A   1      31.626  22.701  25.648  1.00  0.00     0.028 A 
ATOM     79  Br  UNL A   1      32.548  18.803  24.573  1.00  0.00    -0.051 Br
ATOM     80  C   UNL A   1      31.568  21.317  25.472  1.00  0.00     0.018 A 
BRANCH  76  81
ATOM     81  N   UNL A   1      32.740  24.825  25.264  1.00  0.00    -0.370 N 
ATOM     82  C   UNL A   1      31.751  25.839  25.411  1.00  0.00     0.125 C 
ATOM     83  C   UNL A   1      33.632  25.487  26.171  1.00  0.00     0.125 C 
ATOM     84  C   UNL A   1      32.933  26.797  25.698  1.00  0.00     0.005 C 
ATOM     85  C   UNL A   1      32.588  27.900  26.694  1.00  0.00     0.011 C 
ATOM     86  C   UNL A   1      33.650  27.375  24.458  1.00  0.00     0.011 C 
ATOM     87  C   UNL A   1      31.697  28.939  26.002  1.00  0.00     0.001 C 
ATOM     88  C   UNL A   1      32.800  28.443  23.782  1.00  0.00     0.001 C 
ATOM     89  C   UNL A   1      32.373  29.528  24.764  1.00  0.00     0.000 C 
ENDBRANCH  76  81
ENDBRANCH  72  74
ENDBRANCH  71  72
ENDBRANCH  70  71
ENDBRANCH   1  70
TORSDOF 15
ENDMDL
