MODEL 1
REMARK VINA RESULT:     -11.3      0.000      0.000
REMARK SMILES O=C(OCCOC(=O)c1cc(Br)cc2c1OCC2)c1ccc(-c2c3nc(c(-c4cc(S(=O)(=O)[O-])ccc4F)c4ccc([nH]4)c(-c4cc(S(=O)(=O)[O-])ccc4F)c4nc(c(-c5cc(S(=O)(=O)[O-])ccc5F)c5ccc2[nH]5)C=C4)C=C3)cc1
REMARK SMILES IDX 3 1 2 2 1 3 19 4 20 5 81 6 21 7 80 8 22 9 23 10 24 11 74 12
REMARK SMILES IDX 25 13 79 14 73 15 75 16 26 17 78 18 72 19 71 20 27 22 59 23
REMARK SMILES IDX 39 24 58 25 40 26 43 27 57 28 76 29 41 30 42 31 56 33 77 34
REMARK SMILES IDX 44 35 28 36 29 37 37 38 30 39 36 40 38 41 35 42 31 43 32 44
REMARK SMILES IDX 33 45 34 46 60 47 61 48 69 49 62 50 68 51 70 52 67 53 63 54
REMARK SMILES IDX 64 55 65 56 66 57 45 58 46 59 54 60 47 61 53 62 55 63 52 64
REMARK SMILES IDX 48 65 49 66 50 67 51 68 4 69 5 70 6 71 7 72 8 73 9 74 10 75
REMARK SMILES IDX 15 76 11 77 14 78 16 79 12 80 13 81 18 82 17 83
REMARK H PARENT 75 21 43 32
REMARK Flexibility Score: inf
ROOT
ATOM      1  O   UNL A   1      33.551  30.501  26.475  1.00  0.00    -0.458 OA
ENDROOT
BRANCH   1   2
ATOM      2  C   UNL A   1      34.293  31.038  27.475  1.00  0.00     0.338 C 
ATOM      3  O   UNL A   1      34.025  32.171  27.873  1.00  0.00    -0.246 OA
BRANCH   2   4
ATOM      4  C   UNL A   1      35.522  30.379  28.017  1.00  0.00     0.060 A 
ATOM      5  C   UNL A   1      35.606  29.656  29.205  1.00  0.00     0.016 A 
ATOM      6  C   UNL A   1      36.699  30.536  27.263  1.00  0.00     0.016 A 
ATOM      7  C   UNL A   1      36.797  29.039  29.588  1.00  0.00     0.010 A 
ATOM      8  C   UNL A   1      37.892  29.903  27.624  1.00  0.00     0.010 A 
ATOM      9  C   UNL A   1      37.945  29.154  28.802  1.00  0.00    -0.014 A 
BRANCH   9  10
ATOM     10  C   UNL A   1      39.219  28.626  29.340  1.00  0.00     0.031 A 
ATOM     11  C   UNL A   1      39.760  29.228  30.603  1.00  0.00     0.074 A 
ATOM     12  C   UNL A   1      39.792  27.541  28.787  1.00  0.00     0.049 A 
ATOM     13  N   UNL A   1      40.782  28.851  31.324  1.00  0.00    -0.248 NA
ATOM     14  C   UNL A   1      39.036  30.390  31.141  1.00  0.00     0.031 C 
ATOM     15  C   UNL A   1      39.288  26.834  27.610  1.00  0.00     0.029 A 
ATOM     16  N   UNL A   1      40.908  26.831  29.146  1.00  0.00    -0.354 N 
ATOM     17  C   UNL A   1      40.783  29.688  32.432  1.00  0.00     0.074 A 
ATOM     18  C   UNL A   1      39.727  30.655  32.237  1.00  0.00     0.031 C 
ATOM     19  C   UNL A   1      40.105  25.805  27.330  1.00  0.00     0.029 A 
ATOM     20  C   UNL A   1      41.198  25.791  28.292  1.00  0.00     0.049 A 
ATOM     21  H   UNL A   1      41.450  27.044  29.938  1.00  0.00     0.167 HD
ATOM     22  C   UNL A   1      41.566  29.624  33.536  1.00  0.00     0.034 A 
ATOM     23  C   UNL A   1      42.239  24.933  28.285  1.00  0.00     0.034 A 
ATOM     24  C   UNL A   1      42.645  28.681  33.685  1.00  0.00     0.049 A 
ATOM     25  C   UNL A   1      43.209  24.996  29.435  1.00  0.00     0.074 A 
ATOM     26  C   UNL A   1      43.552  28.560  34.721  1.00  0.00     0.029 A 
ATOM     27  N   UNL A   1      42.971  27.703  32.752  1.00  0.00    -0.354 N 
ATOM     28  N   UNL A   1      43.198  25.794  30.480  1.00  0.00    -0.248 NA
ATOM     29  C   UNL A   1      44.303  24.020  29.431  1.00  0.00     0.031 C 
ATOM     30  C   UNL A   1      44.463  27.552  34.386  1.00  0.00     0.029 A 
ATOM     31  C   UNL A   1      44.081  26.991  33.176  1.00  0.00     0.049 A 
ATOM     32  H   UNL A   1      42.484  27.540  31.913  1.00  0.00     0.167 HD
ATOM     33  C   UNL A   1      44.259  25.385  31.280  1.00  0.00     0.074 A 
ATOM     34  C   UNL A   1      44.876  24.261  30.601  1.00  0.00     0.031 C 
ATOM     35  C   UNL A   1      44.681  25.882  32.472  1.00  0.00     0.034 A 
BRANCH  22  36
ATOM     36  C   UNL A   1      41.281  30.628  34.624  1.00  0.00     0.023 A 
ATOM     37  C   UNL A   1      40.116  30.542  35.408  1.00  0.00     0.031 A 
ATOM     38  C   UNL A   1      42.135  31.724  34.829  1.00  0.00     0.131 A 
ATOM     39  C   UNL A   1      39.794  31.575  36.300  1.00  0.00     0.055 A 
ATOM     40  C   UNL A   1      41.848  32.710  35.777  1.00  0.00     0.041 A 
ATOM     41  F   UNL A   1      43.244  31.874  34.090  1.00  0.00    -0.206 F 
ATOM     42  C   UNL A   1      40.665  32.647  36.507  1.00  0.00     0.022 A 
BRANCH  39  43
ATOM     43  S   UNL A   1      38.151  31.577  37.071  1.00  0.00     0.124 S 
ATOM     44  O   UNL A   1      37.794  30.161  37.005  1.00  0.00    -0.237 OA
ATOM     45  O   UNL A   1      38.426  32.103  38.403  1.00  0.00    -0.237 OA
ATOM     46  O   UNL A   1      37.366  32.451  36.202  1.00  0.00    -0.744 OA
ENDBRANCH  39  43
ENDBRANCH  22  36
BRANCH  23  47
ATOM     47  C   UNL A   1      42.443  23.986  27.150  1.00  0.00     0.023 A 
ATOM     48  C   UNL A   1      41.923  22.682  27.162  1.00  0.00     0.031 A 
ATOM     49  C   UNL A   1      43.245  24.362  26.055  1.00  0.00     0.131 A 
ATOM     50  C   UNL A   1      42.257  21.785  26.133  1.00  0.00     0.055 A 
ATOM     51  C   UNL A   1      43.527  23.485  25.006  1.00  0.00     0.041 A 
ATOM     52  F   UNL A   1      43.781  25.591  25.998  1.00  0.00    -0.206 F 
ATOM     53  C   UNL A   1      43.046  22.181  25.049  1.00  0.00     0.022 A 
BRANCH  50  54
ATOM     54  S   UNL A   1      41.741  20.051  26.285  1.00  0.00     0.124 S 
ATOM     55  O   UNL A   1      42.462  19.428  25.180  1.00  0.00    -0.237 OA
ATOM     56  O   UNL A   1      42.207  19.716  27.626  1.00  0.00    -0.237 OA
ATOM     57  O   UNL A   1      40.290  20.113  26.128  1.00  0.00    -0.744 OA
ENDBRANCH  50  54
ENDBRANCH  23  47
BRANCH  35  58
ATOM     58  C   UNL A   1      45.839  25.171  33.124  1.00  0.00     0.023 A 
ATOM     59  C   UNL A   1      45.641  24.080  33.987  1.00  0.00     0.031 A 
ATOM     60  C   UNL A   1      47.155  25.614  32.906  1.00  0.00     0.131 A 
ATOM     61  C   UNL A   1      46.733  23.519  34.661  1.00  0.00     0.055 A 
ATOM     62  C   UNL A   1      48.247  25.001  33.521  1.00  0.00     0.041 A 
ATOM     63  F   UNL A   1      47.401  26.655  32.092  1.00  0.00    -0.206 F 
ATOM     64  C   UNL A   1      48.037  23.959  34.418  1.00  0.00     0.022 A 
BRANCH  61  65
ATOM     65  S   UNL A   1      46.412  22.287  35.951  1.00  0.00     0.124 S 
ATOM     66  O   UNL A   1      46.039  23.128  37.085  1.00  0.00    -0.237 OA
ATOM     67  O   UNL A   1      45.335  21.494  35.365  1.00  0.00    -0.237 OA
ATOM     68  O   UNL A   1      47.690  21.592  36.088  1.00  0.00    -0.744 OA
ENDBRANCH  61  65
ENDBRANCH  35  58
ENDBRANCH   9  10
ENDBRANCH   2   4
ENDBRANCH   1   2
BRANCH   1  69
ATOM     69  C   UNL A   1      32.159  30.141  26.477  1.00  0.00     0.275 C 
BRANCH  69  70
ATOM     70  C   UNL A   1      31.819  28.864  27.250  1.00  0.00     0.275 C 
BRANCH  70  71
ATOM     71  O   UNL A   1      32.675  27.756  26.943  1.00  0.00    -0.458 OA
BRANCH  71  72
ATOM     72  C   UNL A   1      32.042  26.642  26.497  1.00  0.00     0.342 C 
ATOM     73  O   UNL A   1      30.958  26.216  26.872  1.00  0.00    -0.246 OA
BRANCH  72  74
ATOM     74  C   UNL A   1      32.869  25.997  25.467  1.00  0.00     0.103 A 
ATOM     75  C   UNL A   1      34.001  25.254  25.825  1.00  0.00     0.035 A 
ATOM     76  C   UNL A   1      32.513  26.063  24.128  1.00  0.00     0.137 A 
ATOM     77  C   UNL A   1      34.740  24.597  24.829  1.00  0.00     0.019 A 
ATOM     78  C   UNL A   1      33.281  25.452  23.149  1.00  0.00    -0.000 A 
ATOM     79  O   UNL A   1      31.415  26.711  23.625  1.00  0.00    -0.492 OA
ATOM     80  Br  UNL A   1      36.160  23.449  25.324  1.00  0.00    -0.051 Br
ATOM     81  C   UNL A   1      34.405  24.715  23.478  1.00  0.00     0.023 A 
ATOM     82  C   UNL A   1      32.668  25.662  21.819  1.00  0.00     0.081 C 
ATOM     83  C   UNL A   1      31.559  26.646  22.189  1.00  0.00     0.234 C 
ENDBRANCH  72  74
ENDBRANCH  71  72
ENDBRANCH  70  71
ENDBRANCH  69  70
ENDBRANCH   1  69
TORSDOF 14
ENDMDL
MODEL 2
REMARK VINA RESULT:     -11.2      5.315     10.449
REMARK SMILES O=C(OCCOC(=O)c1cc(Br)cc2c1OCC2)c1ccc(-c2c3nc(c(-c4cc(S(=O)(=O)[O-])ccc4F)c4ccc([nH]4)c(-c4cc(S(=O)(=O)[O-])ccc4F)c4nc(c(-c5cc(S(=O)(=O)[O-])ccc5F)c5ccc2[nH]5)C=C4)C=C3)cc1
REMARK SMILES IDX 3 1 2 2 1 3 19 4 20 5 81 6 21 7 80 8 22 9 23 10 24 11 74 12
REMARK SMILES IDX 25 13 79 14 73 15 75 16 26 17 78 18 72 19 71 20 27 22 59 23
REMARK SMILES IDX 39 24 58 25 40 26 43 27 57 28 76 29 41 30 42 31 56 33 77 34
REMARK SMILES IDX 44 35 28 36 29 37 37 38 30 39 36 40 38 41 35 42 31 43 32 44
REMARK SMILES IDX 33 45 34 46 60 47 61 48 69 49 62 50 68 51 70 52 67 53 63 54
REMARK SMILES IDX 64 55 65 56 66 57 45 58 46 59 54 60 47 61 53 62 55 63 52 64
REMARK SMILES IDX 48 65 49 66 50 67 51 68 4 69 5 70 6 71 7 72 8 73 9 74 10 75
REMARK SMILES IDX 15 76 11 77 14 78 16 79 12 80 13 81 18 82 17 83
REMARK H PARENT 75 21 43 32
REMARK Flexibility Score: inf
ROOT
ATOM      1  O   UNL A   1      37.817  22.143  26.067  1.00  0.00    -0.458 OA
ENDROOT
BRANCH   1   2
ATOM      2  C   UNL A   1      39.075  22.498  26.425  1.00  0.00     0.338 C 
ATOM      3  O   UNL A   1      39.930  21.621  26.544  1.00  0.00    -0.246 OA
BRANCH   2   4
ATOM      4  C   UNL A   1      39.441  23.890  26.834  1.00  0.00     0.060 A 
ATOM      5  C   UNL A   1      39.933  24.886  25.993  1.00  0.00     0.016 A 
ATOM      6  C   UNL A   1      39.295  24.199  28.199  1.00  0.00     0.016 A 
ATOM      7  C   UNL A   1      40.192  26.169  26.475  1.00  0.00     0.010 A 
ATOM      8  C   UNL A   1      39.529  25.487  28.689  1.00  0.00     0.010 A 
ATOM      9  C   UNL A   1      39.989  26.480  27.822  1.00  0.00    -0.014 A 
BRANCH   9  10
ATOM     10  C   UNL A   1      40.441  27.802  28.311  1.00  0.00     0.031 A 
ATOM     11  C   UNL A   1      41.905  28.124  28.237  1.00  0.00     0.074 A 
ATOM     12  C   UNL A   1      39.543  28.735  28.675  1.00  0.00     0.049 A 
ATOM     13  N   UNL A   1      42.514  29.252  28.486  1.00  0.00    -0.248 NA
ATOM     14  C   UNL A   1      42.795  27.041  27.793  1.00  0.00     0.031 C 
ATOM     15  C   UNL A   1      38.092  28.542  28.694  1.00  0.00     0.029 A 
ATOM     16  N   UNL A   1      39.707  30.034  29.080  1.00  0.00    -0.354 N 
ATOM     17  C   UNL A   1      43.848  29.031  28.168  1.00  0.00     0.074 A 
ATOM     18  C   UNL A   1      43.975  27.638  27.807  1.00  0.00     0.031 C 
ATOM     19  C   UNL A   1      37.502  29.673  29.112  1.00  0.00     0.029 A 
ATOM     20  C   UNL A   1      38.528  30.663  29.410  1.00  0.00     0.049 A 
ATOM     21  H   UNL A   1      40.585  30.475  29.130  1.00  0.00     0.167 HD
ATOM     22  C   UNL A   1      44.865  29.926  28.134  1.00  0.00     0.034 A 
ATOM     23  C   UNL A   1      38.308  31.896  29.908  1.00  0.00     0.034 A 
ATOM     24  C   UNL A   1      44.723  31.299  28.546  1.00  0.00     0.049 A 
ATOM     25  C   UNL A   1      39.487  32.824  30.035  1.00  0.00     0.074 A 
ATOM     26  C   UNL A   1      45.690  32.284  28.623  1.00  0.00     0.029 A 
ATOM     27  N   UNL A   1      43.531  31.876  28.968  1.00  0.00    -0.354 N 
ATOM     28  N   UNL A   1      40.746  32.603  29.728  1.00  0.00    -0.248 NA
ATOM     29  C   UNL A   1      39.214  34.177  30.530  1.00  0.00     0.031 C 
ATOM     30  C   UNL A   1      45.096  33.436  29.151  1.00  0.00     0.029 A 
ATOM     31  C   UNL A   1      43.742  33.196  29.332  1.00  0.00     0.049 A 
ATOM     32  H   UNL A   1      42.662  31.414  29.003  1.00  0.00     0.167 HD
ATOM     33  C   UNL A   1      41.408  33.805  29.953  1.00  0.00     0.074 A 
ATOM     34  C   UNL A   1      40.403  34.748  30.407  1.00  0.00     0.031 C 
ATOM     35  C   UNL A   1      42.722  34.109  29.791  1.00  0.00     0.034 A 
BRANCH  22  36
ATOM     36  C   UNL A   1      46.202  29.409  27.667  1.00  0.00     0.023 A 
ATOM     37  C   UNL A   1      46.420  29.062  26.320  1.00  0.00     0.031 A 
ATOM     38  C   UNL A   1      47.243  29.184  28.583  1.00  0.00     0.131 A 
ATOM     39  C   UNL A   1      47.615  28.434  25.943  1.00  0.00     0.055 A 
ATOM     40  C   UNL A   1      48.462  28.629  28.185  1.00  0.00     0.041 A 
ATOM     41  F   UNL A   1      47.081  29.466  29.884  1.00  0.00    -0.206 F 
ATOM     42  C   UNL A   1      48.648  28.237  26.862  1.00  0.00     0.022 A 
BRANCH  39  43
ATOM     43  S   UNL A   1      47.741  27.738  24.271  1.00  0.00     0.124 S 
ATOM     44  O   UNL A   1      49.176  27.841  24.017  1.00  0.00    -0.237 OA
ATOM     45  O   UNL A   1      47.220  26.388  24.450  1.00  0.00    -0.237 OA
ATOM     46  O   UNL A   1      46.907  28.629  23.467  1.00  0.00    -0.744 OA
ENDBRANCH  39  43
ENDBRANCH  22  36
BRANCH  23  47
ATOM     47  C   UNL A   1      36.946  32.308  30.359  1.00  0.00     0.023 A 
ATOM     48  C   UNL A   1      36.022  32.912  29.492  1.00  0.00     0.031 A 
ATOM     49  C   UNL A   1      36.581  32.169  31.712  1.00  0.00     0.131 A 
ATOM     50  C   UNL A   1      34.806  33.405  29.996  1.00  0.00     0.055 A 
ATOM     51  C   UNL A   1      35.348  32.608  32.197  1.00  0.00     0.041 A 
ATOM     52  F   UNL A   1      37.431  31.613  32.590  1.00  0.00    -0.206 F 
ATOM     53  C   UNL A   1      34.458  33.246  31.340  1.00  0.00     0.022 A 
BRANCH  50  54
ATOM     54  S   UNL A   1      33.728  34.362  28.893  1.00  0.00     0.124 S 
ATOM     55  O   UNL A   1      32.732  34.879  29.825  1.00  0.00    -0.237 OA
ATOM     56  O   UNL A   1      34.658  35.341  28.339  1.00  0.00    -0.237 OA
ATOM     57  O   UNL A   1      33.238  33.365  27.945  1.00  0.00    -0.744 OA
ENDBRANCH  50  54
ENDBRANCH  23  47
BRANCH  35  58
ATOM     58  C   UNL A   1      43.120  35.537  30.066  1.00  0.00     0.023 A 
ATOM     59  C   UNL A   1      43.008  36.534  29.084  1.00  0.00     0.031 A 
ATOM     60  C   UNL A   1      43.652  35.894  31.318  1.00  0.00     0.131 A 
ATOM     61  C   UNL A   1      43.493  37.823  29.342  1.00  0.00     0.055 A 
ATOM     62  C   UNL A   1      44.063  37.198  31.595  1.00  0.00     0.041 A 
ATOM     63  F   UNL A   1      43.784  34.978  32.292  1.00  0.00    -0.206 F 
ATOM     64  C   UNL A   1      44.002  38.166  30.597  1.00  0.00     0.022 A 
BRANCH  61  65
ATOM     65  S   UNL A   1      43.564  39.010  27.974  1.00  0.00     0.124 S 
ATOM     66  O   UNL A   1      44.599  39.933  28.428  1.00  0.00    -0.237 OA
ATOM     67  O   UNL A   1      43.921  38.160  26.842  1.00  0.00    -0.237 OA
ATOM     68  O   UNL A   1      42.212  39.564  27.931  1.00  0.00    -0.744 OA
ENDBRANCH  61  65
ENDBRANCH  35  58
ENDBRANCH   9  10
ENDBRANCH   2   4
ENDBRANCH   1   2
BRANCH   1  69
ATOM     69  C   UNL A   1      37.061  22.541  24.910  1.00  0.00     0.275 C 
BRANCH  69  70
ATOM     70  C   UNL A   1      35.606  22.927  25.187  1.00  0.00     0.275 C 
BRANCH  70  71
ATOM     71  O   UNL A   1      35.379  24.342  25.224  1.00  0.00    -0.458 OA
BRANCH  71  72
ATOM     72  C   UNL A   1      34.146  24.720  25.646  1.00  0.00     0.342 C 
ATOM     73  O   UNL A   1      33.324  24.020  26.225  1.00  0.00    -0.246 OA
BRANCH  72  74
ATOM     74  C   UNL A   1      33.928  26.131  25.298  1.00  0.00     0.103 A 
ATOM     75  C   UNL A   1      34.009  27.127  26.280  1.00  0.00     0.035 A 
ATOM     76  C   UNL A   1      33.696  26.509  23.984  1.00  0.00     0.137 A 
ATOM     77  C   UNL A   1      33.858  28.473  25.914  1.00  0.00     0.019 A 
ATOM     78  C   UNL A   1      33.497  27.838  23.644  1.00  0.00    -0.000 A 
ATOM     79  O   UNL A   1      33.632  25.663  22.909  1.00  0.00    -0.492 OA
ATOM     80  Br  UNL A   1      34.144  29.829  27.200  1.00  0.00    -0.051 Br
ATOM     81  C   UNL A   1      33.570  28.840  24.597  1.00  0.00     0.023 A 
ATOM     82  C   UNL A   1      33.291  27.962  22.184  1.00  0.00     0.081 C 
ATOM     83  C   UNL A   1      33.207  26.486  21.800  1.00  0.00     0.234 C 
ENDBRANCH  72  74
ENDBRANCH  71  72
ENDBRANCH  70  71
ENDBRANCH  69  70
ENDBRANCH   1  69
TORSDOF 14
ENDMDL
MODEL 3
REMARK VINA RESULT:     -11.2      2.285      3.042
REMARK SMILES O=C(OCCOC(=O)c1cc(Br)cc2c1OCC2)c1ccc(-c2c3nc(c(-c4cc(S(=O)(=O)[O-])ccc4F)c4ccc([nH]4)c(-c4cc(S(=O)(=O)[O-])ccc4F)c4nc(c(-c5cc(S(=O)(=O)[O-])ccc5F)c5ccc2[nH]5)C=C4)C=C3)cc1
REMARK SMILES IDX 3 1 2 2 1 3 19 4 20 5 81 6 21 7 80 8 22 9 23 10 24 11 74 12
REMARK SMILES IDX 25 13 79 14 73 15 75 16 26 17 78 18 72 19 71 20 27 22 59 23
REMARK SMILES IDX 39 24 58 25 40 26 43 27 57 28 76 29 41 30 42 31 56 33 77 34
REMARK SMILES IDX 44 35 28 36 29 37 37 38 30 39 36 40 38 41 35 42 31 43 32 44
REMARK SMILES IDX 33 45 34 46 60 47 61 48 69 49 62 50 68 51 70 52 67 53 63 54
REMARK SMILES IDX 64 55 65 56 66 57 45 58 46 59 54 60 47 61 53 62 55 63 52 64
REMARK SMILES IDX 48 65 49 66 50 67 51 68 4 69 5 70 6 71 7 72 8 73 9 74 10 75
REMARK SMILES IDX 15 76 11 77 14 78 16 79 12 80 13 81 18 82 17 83
REMARK H PARENT 75 21 43 32
REMARK Flexibility Score: inf
ROOT
ATOM      1  O   UNL A   1      32.322  32.458  26.650  1.00  0.00    -0.458 OA
ENDROOT
BRANCH   1   2
ATOM      2  C   UNL A   1      33.072  33.060  27.606  1.00  0.00     0.338 C 
ATOM      3  O   UNL A   1      32.800  34.214  27.937  1.00  0.00    -0.246 OA
BRANCH   2   4
ATOM      4  C   UNL A   1      34.311  32.444  28.174  1.00  0.00     0.060 A 
ATOM      5  C   UNL A   1      34.405  31.181  28.753  1.00  0.00     0.016 A 
ATOM      6  C   UNL A   1      35.475  33.235  28.137  1.00  0.00     0.016 A 
ATOM      7  C   UNL A   1      35.629  30.687  29.204  1.00  0.00     0.010 A 
ATOM      8  C   UNL A   1      36.711  32.741  28.564  1.00  0.00     0.010 A 
ATOM      9  C   UNL A   1      36.789  31.459  29.110  1.00  0.00    -0.014 A 
BRANCH   9  10
ATOM     10  C   UNL A   1      38.021  30.954  29.758  1.00  0.00     0.031 A 
ATOM     11  C   UNL A   1      38.341  31.431  31.143  1.00  0.00     0.074 A 
ATOM     12  C   UNL A   1      38.749  29.986  29.171  1.00  0.00     0.049 A 
ATOM     13  N   UNL A   1      39.287  31.037  31.953  1.00  0.00    -0.248 NA
ATOM     14  C   UNL A   1      37.459  32.467  31.703  1.00  0.00     0.031 C 
ATOM     15  C   UNL A   1      38.463  29.397  27.863  1.00  0.00     0.029 A 
ATOM     16  N   UNL A   1      39.863  29.313  29.599  1.00  0.00    -0.354 N 
ATOM     17  C   UNL A   1      39.075  31.730  33.137  1.00  0.00     0.074 A 
ATOM     18  C   UNL A   1      37.976  32.641  32.907  1.00  0.00     0.031 C 
ATOM     19  C   UNL A   1      39.392  28.467  27.586  1.00  0.00     0.029 A 
ATOM     20  C   UNL A   1      40.348  28.408  28.683  1.00  0.00     0.049 A 
ATOM     21  H   UNL A   1      40.278  29.463  30.479  1.00  0.00     0.167 HD
ATOM     22  C   UNL A   1      39.709  31.582  34.325  1.00  0.00     0.034 A 
ATOM     23  C   UNL A   1      41.448  27.629  28.724  1.00  0.00     0.034 A 
ATOM     24  C   UNL A   1      40.834  30.702  34.516  1.00  0.00     0.049 A 
ATOM     25  C   UNL A   1      42.251  27.614  29.997  1.00  0.00     0.074 A 
ATOM     26  C   UNL A   1      41.604  30.515  35.648  1.00  0.00     0.029 A 
ATOM     27  N   UNL A   1      41.359  29.870  33.534  1.00  0.00    -0.354 N 
ATOM     28  N   UNL A   1      42.037  28.275  31.114  1.00  0.00    -0.248 NA
ATOM     29  C   UNL A   1      43.413  26.721  30.036  1.00  0.00     0.031 C 
ATOM     30  C   UNL A   1      42.632  29.619  35.332  1.00  0.00     0.029 A 
ATOM     31  C   UNL A   1      42.459  29.187  34.025  1.00  0.00     0.049 A 
ATOM     32  H   UNL A   1      41.001  29.779  32.621  1.00  0.00     0.167 HD
ATOM     33  C   UNL A   1      43.015  27.842  32.003  1.00  0.00     0.074 A 
ATOM     34  C   UNL A   1      43.806  26.854  31.294  1.00  0.00     0.031 C 
ATOM     35  C   UNL A   1      43.236  28.215  33.290  1.00  0.00     0.034 A 
BRANCH  22  36
ATOM     36  C   UNL A   1      39.203  32.423  35.470  1.00  0.00     0.023 A 
ATOM     37  C   UNL A   1      39.632  33.753  35.642  1.00  0.00     0.031 A 
ATOM     38  C   UNL A   1      38.352  31.873  36.442  1.00  0.00     0.131 A 
ATOM     39  C   UNL A   1      39.275  34.459  36.800  1.00  0.00     0.055 A 
ATOM     40  C   UNL A   1      37.937  32.610  37.554  1.00  0.00     0.041 A 
ATOM     41  F   UNL A   1      37.937  30.601  36.347  1.00  0.00    -0.206 F 
ATOM     42  C   UNL A   1      38.411  33.905  37.745  1.00  0.00     0.022 A 
BRANCH  39  43
ATOM     43  S   UNL A   1      40.081  36.053  37.127  1.00  0.00     0.124 S 
ATOM     44  O   UNL A   1      41.427  35.629  37.505  1.00  0.00    -0.237 OA
ATOM     45  O   UNL A   1      39.964  36.736  35.844  1.00  0.00    -0.237 OA
ATOM     46  O   UNL A   1      39.285  36.622  38.213  1.00  0.00    -0.744 OA
ENDBRANCH  39  43
ENDBRANCH  22  36
BRANCH  23  47
ATOM     47  C   UNL A   1      41.876  26.845  27.528  1.00  0.00     0.023 A 
ATOM     48  C   UNL A   1      41.661  25.461  27.427  1.00  0.00     0.031 A 
ATOM     49  C   UNL A   1      42.590  27.475  26.492  1.00  0.00     0.131 A 
ATOM     50  C   UNL A   1      42.203  24.746  26.345  1.00  0.00     0.055 A 
ATOM     51  C   UNL A   1      43.077  26.770  25.390  1.00  0.00     0.041 A 
ATOM     52  F   UNL A   1      42.838  28.793  26.544  1.00  0.00    -0.206 F 
ATOM     53  C   UNL A   1      42.899  25.393  25.320  1.00  0.00     0.022 A 
BRANCH  50  54
ATOM     54  S   UNL A   1      42.087  22.934  26.351  1.00  0.00     0.124 S 
ATOM     55  O   UNL A   1      40.651  22.729  26.504  1.00  0.00    -0.237 OA
ATOM     56  O   UNL A   1      42.649  22.593  25.048  1.00  0.00    -0.237 OA
ATOM     57  O   UNL A   1      42.899  22.544  27.500  1.00  0.00    -0.744 OA
ENDBRANCH  50  54
ENDBRANCH  23  47
BRANCH  35  58
ATOM     58  C   UNL A   1      44.353  27.508  34.013  1.00  0.00     0.023 A 
ATOM     59  C   UNL A   1      44.138  26.301  34.699  1.00  0.00     0.031 A 
ATOM     60  C   UNL A   1      45.642  28.069  34.045  1.00  0.00     0.131 A 
ATOM     61  C   UNL A   1      45.175  25.734  35.452  1.00  0.00     0.055 A 
ATOM     62  C   UNL A   1      46.690  27.459  34.733  1.00  0.00     0.041 A 
ATOM     63  F   UNL A   1      45.901  29.223  33.409  1.00  0.00    -0.206 F 
ATOM     64  C   UNL A   1      46.455  26.294  35.457  1.00  0.00     0.022 A 
BRANCH  61  65
ATOM     65  S   UNL A   1      44.793  24.322  36.522  1.00  0.00     0.124 S 
ATOM     66  O   UNL A   1      46.116  23.750  36.752  1.00  0.00    -0.237 OA
ATOM     67  O   UNL A   1      44.168  24.964  37.675  1.00  0.00    -0.237 OA
ATOM     68  O   UNL A   1      43.896  23.506  35.706  1.00  0.00    -0.744 OA
ENDBRANCH  61  65
ENDBRANCH  35  58
ENDBRANCH   9  10
ENDBRANCH   2   4
ENDBRANCH   1   2
BRANCH   1  69
ATOM     69  C   UNL A   1      31.594  31.220  26.720  1.00  0.00     0.275 C 
BRANCH  69  70
ATOM     70  C   UNL A   1      32.106  30.113  25.795  1.00  0.00     0.275 C 
BRANCH  70  71
ATOM     71  O   UNL A   1      32.866  29.100  26.469  1.00  0.00    -0.458 OA
BRANCH  71  72
ATOM     72  C   UNL A   1      32.153  28.023  26.885  1.00  0.00     0.342 C 
ATOM     73  O   UNL A   1      31.402  27.970  27.851  1.00  0.00    -0.246 OA
BRANCH  72  74
ATOM     74  C   UNL A   1      32.419  26.892  25.985  1.00  0.00     0.103 A 
ATOM     75  C   UNL A   1      33.650  26.226  26.024  1.00  0.00     0.035 A 
ATOM     76  C   UNL A   1      31.437  26.425  25.124  1.00  0.00     0.137 A 
ATOM     77  C   UNL A   1      33.860  25.110  25.198  1.00  0.00     0.019 A 
ATOM     78  C   UNL A   1      31.674  25.354  24.276  1.00  0.00    -0.000 A 
ATOM     79  O   UNL A   1      30.173  26.939  25.001  1.00  0.00    -0.492 OA
ATOM     80  Br  UNL A   1      35.450  24.102  25.376  1.00  0.00    -0.051 Br
ATOM     81  C   UNL A   1      32.884  24.682  24.294  1.00  0.00     0.023 A 
ATOM     82  C   UNL A   1      30.461  25.056  23.485  1.00  0.00     0.081 C 
ATOM     83  C   UNL A   1      29.587  26.246  23.877  1.00  0.00     0.234 C 
ENDBRANCH  72  74
ENDBRANCH  71  72
ENDBRANCH  70  71
ENDBRANCH  69  70
ENDBRANCH   1  69
TORSDOF 14
ENDMDL
