MODEL 1
REMARK VINA RESULT:     -11.6      0.000      0.000
REMARK SMILES C[C@@H](NS(=O)(=O)c1ccc2c(c1)CCC2)C(=O)OCCOC(=O)c1ccc(-c2c3nc(c(-c4cc(S(=O)(=O)[O-])ccc4F)c4ccc([nH]4)c(-c4cc(S(=O)(=O)[O-])ccc4F)c4nc(c(-c5cc(S(=O)(=O)[O-])ccc5F)c5ccc2[nH]5)C=C4)C=C3)cc1
REMARK SMILES IDX 19 1 18 2 16 3 17 4 2 5 1 6 3 7 4 9 5 10 6 11 7 12 8 13
REMARK SMILES IDX 12 14 9 15 11 16 10 17 13 18 15 19 14 20 20 21 21 22 22 23
REMARK SMILES IDX 23 24 24 25 25 26 86 27 26 28 85 29 27 30 28 31 29 32 79 33
REMARK SMILES IDX 30 34 84 35 78 36 80 37 31 38 83 39 77 40 76 41 32 43 64 44
REMARK SMILES IDX 44 45 63 46 45 47 48 48 62 49 81 50 46 51 47 52 61 54 82 55
REMARK SMILES IDX 49 56 33 57 34 58 42 59 35 60 41 61 43 62 40 63 36 64 37 65
REMARK SMILES IDX 38 66 39 67 65 68 66 69 74 70 67 71 73 72 75 73 72 74 68 75
REMARK SMILES IDX 69 76 70 77 71 78 50 79 51 80 59 81 52 82 58 83 60 84 57 85
REMARK SMILES IDX 53 86 54 87 55 88 56 89
REMARK H PARENT 3 8 80 42 48 53
REMARK Flexibility Score: inf
ROOT
ATOM      1  C   UNL A   1      31.643  29.539  24.613  1.00  0.00     0.274 C 
ENDROOT
BRANCH   1   2
ATOM      2  O   UNL A   1      30.403  29.564  23.876  1.00  0.00    -0.461 OA
BRANCH   2   3
ATOM      3  C   UNL A   1      30.382  28.801  22.748  1.00  0.00     0.324 C 
ATOM      4  O   UNL A   1      29.943  29.190  21.673  1.00  0.00    -0.250 OA
BRANCH   3   5
ATOM      5  C   UNL A   1      30.878  27.378  22.958  1.00  0.00     0.176 C 
ATOM      6  C   UNL A   1      29.817  26.481  23.586  1.00  0.00     0.038 C 
BRANCH   5   7
ATOM      7  N   UNL A   1      31.364  26.763  21.697  1.00  0.00    -0.197 NA
ATOM      8  H   UNL A   1      31.213  27.442  20.951  1.00  0.00     0.142 HD
BRANCH   7   9
ATOM      9  S   UNL A   1      32.990  26.280  21.615  1.00  0.00     0.241 S 
ATOM     10  O   UNL A   1      33.121  25.408  20.465  1.00  0.00    -0.207 OA
ATOM     11  O   UNL A   1      33.756  27.495  21.736  1.00  0.00    -0.207 OA
BRANCH   9  12
ATOM     12  C   UNL A   1      33.231  25.354  23.107  1.00  0.00     0.082 A 
ATOM     13  C   UNL A   1      33.909  25.963  24.180  1.00  0.00     0.022 A 
ATOM     14  C   UNL A   1      32.648  24.088  23.236  1.00  0.00     0.025 A 
ATOM     15  C   UNL A   1      33.952  25.335  25.426  1.00  0.00     0.005 A 
ATOM     16  C   UNL A   1      32.641  23.515  24.495  1.00  0.00    -0.043 A 
ATOM     17  C   UNL A   1      33.282  24.130  25.577  1.00  0.00    -0.045 A 
ATOM     18  C   UNL A   1      31.930  22.269  24.926  1.00  0.00     0.036 C 
ATOM     19  C   UNL A   1      33.089  23.325  26.823  1.00  0.00     0.036 C 
ATOM     20  C   UNL A   1      31.855  22.492  26.444  1.00  0.00     0.010 C 
ENDBRANCH   9  12
ENDBRANCH   7   9
ENDBRANCH   5   7
ENDBRANCH   3   5
ENDBRANCH   2   3
ENDBRANCH   1   2
BRANCH   1  21
ATOM     21  C   UNL A   1      31.677  30.467  25.838  1.00  0.00     0.275 C 
BRANCH  21  22
ATOM     22  O   UNL A   1      32.820  30.241  26.686  1.00  0.00    -0.458 OA
BRANCH  22  23
ATOM     23  C   UNL A   1      33.398  31.372  27.166  1.00  0.00     0.338 C 
ATOM     24  O   UNL A   1      32.853  32.460  27.283  1.00  0.00    -0.246 OA
BRANCH  23  25
ATOM     25  C   UNL A   1      34.729  31.081  27.742  1.00  0.00     0.060 A 
ATOM     26  C   UNL A   1      34.979  29.755  28.121  1.00  0.00     0.016 A 
ATOM     27  C   UNL A   1      35.704  32.060  27.941  1.00  0.00     0.016 A 
ATOM     28  C   UNL A   1      36.194  29.401  28.697  1.00  0.00     0.010 A 
ATOM     29  C   UNL A   1      36.919  31.709  28.548  1.00  0.00     0.010 A 
ATOM     30  C   UNL A   1      37.162  30.380  28.942  1.00  0.00    -0.014 A 
BRANCH  30  31
ATOM     31  C   UNL A   1      38.366  30.005  29.723  1.00  0.00     0.031 A 
ATOM     32  C   UNL A   1      39.347  29.035  29.125  1.00  0.00     0.074 A 
ATOM     33  C   UNL A   1      38.625  30.595  30.904  1.00  0.00     0.049 A 
ATOM     34  N   UNL A   1      40.459  28.562  29.627  1.00  0.00    -0.248 NA
ATOM     35  C   UNL A   1      39.034  28.540  27.776  1.00  0.00     0.031 C 
ATOM     36  C   UNL A   1      37.787  31.611  31.540  1.00  0.00     0.029 A 
ATOM     37  N   UNL A   1      39.675  30.435  31.774  1.00  0.00    -0.354 N 
ATOM     38  C   UNL A   1      40.982  27.716  28.655  1.00  0.00     0.074 A 
ATOM     39  C   UNL A   1      40.049  27.717  27.548  1.00  0.00     0.031 C 
ATOM     40  C   UNL A   1      38.354  31.979  32.703  1.00  0.00     0.029 A 
ATOM     41  C   UNL A   1      39.572  31.200  32.913  1.00  0.00     0.049 A 
ATOM     42  H   UNL A   1      40.432  29.828  31.599  1.00  0.00     0.167 HD
ATOM     43  C   UNL A   1      42.138  27.008  28.683  1.00  0.00     0.034 A 
ATOM     44  C   UNL A   1      40.357  31.243  34.008  1.00  0.00     0.034 A 
ATOM     45  C   UNL A   1      43.052  27.006  29.800  1.00  0.00     0.049 A 
ATOM     46  C   UNL A   1      41.589  30.370  34.055  1.00  0.00     0.074 A 
ATOM     47  C   UNL A   1      44.235  26.302  29.947  1.00  0.00     0.029 A 
ATOM     48  N   UNL A   1      42.882  27.742  30.966  1.00  0.00    -0.354 N 
ATOM     49  N   UNL A   1      42.055  29.547  33.143  1.00  0.00    -0.248 NA
ATOM     50  C   UNL A   1      42.402  30.437  35.276  1.00  0.00     0.031 C 
ATOM     51  C   UNL A   1      44.748  26.565  31.223  1.00  0.00     0.029 A 
ATOM     52  C   UNL A   1      43.924  27.488  31.847  1.00  0.00     0.049 A 
ATOM     53  H   UNL A   1      42.131  28.354  31.143  1.00  0.00     0.167 HD
ATOM     54  C   UNL A   1      43.228  29.017  33.676  1.00  0.00     0.074 A 
ATOM     55  C   UNL A   1      43.411  29.634  34.972  1.00  0.00     0.031 C 
ATOM     56  C   UNL A   1      44.079  28.101  33.144  1.00  0.00     0.034 A 
BRANCH  43  57
ATOM     57  C   UNL A   1      42.441  26.134  27.492  1.00  0.00     0.023 A 
ATOM     58  C   UNL A   1      42.002  24.800  27.420  1.00  0.00     0.031 A 
ATOM     59  C   UNL A   1      43.201  26.637  26.423  1.00  0.00     0.131 A 
ATOM     60  C   UNL A   1      42.374  23.999  26.328  1.00  0.00     0.055 A 
ATOM     61  C   UNL A   1      43.510  25.857  25.307  1.00  0.00     0.041 A 
ATOM     62  F   UNL A   1      43.669  27.895  26.449  1.00  0.00    -0.206 F 
ATOM     63  C   UNL A   1      43.105  24.526  25.260  1.00  0.00     0.022 A 
BRANCH  60  64
ATOM     64  S   UNL A   1      41.988  22.227  26.374  1.00  0.00     0.124 S 
ATOM     65  O   UNL A   1      40.538  22.236  26.193  1.00  0.00    -0.237 OA
ATOM     66  O   UNL A   1      42.768  21.703  25.260  1.00  0.00    -0.237 OA
ATOM     67  O   UNL A   1      42.439  21.813  27.701  1.00  0.00    -0.744 OA
ENDBRANCH  60  64
ENDBRANCH  43  57
BRANCH  44  68
ATOM     68  C   UNL A   1      39.984  32.087  35.183  1.00  0.00     0.023 A 
ATOM     69  C   UNL A   1      39.149  31.599  36.202  1.00  0.00     0.031 A 
ATOM     70  C   UNL A   1      40.392  33.431  35.255  1.00  0.00     0.131 A 
ATOM     71  C   UNL A   1      38.704  32.463  37.215  1.00  0.00     0.055 A 
ATOM     72  C   UNL A   1      39.995  34.271  36.298  1.00  0.00     0.041 A 
ATOM     73  F   UNL A   1      41.182  33.955  34.304  1.00  0.00    -0.206 F 
ATOM     74  C   UNL A   1      39.132  33.791  37.278  1.00  0.00     0.022 A 
BRANCH  71  75
ATOM     75  S   UNL A   1      37.459  31.859  38.390  1.00  0.00     0.124 S 
ATOM     76  O   UNL A   1      38.153  32.010  39.663  1.00  0.00    -0.237 OA
ATOM     77  O   UNL A   1      36.348  32.774  38.151  1.00  0.00    -0.237 OA
ATOM     78  O   UNL A   1      37.230  30.480  37.964  1.00  0.00    -0.744 OA
ENDBRANCH  71  75
ENDBRANCH  44  68
BRANCH  56  79
ATOM     79  C   UNL A   1      45.296  27.748  33.965  1.00  0.00     0.023 A 
ATOM     80  C   UNL A   1      45.272  26.703  34.907  1.00  0.00     0.031 A 
ATOM     81  C   UNL A   1      46.483  28.489  33.829  1.00  0.00     0.131 A 
ATOM     82  C   UNL A   1      46.390  26.472  35.722  1.00  0.00     0.055 A 
ATOM     83  C   UNL A   1      47.613  28.215  34.601  1.00  0.00     0.041 A 
ATOM     84  F   UNL A   1      46.562  29.498  32.945  1.00  0.00    -0.206 F 
ATOM     85  C   UNL A   1      47.565  27.212  35.566  1.00  0.00     0.022 A 
BRANCH  82  86
ATOM     86  S   UNL A   1      46.252  25.259  37.063  1.00  0.00     0.124 S 
ATOM     87  O   UNL A   1      45.316  24.290  36.503  1.00  0.00    -0.237 OA
ATOM     88  O   UNL A   1      47.629  24.801  37.215  1.00  0.00    -0.237 OA
ATOM     89  O   UNL A   1      45.734  26.043  38.184  1.00  0.00    -0.744 OA
ENDBRANCH  82  86
ENDBRANCH  56  79
ENDBRANCH  30  31
ENDBRANCH  23  25
ENDBRANCH  22  23
ENDBRANCH  21  22
ENDBRANCH   1  21
TORSDOF 17
ENDMDL
MODEL 2
REMARK VINA RESULT:     -11.5      4.518     10.092
REMARK SMILES C[C@@H](NS(=O)(=O)c1ccc2c(c1)CCC2)C(=O)OCCOC(=O)c1ccc(-c2c3nc(c(-c4cc(S(=O)(=O)[O-])ccc4F)c4ccc([nH]4)c(-c4cc(S(=O)(=O)[O-])ccc4F)c4nc(c(-c5cc(S(=O)(=O)[O-])ccc5F)c5ccc2[nH]5)C=C4)C=C3)cc1
REMARK SMILES IDX 19 1 18 2 16 3 17 4 2 5 1 6 3 7 4 9 5 10 6 11 7 12 8 13
REMARK SMILES IDX 12 14 9 15 11 16 10 17 13 18 15 19 14 20 20 21 21 22 22 23
REMARK SMILES IDX 23 24 24 25 25 26 86 27 26 28 85 29 27 30 28 31 29 32 79 33
REMARK SMILES IDX 30 34 84 35 78 36 80 37 31 38 83 39 77 40 76 41 32 43 64 44
REMARK SMILES IDX 44 45 63 46 45 47 48 48 62 49 81 50 46 51 47 52 61 54 82 55
REMARK SMILES IDX 49 56 33 57 34 58 42 59 35 60 41 61 43 62 40 63 36 64 37 65
REMARK SMILES IDX 38 66 39 67 65 68 66 69 74 70 67 71 73 72 75 73 72 74 68 75
REMARK SMILES IDX 69 76 70 77 71 78 50 79 51 80 59 81 52 82 58 83 60 84 57 85
REMARK SMILES IDX 53 86 54 87 55 88 56 89
REMARK H PARENT 3 8 80 42 48 53
REMARK Flexibility Score: inf
ROOT
ATOM      1  C   UNL A   1      33.308  34.205  28.261  1.00  0.00     0.274 C 
ENDROOT
BRANCH   1   2
ATOM      2  O   UNL A   1      33.037  34.283  29.676  1.00  0.00    -0.461 OA
BRANCH   2   3
ATOM      3  C   UNL A   1      32.917  35.545  30.176  1.00  0.00     0.324 C 
ATOM      4  O   UNL A   1      32.733  36.536  29.481  1.00  0.00    -0.250 OA
BRANCH   3   5
ATOM      5  C   UNL A   1      33.117  35.632  31.681  1.00  0.00     0.176 C 
ATOM      6  C   UNL A   1      31.832  35.996  32.417  1.00  0.00     0.038 C 
BRANCH   5   7
ATOM      7  N   UNL A   1      33.673  34.376  32.246  1.00  0.00    -0.197 NA
ATOM      8  H   UNL A   1      33.965  33.795  31.460  1.00  0.00     0.142 HD
BRANCH   7   9
ATOM      9  S   UNL A   1      34.993  34.489  33.307  1.00  0.00     0.241 S 
ATOM     10  O   UNL A   1      35.107  35.879  33.702  1.00  0.00    -0.207 OA
ATOM     11  O   UNL A   1      34.795  33.440  34.276  1.00  0.00    -0.207 OA
BRANCH   9  12
ATOM     12  C   UNL A   1      36.381  34.028  32.306  1.00  0.00     0.082 A 
ATOM     13  C   UNL A   1      36.147  33.574  30.994  1.00  0.00     0.022 A 
ATOM     14  C   UNL A   1      37.678  34.230  32.788  1.00  0.00     0.025 A 
ATOM     15  C   UNL A   1      37.219  33.381  30.120  1.00  0.00     0.005 A 
ATOM     16  C   UNL A   1      38.721  34.102  31.888  1.00  0.00    -0.043 A 
ATOM     17  C   UNL A   1      38.495  33.685  30.570  1.00  0.00    -0.045 A 
ATOM     18  C   UNL A   1      40.163  34.440  32.107  1.00  0.00     0.036 C 
ATOM     19  C   UNL A   1      39.779  33.669  29.802  1.00  0.00     0.036 C 
ATOM     20  C   UNL A   1      40.643  34.608  30.658  1.00  0.00     0.010 C 
ENDBRANCH   9  12
ENDBRANCH   7   9
ENDBRANCH   5   7
ENDBRANCH   3   5
ENDBRANCH   2   3
ENDBRANCH   1   2
BRANCH   1  21
ATOM     21  C   UNL A   1      34.288  33.092  27.858  1.00  0.00     0.275 C 
BRANCH  21  22
ATOM     22  O   UNL A   1      33.955  31.811  28.428  1.00  0.00    -0.458 OA
BRANCH  22  23
ATOM     23  C   UNL A   1      34.492  30.748  27.778  1.00  0.00     0.338 C 
ATOM     24  O   UNL A   1      34.106  30.292  26.711  1.00  0.00    -0.246 OA
BRANCH  23  25
ATOM     25  C   UNL A   1      35.756  30.321  28.417  1.00  0.00     0.060 A 
ATOM     26  C   UNL A   1      36.934  30.522  27.685  1.00  0.00     0.016 A 
ATOM     27  C   UNL A   1      35.809  29.717  29.674  1.00  0.00     0.016 A 
ATOM     28  C   UNL A   1      38.163  30.123  28.199  1.00  0.00     0.010 A 
ATOM     29  C   UNL A   1      37.045  29.289  30.181  1.00  0.00     0.010 A 
ATOM     30  C   UNL A   1      38.225  29.477  29.438  1.00  0.00    -0.014 A 
BRANCH  30  31
ATOM     31  C   UNL A   1      39.521  28.900  29.872  1.00  0.00     0.031 A 
ATOM     32  C   UNL A   1      40.212  29.487  31.071  1.00  0.00     0.074 A 
ATOM     33  C   UNL A   1      40.022  27.811  29.262  1.00  0.00     0.049 A 
ATOM     34  N   UNL A   1      41.349  29.150  31.623  1.00  0.00    -0.248 NA
ATOM     35  C   UNL A   1      39.521  30.600  31.743  1.00  0.00     0.031 C 
ATOM     36  C   UNL A   1      39.395  27.108  28.143  1.00  0.00     0.029 A 
ATOM     37  N   UNL A   1      41.168  27.096  29.507  1.00  0.00    -0.354 N 
ATOM     38  C   UNL A   1      41.510  30.005  32.709  1.00  0.00     0.074 A 
ATOM     39  C   UNL A   1      40.370  30.895  32.717  1.00  0.00     0.031 C 
ATOM     40  C   UNL A   1      40.169  26.065  27.794  1.00  0.00     0.029 A 
ATOM     41  C   UNL A   1      41.362  26.047  28.637  1.00  0.00     0.049 A 
ATOM     42  H   UNL A   1      41.793  27.313  30.237  1.00  0.00     0.167 HD
ATOM     43  C   UNL A   1      42.516  30.037  33.618  1.00  0.00     0.034 A 
ATOM     44  C   UNL A   1      42.398  25.191  28.520  1.00  0.00     0.034 A 
ATOM     45  C   UNL A   1      43.654  29.150  33.587  1.00  0.00     0.049 A 
ATOM     46  C   UNL A   1      43.553  25.312  29.486  1.00  0.00     0.074 A 
ATOM     47  C   UNL A   1      44.746  29.116  34.439  1.00  0.00     0.029 A 
ATOM     48  N   UNL A   1      43.852  28.142  32.652  1.00  0.00    -0.354 N 
ATOM     49  N   UNL A   1      43.711  26.148  30.488  1.00  0.00    -0.248 NA
ATOM     50  C   UNL A   1      44.666  24.371  29.308  1.00  0.00     0.031 C 
ATOM     51  C   UNL A   1      45.629  28.130  33.984  1.00  0.00     0.029 A 
ATOM     52  C   UNL A   1      45.059  27.499  32.890  1.00  0.00     0.049 A 
ATOM     53  H   UNL A   1      43.227  27.917  31.925  1.00  0.00     0.167 HD
ATOM     54  C   UNL A   1      44.932  25.814  31.071  1.00  0.00     0.074 A 
ATOM     55  C   UNL A   1      45.453  24.687  30.327  1.00  0.00     0.031 C 
ATOM     56  C   UNL A   1      45.569  26.387  32.125  1.00  0.00     0.034 A 
BRANCH  43  57
ATOM     57  C   UNL A   1      42.452  31.105  34.680  1.00  0.00     0.023 A 
ATOM     58  C   UNL A   1      42.897  32.417  34.440  1.00  0.00     0.031 A 
ATOM     59  C   UNL A   1      41.960  30.799  35.960  1.00  0.00     0.131 A 
ATOM     60  C   UNL A   1      42.892  33.359  35.482  1.00  0.00     0.055 A 
ATOM     61  C   UNL A   1      41.893  31.757  36.973  1.00  0.00     0.041 A 
ATOM     62  F   UNL A   1      41.547  29.555  36.253  1.00  0.00    -0.206 F 
ATOM     63  C   UNL A   1      42.370  33.044  36.739  1.00  0.00     0.022 A 
BRANCH  60  64
ATOM     64  S   UNL A   1      43.680  34.969  35.206  1.00  0.00     0.124 S 
ATOM     65  O   UNL A   1      42.979  35.811  36.173  1.00  0.00    -0.237 OA
ATOM     66  O   UNL A   1      45.081  34.691  35.498  1.00  0.00    -0.237 OA
ATOM     67  O   UNL A   1      43.381  35.262  33.806  1.00  0.00    -0.744 OA
ENDBRANCH  60  64
ENDBRANCH  43  57
BRANCH  44  68
ATOM     68  C   UNL A   1      42.437  24.185  27.417  1.00  0.00     0.023 A 
ATOM     69  C   UNL A   1      41.824  22.928  27.548  1.00  0.00     0.031 A 
ATOM     70  C   UNL A   1      43.168  24.440  26.243  1.00  0.00     0.131 A 
ATOM     71  C   UNL A   1      42.002  21.956  26.551  1.00  0.00     0.055 A 
ATOM     72  C   UNL A   1      43.291  23.492  25.226  1.00  0.00     0.041 A 
ATOM     73  F   UNL A   1      43.782  25.621  26.067  1.00  0.00    -0.206 F 
ATOM     74  C   UNL A   1      42.720  22.233  25.386  1.00  0.00     0.022 A 
BRANCH  71  75
ATOM     75  S   UNL A   1      41.381  20.277  26.851  1.00  0.00     0.124 S 
ATOM     76  O   UNL A   1      40.359  20.148  25.819  1.00  0.00    -0.237 OA
ATOM     77  O   UNL A   1      42.583  19.472  26.668  1.00  0.00    -0.237 OA
ATOM     78  O   UNL A   1      40.878  20.340  28.222  1.00  0.00    -0.744 OA
ENDBRANCH  71  75
ENDBRANCH  44  68
BRANCH  56  79
ATOM     79  C   UNL A   1      46.883  25.770  32.541  1.00  0.00     0.023 A 
ATOM     80  C   UNL A   1      48.079  26.051  31.856  1.00  0.00     0.031 A 
ATOM     81  C   UNL A   1      46.932  24.863  33.614  1.00  0.00     0.131 A 
ATOM     82  C   UNL A   1      49.260  25.381  32.208  1.00  0.00     0.055 A 
ATOM     83  C   UNL A   1      48.123  24.245  33.999  1.00  0.00     0.041 A 
ATOM     84  F   UNL A   1      45.820  24.559  34.304  1.00  0.00    -0.206 F 
ATOM     85  C   UNL A   1      49.292  24.490  33.284  1.00  0.00     0.022 A 
BRANCH  82  86
ATOM     86  S   UNL A   1      50.731  25.610  31.173  1.00  0.00     0.124 S 
ATOM     87  O   UNL A   1      50.332  24.962  29.928  1.00  0.00    -0.237 OA
ATOM     88  O   UNL A   1      50.857  27.062  31.125  1.00  0.00    -0.237 OA
ATOM     89  O   UNL A   1      51.785  24.922  31.918  1.00  0.00    -0.744 OA
ENDBRANCH  82  86
ENDBRANCH  56  79
ENDBRANCH  30  31
ENDBRANCH  23  25
ENDBRANCH  22  23
ENDBRANCH  21  22
ENDBRANCH   1  21
TORSDOF 17
ENDMDL
MODEL 3
REMARK VINA RESULT:     -11.4      5.158      7.711
REMARK SMILES C[C@@H](NS(=O)(=O)c1ccc2c(c1)CCC2)C(=O)OCCOC(=O)c1ccc(-c2c3nc(c(-c4cc(S(=O)(=O)[O-])ccc4F)c4ccc([nH]4)c(-c4cc(S(=O)(=O)[O-])ccc4F)c4nc(c(-c5cc(S(=O)(=O)[O-])ccc5F)c5ccc2[nH]5)C=C4)C=C3)cc1
REMARK SMILES IDX 19 1 18 2 16 3 17 4 2 5 1 6 3 7 4 9 5 10 6 11 7 12 8 13
REMARK SMILES IDX 12 14 9 15 11 16 10 17 13 18 15 19 14 20 20 21 21 22 22 23
REMARK SMILES IDX 23 24 24 25 25 26 86 27 26 28 85 29 27 30 28 31 29 32 79 33
REMARK SMILES IDX 30 34 84 35 78 36 80 37 31 38 83 39 77 40 76 41 32 43 64 44
REMARK SMILES IDX 44 45 63 46 45 47 48 48 62 49 81 50 46 51 47 52 61 54 82 55
REMARK SMILES IDX 49 56 33 57 34 58 42 59 35 60 41 61 43 62 40 63 36 64 37 65
REMARK SMILES IDX 38 66 39 67 65 68 66 69 74 70 67 71 73 72 75 73 72 74 68 75
REMARK SMILES IDX 69 76 70 77 71 78 50 79 51 80 59 81 52 82 58 83 60 84 57 85
REMARK SMILES IDX 53 86 54 87 55 88 56 89
REMARK H PARENT 3 8 80 42 48 53
REMARK Flexibility Score: inf
ROOT
ATOM      1  C   UNL A   1      35.997  20.527  25.132  1.00  0.00     0.274 C 
ENDROOT
BRANCH   1   2
ATOM      2  O   UNL A   1      35.779  21.507  26.167  1.00  0.00    -0.461 OA
BRANCH   2   3
ATOM      3  C   UNL A   1      34.472  21.791  26.431  1.00  0.00     0.324 C 
ATOM      4  O   UNL A   1      33.639  20.943  26.726  1.00  0.00    -0.250 OA
BRANCH   3   5
ATOM      5  C   UNL A   1      34.110  23.257  26.242  1.00  0.00     0.176 C 
ATOM      6  C   UNL A   1      35.285  24.082  25.727  1.00  0.00     0.038 C 
BRANCH   5   7
ATOM      7  N   UNL A   1      32.945  23.435  25.340  1.00  0.00    -0.197 NA
ATOM      8  H   UNL A   1      32.718  22.517  24.956  1.00  0.00     0.142 HD
BRANCH   7   9
ATOM      9  S   UNL A   1      31.515  24.076  25.993  1.00  0.00     0.241 S 
ATOM     10  O   UNL A   1      30.411  23.507  25.247  1.00  0.00    -0.207 OA
ATOM     11  O   UNL A   1      31.636  23.902  27.419  1.00  0.00    -0.207 OA
BRANCH   9  12
ATOM     12  C   UNL A   1      31.640  25.812  25.660  1.00  0.00     0.082 A 
ATOM     13  C   UNL A   1      30.829  26.368  24.653  1.00  0.00     0.022 A 
ATOM     14  C   UNL A   1      32.449  26.614  26.472  1.00  0.00     0.025 A 
ATOM     15  C   UNL A   1      30.766  27.754  24.492  1.00  0.00     0.005 A 
ATOM     16  C   UNL A   1      32.320  27.986  26.344  1.00  0.00    -0.043 A 
ATOM     17  C   UNL A   1      31.488  28.550  25.369  1.00  0.00    -0.045 A 
ATOM     18  C   UNL A   1      32.929  29.045  27.211  1.00  0.00     0.036 C 
ATOM     19  C   UNL A   1      31.500  30.042  25.473  1.00  0.00     0.036 C 
ATOM     20  C   UNL A   1      31.998  30.230  26.914  1.00  0.00     0.010 C 
ENDBRANCH   9  12
ENDBRANCH   7   9
ENDBRANCH   5   7
ENDBRANCH   3   5
ENDBRANCH   2   3
ENDBRANCH   1   2
BRANCH   1  21
ATOM     21  C   UNL A   1      37.476  20.245  24.820  1.00  0.00     0.275 C 
BRANCH  21  22
ATOM     22  O   UNL A   1      38.340  21.356  25.127  1.00  0.00    -0.458 OA
BRANCH  22  23
ATOM     23  C   UNL A   1      39.276  21.097  26.076  1.00  0.00     0.338 C 
ATOM     24  O   UNL A   1      39.775  20.006  26.310  1.00  0.00    -0.246 OA
BRANCH  23  25
ATOM     25  C   UNL A   1      39.790  22.352  26.668  1.00  0.00     0.060 A 
ATOM     26  C   UNL A   1      39.163  23.541  26.273  1.00  0.00     0.016 A 
ATOM     27  C   UNL A   1      40.866  22.391  27.556  1.00  0.00     0.016 A 
ATOM     28  C   UNL A   1      39.602  24.768  26.759  1.00  0.00     0.010 A 
ATOM     29  C   UNL A   1      41.328  23.630  28.024  1.00  0.00     0.010 A 
ATOM     30  C   UNL A   1      40.706  24.825  27.615  1.00  0.00    -0.014 A 
BRANCH  30  31
ATOM     31  C   UNL A   1      41.262  26.154  27.966  1.00  0.00     0.031 A 
ATOM     32  C   UNL A   1      42.670  26.484  27.552  1.00  0.00     0.074 A 
ATOM     33  C   UNL A   1      40.491  27.083  28.558  1.00  0.00     0.049 A 
ATOM     34  N   UNL A   1      43.361  27.576  27.755  1.00  0.00    -0.248 NA
ATOM     35  C   UNL A   1      43.390  25.444  26.801  1.00  0.00     0.031 C 
ATOM     36  C   UNL A   1      39.087  26.902  28.928  1.00  0.00     0.029 A 
ATOM     37  N   UNL A   1      40.774  28.370  28.941  1.00  0.00    -0.354 N 
ATOM     38  C   UNL A   1      44.597  27.358  27.155  1.00  0.00     0.074 A 
ATOM     39  C   UNL A   1      44.569  26.018  26.608  1.00  0.00     0.031 C 
ATOM     40  C   UNL A   1      38.634  28.037  29.491  1.00  0.00     0.029 A 
ATOM     41  C   UNL A   1      39.722  29.009  29.556  1.00  0.00     0.049 A 
ATOM     42  H   UNL A   1      41.649  28.797  28.790  1.00  0.00     0.167 HD
ATOM     43  C   UNL A   1      45.654  28.203  27.064  1.00  0.00     0.034 A 
ATOM     44  C   UNL A   1      39.656  30.228  30.129  1.00  0.00     0.034 A 
ATOM     45  C   UNL A   1      45.671  29.531  27.627  1.00  0.00     0.049 A 
ATOM     46  C   UNL A   1      40.881  31.112  30.100  1.00  0.00     0.074 A 
ATOM     47  C   UNL A   1      46.699  30.459  27.621  1.00  0.00     0.029 A 
ATOM     48  N   UNL A   1      44.610  30.122  28.302  1.00  0.00    -0.354 N 
ATOM     49  N   UNL A   1      42.056  30.881  29.559  1.00  0.00    -0.248 NA
ATOM     50  C   UNL A   1      40.768  32.423  30.753  1.00  0.00     0.031 C 
ATOM     51  C   UNL A   1      46.281  31.583  28.342  1.00  0.00     0.029 A 
ATOM     52  C   UNL A   1      44.968  31.389  28.740  1.00  0.00     0.049 A 
ATOM     53  H   UNL A   1      43.732  29.702  28.450  1.00  0.00     0.167 HD
ATOM     54  C   UNL A   1      42.811  32.029  29.789  1.00  0.00     0.074 A 
ATOM     55  C   UNL A   1      41.951  32.958  30.492  1.00  0.00     0.031 C 
ATOM     56  C   UNL A   1      44.101  32.294  29.454  1.00  0.00     0.034 A 
BRANCH  43  57
ATOM     57  C   UNL A   1      46.894  27.684  26.381  1.00  0.00     0.023 A 
ATOM     58  C   UNL A   1      47.173  27.969  25.033  1.00  0.00     0.031 A 
ATOM     59  C   UNL A   1      47.800  26.872  27.085  1.00  0.00     0.131 A 
ATOM     60  C   UNL A   1      48.300  27.400  24.416  1.00  0.00     0.055 A 
ATOM     61  C   UNL A   1      48.954  26.365  26.486  1.00  0.00     0.041 A 
ATOM     62  F   UNL A   1      47.571  26.546  28.368  1.00  0.00    -0.206 F 
ATOM     63  C   UNL A   1      49.204  26.620  25.141  1.00  0.00     0.022 A 
BRANCH  60  64
ATOM     64  S   UNL A   1      48.507  27.598  22.625  1.00  0.00     0.124 S 
ATOM     65  O   UNL A   1      48.519  26.209  22.174  1.00  0.00    -0.237 OA
ATOM     66  O   UNL A   1      47.336  28.381  22.254  1.00  0.00    -0.237 OA
ATOM     67  O   UNL A   1      49.787  28.294  22.504  1.00  0.00    -0.744 OA
ENDBRANCH  60  64
ENDBRANCH  43  57
BRANCH  44  68
ATOM     68  C   UNL A   1      38.420  30.673  30.839  1.00  0.00     0.023 A 
ATOM     69  C   UNL A   1      37.382  31.334  30.161  1.00  0.00     0.031 A 
ATOM     70  C   UNL A   1      38.300  30.518  32.232  1.00  0.00     0.131 A 
ATOM     71  C   UNL A   1      36.301  31.864  30.883  1.00  0.00     0.055 A 
ATOM     72  C   UNL A   1      37.194  30.994  32.938  1.00  0.00     0.041 A 
ATOM     73  F   UNL A   1      39.266  29.903  32.933  1.00  0.00    -0.206 F 
ATOM     74  C   UNL A   1      36.193  31.687  32.265  1.00  0.00     0.022 A 
BRANCH  71  75
ATOM     75  S   UNL A   1      35.091  32.896  30.008  1.00  0.00     0.124 S 
ATOM     76  O   UNL A   1      34.597  31.976  28.989  1.00  0.00    -0.237 OA
ATOM     77  O   UNL A   1      34.155  33.235  31.074  1.00  0.00    -0.237 OA
ATOM     78  O   UNL A   1      35.893  34.010  29.507  1.00  0.00    -0.744 OA
ENDBRANCH  71  75
ENDBRANCH  44  68
BRANCH  56  79
ATOM     79  C   UNL A   1      44.632  33.659  29.823  1.00  0.00     0.023 A 
ATOM     80  C   UNL A   1      44.519  34.754  28.948  1.00  0.00     0.031 A 
ATOM     81  C   UNL A   1      45.290  33.856  31.049  1.00  0.00     0.131 A 
ATOM     82  C   UNL A   1      45.114  35.980  29.282  1.00  0.00     0.055 A 
ATOM     83  C   UNL A   1      45.827  35.095  31.404  1.00  0.00     0.041 A 
ATOM     84  F   UNL A   1      45.426  32.845  31.923  1.00  0.00    -0.206 F 
ATOM     85  C   UNL A   1      45.755  36.161  30.511  1.00  0.00     0.022 A 
BRANCH  82  86
ATOM     86  S   UNL A   1      45.130  37.306  28.045  1.00  0.00     0.124 S 
ATOM     87  O   UNL A   1      43.919  38.048  28.378  1.00  0.00    -0.237 OA
ATOM     88  O   UNL A   1      46.391  37.983  28.329  1.00  0.00    -0.237 OA
ATOM     89  O   UNL A   1      45.087  36.587  26.772  1.00  0.00    -0.744 OA
ENDBRANCH  82  86
ENDBRANCH  56  79
ENDBRANCH  30  31
ENDBRANCH  23  25
ENDBRANCH  22  23
ENDBRANCH  21  22
ENDBRANCH   1  21
TORSDOF 17
ENDMDL
