MODEL 1
REMARK VINA RESULT:     -11.6      0.000      0.000
REMARK SMILES O=C(COc1cc(-c2ccccc2)nc(NCc2ccc(Cl)c(Cl)c2)n1)OCCOC(=O)c1ccc(-c2c3nc(c(-c4cc(S(=O)(=O)[O-])ccc4F)c4ccc([nH]4)c(-c4cc(S(=O)(=O)[O-])ccc4F)c4nc(c(-c5cc(S(=O)(=O)[O-])ccc5F)c5ccc2[nH]5)C=C4)C=C3)cc1
REMARK SMILES IDX 28 1 27 2 2 3 1 4 3 5 4 6 5 7 6 8 26 9 7 10 15 11 14 12 8 13
REMARK SMILES IDX 9 14 13 15 10 16 12 17 11 18 16 19 17 21 18 22 19 23 25 24
REMARK SMILES IDX 20 25 23 26 21 27 24 28 22 29 29 30 30 31 31 32 32 33 33 34
REMARK SMILES IDX 34 35 95 36 35 37 94 38 36 39 37 40 38 41 88 42 39 43 93 44
REMARK SMILES IDX 87 45 89 46 40 47 92 48 86 49 85 50 41 52 73 53 53 54 72 55
REMARK SMILES IDX 54 56 57 57 71 58 90 59 55 60 56 61 70 63 91 64 58 65 42 66
REMARK SMILES IDX 43 67 51 68 44 69 50 70 52 71 49 72 45 73 46 74 47 75 48 76
REMARK SMILES IDX 74 77 75 78 83 79 76 80 82 81 84 82 81 83 77 84 78 85 79 86
REMARK SMILES IDX 80 87 59 88 60 89 68 90 61 91 67 92 69 93 66 94 62 95 63 96
REMARK SMILES IDX 64 97 65 98
REMARK H PARENT 16 20 89 51 57 62
REMARK Flexibility Score: inf
ROOT
ATOM      1  C   UNL A   1      37.692  20.668  25.171  1.00  0.00     0.274 C 
ENDROOT
BRANCH   1   2
ATOM      2  O   UNL A   1      38.240  21.990  25.351  1.00  0.00    -0.460 OA
BRANCH   2   3
ATOM      3  C   UNL A   1      37.480  23.079  25.627  1.00  0.00     0.344 C 
ATOM      4  O   UNL A   1      37.890  23.946  26.395  1.00  0.00    -0.248 OA
BRANCH   3   5
ATOM      5  C   UNL A   1      36.170  23.247  24.873  1.00  0.00     0.353 C 
BRANCH   5   6
ATOM      6  O   UNL A   1      35.131  23.692  25.740  1.00  0.00    -0.466 OA
BRANCH   6   7
ATOM      7  C   UNL A   1      33.973  23.028  25.444  1.00  0.00     0.219 A 
ATOM      8  C   UNL A   1      33.978  21.678  25.232  1.00  0.00     0.097 A 
ATOM      9  N   UNL A   1      32.887  23.795  25.379  1.00  0.00    -0.177 NA
ATOM     10  C   UNL A   1      32.776  21.127  24.860  1.00  0.00     0.080 A 
ATOM     11  C   UNL A   1      31.752  23.185  25.033  1.00  0.00     0.226 A 
ATOM     12  N   UNL A   1      31.654  21.873  24.755  1.00  0.00    -0.213 NA
BRANCH  10  13
ATOM     13  C   UNL A   1      32.703  19.697  24.522  1.00  0.00     0.000 A 
ATOM     14  C   UNL A   1      32.479  19.263  23.207  1.00  0.00     0.010 A 
ATOM     15  C   UNL A   1      32.974  18.718  25.500  1.00  0.00     0.010 A 
ATOM     16  C   UNL A   1      32.566  17.906  22.875  1.00  0.00     0.001 A 
ATOM     17  C   UNL A   1      33.060  17.365  25.171  1.00  0.00     0.001 A 
ATOM     18  C   UNL A   1      32.864  16.960  23.855  1.00  0.00     0.000 A 
ENDBRANCH  10  13
BRANCH  11  19
ATOM     19  N   UNL A   1      30.610  23.925  24.930  1.00  0.00    -0.350 N 
ATOM     20  H   UNL A   1      29.997  23.760  24.179  1.00  0.00     0.164 HD
BRANCH  19  21
ATOM     21  C   UNL A   1      30.283  24.944  25.900  1.00  0.00     0.152 C 
BRANCH  21  22
ATOM     22  C   UNL A   1      30.146  26.244  25.148  1.00  0.00    -0.027 A 
ATOM     23  C   UNL A   1      29.114  26.440  24.226  1.00  0.00     0.007 A 
ATOM     24  C   UNL A   1      31.164  27.207  25.259  1.00  0.00     0.027 A 
ATOM     25  C   UNL A   1      29.157  27.530  23.358  1.00  0.00     0.022 A 
ATOM     26  C   UNL A   1      31.221  28.285  24.377  1.00  0.00     0.060 A 
ATOM     27  C   UNL A   1      30.239  28.417  23.395  1.00  0.00     0.059 A 
ATOM     28  Cl  UNL A   1      32.577  29.344  24.505  1.00  0.00    -0.083 Cl
ATOM     29  Cl  UNL A   1      30.359  29.552  22.109  1.00  0.00    -0.083 Cl
ENDBRANCH  21  22
ENDBRANCH  19  21
ENDBRANCH  11  19
ENDBRANCH   6   7
ENDBRANCH   5   6
ENDBRANCH   3   5
ENDBRANCH   2   3
ENDBRANCH   1   2
BRANCH   1  30
ATOM     30  C   UNL A   1      38.793  19.609  25.259  1.00  0.00     0.275 C 
BRANCH  30  31
ATOM     31  O   UNL A   1      39.574  19.804  26.453  1.00  0.00    -0.458 OA
BRANCH  31  32
ATOM     32  C   UNL A   1      40.922  19.887  26.279  1.00  0.00     0.338 C 
ATOM     33  O   UNL A   1      41.630  19.070  25.729  1.00  0.00    -0.246 OA
BRANCH  32  34
ATOM     34  C   UNL A   1      41.361  21.247  26.679  1.00  0.00     0.060 A 
ATOM     35  C   UNL A   1      41.407  22.253  25.706  1.00  0.00     0.016 A 
ATOM     36  C   UNL A   1      41.689  21.540  28.006  1.00  0.00     0.016 A 
ATOM     37  C   UNL A   1      41.790  23.553  26.057  1.00  0.00     0.010 A 
ATOM     38  C   UNL A   1      42.084  22.835  28.352  1.00  0.00     0.010 A 
ATOM     39  C   UNL A   1      42.150  23.847  27.379  1.00  0.00    -0.014 A 
BRANCH  39  40
ATOM     40  C   UNL A   1      42.723  25.169  27.742  1.00  0.00     0.031 A 
ATOM     41  C   UNL A   1      41.823  26.196  28.374  1.00  0.00     0.074 A 
ATOM     42  C   UNL A   1      43.998  25.480  27.446  1.00  0.00     0.049 A 
ATOM     43  N   UNL A   1      42.068  27.446  28.671  1.00  0.00    -0.248 NA
ATOM     44  C   UNL A   1      40.455  25.758  28.689  1.00  0.00     0.031 C 
ATOM     45  C   UNL A   1      44.965  24.581  26.817  1.00  0.00     0.029 A 
ATOM     46  N   UNL A   1      44.693  26.656  27.610  1.00  0.00    -0.354 N 
ATOM     47  C   UNL A   1      40.879  27.954  29.181  1.00  0.00     0.074 A 
ATOM     48  C   UNL A   1      39.912  26.877  29.146  1.00  0.00     0.031 C 
ATOM     49  C   UNL A   1      46.121  25.247  26.630  1.00  0.00     0.029 A 
ATOM     50  C   UNL A   1      45.972  26.621  27.104  1.00  0.00     0.049 A 
ATOM     51  H   UNL A   1      44.309  27.449  28.048  1.00  0.00     0.167 HD
ATOM     52  C   UNL A   1      40.615  29.206  29.628  1.00  0.00     0.034 A 
ATOM     53  C   UNL A   1      46.903  27.594  27.010  1.00  0.00     0.034 A 
ATOM     54  C   UNL A   1      41.580  30.275  29.661  1.00  0.00     0.049 A 
ATOM     55  C   UNL A   1      46.570  28.987  27.503  1.00  0.00     0.074 A 
ATOM     56  C   UNL A   1      41.428  31.557  30.163  1.00  0.00     0.029 A 
ATOM     57  N   UNL A   1      42.869  30.200  29.152  1.00  0.00    -0.354 N 
ATOM     58  N   UNL A   1      45.463  29.431  28.051  1.00  0.00    -0.248 NA
ATOM     59  C   UNL A   1      47.615  30.014  27.354  1.00  0.00     0.031 C 
ATOM     60  C   UNL A   1      42.595  32.278  29.888  1.00  0.00     0.029 A 
ATOM     61  C   UNL A   1      43.502  31.426  29.281  1.00  0.00     0.049 A 
ATOM     62  H   UNL A   1      43.274  29.393  28.758  1.00  0.00     0.167 HD
ATOM     63  C   UNL A   1      45.688  30.781  28.318  1.00  0.00     0.074 A 
ATOM     64  C   UNL A   1      47.043  31.070  27.907  1.00  0.00     0.031 C 
ATOM     65  C   UNL A   1      44.847  31.705  28.847  1.00  0.00     0.034 A 
BRANCH  52  66
ATOM     66  C   UNL A   1      39.203  29.509  30.057  1.00  0.00     0.023 A 
ATOM     67  C   UNL A   1      38.308  30.209  29.231  1.00  0.00     0.031 A 
ATOM     68  C   UNL A   1      38.750  29.087  31.320  1.00  0.00     0.131 A 
ATOM     69  C   UNL A   1      37.023  30.516  29.701  1.00  0.00     0.055 A 
ATOM     70  C   UNL A   1      37.447  29.336  31.753  1.00  0.00     0.041 A 
ATOM     71  F   UNL A   1      39.571  28.434  32.157  1.00  0.00    -0.206 F 
ATOM     72  C   UNL A   1      36.578  30.063  30.947  1.00  0.00     0.022 A 
BRANCH  69  73
ATOM     73  S   UNL A   1      35.976  31.614  28.710  1.00  0.00     0.124 S 
ATOM     74  O   UNL A   1      34.844  31.834  29.607  1.00  0.00    -0.237 OA
ATOM     75  O   UNL A   1      36.846  32.763  28.485  1.00  0.00    -0.237 OA
ATOM     76  O   UNL A   1      35.674  30.820  27.521  1.00  0.00    -0.744 OA
ENDBRANCH  69  73
ENDBRANCH  52  66
BRANCH  53  77
ATOM     77  C   UNL A   1      48.227  27.349  26.365  1.00  0.00     0.023 A 
ATOM     78  C   UNL A   1      48.405  27.575  24.990  1.00  0.00     0.031 A 
ATOM     79  C   UNL A   1      49.274  26.735  27.074  1.00  0.00     0.131 A 
ATOM     80  C   UNL A   1      49.553  27.089  24.347  1.00  0.00     0.055 A 
ATOM     81  C   UNL A   1      50.452  26.329  26.444  1.00  0.00     0.041 A 
ATOM     82  F   UNL A   1      49.154  26.491  28.389  1.00  0.00    -0.206 F 
ATOM     83  C   UNL A   1      50.586  26.484  25.067  1.00  0.00     0.022 A 
BRANCH  80  84
ATOM     84  S   UNL A   1      49.621  27.135  22.531  1.00  0.00     0.124 S 
ATOM     85  O   UNL A   1      49.125  28.481  22.263  1.00  0.00    -0.237 OA
ATOM     86  O   UNL A   1      51.036  26.915  22.257  1.00  0.00    -0.237 OA
ATOM     87  O   UNL A   1      48.725  26.051  22.133  1.00  0.00    -0.744 OA
ENDBRANCH  80  84
ENDBRANCH  53  77
BRANCH  65  88
ATOM     88  C   UNL A   1      45.385  33.105  29.019  1.00  0.00     0.023 A 
ATOM     89  C   UNL A   1      45.272  34.067  27.999  1.00  0.00     0.031 A 
ATOM     90  C   UNL A   1      46.021  33.480  30.216  1.00  0.00     0.131 A 
ATOM     91  C   UNL A   1      45.828  35.343  28.177  1.00  0.00     0.055 A 
ATOM     92  C   UNL A   1      46.525  34.767  30.406  1.00  0.00     0.041 A 
ATOM     93  F   UNL A   1      46.156  32.602  31.221  1.00  0.00    -0.206 F 
ATOM     94  C   UNL A   1      46.440  35.703  29.380  1.00  0.00     0.022 A 
BRANCH  91  95
ATOM     95  S   UNL A   1      45.792  36.514  26.790  1.00  0.00     0.124 S 
ATOM     96  O   UNL A   1      44.417  36.997  26.834  1.00  0.00    -0.237 OA
ATOM     97  O   UNL A   1      46.820  37.479  27.169  1.00  0.00    -0.237 OA
ATOM     98  O   UNL A   1      46.123  35.684  25.633  1.00  0.00    -0.744 OA
ENDBRANCH  91  95
ENDBRANCH  65  88
ENDBRANCH  39  40
ENDBRANCH  32  34
ENDBRANCH  31  32
ENDBRANCH  30  31
ENDBRANCH   1  30
TORSDOF 20
ENDMDL
MODEL 2
REMARK VINA RESULT:     -11.5      2.082      4.409
REMARK SMILES O=C(COc1cc(-c2ccccc2)nc(NCc2ccc(Cl)c(Cl)c2)n1)OCCOC(=O)c1ccc(-c2c3nc(c(-c4cc(S(=O)(=O)[O-])ccc4F)c4ccc([nH]4)c(-c4cc(S(=O)(=O)[O-])ccc4F)c4nc(c(-c5cc(S(=O)(=O)[O-])ccc5F)c5ccc2[nH]5)C=C4)C=C3)cc1
REMARK SMILES IDX 28 1 27 2 2 3 1 4 3 5 4 6 5 7 6 8 26 9 7 10 15 11 14 12 8 13
REMARK SMILES IDX 9 14 13 15 10 16 12 17 11 18 16 19 17 21 18 22 19 23 25 24
REMARK SMILES IDX 20 25 23 26 21 27 24 28 22 29 29 30 30 31 31 32 32 33 33 34
REMARK SMILES IDX 34 35 95 36 35 37 94 38 36 39 37 40 38 41 88 42 39 43 93 44
REMARK SMILES IDX 87 45 89 46 40 47 92 48 86 49 85 50 41 52 73 53 53 54 72 55
REMARK SMILES IDX 54 56 57 57 71 58 90 59 55 60 56 61 70 63 91 64 58 65 42 66
REMARK SMILES IDX 43 67 51 68 44 69 50 70 52 71 49 72 45 73 46 74 47 75 48 76
REMARK SMILES IDX 74 77 75 78 83 79 76 80 82 81 84 82 81 83 77 84 78 85 79 86
REMARK SMILES IDX 80 87 59 88 60 89 68 90 61 91 67 92 69 93 66 94 62 95 63 96
REMARK SMILES IDX 64 97 65 98
REMARK H PARENT 16 20 89 51 57 62
REMARK Flexibility Score: inf
ROOT
ATOM      1  C   UNL A   1      36.300  23.131  24.042  1.00  0.00     0.274 C 
ENDROOT
BRANCH   1   2
ATOM      2  O   UNL A   1      35.538  22.934  22.833  1.00  0.00    -0.460 OA
BRANCH   2   3
ATOM      3  C   UNL A   1      34.453  23.679  22.508  1.00  0.00     0.344 C 
ATOM      4  O   UNL A   1      33.691  23.313  21.616  1.00  0.00    -0.248 OA
BRANCH   3   5
ATOM      5  C   UNL A   1      34.150  24.908  23.352  1.00  0.00     0.353 C 
BRANCH   5   6
ATOM      6  O   UNL A   1      33.385  25.859  22.617  1.00  0.00    -0.466 OA
BRANCH   6   7
ATOM      7  C   UNL A   1      32.155  26.002  23.199  1.00  0.00     0.219 A 
ATOM      8  C   UNL A   1      31.388  27.104  22.944  1.00  0.00     0.097 A 
ATOM      9  N   UNL A   1      31.797  25.009  24.008  1.00  0.00    -0.177 NA
ATOM     10  C   UNL A   1      30.209  27.186  23.644  1.00  0.00     0.080 A 
ATOM     11  C   UNL A   1      30.628  25.149  24.635  1.00  0.00     0.226 A 
ATOM     12  N   UNL A   1      29.819  26.213  24.496  1.00  0.00    -0.213 NA
BRANCH  10  13
ATOM     13  C   UNL A   1      29.360  28.379  23.504  1.00  0.00     0.000 A 
ATOM     14  C   UNL A   1      29.898  29.674  23.554  1.00  0.00     0.010 A 
ATOM     15  C   UNL A   1      27.990  28.248  23.199  1.00  0.00     0.010 A 
ATOM     16  C   UNL A   1      29.105  30.792  23.266  1.00  0.00     0.001 A 
ATOM     17  C   UNL A   1      27.198  29.361  22.913  1.00  0.00     0.001 A 
ATOM     18  C   UNL A   1      27.758  30.633  22.938  1.00  0.00     0.000 A 
ENDBRANCH  10  13
BRANCH  11  19
ATOM     19  N   UNL A   1      30.219  24.170  25.494  1.00  0.00    -0.350 N 
ATOM     20  H   UNL A   1      29.398  23.667  25.294  1.00  0.00     0.164 HD
BRANCH  19  21
ATOM     21  C   UNL A   1      30.966  23.856  26.690  1.00  0.00     0.152 C 
BRANCH  21  22
ATOM     22  C   UNL A   1      31.797  22.635  26.386  1.00  0.00    -0.027 A 
ATOM     23  C   UNL A   1      32.900  22.296  27.175  1.00  0.00     0.007 A 
ATOM     24  C   UNL A   1      31.551  21.921  25.201  1.00  0.00     0.027 A 
ATOM     25  C   UNL A   1      33.800  21.329  26.729  1.00  0.00     0.022 A 
ATOM     26  C   UNL A   1      32.461  20.969  24.743  1.00  0.00     0.060 A 
ATOM     27  C   UNL A   1      33.612  20.710  25.489  1.00  0.00     0.059 A 
ATOM     28  Cl  UNL A   1      32.143  20.237  23.214  1.00  0.00    -0.083 Cl
ATOM     29  Cl  UNL A   1      34.910  19.756  24.889  1.00  0.00    -0.083 Cl
ENDBRANCH  21  22
ENDBRANCH  19  21
ENDBRANCH  11  19
ENDBRANCH   6   7
ENDBRANCH   5   6
ENDBRANCH   3   5
ENDBRANCH   2   3
ENDBRANCH   1   2
BRANCH   1  30
ATOM     30  C   UNL A   1      37.280  21.975  24.259  1.00  0.00     0.275 C 
BRANCH  30  31
ATOM     31  O   UNL A   1      37.518  21.785  25.666  1.00  0.00    -0.458 OA
BRANCH  31  32
ATOM     32  C   UNL A   1      38.785  21.426  26.014  1.00  0.00     0.338 C 
ATOM     33  O   UNL A   1      39.331  20.372  25.763  1.00  0.00    -0.246 OA
BRANCH  32  34
ATOM     34  C   UNL A   1      39.472  22.619  26.567  1.00  0.00     0.060 A 
ATOM     35  C   UNL A   1      39.010  23.891  26.202  1.00  0.00     0.016 A 
ATOM     36  C   UNL A   1      40.536  22.492  27.464  1.00  0.00     0.016 A 
ATOM     37  C   UNL A   1      39.619  25.037  26.727  1.00  0.00     0.010 A 
ATOM     38  C   UNL A   1      41.151  23.637  27.977  1.00  0.00     0.010 A 
ATOM     39  C   UNL A   1      40.707  24.917  27.603  1.00  0.00    -0.014 A 
BRANCH  39  40
ATOM     40  C   UNL A   1      41.477  26.110  28.037  1.00  0.00     0.031 A 
ATOM     41  C   UNL A   1      40.755  27.205  28.777  1.00  0.00     0.074 A 
ATOM     42  C   UNL A   1      42.775  26.257  27.715  1.00  0.00     0.049 A 
ATOM     43  N   UNL A   1      41.188  28.380  29.152  1.00  0.00    -0.248 NA
ATOM     44  C   UNL A   1      39.347  26.945  29.112  1.00  0.00     0.031 C 
ATOM     45  C   UNL A   1      43.582  25.279  26.985  1.00  0.00     0.029 A 
ATOM     46  N   UNL A   1      43.638  27.305  27.936  1.00  0.00    -0.354 N 
ATOM     47  C   UNL A   1      40.102  29.013  29.745  1.00  0.00     0.074 A 
ATOM     48  C   UNL A   1      38.987  28.092  29.670  1.00  0.00     0.031 C 
ATOM     49  C   UNL A   1      44.816  25.784  26.801  1.00  0.00     0.029 A 
ATOM     50  C   UNL A   1      44.884  27.125  27.378  1.00  0.00     0.049 A 
ATOM     51  H   UNL A   1      43.387  28.109  28.445  1.00  0.00     0.167 HD
ATOM     52  C   UNL A   1      40.036  30.252  30.290  1.00  0.00     0.034 A 
ATOM     53  C   UNL A   1      45.944  27.958  27.319  1.00  0.00     0.034 A 
ATOM     54  C   UNL A   1      41.148  31.165  30.363  1.00  0.00     0.049 A 
ATOM     55  C   UNL A   1      45.833  29.343  27.923  1.00  0.00     0.074 A 
ATOM     56  C   UNL A   1      41.200  32.413  30.961  1.00  0.00     0.029 A 
ATOM     57  N   UNL A   1      42.397  30.945  29.799  1.00  0.00    -0.354 N 
ATOM     58  N   UNL A   1      44.818  29.898  28.545  1.00  0.00    -0.248 NA
ATOM     59  C   UNL A   1      47.012  30.217  27.807  1.00  0.00     0.031 C 
ATOM     60  C   UNL A   1      42.451  32.977  30.693  1.00  0.00     0.029 A 
ATOM     61  C   UNL A   1      43.206  32.053  29.991  1.00  0.00     0.049 A 
ATOM     62  H   UNL A   1      42.669  30.121  29.333  1.00  0.00     0.167 HD
ATOM     63  C   UNL A   1      45.246  31.177  28.899  1.00  0.00     0.074 A 
ATOM     64  C   UNL A   1      46.616  31.299  28.458  1.00  0.00     0.031 C 
ATOM     65  C   UNL A   1      44.565  32.169  29.526  1.00  0.00     0.034 A 
BRANCH  52  66
ATOM     66  C   UNL A   1      38.696  30.720  30.794  1.00  0.00     0.023 A 
ATOM     67  C   UNL A   1      37.768  31.360  29.957  1.00  0.00     0.031 A 
ATOM     68  C   UNL A   1      38.348  30.522  32.143  1.00  0.00     0.131 A 
ATOM     69  C   UNL A   1      36.559  31.829  30.490  1.00  0.00     0.055 A 
ATOM     70  C   UNL A   1      37.114  30.929  32.650  1.00  0.00     0.041 A 
ATOM     71  F   UNL A   1      39.208  29.936  32.991  1.00  0.00    -0.206 F 
ATOM     72  C   UNL A   1      36.215  31.597  31.825  1.00  0.00     0.022 A 
BRANCH  69  73
ATOM     73  S   UNL A   1      35.487  32.850  29.443  1.00  0.00     0.124 S 
ATOM     74  O   UNL A   1      35.743  32.286  28.119  1.00  0.00    -0.237 OA
ATOM     75  O   UNL A   1      34.164  32.595  30.001  1.00  0.00    -0.237 OA
ATOM     76  O   UNL A   1      35.999  34.204  29.645  1.00  0.00    -0.744 OA
ENDBRANCH  69  73
ENDBRANCH  52  66
BRANCH  53  77
ATOM     77  C   UNL A   1      47.199  27.576  26.606  1.00  0.00     0.023 A 
ATOM     78  C   UNL A   1      47.377  27.896  25.250  1.00  0.00     0.031 A 
ATOM     79  C   UNL A   1      48.156  26.749  27.221  1.00  0.00     0.131 A 
ATOM     80  C   UNL A   1      48.422  27.303  24.525  1.00  0.00     0.055 A 
ATOM     81  C   UNL A   1      49.243  26.229  26.514  1.00  0.00     0.041 A 
ATOM     82  F   UNL A   1      48.031  26.408  28.513  1.00  0.00    -0.206 F 
ATOM     83  C   UNL A   1      49.366  26.486  25.152  1.00  0.00     0.022 A 
BRANCH  80  84
ATOM     84  S   UNL A   1      48.453  27.503  22.719  1.00  0.00     0.124 S 
ATOM     85  O   UNL A   1      47.201  28.216  22.491  1.00  0.00    -0.237 OA
ATOM     86  O   UNL A   1      49.671  28.275  22.503  1.00  0.00    -0.237 OA
ATOM     87  O   UNL A   1      48.483  26.127  22.228  1.00  0.00    -0.744 OA
ENDBRANCH  80  84
ENDBRANCH  53  77
BRANCH  65  88
ATOM     88  C   UNL A   1      45.306  33.459  29.777  1.00  0.00     0.023 A 
ATOM     89  C   UNL A   1      45.373  34.471  28.802  1.00  0.00     0.031 A 
ATOM     90  C   UNL A   1      45.956  33.678  31.004  1.00  0.00     0.131 A 
ATOM     91  C   UNL A   1      46.113  35.636  29.054  1.00  0.00     0.055 A 
ATOM     92  C   UNL A   1      46.647  34.862  31.268  1.00  0.00     0.041 A 
ATOM     93  F   UNL A   1      45.925  32.746  31.970  1.00  0.00    -0.206 F 
ATOM     94  C   UNL A   1      46.738  35.844  30.287  1.00  0.00     0.022 A 
BRANCH  91  95
ATOM     95  S   UNL A   1      46.300  36.858  27.724  1.00  0.00     0.124 S 
ATOM     96  O   UNL A   1      47.708  36.712  27.371  1.00  0.00    -0.237 OA
ATOM     97  O   UNL A   1      45.341  36.387  26.729  1.00  0.00    -0.237 OA
ATOM     98  O   UNL A   1      45.949  38.122  28.369  1.00  0.00    -0.744 OA
ENDBRANCH  91  95
ENDBRANCH  65  88
ENDBRANCH  39  40
ENDBRANCH  32  34
ENDBRANCH  31  32
ENDBRANCH  30  31
ENDBRANCH   1  30
TORSDOF 20
ENDMDL
MODEL 3
REMARK VINA RESULT:     -11.5      6.066     11.177
REMARK SMILES O=C(COc1cc(-c2ccccc2)nc(NCc2ccc(Cl)c(Cl)c2)n1)OCCOC(=O)c1ccc(-c2c3nc(c(-c4cc(S(=O)(=O)[O-])ccc4F)c4ccc([nH]4)c(-c4cc(S(=O)(=O)[O-])ccc4F)c4nc(c(-c5cc(S(=O)(=O)[O-])ccc5F)c5ccc2[nH]5)C=C4)C=C3)cc1
REMARK SMILES IDX 28 1 27 2 2 3 1 4 3 5 4 6 5 7 6 8 26 9 7 10 15 11 14 12 8 13
REMARK SMILES IDX 9 14 13 15 10 16 12 17 11 18 16 19 17 21 18 22 19 23 25 24
REMARK SMILES IDX 20 25 23 26 21 27 24 28 22 29 29 30 30 31 31 32 32 33 33 34
REMARK SMILES IDX 34 35 95 36 35 37 94 38 36 39 37 40 38 41 88 42 39 43 93 44
REMARK SMILES IDX 87 45 89 46 40 47 92 48 86 49 85 50 41 52 73 53 53 54 72 55
REMARK SMILES IDX 54 56 57 57 71 58 90 59 55 60 56 61 70 63 91 64 58 65 42 66
REMARK SMILES IDX 43 67 51 68 44 69 50 70 52 71 49 72 45 73 46 74 47 75 48 76
REMARK SMILES IDX 74 77 75 78 83 79 76 80 82 81 84 82 81 83 77 84 78 85 79 86
REMARK SMILES IDX 80 87 59 88 60 89 68 90 61 91 67 92 69 93 66 94 62 95 63 96
REMARK SMILES IDX 64 97 65 98
REMARK H PARENT 16 20 89 51 57 62
REMARK Flexibility Score: inf
ROOT
ATOM      1  C   UNL A   1      33.966  31.549  27.440  1.00  0.00     0.274 C 
ENDROOT
BRANCH   1   2
ATOM      2  O   UNL A   1      33.495  30.235  27.075  1.00  0.00    -0.460 OA
BRANCH   2   3
ATOM      3  C   UNL A   1      34.297  29.143  27.034  1.00  0.00     0.344 C 
ATOM      4  O   UNL A   1      35.371  29.137  27.630  1.00  0.00    -0.248 OA
BRANCH   3   5
ATOM      5  C   UNL A   1      33.775  27.899  26.331  1.00  0.00     0.353 C 
BRANCH   5   6
ATOM      6  O   UNL A   1      32.360  27.792  26.458  1.00  0.00    -0.466 OA
BRANCH   6   7
ATOM      7  C   UNL A   1      31.788  27.812  25.217  1.00  0.00     0.219 A 
ATOM      8  C   UNL A   1      31.155  28.933  24.758  1.00  0.00     0.097 A 
ATOM      9  N   UNL A   1      31.898  26.677  24.530  1.00  0.00    -0.177 NA
ATOM     10  C   UNL A   1      30.545  28.815  23.533  1.00  0.00     0.080 A 
ATOM     11  C   UNL A   1      31.299  26.647  23.338  1.00  0.00     0.226 A 
ATOM     12  N   UNL A   1      30.608  27.673  22.813  1.00  0.00    -0.213 NA
BRANCH  10  13
ATOM     13  C   UNL A   1      29.761  29.940  22.998  1.00  0.00     0.000 A 
ATOM     14  C   UNL A   1      29.396  30.003  21.645  1.00  0.00     0.010 A 
ATOM     15  C   UNL A   1      29.254  30.931  23.863  1.00  0.00     0.010 A 
ATOM     16  C   UNL A   1      28.523  30.996  21.184  1.00  0.00     0.001 A 
ATOM     17  C   UNL A   1      28.385  31.922  23.404  1.00  0.00     0.001 A 
ATOM     18  C   UNL A   1      28.012  31.948  22.065  1.00  0.00     0.000 A 
ENDBRANCH  10  13
BRANCH  11  19
ATOM     19  N   UNL A   1      31.361  25.502  22.598  1.00  0.00    -0.350 N 
ATOM     20  H   UNL A   1      30.540  24.980  22.449  1.00  0.00     0.164 HD
BRANCH  19  21
ATOM     21  C   UNL A   1      32.605  25.040  22.027  1.00  0.00     0.152 C 
BRANCH  21  22
ATOM     22  C   UNL A   1      33.207  24.064  23.008  1.00  0.00    -0.027 A 
ATOM     23  C   UNL A   1      34.427  24.330  23.635  1.00  0.00     0.007 A 
ATOM     24  C   UNL A   1      32.608  22.803  23.169  1.00  0.00     0.027 A 
ATOM     25  C   UNL A   1      35.087  23.314  24.325  1.00  0.00     0.022 A 
ATOM     26  C   UNL A   1      33.277  21.780  23.839  1.00  0.00     0.060 A 
ATOM     27  C   UNL A   1      34.541  22.027  24.376  1.00  0.00     0.059 A 
ATOM     28  Cl  UNL A   1      32.523  20.228  23.875  1.00  0.00    -0.083 Cl
ATOM     29  Cl  UNL A   1      35.550  20.776  24.988  1.00  0.00    -0.083 Cl
ENDBRANCH  21  22
ENDBRANCH  19  21
ENDBRANCH  11  19
ENDBRANCH   6   7
ENDBRANCH   5   6
ENDBRANCH   3   5
ENDBRANCH   2   3
ENDBRANCH   1   2
BRANCH   1  30
ATOM     30  C   UNL A   1      32.792  32.512  27.627  1.00  0.00     0.275 C 
BRANCH  30  31
ATOM     31  O   UNL A   1      33.255  33.874  27.573  1.00  0.00    -0.458 OA
BRANCH  31  32
ATOM     32  C   UNL A   1      33.311  34.534  28.763  1.00  0.00     0.338 C 
ATOM     33  O   UNL A   1      32.448  35.243  29.237  1.00  0.00    -0.246 OA
BRANCH  32  34
ATOM     34  C   UNL A   1      34.517  34.073  29.495  1.00  0.00     0.060 A 
ATOM     35  C   UNL A   1      35.780  34.382  28.973  1.00  0.00     0.016 A 
ATOM     36  C   UNL A   1      34.410  33.375  30.701  1.00  0.00     0.016 A 
ATOM     37  C   UNL A   1      36.938  33.985  29.653  1.00  0.00     0.010 A 
ATOM     38  C   UNL A   1      35.566  32.968  31.371  1.00  0.00     0.010 A 
ATOM     39  C   UNL A   1      36.837  33.258  30.846  1.00  0.00    -0.014 A 
BRANCH  39  40
ATOM     40  C   UNL A   1      38.042  32.678  31.495  1.00  0.00     0.031 A 
ATOM     41  C   UNL A   1      38.741  31.529  30.819  1.00  0.00     0.074 A 
ATOM     42  C   UNL A   1      38.462  33.110  32.697  1.00  0.00     0.049 A 
ATOM     43  N   UNL A   1      39.735  30.794  31.246  1.00  0.00    -0.248 NA
ATOM     44  C   UNL A   1      38.232  31.144  29.494  1.00  0.00     0.031 C 
ATOM     45  C   UNL A   1      37.860  34.201  33.462  1.00  0.00     0.029 A 
ATOM     46  N   UNL A   1      39.483  32.661  33.502  1.00  0.00    -0.354 N 
ATOM     47  C   UNL A   1      39.954  29.841  30.258  1.00  0.00     0.074 A 
ATOM     48  C   UNL A   1      38.982  30.088  29.214  1.00  0.00     0.031 C 
ATOM     49  C   UNL A   1      38.510  34.321  34.635  1.00  0.00     0.029 A 
ATOM     50  C   UNL A   1      39.558  33.306  34.716  1.00  0.00     0.049 A 
ATOM     51  H   UNL A   1      40.101  31.944  33.235  1.00  0.00     0.167 HD
ATOM     52  C   UNL A   1      40.872  28.844  30.230  1.00  0.00     0.034 A 
ATOM     53  C   UNL A   1      40.363  33.084  35.776  1.00  0.00     0.034 A 
ATOM     54  C   UNL A   1      41.837  28.602  31.272  1.00  0.00     0.049 A 
ATOM     55  C   UNL A   1      41.367  31.951  35.719  1.00  0.00     0.074 A 
ATOM     56  C   UNL A   1      42.855  27.663  31.301  1.00  0.00     0.029 A 
ATOM     57  N   UNL A   1      41.892  29.282  32.480  1.00  0.00    -0.354 N 
ATOM     58  N   UNL A   1      41.609  31.105  34.745  1.00  0.00    -0.248 NA
ATOM     59  C   UNL A   1      42.201  31.739  36.914  1.00  0.00     0.031 C 
ATOM     60  C   UNL A   1      43.473  27.724  32.554  1.00  0.00     0.029 A 
ATOM     61  C   UNL A   1      42.891  28.750  33.280  1.00  0.00     0.049 A 
ATOM     62  H   UNL A   1      41.308  30.034  32.732  1.00  0.00     0.167 HD
ATOM     63  C   UNL A   1      42.627  30.274  35.211  1.00  0.00     0.074 A 
ATOM     64  C   UNL A   1      42.979  30.740  36.532  1.00  0.00     0.031 C 
ATOM     65  C   UNL A   1      43.215  29.212  34.605  1.00  0.00     0.034 A 
BRANCH  52  66
ATOM     66  C   UNL A   1      40.834  27.896  29.060  1.00  0.00     0.023 A 
ATOM     67  C   UNL A   1      41.727  28.009  27.982  1.00  0.00     0.031 A 
ATOM     68  C   UNL A   1      39.881  26.862  29.028  1.00  0.00     0.131 A 
ATOM     69  C   UNL A   1      41.612  27.138  26.889  1.00  0.00     0.055 A 
ATOM     70  C   UNL A   1      39.818  25.955  27.970  1.00  0.00     0.041 A 
ATOM     71  F   UNL A   1      38.990  26.723  30.022  1.00  0.00    -0.206 F 
ATOM     72  C   UNL A   1      40.679  26.096  26.887  1.00  0.00     0.022 A 
BRANCH  69  73
ATOM     73  S   UNL A   1      42.622  27.453  25.418  1.00  0.00     0.124 S 
ATOM     74  O   UNL A   1      42.499  26.187  24.698  1.00  0.00    -0.237 OA
ATOM     75  O   UNL A   1      41.953  28.599  24.814  1.00  0.00    -0.237 OA
ATOM     76  O   UNL A   1      43.950  27.723  25.965  1.00  0.00    -0.744 OA
ENDBRANCH  69  73
ENDBRANCH  52  66
BRANCH  53  77
ATOM     77  C   UNL A   1      40.236  33.879  37.034  1.00  0.00     0.023 A 
ATOM     78  C   UNL A   1      41.131  34.926  37.310  1.00  0.00     0.031 A 
ATOM     79  C   UNL A   1      39.333  33.499  38.042  1.00  0.00     0.131 A 
ATOM     80  C   UNL A   1      41.179  35.480  38.598  1.00  0.00     0.055 A 
ATOM     81  C   UNL A   1      39.329  34.113  39.296  1.00  0.00     0.041 A 
ATOM     82  F   UNL A   1      38.461  32.500  37.832  1.00  0.00    -0.206 F 
ATOM     83  C   UNL A   1      40.272  35.093  39.587  1.00  0.00     0.022 A 
BRANCH  80  84
ATOM     84  S   UNL A   1      42.535  36.620  39.007  1.00  0.00     0.124 S 
ATOM     85  O   UNL A   1      43.363  36.516  37.810  1.00  0.00    -0.237 OA
ATOM     86  O   UNL A   1      41.842  37.890  39.190  1.00  0.00    -0.237 OA
ATOM     87  O   UNL A   1      43.112  36.037  40.216  1.00  0.00    -0.744 OA
ENDBRANCH  80  84
ENDBRANCH  53  77
BRANCH  65  88
ATOM     88  C   UNL A   1      44.305  28.501  35.369  1.00  0.00     0.023 A 
ATOM     89  C   UNL A   1      44.013  27.468  36.279  1.00  0.00     0.031 A 
ATOM     90  C   UNL A   1      45.652  28.864  35.190  1.00  0.00     0.131 A 
ATOM     91  C   UNL A   1      45.049  26.865  37.008  1.00  0.00     0.055 A 
ATOM     92  C   UNL A   1      46.683  28.223  35.880  1.00  0.00     0.041 A 
ATOM     93  F   UNL A   1      45.987  29.842  34.335  1.00  0.00    -0.206 F 
ATOM     94  C   UNL A   1      46.383  27.226  36.802  1.00  0.00     0.022 A 
BRANCH  91  95
ATOM     95  S   UNL A   1      44.626  25.637  38.276  1.00  0.00     0.124 S 
ATOM     96  O   UNL A   1      43.822  26.423  39.206  1.00  0.00    -0.237 OA
ATOM     97  O   UNL A   1      43.905  24.627  37.507  1.00  0.00    -0.237 OA
ATOM     98  O   UNL A   1      45.927  25.211  38.788  1.00  0.00    -0.744 OA
ENDBRANCH  91  95
ENDBRANCH  65  88
ENDBRANCH  39  40
ENDBRANCH  32  34
ENDBRANCH  31  32
ENDBRANCH  30  31
ENDBRANCH   1  30
TORSDOF 20
ENDMDL
