MODEL 1
REMARK VINA RESULT:     -11.8      0.000      0.000
REMARK SMILES CC(C)(C)OC(=O)N1C[C@H](Oc2ccncc2)C[C@H]1C(=O)OCCOC(=O)c1ccc(-c2c3nc(c(-c4cc(S(=O)(=O)[O-])ccc4F)c4ccc([nH]4)c(-c4cc(S(=O)(=O)[O-])ccc4F)c4nc(c(-c5cc(S(=O)(=O)[O-])ccc5F)c5ccc2[nH]5)C=C4)C=C3)cc1
REMARK SMILES IDX 23 1 22 2 20 3 21 4 19 5 8 6 9 7 10 8 18 9 6 10 7 11 5 12
REMARK SMILES IDX 2 13 1 14 3 15 4 16 11 17 12 18 13 19 17 20 14 21 16 22
REMARK SMILES IDX 15 23 24 24 25 25 26 26 27 27 28 28 29 29 90 30 30 31 89 32
REMARK SMILES IDX 31 33 32 34 33 35 83 36 34 37 88 38 82 39 84 40 35 41 87 42
REMARK SMILES IDX 81 43 80 44 36 46 68 47 48 48 67 49 49 50 52 51 66 52 85 53
REMARK SMILES IDX 50 54 51 55 65 57 86 58 53 59 37 60 38 61 46 62 39 63 45 64
REMARK SMILES IDX 47 65 44 66 40 67 41 68 42 69 43 70 69 71 70 72 78 73 71 74
REMARK SMILES IDX 77 75 79 76 76 77 72 78 73 79 74 80 75 81 54 82 55 83 63 84
REMARK SMILES IDX 56 85 62 86 64 87 61 88 57 89 58 90 59 91 60 92
REMARK H PARENT 84 45 52 56
REMARK Flexibility Score: inf
ROOT
ATOM      1  C   UNL A   1      36.661  22.939  23.755  1.00  0.00     0.274 C 
ENDROOT
BRANCH   1   2
ATOM      2  O   UNL A   1      35.233  22.967  23.919  1.00  0.00    -0.461 OA
BRANCH   2   3
ATOM      3  C   UNL A   1      34.762  23.345  25.140  1.00  0.00     0.329 C 
ATOM      4  O   UNL A   1      35.146  24.321  25.773  1.00  0.00    -0.250 OA
BRANCH   3   5
ATOM      5  C   UNL A   1      33.717  22.348  25.648  1.00  0.00     0.202 C 
ATOM      6  N   UNL A   1      32.466  22.644  24.978  1.00  0.00    -0.291 N 
ATOM      7  C   UNL A   1      32.231  21.755  23.857  1.00  0.00     0.169 C 
ATOM      8  C   UNL A   1      32.970  20.471  24.237  1.00  0.00     0.195 C 
ATOM      9  C   UNL A   1      34.011  20.889  25.300  1.00  0.00     0.084 C 
BRANCH   6  10
ATOM     10  C   UNL A   1      31.703  23.683  25.414  1.00  0.00     0.411 C 
ATOM     11  O   UNL A   1      31.622  23.989  26.597  1.00  0.00    -0.224 OA
BRANCH  10  12
ATOM     12  O   UNL A   1      30.991  24.250  24.413  1.00  0.00    -0.444 OA
BRANCH  12  13
ATOM     13  C   UNL A   1      31.245  25.633  24.064  1.00  0.00     0.106 C 
ATOM     14  C   UNL A   1      30.006  26.393  24.555  1.00  0.00     0.056 C 
ATOM     15  C   UNL A   1      31.358  25.761  22.544  1.00  0.00     0.056 C 
ATOM     16  C   UNL A   1      32.470  26.225  24.783  1.00  0.00     0.056 C 
ENDBRANCH  12  13
ENDBRANCH  10  12
ENDBRANCH   6  10
BRANCH   8  17
ATOM     17  O   UNL A   1      32.095  19.387  24.608  1.00  0.00    -0.488 OA
BRANCH  17  18
ATOM     18  C   UNL A   1      32.652  18.142  24.590  1.00  0.00     0.122 A 
ATOM     19  C   UNL A   1      33.354  17.682  23.488  1.00  0.00     0.066 A 
ATOM     20  C   UNL A   1      32.553  17.355  25.730  1.00  0.00     0.066 A 
ATOM     21  C   UNL A   1      33.832  16.386  23.526  1.00  0.00     0.115 A 
ATOM     22  C   UNL A   1      33.065  16.073  25.671  1.00  0.00     0.115 A 
ATOM     23  N   UNL A   1      33.688  15.561  24.586  1.00  0.00    -0.264 NA
ENDBRANCH  17  18
ENDBRANCH   8  17
ENDBRANCH   3   5
ENDBRANCH   2   3
ENDBRANCH   1   2
BRANCH   1  24
ATOM     24  C   UNL A   1      37.238  21.651  24.340  1.00  0.00     0.275 C 
BRANCH  24  25
ATOM     25  O   UNL A   1      37.565  21.824  25.731  1.00  0.00    -0.458 OA
BRANCH  25  26
ATOM     26  C   UNL A   1      38.867  21.622  26.032  1.00  0.00     0.338 C 
ATOM     27  O   UNL A   1      39.570  20.684  25.695  1.00  0.00    -0.246 OA
BRANCH  26  28
ATOM     28  C   UNL A   1      39.404  22.782  26.749  1.00  0.00     0.060 A 
ATOM     29  C   UNL A   1      38.963  24.043  26.367  1.00  0.00     0.016 A 
ATOM     30  C   UNL A   1      40.472  22.648  27.631  1.00  0.00     0.016 A 
ATOM     31  C   UNL A   1      39.683  25.171  26.728  1.00  0.00     0.010 A 
ATOM     32  C   UNL A   1      41.092  23.801  28.126  1.00  0.00     0.010 A 
ATOM     33  C   UNL A   1      40.730  25.077  27.653  1.00  0.00    -0.014 A 
BRANCH  33  34
ATOM     34  C   UNL A   1      41.428  26.309  28.121  1.00  0.00     0.031 A 
ATOM     35  C   UNL A   1      40.681  27.349  28.914  1.00  0.00     0.074 A 
ATOM     36  C   UNL A   1      42.732  26.497  27.827  1.00  0.00     0.049 A 
ATOM     37  N   UNL A   1      41.025  28.580  29.192  1.00  0.00    -0.248 NA
ATOM     38  C   UNL A   1      39.367  26.958  29.443  1.00  0.00     0.031 C 
ATOM     39  C   UNL A   1      43.591  25.543  27.119  1.00  0.00     0.029 A 
ATOM     40  N   UNL A   1      43.568  27.555  28.084  1.00  0.00    -0.354 N 
ATOM     41  C   UNL A   1      39.942  29.133  29.870  1.00  0.00     0.074 A 
ATOM     42  C   UNL A   1      38.931  28.100  29.955  1.00  0.00     0.031 C 
ATOM     43  C   UNL A   1      44.832  26.038  27.035  1.00  0.00     0.029 A 
ATOM     44  C   UNL A   1      44.830  27.397  27.555  1.00  0.00     0.049 A 
ATOM     45  H   UNL A   1      43.293  28.350  28.596  1.00  0.00     0.167 HD
ATOM     46  C   UNL A   1      39.811  30.391  30.363  1.00  0.00     0.034 A 
ATOM     47  C   UNL A   1      45.850  28.266  27.424  1.00  0.00     0.034 A 
ATOM     48  C   UNL A   1      40.857  31.384  30.300  1.00  0.00     0.049 A 
ATOM     49  C   UNL A   1      45.658  29.674  27.913  1.00  0.00     0.074 A 
ATOM     50  C   UNL A   1      40.848  32.679  30.792  1.00  0.00     0.029 A 
ATOM     51  N   UNL A   1      42.102  31.194  29.711  1.00  0.00    -0.354 N 
ATOM     52  N   UNL A   1      44.608  30.208  28.492  1.00  0.00    -0.248 NA
ATOM     53  C   UNL A   1      46.778  30.600  27.715  1.00  0.00     0.031 C 
ATOM     54  C   UNL A   1      42.056  33.291  30.440  1.00  0.00     0.029 A 
ATOM     55  C   UNL A   1      42.853  32.357  29.797  1.00  0.00     0.049 A 
ATOM     56  H   UNL A   1      42.406  30.357  29.295  1.00  0.00     0.167 HD
ATOM     57  C   UNL A   1      44.945  31.534  28.736  1.00  0.00     0.074 A 
ATOM     58  C   UNL A   1      46.303  31.710  28.263  1.00  0.00     0.031 C 
ATOM     59  C   UNL A   1      44.200  32.518  29.300  1.00  0.00     0.034 A 
BRANCH  46  60
ATOM     60  C   UNL A   1      38.471  30.781  30.944  1.00  0.00     0.023 A 
ATOM     61  C   UNL A   1      37.459  31.377  30.173  1.00  0.00     0.031 A 
ATOM     62  C   UNL A   1      38.214  30.572  32.313  1.00  0.00     0.131 A 
ATOM     63  C   UNL A   1      36.271  31.809  30.786  1.00  0.00     0.055 A 
ATOM     64  C   UNL A   1      36.999  30.929  32.900  1.00  0.00     0.041 A 
ATOM     65  F   UNL A   1      39.147  30.028  33.109  1.00  0.00    -0.206 F 
ATOM     66  C   UNL A   1      36.024  31.567  32.140  1.00  0.00     0.022 A 
BRANCH  63  67
ATOM     67  S   UNL A   1      35.118  32.826  29.824  1.00  0.00     0.124 S 
ATOM     68  O   UNL A   1      36.000  33.874  29.317  1.00  0.00    -0.237 OA
ATOM     69  O   UNL A   1      34.614  31.881  28.835  1.00  0.00    -0.237 OA
ATOM     70  O   UNL A   1      34.141  33.271  30.817  1.00  0.00    -0.744 OA
ENDBRANCH  63  67
ENDBRANCH  46  60
BRANCH  47  71
ATOM     71  C   UNL A   1      47.095  27.856  26.711  1.00  0.00     0.023 A 
ATOM     72  C   UNL A   1      47.197  27.951  25.316  1.00  0.00     0.031 A 
ATOM     73  C   UNL A   1      48.202  27.351  27.419  1.00  0.00     0.131 A 
ATOM     74  C   UNL A   1      48.369  27.522  24.671  1.00  0.00     0.055 A 
ATOM     75  C   UNL A   1      49.386  26.985  26.781  1.00  0.00     0.041 A 
ATOM     76  F   UNL A   1      48.157  27.236  28.757  1.00  0.00    -0.206 F 
ATOM     77  C   UNL A   1      49.470  27.059  25.395  1.00  0.00     0.022 A 
BRANCH  74  78
ATOM     78  S   UNL A   1      48.406  27.507  22.858  1.00  0.00     0.124 S 
ATOM     79  O   UNL A   1      48.375  26.077  22.573  1.00  0.00    -0.237 OA
ATOM     80  O   UNL A   1      47.198  28.255  22.525  1.00  0.00    -0.237 OA
ATOM     81  O   UNL A   1      49.662  28.181  22.539  1.00  0.00    -0.744 OA
ENDBRANCH  74  78
ENDBRANCH  47  71
BRANCH  59  82
ATOM     82  C   UNL A   1      44.865  33.861  29.463  1.00  0.00     0.023 A 
ATOM     83  C   UNL A   1      44.821  34.832  28.449  1.00  0.00     0.031 A 
ATOM     84  C   UNL A   1      45.562  34.164  30.646  1.00  0.00     0.131 A 
ATOM     85  C   UNL A   1      45.507  36.045  28.616  1.00  0.00     0.055 A 
ATOM     86  C   UNL A   1      46.192  35.395  30.830  1.00  0.00     0.041 A 
ATOM     87  F   UNL A   1      45.638  33.268  31.643  1.00  0.00    -0.206 F 
ATOM     88  C   UNL A   1      46.176  36.339  29.807  1.00  0.00     0.022 A 
BRANCH  85  89
ATOM     89  S   UNL A   1      45.580  37.203  27.223  1.00  0.00     0.124 S 
ATOM     90  O   UNL A   1      46.412  38.273  27.763  1.00  0.00    -0.237 OA
ATOM     91  O   UNL A   1      46.186  36.392  26.172  1.00  0.00    -0.237 OA
ATOM     92  O   UNL A   1      44.180  37.558  26.998  1.00  0.00    -0.744 OA
ENDBRANCH  85  89
ENDBRANCH  59  82
ENDBRANCH  33  34
ENDBRANCH  26  28
ENDBRANCH  25  26
ENDBRANCH  24  25
ENDBRANCH   1  24
TORSDOF 19
ENDMDL
MODEL 2
REMARK VINA RESULT:     -11.4      0.935      7.510
REMARK SMILES CC(C)(C)OC(=O)N1C[C@H](Oc2ccncc2)C[C@H]1C(=O)OCCOC(=O)c1ccc(-c2c3nc(c(-c4cc(S(=O)(=O)[O-])ccc4F)c4ccc([nH]4)c(-c4cc(S(=O)(=O)[O-])ccc4F)c4nc(c(-c5cc(S(=O)(=O)[O-])ccc5F)c5ccc2[nH]5)C=C4)C=C3)cc1
REMARK SMILES IDX 23 1 22 2 20 3 21 4 19 5 8 6 9 7 10 8 18 9 6 10 7 11 5 12
REMARK SMILES IDX 2 13 1 14 3 15 4 16 11 17 12 18 13 19 17 20 14 21 16 22
REMARK SMILES IDX 15 23 24 24 25 25 26 26 27 27 28 28 29 29 90 30 30 31 89 32
REMARK SMILES IDX 31 33 32 34 33 35 83 36 34 37 88 38 82 39 84 40 35 41 87 42
REMARK SMILES IDX 81 43 80 44 36 46 68 47 48 48 67 49 49 50 52 51 66 52 85 53
REMARK SMILES IDX 50 54 51 55 65 57 86 58 53 59 37 60 38 61 46 62 39 63 45 64
REMARK SMILES IDX 47 65 44 66 40 67 41 68 42 69 43 70 69 71 70 72 78 73 71 74
REMARK SMILES IDX 77 75 79 76 76 77 72 78 73 79 74 80 75 81 54 82 55 83 63 84
REMARK SMILES IDX 56 85 62 86 64 87 61 88 57 89 58 90 59 91 60 92
REMARK H PARENT 84 45 52 56
REMARK Flexibility Score: inf
ROOT
ATOM      1  C   UNL A   1      36.622  22.874  23.953  1.00  0.00     0.274 C 
ENDROOT
BRANCH   1   2
ATOM      2  O   UNL A   1      35.207  22.748  24.175  1.00  0.00    -0.461 OA
BRANCH   2   3
ATOM      3  C   UNL A   1      34.742  23.124  25.398  1.00  0.00     0.329 C 
ATOM      4  O   UNL A   1      35.049  24.155  25.984  1.00  0.00    -0.250 OA
BRANCH   3   5
ATOM      5  C   UNL A   1      33.815  22.052  25.977  1.00  0.00     0.202 C 
ATOM      6  N   UNL A   1      32.461  22.379  25.575  1.00  0.00    -0.291 N 
ATOM      7  C   UNL A   1      32.036  21.603  24.426  1.00  0.00     0.169 C 
ATOM      8  C   UNL A   1      32.844  20.309  24.531  1.00  0.00     0.195 C 
ATOM      9  C   UNL A   1      34.054  20.645  25.430  1.00  0.00     0.084 C 
BRANCH   6  10
ATOM     10  C   UNL A   1      31.779  23.347  26.246  1.00  0.00     0.411 C 
ATOM     11  O   UNL A   1      31.811  23.447  27.467  1.00  0.00    -0.224 OA
BRANCH  10  12
ATOM     12  O   UNL A   1      31.007  24.094  25.424  1.00  0.00    -0.444 OA
BRANCH  12  13
ATOM     13  C   UNL A   1      31.471  25.406  25.023  1.00  0.00     0.106 C 
ATOM     14  C   UNL A   1      30.191  26.227  24.820  1.00  0.00     0.056 C 
ATOM     15  C   UNL A   1      32.227  25.296  23.698  1.00  0.00     0.056 C 
ATOM     16  C   UNL A   1      32.309  26.110  26.105  1.00  0.00     0.056 C 
ENDBRANCH  12  13
ENDBRANCH  10  12
ENDBRANCH   6  10
BRANCH   8  17
ATOM     17  O   UNL A   1      32.059  19.168  24.935  1.00  0.00    -0.488 OA
BRANCH  17  18
ATOM     18  C   UNL A   1      32.652  17.951  24.767  1.00  0.00     0.122 A 
ATOM     19  C   UNL A   1      33.527  17.713  23.719  1.00  0.00     0.066 A 
ATOM     20  C   UNL A   1      32.407  16.959  25.707  1.00  0.00     0.066 A 
ATOM     21  C   UNL A   1      34.034  16.435  23.583  1.00  0.00     0.115 A 
ATOM     22  C   UNL A   1      32.962  15.713  25.485  1.00  0.00     0.115 A 
ATOM     23  N   UNL A   1      33.758  15.421  24.431  1.00  0.00    -0.264 NA
ENDBRANCH  17  18
ENDBRANCH   8  17
ENDBRANCH   3   5
ENDBRANCH   2   3
ENDBRANCH   1   2
BRANCH   1  24
ATOM     24  C   UNL A   1      37.332  21.563  24.286  1.00  0.00     0.275 C 
BRANCH  24  25
ATOM     25  O   UNL A   1      37.581  21.462  25.700  1.00  0.00    -0.458 OA
BRANCH  25  26
ATOM     26  C   UNL A   1      38.878  21.277  26.030  1.00  0.00     0.338 C 
ATOM     27  O   UNL A   1      39.558  20.282  25.847  1.00  0.00    -0.246 OA
BRANCH  26  28
ATOM     28  C   UNL A   1      39.445  22.523  26.557  1.00  0.00     0.060 A 
ATOM     29  C   UNL A   1      38.694  23.685  26.425  1.00  0.00     0.016 A 
ATOM     30  C   UNL A   1      40.769  22.585  26.980  1.00  0.00     0.016 A 
ATOM     31  C   UNL A   1      39.303  24.924  26.552  1.00  0.00     0.010 A 
ATOM     32  C   UNL A   1      41.331  23.834  27.269  1.00  0.00     0.010 A 
ATOM     33  C   UNL A   1      40.617  25.022  27.024  1.00  0.00    -0.014 A 
BRANCH  33  34
ATOM     34  C   UNL A   1      41.227  26.362  27.264  1.00  0.00     0.031 A 
ATOM     35  C   UNL A   1      42.585  26.689  26.701  1.00  0.00     0.074 A 
ATOM     36  C   UNL A   1      40.564  27.283  27.994  1.00  0.00     0.049 A 
ATOM     37  N   UNL A   1      43.387  27.679  26.998  1.00  0.00    -0.248 NA
ATOM     38  C   UNL A   1      43.119  25.768  25.687  1.00  0.00     0.031 C 
ATOM     39  C   UNL A   1      39.216  27.120  28.548  1.00  0.00     0.029 A 
ATOM     40  N   UNL A   1      40.931  28.542  28.402  1.00  0.00    -0.354 N 
ATOM     41  C   UNL A   1      44.547  27.464  26.260  1.00  0.00     0.074 A 
ATOM     42  C   UNL A   1      44.342  26.246  25.505  1.00  0.00     0.031 C 
ATOM     43  C   UNL A   1      38.857  28.243  29.183  1.00  0.00     0.029 A 
ATOM     44  C   UNL A   1      39.993  29.152  29.204  1.00  0.00     0.049 A 
ATOM     45  H   UNL A   1      41.781  28.967  28.146  1.00  0.00     0.167 HD
ATOM     46  C   UNL A   1      45.677  28.216  26.229  1.00  0.00     0.034 A 
ATOM     47  C   UNL A   1      40.057  30.275  29.944  1.00  0.00     0.034 A 
ATOM     48  C   UNL A   1      45.832  29.451  26.961  1.00  0.00     0.049 A 
ATOM     49  C   UNL A   1      41.342  31.054  29.952  1.00  0.00     0.074 A 
ATOM     50  C   UNL A   1      46.917  30.311  26.982  1.00  0.00     0.029 A 
ATOM     51  N   UNL A   1      44.872  30.007  27.800  1.00  0.00    -0.354 N 
ATOM     52  N   UNL A   1      42.457  30.809  29.304  1.00  0.00    -0.248 NA
ATOM     53  C   UNL A   1      41.385  32.249  30.802  1.00  0.00     0.031 C 
ATOM     54  C   UNL A   1      46.642  31.344  27.885  1.00  0.00     0.029 A 
ATOM     55  C   UNL A   1      45.354  31.175  28.369  1.00  0.00     0.049 A 
ATOM     56  H   UNL A   1      43.980  29.625  27.965  1.00  0.00     0.167 HD
ATOM     57  C   UNL A   1      43.334  31.826  29.663  1.00  0.00     0.074 A 
ATOM     58  C   UNL A   1      42.609  32.699  30.565  1.00  0.00     0.031 C 
ATOM     59  C   UNL A   1      44.622  32.021  29.283  1.00  0.00     0.034 A 
BRANCH  46  60
ATOM     60  C   UNL A   1      46.852  27.686  25.439  1.00  0.00     0.023 A 
ATOM     61  C   UNL A   1      47.110  28.080  24.115  1.00  0.00     0.031 A 
ATOM     62  C   UNL A   1      47.719  26.742  26.022  1.00  0.00     0.131 A 
ATOM     63  C   UNL A   1      48.158  27.481  23.396  1.00  0.00     0.055 A 
ATOM     64  C   UNL A   1      48.808  26.211  25.329  1.00  0.00     0.041 A 
ATOM     65  F   UNL A   1      47.513  26.308  27.276  1.00  0.00    -0.206 F 
ATOM     66  C   UNL A   1      49.024  26.568  24.002  1.00  0.00     0.022 A 
BRANCH  63  67
ATOM     67  S   UNL A   1      48.282  27.800  21.615  1.00  0.00     0.124 S 
ATOM     68  O   UNL A   1      46.941  28.294  21.309  1.00  0.00    -0.237 OA
ATOM     69  O   UNL A   1      49.357  28.782  21.544  1.00  0.00    -0.237 OA
ATOM     70  O   UNL A   1      48.596  26.488  21.052  1.00  0.00    -0.744 OA
ENDBRANCH  63  67
ENDBRANCH  46  60
BRANCH  47  71
ATOM     71  C   UNL A   1      38.910  30.665  30.815  1.00  0.00     0.023 A 
ATOM     72  C   UNL A   1      37.791  31.326  30.288  1.00  0.00     0.031 A 
ATOM     73  C   UNL A   1      38.922  30.388  32.195  1.00  0.00     0.131 A 
ATOM     74  C   UNL A   1      36.744  31.713  31.141  1.00  0.00     0.055 A 
ATOM     75  C   UNL A   1      37.853  30.718  33.027  1.00  0.00     0.041 A 
ATOM     76  F   UNL A   1      39.970  29.759  32.753  1.00  0.00    -0.206 F 
ATOM     77  C   UNL A   1      36.758  31.396  32.502  1.00  0.00     0.022 A 
BRANCH  74  78
ATOM     78  S   UNL A   1      35.391  32.708  30.457  1.00  0.00     0.124 S 
ATOM     79  O   UNL A   1      36.012  34.023  30.354  1.00  0.00    -0.237 OA
ATOM     80  O   UNL A   1      35.120  32.024  29.197  1.00  0.00    -0.237 OA
ATOM     81  O   UNL A   1      34.340  32.590  31.465  1.00  0.00    -0.744 OA
ENDBRANCH  74  78
ENDBRANCH  47  71
BRANCH  59  82
ATOM     82  C   UNL A   1      45.307  33.251  29.820  1.00  0.00     0.023 A 
ATOM     83  C   UNL A   1      45.259  34.479  29.138  1.00  0.00     0.031 A 
ATOM     84  C   UNL A   1      46.028  33.188  31.026  1.00  0.00     0.131 A 
ATOM     85  C   UNL A   1      45.962  35.583  29.641  1.00  0.00     0.055 A 
ATOM     86  C   UNL A   1      46.676  34.306  31.552  1.00  0.00     0.041 A 
ATOM     87  F   UNL A   1      46.109  32.038  31.714  1.00  0.00    -0.206 F 
ATOM     88  C   UNL A   1      46.655  35.509  30.852  1.00  0.00     0.022 A 
BRANCH  85  89
ATOM     89  S   UNL A   1      46.027  37.100  28.650  1.00  0.00     0.124 S 
ATOM     90  O   UNL A   1      45.883  36.581  27.293  1.00  0.00    -0.237 OA
ATOM     91  O   UNL A   1      44.893  37.860  29.165  1.00  0.00    -0.237 OA
ATOM     92  O   UNL A   1      47.340  37.660  28.965  1.00  0.00    -0.744 OA
ENDBRANCH  85  89
ENDBRANCH  59  82
ENDBRANCH  33  34
ENDBRANCH  26  28
ENDBRANCH  25  26
ENDBRANCH  24  25
ENDBRANCH   1  24
TORSDOF 19
ENDMDL
MODEL 3
REMARK VINA RESULT:     -11.3      5.325     10.568
REMARK SMILES CC(C)(C)OC(=O)N1C[C@H](Oc2ccncc2)C[C@H]1C(=O)OCCOC(=O)c1ccc(-c2c3nc(c(-c4cc(S(=O)(=O)[O-])ccc4F)c4ccc([nH]4)c(-c4cc(S(=O)(=O)[O-])ccc4F)c4nc(c(-c5cc(S(=O)(=O)[O-])ccc5F)c5ccc2[nH]5)C=C4)C=C3)cc1
REMARK SMILES IDX 23 1 22 2 20 3 21 4 19 5 8 6 9 7 10 8 18 9 6 10 7 11 5 12
REMARK SMILES IDX 2 13 1 14 3 15 4 16 11 17 12 18 13 19 17 20 14 21 16 22
REMARK SMILES IDX 15 23 24 24 25 25 26 26 27 27 28 28 29 29 90 30 30 31 89 32
REMARK SMILES IDX 31 33 32 34 33 35 83 36 34 37 88 38 82 39 84 40 35 41 87 42
REMARK SMILES IDX 81 43 80 44 36 46 68 47 48 48 67 49 49 50 52 51 66 52 85 53
REMARK SMILES IDX 50 54 51 55 65 57 86 58 53 59 37 60 38 61 46 62 39 63 45 64
REMARK SMILES IDX 47 65 44 66 40 67 41 68 42 69 43 70 69 71 70 72 78 73 71 74
REMARK SMILES IDX 77 75 79 76 76 77 72 78 73 79 74 80 75 81 54 82 55 83 63 84
REMARK SMILES IDX 56 85 62 86 64 87 61 88 57 89 58 90 59 91 60 92
REMARK H PARENT 84 45 52 56
REMARK Flexibility Score: inf
ROOT
ATOM      1  C   UNL A   1      33.636  28.970  25.484  1.00  0.00     0.274 C 
ENDROOT
BRANCH   1   2
ATOM      2  O   UNL A   1      32.773  27.860  25.185  1.00  0.00    -0.461 OA
BRANCH   2   3
ATOM      3  C   UNL A   1      33.135  27.065  24.141  1.00  0.00     0.329 C 
ATOM      4  O   UNL A   1      34.164  26.403  24.082  1.00  0.00    -0.250 OA
BRANCH   3   5
ATOM      5  C   UNL A   1      32.102  27.148  23.014  1.00  0.00     0.202 C 
ATOM      6  N   UNL A   1      30.880  26.532  23.492  1.00  0.00    -0.291 N 
ATOM      7  C   UNL A   1      29.920  27.518  23.947  1.00  0.00     0.169 C 
ATOM      8  C   UNL A   1      30.245  28.764  23.121  1.00  0.00     0.195 C 
ATOM      9  C   UNL A   1      31.697  28.571  22.630  1.00  0.00     0.084 C 
BRANCH   6  10
ATOM     10  C   UNL A   1      30.775  25.175  23.503  1.00  0.00     0.411 C 
ATOM     11  O   UNL A   1      30.910  24.497  22.491  1.00  0.00    -0.224 OA
BRANCH  10  12
ATOM     12  O   UNL A   1      30.413  24.699  24.716  1.00  0.00    -0.444 OA
BRANCH  12  13
ATOM     13  C   UNL A   1      31.376  23.944  25.491  1.00  0.00     0.106 C 
ATOM     14  C   UNL A   1      30.580  22.758  26.052  1.00  0.00     0.056 C 
ATOM     15  C   UNL A   1      31.892  24.807  26.643  1.00  0.00     0.056 C 
ATOM     16  C   UNL A   1      32.525  23.372  24.642  1.00  0.00     0.056 C 
ENDBRANCH  12  13
ENDBRANCH  10  12
ENDBRANCH   6  10
BRANCH   8  17
ATOM     17  O   UNL A   1      29.269  29.050  22.098  1.00  0.00    -0.488 OA
BRANCH  17  18
ATOM     18  C   UNL A   1      28.842  30.344  22.032  1.00  0.00     0.122 A 
ATOM     19  C   UNL A   1      28.336  30.878  20.858  1.00  0.00     0.066 A 
ATOM     20  C   UNL A   1      28.868  31.111  23.190  1.00  0.00     0.066 A 
ATOM     21  C   UNL A   1      27.984  32.214  20.858  1.00  0.00     0.115 A 
ATOM     22  C   UNL A   1      28.494  32.438  23.089  1.00  0.00     0.115 A 
ATOM     23  N   UNL A   1      28.069  33.015  21.943  1.00  0.00    -0.264 NA
ENDBRANCH  17  18
ENDBRANCH   8  17
ENDBRANCH   3   5
ENDBRANCH   2   3
ENDBRANCH   1   2
BRANCH   1  24
ATOM     24  C   UNL A   1      32.817  30.170  25.956  1.00  0.00     0.275 C 
BRANCH  24  25
ATOM     25  O   UNL A   1      33.027  30.411  27.359  1.00  0.00    -0.458 OA
BRANCH  25  26
ATOM     26  C   UNL A   1      33.739  31.525  27.636  1.00  0.00     0.338 C 
ATOM     27  O   UNL A   1      33.331  32.673  27.699  1.00  0.00    -0.246 OA
BRANCH  26  28
ATOM     28  C   UNL A   1      35.116  31.167  27.992  1.00  0.00     0.060 A 
ATOM     29  C   UNL A   1      35.357  29.868  28.424  1.00  0.00     0.016 A 
ATOM     30  C   UNL A   1      36.105  32.139  28.102  1.00  0.00     0.016 A 
ATOM     31  C   UNL A   1      36.521  29.570  29.115  1.00  0.00     0.010 A 
ATOM     32  C   UNL A   1      37.343  31.789  28.651  1.00  0.00     0.010 A 
ATOM     33  C   UNL A   1      37.555  30.510  29.199  1.00  0.00    -0.014 A 
BRANCH  33  34
ATOM     34  C   UNL A   1      38.847  30.144  29.848  1.00  0.00     0.031 A 
ATOM     35  C   UNL A   1      39.779  29.165  29.185  1.00  0.00     0.074 A 
ATOM     36  C   UNL A   1      39.181  30.687  31.038  1.00  0.00     0.049 A 
ATOM     37  N   UNL A   1      40.808  28.532  29.687  1.00  0.00    -0.248 NA
ATOM     38  C   UNL A   1      39.503  28.838  27.779  1.00  0.00     0.031 C 
ATOM     39  C   UNL A   1      38.399  31.695  31.762  1.00  0.00     0.029 A 
ATOM     40  N   UNL A   1      40.263  30.470  31.855  1.00  0.00    -0.354 N 
ATOM     41  C   UNL A   1      41.261  27.683  28.682  1.00  0.00     0.074 A 
ATOM     42  C   UNL A   1      40.389  27.882  27.543  1.00  0.00     0.031 C 
ATOM     43  C   UNL A   1      39.043  32.034  32.886  1.00  0.00     0.029 A 
ATOM     44  C   UNL A   1      40.208  31.175  33.036  1.00  0.00     0.049 A 
ATOM     45  H   UNL A   1      41.006  29.868  31.619  1.00  0.00     0.167 HD
ATOM     46  C   UNL A   1      42.304  26.815  28.719  1.00  0.00     0.034 A 
ATOM     47  C   UNL A   1      40.955  31.090  34.153  1.00  0.00     0.034 A 
ATOM     48  C   UNL A   1      43.182  26.673  29.857  1.00  0.00     0.049 A 
ATOM     49  C   UNL A   1      42.060  30.073  34.199  1.00  0.00     0.074 A 
ATOM     50  C   UNL A   1      44.287  25.850  29.997  1.00  0.00     0.029 A 
ATOM     51  N   UNL A   1      43.059  27.375  31.051  1.00  0.00    -0.354 N 
ATOM     52  N   UNL A   1      42.439  29.227  33.270  1.00  0.00    -0.248 NA
ATOM     53  C   UNL A   1      42.823  29.984  35.448  1.00  0.00     0.031 C 
ATOM     54  C   UNL A   1      44.786  26.002  31.296  1.00  0.00     0.029 A 
ATOM     55  C   UNL A   1      44.044  26.977  31.943  1.00  0.00     0.049 A 
ATOM     56  H   UNL A   1      42.373  28.055  31.237  1.00  0.00     0.167 HD
ATOM     57  C   UNL A   1      43.495  28.511  33.821  1.00  0.00     0.074 A 
ATOM     58  C   UNL A   1      43.705  29.040  35.153  1.00  0.00     0.031 C 
ATOM     59  C   UNL A   1      44.224  27.504  33.275  1.00  0.00     0.034 A 
BRANCH  46  60
ATOM     60  C   UNL A   1      42.504  25.905  27.529  1.00  0.00     0.023 A 
ATOM     61  C   UNL A   1      41.947  24.617  27.461  1.00  0.00     0.031 A 
ATOM     62  C   UNL A   1      43.296  26.334  26.446  1.00  0.00     0.131 A 
ATOM     63  C   UNL A   1      42.247  23.779  26.375  1.00  0.00     0.055 A 
ATOM     64  C   UNL A   1      43.523  25.526  25.330  1.00  0.00     0.041 A 
ATOM     65  F   UNL A   1      43.874  27.545  26.458  1.00  0.00    -0.206 F 
ATOM     66  C   UNL A   1      43.011  24.233  25.297  1.00  0.00     0.022 A 
BRANCH  63  67
ATOM     67  S   UNL A   1      41.750  22.036  26.460  1.00  0.00     0.124 S 
ATOM     68  O   UNL A   1      42.145  21.683  27.822  1.00  0.00    -0.237 OA
ATOM     69  O   UNL A   1      40.316  22.105  26.208  1.00  0.00    -0.237 OA
ATOM     70  O   UNL A   1      42.539  21.402  25.406  1.00  0.00    -0.744 OA
ENDBRANCH  63  67
ENDBRANCH  46  60
BRANCH  47  71
ATOM     71  C   UNL A   1      40.613  31.918  35.346  1.00  0.00     0.023 A 
ATOM     72  C   UNL A   1      39.469  31.651  36.111  1.00  0.00     0.031 A 
ATOM     73  C   UNL A   1      41.426  33.001  35.732  1.00  0.00     0.131 A 
ATOM     74  C   UNL A   1      39.154  32.472  37.207  1.00  0.00     0.055 A 
ATOM     75  C   UNL A   1      41.144  33.775  36.857  1.00  0.00     0.041 A 
ATOM     76  F   UNL A   1      42.532  33.304  35.034  1.00  0.00    -0.206 F 
ATOM     77  C   UNL A   1      39.994  33.519  37.597  1.00  0.00     0.022 A 
BRANCH  74  78
ATOM     78  S   UNL A   1      37.586  32.199  38.074  1.00  0.00     0.124 S 
ATOM     79  O   UNL A   1      36.673  33.041  37.310  1.00  0.00    -0.237 OA
ATOM     80  O   UNL A   1      37.406  30.758  37.927  1.00  0.00    -0.237 OA
ATOM     81  O   UNL A   1      37.866  32.654  39.434  1.00  0.00    -0.744 OA
ENDBRANCH  74  78
ENDBRANCH  47  71
BRANCH  59  82
ATOM     82  C   UNL A   1      45.341  26.944  34.119  1.00  0.00     0.023 A 
ATOM     83  C   UNL A   1      45.134  25.864  34.993  1.00  0.00     0.031 A 
ATOM     84  C   UNL A   1      46.626  27.511  34.055  1.00  0.00     0.131 A 
ATOM     85  C   UNL A   1      46.184  25.414  35.806  1.00  0.00     0.055 A 
ATOM     86  C   UNL A   1      47.682  27.021  34.824  1.00  0.00     0.041 A 
ATOM     87  F   UNL A   1      46.876  28.549  33.241  1.00  0.00    -0.206 F 
ATOM     88  C   UNL A   1      47.460  25.974  35.714  1.00  0.00     0.022 A 
BRANCH  85  89
ATOM     89  S   UNL A   1      45.839  24.138  37.048  1.00  0.00     0.124 S 
ATOM     90  O   UNL A   1      45.566  22.972  36.214  1.00  0.00    -0.237 OA
ATOM     91  O   UNL A   1      47.082  24.099  37.811  1.00  0.00    -0.237 OA
ATOM     92  O   UNL A   1      44.686  24.667  37.773  1.00  0.00    -0.744 OA
ENDBRANCH  85  89
ENDBRANCH  59  82
ENDBRANCH  33  34
ENDBRANCH  26  28
ENDBRANCH  25  26
ENDBRANCH  24  25
ENDBRANCH   1  24
TORSDOF 19
ENDMDL
