MODEL 1
REMARK VINA RESULT:     -10.7      0.000      0.000
REMARK SMILES CCCC[C@H](CC)C(=O)N1[C@H](C(=O)OCCOC(=O)c2ccc(-c3c4nc(c(-c5cc(S(=O)(=O)[O-])ccc5F)c5ccc([nH]5)c(-c5cc(S(=O)(=O)[O-])ccc5F)c5nc(c(-c6cc(S(=O)(=O)[O-])ccc6F)c6ccc3[nH]6)C=C5)C=C4)cc2)COC12CCCCC2
REMARK SMILES IDX 15 1 14 2 12 3 13 4 11 5 10 6 85 7 83 8 84 9 86 10 90 11
REMARK SMILES IDX 87 12 89 13 88 14 8 15 9 16 5 17 4 18 3 19 2 20 1 21 6 22
REMARK SMILES IDX 7 23 16 24 17 25 18 26 19 27 20 28 21 29 82 30 22 31 81 32
REMARK SMILES IDX 23 33 24 34 25 35 75 36 26 37 80 38 74 39 76 40 27 41 79 42
REMARK SMILES IDX 73 43 72 44 28 46 60 47 40 48 59 49 41 50 44 51 58 52 77 53
REMARK SMILES IDX 42 54 43 55 57 57 78 58 45 59 29 60 30 61 38 62 31 63 37 64
REMARK SMILES IDX 39 65 36 66 32 67 33 68 34 69 35 70 61 71 62 72 70 73 63 74
REMARK SMILES IDX 69 75 71 76 68 77 64 78 65 79 66 80 67 81 46 82 47 83 55 84
REMARK SMILES IDX 48 85 54 86 56 87 53 88 49 89 50 90 51 91 52 92
REMARK H PARENT 76 45 44 56
REMARK Flexibility Score: inf
ROOT
ATOM      1  C   UNL A   1      31.046  29.224  24.420  1.00  0.00     0.274 C 
ENDROOT
BRANCH   1   2
ATOM      2  O   UNL A   1      32.296  28.614  24.032  1.00  0.00    -0.460 OA
BRANCH   2   3
ATOM      3  C   UNL A   1      32.209  27.309  23.616  1.00  0.00     0.331 C 
ATOM      4  O   UNL A   1      31.823  27.025  22.491  1.00  0.00    -0.250 OA
BRANCH   3   5
ATOM      5  C   UNL A   1      32.516  26.306  24.773  1.00  0.00     0.223 C 
ATOM      6  N   UNL A   1      32.663  24.832  24.607  1.00  0.00    -0.298 N 
ATOM      7  C   UNL A   1      33.798  24.367  25.423  1.00  0.00     0.144 C 
ATOM      8  C   UNL A   1      33.855  26.689  25.386  1.00  0.00     0.200 C 
ATOM      9  O   UNL A   1      34.277  25.550  26.125  1.00  0.00    -0.353 OA
ATOM     10  C   UNL A   1      33.417  23.441  26.587  1.00  0.00     0.059 C 
ATOM     11  C   UNL A   1      34.972  23.908  24.544  1.00  0.00     0.059 C 
ATOM     12  C   UNL A   1      34.607  22.746  27.250  1.00  0.00     0.005 C 
ATOM     13  C   UNL A   1      36.108  23.242  25.312  1.00  0.00     0.005 C 
ATOM     14  C   UNL A   1      35.588  22.158  26.242  1.00  0.00     0.000 C 
BRANCH   6  15
ATOM     15  C   UNL A   1      31.678  24.132  23.945  1.00  0.00     0.228 C 
ATOM     16  O   UNL A   1      30.499  24.410  24.226  1.00  0.00    -0.274 OA
BRANCH  15  17
ATOM     17  C   UNL A   1      31.807  22.892  23.008  1.00  0.00     0.078 C 
BRANCH  17  18
ATOM     18  C   UNL A   1      31.813  21.681  23.991  1.00  0.00     0.013 C 
BRANCH  18  19
ATOM     19  C   UNL A   1      32.963  20.668  23.929  1.00  0.00     0.001 C 
BRANCH  19  20
ATOM     20  C   UNL A   1      32.800  19.307  24.618  1.00  0.00    -0.003 C 
ATOM     21  C   UNL A   1      34.067  18.487  24.790  1.00  0.00     0.004 C 
ENDBRANCH  19  20
ENDBRANCH  18  19
ENDBRANCH  17  18
BRANCH  17  22
ATOM     22  C   UNL A   1      32.772  22.743  21.828  1.00  0.00     0.010 C 
ATOM     23  C   UNL A   1      33.162  24.003  21.080  1.00  0.00     0.005 C 
ENDBRANCH  17  22
ENDBRANCH  15  17
ENDBRANCH   6  15
ENDBRANCH   3   5
ENDBRANCH   2   3
ENDBRANCH   1   2
BRANCH   1  24
ATOM     24  C   UNL A   1      31.270  30.400  25.369  1.00  0.00     0.275 C 
BRANCH  24  25
ATOM     25  O   UNL A   1      32.356  30.122  26.270  1.00  0.00    -0.458 OA
BRANCH  25  26
ATOM     26  C   UNL A   1      32.811  31.174  26.991  1.00  0.00     0.338 C 
ATOM     27  O   UNL A   1      32.189  32.175  27.298  1.00  0.00    -0.246 OA
BRANCH  26  28
ATOM     28  C   UNL A   1      34.210  30.943  27.399  1.00  0.00     0.060 A 
ATOM     29  C   UNL A   1      34.664  29.649  27.622  1.00  0.00     0.016 A 
ATOM     30  C   UNL A   1      35.039  32.023  27.704  1.00  0.00     0.016 A 
ATOM     31  C   UNL A   1      35.895  29.436  28.236  1.00  0.00     0.010 A 
ATOM     32  C   UNL A   1      36.306  31.798  28.267  1.00  0.00     0.010 A 
ATOM     33  C   UNL A   1      36.729  30.500  28.610  1.00  0.00    -0.014 A 
BRANCH  33  34
ATOM     34  C   UNL A   1      37.947  30.280  29.467  1.00  0.00     0.031 A 
ATOM     35  C   UNL A   1      39.114  29.478  28.919  1.00  0.00     0.074 A 
ATOM     36  C   UNL A   1      38.098  30.848  30.684  1.00  0.00     0.049 A 
ATOM     37  N   UNL A   1      40.136  28.954  29.550  1.00  0.00    -0.248 NA
ATOM     38  C   UNL A   1      39.124  29.229  27.468  1.00  0.00     0.031 C 
ATOM     39  C   UNL A   1      37.154  31.766  31.322  1.00  0.00     0.029 A 
ATOM     40  N   UNL A   1      39.133  30.770  31.590  1.00  0.00    -0.354 N 
ATOM     41  C   UNL A   1      40.847  28.229  28.597  1.00  0.00     0.074 A 
ATOM     42  C   UNL A   1      40.156  28.406  27.337  1.00  0.00     0.031 C 
ATOM     43  C   UNL A   1      37.689  32.228  32.462  1.00  0.00     0.029 A 
ATOM     44  C   UNL A   1      38.942  31.529  32.723  1.00  0.00     0.049 A 
ATOM     45  H   UNL A   1      39.937  30.220  31.440  1.00  0.00     0.167 HD
ATOM     46  C   UNL A   1      41.962  27.473  28.760  1.00  0.00     0.034 A 
ATOM     47  C   UNL A   1      39.649  31.611  33.871  1.00  0.00     0.034 A 
ATOM     48  C   UNL A   1      42.705  27.380  29.994  1.00  0.00     0.049 A 
ATOM     49  C   UNL A   1      40.852  30.717  34.058  1.00  0.00     0.074 A 
ATOM     50  C   UNL A   1      43.833  26.623  30.268  1.00  0.00     0.029 A 
ATOM     51  N   UNL A   1      42.418  28.091  31.149  1.00  0.00    -0.354 N 
ATOM     52  N   UNL A   1      41.413  29.894  33.204  1.00  0.00    -0.248 NA
ATOM     53  C   UNL A   1      41.494  30.737  35.382  1.00  0.00     0.031 C 
ATOM     54  C   UNL A   1      44.197  26.839  31.602  1.00  0.00     0.029 A 
ATOM     55  C   UNL A   1      43.337  27.781  32.140  1.00  0.00     0.049 A 
ATOM     56  H   UNL A   1      41.672  28.725  31.251  1.00  0.00     0.167 HD
ATOM     57  C   UNL A   1      42.476  29.307  33.887  1.00  0.00     0.074 A 
ATOM     58  C   UNL A   1      42.498  29.890  35.211  1.00  0.00     0.031 C 
ATOM     59  C   UNL A   1      43.352  28.363  33.459  1.00  0.00     0.034 A 
BRANCH  46  60
ATOM     60  C   UNL A   1      42.399  26.607  27.603  1.00  0.00     0.023 A 
ATOM     61  C   UNL A   1      41.997  25.271  27.457  1.00  0.00     0.031 A 
ATOM     62  C   UNL A   1      43.249  27.153  26.621  1.00  0.00     0.131 A 
ATOM     63  C   UNL A   1      42.483  24.511  26.380  1.00  0.00     0.055 A 
ATOM     64  C   UNL A   1      43.671  26.414  25.516  1.00  0.00     0.041 A 
ATOM     65  F   UNL A   1      43.681  28.420  26.720  1.00  0.00    -0.206 F 
ATOM     66  C   UNL A   1      43.298  25.080  25.396  1.00  0.00     0.022 A 
BRANCH  63  67
ATOM     67  S   UNL A   1      42.131  22.731  26.339  1.00  0.00     0.124 S 
ATOM     68  O   UNL A   1      42.628  22.363  25.015  1.00  0.00    -0.237 OA
ATOM     69  O   UNL A   1      42.900  22.233  27.473  1.00  0.00    -0.237 OA
ATOM     70  O   UNL A   1      40.678  22.665  26.492  1.00  0.00    -0.744 OA
ENDBRANCH  63  67
ENDBRANCH  46  60
BRANCH  47  71
ATOM     71  C   UNL A   1      39.187  32.483  34.996  1.00  0.00     0.023 A 
ATOM     72  C   UNL A   1      39.696  33.781  35.165  1.00  0.00     0.031 A 
ATOM     73  C   UNL A   1      38.295  31.997  35.970  1.00  0.00     0.131 A 
ATOM     74  C   UNL A   1      39.343  34.529  36.301  1.00  0.00     0.055 A 
ATOM     75  C   UNL A   1      37.889  32.773  37.057  1.00  0.00     0.041 A 
ATOM     76  F   UNL A   1      37.796  30.754  35.878  1.00  0.00    -0.206 F 
ATOM     77  C   UNL A   1      38.427  34.042  37.235  1.00  0.00     0.022 A 
BRANCH  74  78
ATOM     78  S   UNL A   1      40.191  36.104  36.606  1.00  0.00     0.124 S 
ATOM     79  O   UNL A   1      41.579  35.674  36.728  1.00  0.00    -0.237 OA
ATOM     80  O   UNL A   1      39.858  36.866  35.407  1.00  0.00    -0.237 OA
ATOM     81  O   UNL A   1      39.577  36.588  37.840  1.00  0.00    -0.744 OA
ENDBRANCH  74  78
ENDBRANCH  47  71
BRANCH  59  82
ATOM     82  C   UNL A   1      44.434  27.939  34.420  1.00  0.00     0.023 A 
ATOM     83  C   UNL A   1      44.182  27.028  35.461  1.00  0.00     0.031 A 
ATOM     84  C   UNL A   1      45.733  28.458  34.293  1.00  0.00     0.131 A 
ATOM     85  C   UNL A   1      45.205  26.698  36.364  1.00  0.00     0.055 A 
ATOM     86  C   UNL A   1      46.760  28.090  35.164  1.00  0.00     0.041 A 
ATOM     87  F   UNL A   1      46.027  29.331  33.316  1.00  0.00    -0.206 F 
ATOM     88  C   UNL A   1      46.496  27.214  36.213  1.00  0.00     0.022 A 
BRANCH  85  89
ATOM     89  S   UNL A   1      44.814  25.638  37.783  1.00  0.00     0.124 S 
ATOM     90  O   UNL A   1      44.200  26.584  38.710  1.00  0.00    -0.237 OA
ATOM     91  O   UNL A   1      43.917  24.648  37.195  1.00  0.00    -0.237 OA
ATOM     92  O   UNL A   1      46.118  25.122  38.196  1.00  0.00    -0.744 OA
ENDBRANCH  85  89
ENDBRANCH  59  82
ENDBRANCH  33  34
ENDBRANCH  26  28
ENDBRANCH  25  26
ENDBRANCH  24  25
ENDBRANCH   1  24
TORSDOF 20
ENDMDL
MODEL 2
REMARK VINA RESULT:     -10.0      1.686      2.840
REMARK SMILES CCCC[C@H](CC)C(=O)N1[C@H](C(=O)OCCOC(=O)c2ccc(-c3c4nc(c(-c5cc(S(=O)(=O)[O-])ccc5F)c5ccc([nH]5)c(-c5cc(S(=O)(=O)[O-])ccc5F)c5nc(c(-c6cc(S(=O)(=O)[O-])ccc6F)c6ccc3[nH]6)C=C5)C=C4)cc2)COC12CCCCC2
REMARK SMILES IDX 15 1 14 2 12 3 13 4 11 5 10 6 85 7 83 8 84 9 86 10 90 11
REMARK SMILES IDX 87 12 89 13 88 14 8 15 9 16 5 17 4 18 3 19 2 20 1 21 6 22
REMARK SMILES IDX 7 23 16 24 17 25 18 26 19 27 20 28 21 29 82 30 22 31 81 32
REMARK SMILES IDX 23 33 24 34 25 35 75 36 26 37 80 38 74 39 76 40 27 41 79 42
REMARK SMILES IDX 73 43 72 44 28 46 60 47 40 48 59 49 41 50 44 51 58 52 77 53
REMARK SMILES IDX 42 54 43 55 57 57 78 58 45 59 29 60 30 61 38 62 31 63 37 64
REMARK SMILES IDX 39 65 36 66 32 67 33 68 34 69 35 70 61 71 62 72 70 73 63 74
REMARK SMILES IDX 69 75 71 76 68 77 64 78 65 79 66 80 67 81 46 82 47 83 55 84
REMARK SMILES IDX 48 85 54 86 56 87 53 88 49 89 50 90 51 91 52 92
REMARK H PARENT 76 45 44 56
REMARK Flexibility Score: inf
ROOT
ATOM      1  C   UNL A   1      31.013  30.413  25.743  1.00  0.00     0.274 C 
ENDROOT
BRANCH   1   2
ATOM      2  O   UNL A   1      31.730  29.953  24.577  1.00  0.00    -0.460 OA
BRANCH   2   3
ATOM      3  C   UNL A   1      30.960  29.345  23.617  1.00  0.00     0.331 C 
ATOM      4  O   UNL A   1      29.795  29.668  23.439  1.00  0.00    -0.250 OA
BRANCH   3   5
ATOM      5  C   UNL A   1      31.709  28.157  22.934  1.00  0.00     0.223 C 
ATOM      6  N   UNL A   1      32.382  27.043  23.661  1.00  0.00    -0.298 N 
ATOM      7  C   UNL A   1      32.089  25.774  22.974  1.00  0.00     0.144 C 
ATOM      8  C   UNL A   1      30.710  27.407  22.066  1.00  0.00     0.200 C 
ATOM      9  O   UNL A   1      31.304  26.142  21.804  1.00  0.00    -0.353 OA
ATOM     10  C   UNL A   1      33.307  25.092  22.336  1.00  0.00     0.059 C 
ATOM     11  C   UNL A   1      31.172  24.875  23.818  1.00  0.00     0.059 C 
ATOM     12  C   UNL A   1      33.052  23.656  21.873  1.00  0.00     0.005 C 
ATOM     13  C   UNL A   1      30.976  23.473  23.256  1.00  0.00     0.005 C 
ATOM     14  C   UNL A   1      32.306  22.823  22.909  1.00  0.00     0.000 C 
BRANCH   6  15
ATOM     15  C   UNL A   1      33.282  27.344  24.660  1.00  0.00     0.228 C 
ATOM     16  O   UNL A   1      34.260  28.046  24.349  1.00  0.00    -0.274 OA
BRANCH  15  17
ATOM     17  C   UNL A   1      33.369  26.785  26.114  1.00  0.00     0.078 C 
BRANCH  17  18
ATOM     18  C   UNL A   1      34.207  25.479  25.961  1.00  0.00     0.013 C 
BRANCH  18  19
ATOM     19  C   UNL A   1      33.590  24.137  26.372  1.00  0.00     0.001 C 
BRANCH  19  20
ATOM     20  C   UNL A   1      34.285  22.834  25.955  1.00  0.00    -0.003 C 
ATOM     21  C   UNL A   1      33.495  21.554  26.172  1.00  0.00     0.004 C 
ENDBRANCH  19  20
ENDBRANCH  18  19
ENDBRANCH  17  18
BRANCH  17  22
ATOM     22  C   UNL A   1      32.214  26.673  27.113  1.00  0.00     0.010 C 
ATOM     23  C   UNL A   1      31.674  27.959  27.705  1.00  0.00     0.005 C 
ENDBRANCH  17  22
ENDBRANCH  15  17
ENDBRANCH   6  15
ENDBRANCH   3   5
ENDBRANCH   2   3
ENDBRANCH   1   2
BRANCH   1  24
ATOM     24  C   UNL A   1      31.718  31.600  26.398  1.00  0.00     0.275 C 
BRANCH  24  25
ATOM     25  O   UNL A   1      32.929  31.173  27.047  1.00  0.00    -0.458 OA
BRANCH  25  26
ATOM     26  C   UNL A   1      33.673  32.153  27.613  1.00  0.00     0.338 C 
ATOM     27  O   UNL A   1      33.321  33.292  27.856  1.00  0.00    -0.246 OA
BRANCH  26  28
ATOM     28  C   UNL A   1      35.020  31.644  27.937  1.00  0.00     0.060 A 
ATOM     29  C   UNL A   1      35.192  30.311  28.291  1.00  0.00     0.016 A 
ATOM     30  C   UNL A   1      36.098  32.524  28.034  1.00  0.00     0.016 A 
ATOM     31  C   UNL A   1      36.402  29.882  28.830  1.00  0.00     0.010 A 
ATOM     32  C   UNL A   1      37.334  32.069  28.521  1.00  0.00     0.010 A 
ATOM     33  C   UNL A   1      37.489  30.753  28.997  1.00  0.00    -0.014 A 
BRANCH  33  34
ATOM     34  C   UNL A   1      38.709  30.346  29.777  1.00  0.00     0.031 A 
ATOM     35  C   UNL A   1      39.735  29.425  29.139  1.00  0.00     0.074 A 
ATOM     36  C   UNL A   1      38.993  30.841  31.002  1.00  0.00     0.049 A 
ATOM     37  N   UNL A   1      40.711  28.751  29.695  1.00  0.00    -0.248 NA
ATOM     38  C   UNL A   1      39.639  29.235  27.682  1.00  0.00     0.031 C 
ATOM     39  C   UNL A   1      38.209  31.844  31.721  1.00  0.00     0.029 A 
ATOM     40  N   UNL A   1      40.054  30.596  31.847  1.00  0.00    -0.354 N 
ATOM     41  C   UNL A   1      41.274  27.980  28.680  1.00  0.00     0.074 A 
ATOM     42  C   UNL A   1      40.549  28.294  27.468  1.00  0.00     0.031 C 
ATOM     43  C   UNL A   1      38.856  32.190  32.845  1.00  0.00     0.029 A 
ATOM     44  C   UNL A   1      40.020  31.328  33.013  1.00  0.00     0.049 A 
ATOM     45  H   UNL A   1      40.772  29.955  31.634  1.00  0.00     0.167 HD
ATOM     46  C   UNL A   1      42.289  27.083  28.757  1.00  0.00     0.034 A 
ATOM     47  C   UNL A   1      40.788  31.273  34.123  1.00  0.00     0.034 A 
ATOM     48  C   UNL A   1      43.075  26.848  29.945  1.00  0.00     0.049 A 
ATOM     49  C   UNL A   1      41.874  30.227  34.214  1.00  0.00     0.074 A 
ATOM     50  C   UNL A   1      44.108  25.943  30.130  1.00  0.00     0.029 A 
ATOM     51  N   UNL A   1      42.941  27.543  31.136  1.00  0.00    -0.354 N 
ATOM     52  N   UNL A   1      42.281  29.374  33.302  1.00  0.00    -0.248 NA
ATOM     53  C   UNL A   1      42.579  30.112  35.499  1.00  0.00     0.031 C 
ATOM     54  C   UNL A   1      44.564  26.057  31.448  1.00  0.00     0.029 A 
ATOM     55  C   UNL A   1      43.860  27.078  32.065  1.00  0.00     0.049 A 
ATOM     56  H   UNL A   1      42.288  28.261  31.300  1.00  0.00     0.167 HD
ATOM     57  C   UNL A   1      43.293  28.630  33.906  1.00  0.00     0.074 A 
ATOM     58  C   UNL A   1      43.456  29.152  35.245  1.00  0.00     0.031 C 
ATOM     59  C   UNL A   1      44.016  27.601  33.399  1.00  0.00     0.034 A 
BRANCH  46  60
ATOM     60  C   UNL A   1      42.552  26.216  27.549  1.00  0.00     0.023 A 
ATOM     61  C   UNL A   1      42.073  24.902  27.436  1.00  0.00     0.031 A 
ATOM     62  C   UNL A   1      43.311  26.737  26.483  1.00  0.00     0.131 A 
ATOM     63  C   UNL A   1      42.399  24.138  26.303  1.00  0.00     0.055 A 
ATOM     64  C   UNL A   1      43.572  25.997  25.330  1.00  0.00     0.041 A 
ATOM     65  F   UNL A   1      43.811  27.982  26.546  1.00  0.00    -0.206 F 
ATOM     66  C   UNL A   1      43.125  24.683  25.240  1.00  0.00     0.022 A 
BRANCH  63  67
ATOM     67  S   UNL A   1      41.962  22.377  26.285  1.00  0.00     0.124 S 
ATOM     68  O   UNL A   1      42.473  21.932  27.579  1.00  0.00    -0.237 OA
ATOM     69  O   UNL A   1      40.510  22.415  26.149  1.00  0.00    -0.237 OA
ATOM     70  O   UNL A   1      42.684  21.855  25.125  1.00  0.00    -0.744 OA
ENDBRANCH  63  67
ENDBRANCH  46  60
BRANCH  47  71
ATOM     71  C   UNL A   1      40.500  32.150  35.300  1.00  0.00     0.023 A 
ATOM     72  C   UNL A   1      39.409  31.894  36.148  1.00  0.00     0.031 A 
ATOM     73  C   UNL A   1      41.260  33.310  35.544  1.00  0.00     0.131 A 
ATOM     74  C   UNL A   1      39.085  32.805  37.167  1.00  0.00     0.055 A 
ATOM     75  C   UNL A   1      40.979  34.172  36.604  1.00  0.00     0.041 A 
ATOM     76  F   UNL A   1      42.298  33.623  34.751  1.00  0.00    -0.206 F 
ATOM     77  C   UNL A   1      39.875  33.930  37.414  1.00  0.00     0.022 A 
BRANCH  74  78
ATOM     78  S   UNL A   1      37.543  32.565  38.093  1.00  0.00     0.124 S 
ATOM     79  O   UNL A   1      37.864  33.191  39.370  1.00  0.00    -0.237 OA
ATOM     80  O   UNL A   1      36.575  33.269  37.258  1.00  0.00    -0.237 OA
ATOM     81  O   UNL A   1      37.391  31.112  38.130  1.00  0.00    -0.744 OA
ENDBRANCH  74  78
ENDBRANCH  47  71
BRANCH  59  82
ATOM     82  C   UNL A   1      45.082  27.004  34.285  1.00  0.00     0.023 A 
ATOM     83  C   UNL A   1      44.764  26.124  35.334  1.00  0.00     0.031 A 
ATOM     84  C   UNL A   1      46.433  27.326  34.076  1.00  0.00     0.131 A 
ATOM     85  C   UNL A   1      45.782  25.632  36.166  1.00  0.00     0.055 A 
ATOM     86  C   UNL A   1      47.447  26.796  34.876  1.00  0.00     0.041 A 
ATOM     87  F   UNL A   1      46.792  28.162  33.088  1.00  0.00    -0.206 F 
ATOM     88  C   UNL A   1      47.123  25.952  35.935  1.00  0.00     0.022 A 
BRANCH  85  89
ATOM     89  S   UNL A   1      45.327  24.618  37.600  1.00  0.00     0.124 S 
ATOM     90  O   UNL A   1      43.936  24.284  37.308  1.00  0.00    -0.237 OA
ATOM     91  O   UNL A   1      46.279  23.516  37.518  1.00  0.00    -0.237 OA
ATOM     92  O   UNL A   1      45.522  25.521  38.734  1.00  0.00    -0.744 OA
ENDBRANCH  85  89
ENDBRANCH  59  82
ENDBRANCH  33  34
ENDBRANCH  26  28
ENDBRANCH  25  26
ENDBRANCH  24  25
ENDBRANCH   1  24
TORSDOF 20
ENDMDL
MODEL 3
REMARK VINA RESULT:      -9.9      2.203      8.323
REMARK SMILES CCCC[C@H](CC)C(=O)N1[C@H](C(=O)OCCOC(=O)c2ccc(-c3c4nc(c(-c5cc(S(=O)(=O)[O-])ccc5F)c5ccc([nH]5)c(-c5cc(S(=O)(=O)[O-])ccc5F)c5nc(c(-c6cc(S(=O)(=O)[O-])ccc6F)c6ccc3[nH]6)C=C5)C=C4)cc2)COC12CCCCC2
REMARK SMILES IDX 15 1 14 2 12 3 13 4 11 5 10 6 85 7 83 8 84 9 86 10 90 11
REMARK SMILES IDX 87 12 89 13 88 14 8 15 9 16 5 17 4 18 3 19 2 20 1 21 6 22
REMARK SMILES IDX 7 23 16 24 17 25 18 26 19 27 20 28 21 29 82 30 22 31 81 32
REMARK SMILES IDX 23 33 24 34 25 35 75 36 26 37 80 38 74 39 76 40 27 41 79 42
REMARK SMILES IDX 73 43 72 44 28 46 60 47 40 48 59 49 41 50 44 51 58 52 77 53
REMARK SMILES IDX 42 54 43 55 57 57 78 58 45 59 29 60 30 61 38 62 31 63 37 64
REMARK SMILES IDX 39 65 36 66 32 67 33 68 34 69 35 70 61 71 62 72 70 73 63 74
REMARK SMILES IDX 69 75 71 76 68 77 64 78 65 79 66 80 67 81 46 82 47 83 55 84
REMARK SMILES IDX 48 85 54 86 56 87 53 88 49 89 50 90 51 91 52 92
REMARK H PARENT 76 45 44 56
REMARK Flexibility Score: inf
ROOT
ATOM      1  C   UNL A   1      31.344  31.438  26.256  1.00  0.00     0.274 C 
ENDROOT
BRANCH   1   2
ATOM      2  O   UNL A   1      32.479  30.565  26.445  1.00  0.00    -0.460 OA
BRANCH   2   3
ATOM      3  C   UNL A   1      32.596  29.548  25.530  1.00  0.00     0.331 C 
ATOM      4  O   UNL A   1      33.248  29.690  24.505  1.00  0.00    -0.250 OA
BRANCH   3   5
ATOM      5  C   UNL A   1      31.709  28.320  25.905  1.00  0.00     0.223 C 
ATOM      6  N   UNL A   1      31.453  27.151  25.017  1.00  0.00    -0.298 N 
ATOM      7  C   UNL A   1      31.519  25.916  25.817  1.00  0.00     0.144 C 
ATOM      8  C   UNL A   1      32.316  27.656  27.131  1.00  0.00     0.200 C 
ATOM      9  O   UNL A   1      31.743  26.356  27.186  1.00  0.00    -0.353 OA
ATOM     10  C   UNL A   1      30.190  25.158  25.941  1.00  0.00     0.059 C 
ATOM     11  C   UNL A   1      32.750  25.073  25.450  1.00  0.00     0.059 C 
ATOM     12  C   UNL A   1      30.323  23.751  26.527  1.00  0.00     0.005 C 
ATOM     13  C   UNL A   1      32.787  23.696  26.102  1.00  0.00     0.005 C 
ATOM     14  C   UNL A   1      31.471  22.958  25.913  1.00  0.00     0.000 C 
BRANCH   6  15
ATOM     15  C   UNL A   1      31.015  27.372  23.729  1.00  0.00     0.228 C 
ATOM     16  O   UNL A   1      31.874  27.369  22.830  1.00  0.00    -0.274 OA
BRANCH  15  17
ATOM     17  C   UNL A   1      29.606  27.813  23.225  1.00  0.00     0.078 C 
BRANCH  17  18
ATOM     18  C   UNL A   1      29.685  29.370  23.215  1.00  0.00     0.013 C 
BRANCH  18  19
ATOM     19  C   UNL A   1      29.371  30.130  21.921  1.00  0.00     0.001 C 
BRANCH  19  20
ATOM     20  C   UNL A   1      28.176  31.091  21.888  1.00  0.00    -0.003 C 
ATOM     21  C   UNL A   1      28.495  32.549  21.601  1.00  0.00     0.004 C 
ENDBRANCH  19  20
ENDBRANCH  18  19
ENDBRANCH  17  18
BRANCH  17  22
ATOM     22  C   UNL A   1      28.259  27.258  23.699  1.00  0.00     0.010 C 
ATOM     23  C   UNL A   1      27.034  28.125  23.488  1.00  0.00     0.005 C 
ENDBRANCH  17  22
ENDBRANCH  15  17
ENDBRANCH   6  15
ENDBRANCH   3   5
ENDBRANCH   2   3
ENDBRANCH   1   2
BRANCH   1  24
ATOM     24  C   UNL A   1      31.609  32.828  26.832  1.00  0.00     0.275 C 
BRANCH  24  25
ATOM     25  O   UNL A   1      32.972  32.941  27.275  1.00  0.00    -0.458 OA
BRANCH  25  26
ATOM     26  C   UNL A   1      33.230  33.942  28.149  1.00  0.00     0.338 C 
ATOM     27  O   UNL A   1      32.633  34.999  28.248  1.00  0.00    -0.246 OA
BRANCH  26  28
ATOM     28  C   UNL A   1      34.359  33.574  29.026  1.00  0.00     0.060 A 
ATOM     29  C   UNL A   1      35.664  33.694  28.564  1.00  0.00     0.016 A 
ATOM     30  C   UNL A   1      34.120  32.970  30.260  1.00  0.00     0.016 A 
ATOM     31  C   UNL A   1      36.714  33.126  29.281  1.00  0.00     0.010 A 
ATOM     32  C   UNL A   1      35.192  32.455  31.008  1.00  0.00     0.010 A 
ATOM     33  C   UNL A   1      36.504  32.460  30.498  1.00  0.00    -0.014 A 
BRANCH  33  34
ATOM     34  C   UNL A   1      37.598  31.662  31.155  1.00  0.00     0.031 A 
ATOM     35  C   UNL A   1      37.885  31.859  32.633  1.00  0.00     0.074 A 
ATOM     36  C   UNL A   1      38.287  30.695  30.509  1.00  0.00     0.049 A 
ATOM     37  N   UNL A   1      38.922  31.480  33.339  1.00  0.00    -0.248 NA
ATOM     38  C   UNL A   1      36.871  32.586  33.414  1.00  0.00     0.031 C 
ATOM     39  C   UNL A   1      38.060  30.257  29.132  1.00  0.00     0.029 A 
ATOM     40  N   UNL A   1      39.297  29.867  30.948  1.00  0.00    -0.354 N 
ATOM     41  C   UNL A   1      38.735  32.012  34.613  1.00  0.00     0.074 A 
ATOM     42  C   UNL A   1      37.470  32.714  34.590  1.00  0.00     0.031 C 
ATOM     43  C   UNL A   1      38.837  29.195  28.872  1.00  0.00     0.029 A 
ATOM     44  C   UNL A   1      39.731  28.966  30.000  1.00  0.00     0.049 A 
ATOM     45  H   UNL A   1      39.675  29.915  31.857  1.00  0.00     0.167 HD
ATOM     46  C   UNL A   1      39.551  31.935  35.694  1.00  0.00     0.034 A 
ATOM     47  C   UNL A   1      40.768  28.100  30.002  1.00  0.00     0.034 A 
ATOM     48  C   UNL A   1      40.761  31.151  35.743  1.00  0.00     0.049 A 
ATOM     49  C   UNL A   1      41.700  28.072  31.190  1.00  0.00     0.074 A 
ATOM     50  C   UNL A   1      41.669  31.027  36.783  1.00  0.00     0.029 A 
ATOM     51  N   UNL A   1      41.217  30.329  34.724  1.00  0.00    -0.354 N 
ATOM     52  N   UNL A   1      41.611  28.722  32.327  1.00  0.00    -0.248 NA
ATOM     53  C   UNL A   1      42.895  27.223  31.077  1.00  0.00     0.031 C 
ATOM     54  C   UNL A   1      42.697  30.171  36.374  1.00  0.00     0.029 A 
ATOM     55  C   UNL A   1      42.398  29.709  35.103  1.00  0.00     0.049 A 
ATOM     56  H   UNL A   1      40.768  30.205  33.856  1.00  0.00     0.167 HD
ATOM     57  C   UNL A   1      42.734  28.350  33.064  1.00  0.00     0.074 A 
ATOM     58  C   UNL A   1      43.469  27.399  32.257  1.00  0.00     0.031 C 
ATOM     59  C   UNL A   1      43.127  28.765  34.294  1.00  0.00     0.034 A 
BRANCH  46  60
ATOM     60  C   UNL A   1      39.215  32.796  36.889  1.00  0.00     0.023 A 
ATOM     61  C   UNL A   1      39.807  34.048  37.117  1.00  0.00     0.031 A 
ATOM     62  C   UNL A   1      38.269  32.332  37.824  1.00  0.00     0.131 A 
ATOM     63  C   UNL A   1      39.481  34.771  38.276  1.00  0.00     0.055 A 
ATOM     64  C   UNL A   1      37.899  33.087  38.937  1.00  0.00     0.041 A 
ATOM     65  F   UNL A   1      37.686  31.132  37.667  1.00  0.00    -0.206 F 
ATOM     66  C   UNL A   1      38.515  34.311  39.175  1.00  0.00     0.022 A 
BRANCH  63  67
ATOM     67  S   UNL A   1      40.424  36.273  38.660  1.00  0.00     0.124 S 
ATOM     68  O   UNL A   1      39.575  36.905  39.667  1.00  0.00    -0.237 OA
ATOM     69  O   UNL A   1      41.692  35.736  39.137  1.00  0.00    -0.237 OA
ATOM     70  O   UNL A   1      40.486  36.976  37.379  1.00  0.00    -0.744 OA
ENDBRANCH  63  67
ENDBRANCH  46  60
BRANCH  47  71
ATOM     71  C   UNL A   1      41.069  27.260  28.801  1.00  0.00     0.023 A 
ATOM     72  C   UNL A   1      42.066  27.633  27.885  1.00  0.00     0.031 A 
ATOM     73  C   UNL A   1      40.302  26.117  28.505  1.00  0.00     0.131 A 
ATOM     74  C   UNL A   1      42.240  26.897  26.700  1.00  0.00     0.055 A 
ATOM     75  C   UNL A   1      40.529  25.347  27.364  1.00  0.00     0.041 A 
ATOM     76  F   UNL A   1      39.317  25.726  29.328  1.00  0.00    -0.206 F 
ATOM     77  C   UNL A   1      41.493  25.745  26.445  1.00  0.00     0.022 A 
BRANCH  74  78
ATOM     78  S   UNL A   1      43.375  27.536  25.436  1.00  0.00     0.124 S 
ATOM     79  O   UNL A   1      44.117  26.335  25.071  1.00  0.00    -0.237 OA
ATOM     80  O   UNL A   1      42.450  28.050  24.430  1.00  0.00    -0.237 OA
ATOM     81  O   UNL A   1      44.143  28.552  26.151  1.00  0.00    -0.744 OA
ENDBRANCH  74  78
ENDBRANCH  47  71
BRANCH  59  82
ATOM     82  C   UNL A   1      44.385  28.155  34.859  1.00  0.00     0.023 A 
ATOM     83  C   UNL A   1      44.364  26.943  35.572  1.00  0.00     0.031 A 
ATOM     84  C   UNL A   1      45.621  28.799  34.685  1.00  0.00     0.131 A 
ATOM     85  C   UNL A   1      45.550  26.435  36.124  1.00  0.00     0.055 A 
ATOM     86  C   UNL A   1      46.806  28.266  35.195  1.00  0.00     0.041 A 
ATOM     87  F   UNL A   1      45.698  29.959  34.012  1.00  0.00    -0.206 F 
ATOM     88  C   UNL A   1      46.773  27.083  35.928  1.00  0.00     0.022 A 
BRANCH  85  89
ATOM     89  S   UNL A   1      45.468  24.950  37.163  1.00  0.00     0.124 S 
ATOM     90  O   UNL A   1      46.820  24.413  37.033  1.00  0.00    -0.237 OA
ATOM     91  O   UNL A   1      45.123  25.501  38.469  1.00  0.00    -0.237 OA
ATOM     92  O   UNL A   1      44.420  24.149  36.533  1.00  0.00    -0.744 OA
ENDBRANCH  85  89
ENDBRANCH  59  82
ENDBRANCH  33  34
ENDBRANCH  26  28
ENDBRANCH  25  26
ENDBRANCH  24  25
ENDBRANCH   1  24
TORSDOF 20
ENDMDL
