MODEL 1
REMARK VINA RESULT:     -11.6      0.000      0.000
REMARK SMILES CC[NH2+][C@@]1(C(=O)OCCOC(=O)c2ccc(-c3c4nc(c(-c5cc(S(=O)(=O)[O-])ccc5F)c5ccc([nH]5)c(-c5cc(S(=O)(=O)[O-])ccc5F)c5nc(c(-c6cc(S(=O)(=O)[O-])ccc6F)c6ccc3[nH]6)C=C5)C=C4)cc2)CCC[C@@H](Sc2ncc(C)cn2)C1
REMARK SMILES IDX 9 1 8 2 7 3 5 4 6 5 4 6 76 7 88 8 77 9 79 10 78 11 3 12 2 15
REMARK SMILES IDX 1 16 80 17 81 18 82 19 87 20 83 21 86 22 84 23 85 24 10 25
REMARK SMILES IDX 11 26 12 27 13 28 14 29 75 30 15 31 74 32 16 33 17 34 18 35
REMARK SMILES IDX 68 36 19 37 73 38 67 39 69 40 20 41 72 42 66 43 65 44 21 46
REMARK SMILES IDX 53 47 33 48 52 49 34 50 37 51 51 52 70 53 35 54 36 55 50 57
REMARK SMILES IDX 71 58 38 59 22 60 23 61 31 62 24 63 30 64 32 65 29 66 25 67
REMARK SMILES IDX 26 68 27 69 28 70 54 71 55 72 63 73 56 74 62 75 64 76 61 77
REMARK SMILES IDX 57 78 58 79 59 80 60 81 39 82 40 83 48 84 41 85 47 86 49 87
REMARK SMILES IDX 46 88 42 89 43 90 44 91 45 92
REMARK H PARENT 3 13 3 14 69 45 37 56
REMARK Flexibility Score: inf
ROOT
ATOM      1  C   UNL A   1      31.800  29.996  25.384  1.00  0.00     0.275 C 
ENDROOT
BRANCH   1   2
ATOM      2  C   UNL A   1      32.203  28.582  24.976  1.00  0.00     0.274 C 
BRANCH   2   3
ATOM      3  O   UNL A   1      32.061  27.687  26.102  1.00  0.00    -0.457 OA
BRANCH   3   4
ATOM      4  C   UNL A   1      32.654  26.464  26.019  1.00  0.00     0.368 C 
ATOM      5  O   UNL A   1      33.868  26.288  26.000  1.00  0.00    -0.245 OA
BRANCH   4   6
ATOM      6  C   UNL A   1      31.609  25.319  25.806  1.00  0.00     0.195 C 
ATOM      7  C   UNL A   1      32.135  24.440  24.646  1.00  0.00     0.081 C 
ATOM      8  C   UNL A   1      30.165  25.813  25.533  1.00  0.00     0.096 C 
ATOM      9  C   UNL A   1      31.927  25.054  23.269  1.00  0.00     0.008 C 
ATOM     10  C   UNL A   1      29.900  26.290  24.092  1.00  0.00     0.061 C 
ATOM     11  C   UNL A   1      30.450  25.337  23.030  1.00  0.00     0.015 C 
BRANCH   6  12
ATOM     12  N   UNL A   1      31.609  24.393  26.988  1.00  0.00    -0.332 N 
ATOM     13  H   UNL A   1      32.563  24.341  27.344  1.00  0.00     0.347 HD
ATOM     14  H   UNL A   1      30.939  24.788  27.647  1.00  0.00     0.347 HD
BRANCH  12  15
ATOM     15  C   UNL A   1      31.152  23.029  26.732  1.00  0.00     0.257 C 
ATOM     16  C   UNL A   1      29.704  22.849  27.172  1.00  0.00     0.071 C 
ENDBRANCH  12  15
ENDBRANCH   6  12
BRANCH  10  17
ATOM     17  S   UNL A   1      28.135  26.709  23.773  1.00  0.00    -0.083 SA
BRANCH  17  18
ATOM     18  C   UNL A   1      28.283  28.345  23.107  1.00  0.00     0.187 A 
ATOM     19  N   UNL A   1      27.233  29.166  23.248  1.00  0.00    -0.231 NA
ATOM     20  N   UNL A   1      29.439  28.671  22.504  1.00  0.00    -0.231 NA
ATOM     21  C   UNL A   1      27.354  30.398  22.721  1.00  0.00     0.119 A 
ATOM     22  C   UNL A   1      29.513  29.922  22.007  1.00  0.00     0.119 A 
ATOM     23  C   UNL A   1      28.486  30.840  22.071  1.00  0.00    -0.014 A 
ATOM     24  C   UNL A   1      28.610  32.215  21.512  1.00  0.00     0.048 C 
ENDBRANCH  17  18
ENDBRANCH  10  17
ENDBRANCH   4   6
ENDBRANCH   3   4
ENDBRANCH   2   3
ENDBRANCH   1   2
BRANCH   1  25
ATOM     25  O   UNL A   1      32.198  30.179  26.748  1.00  0.00    -0.458 OA
BRANCH  25  26
ATOM     26  C   UNL A   1      32.746  31.376  27.065  1.00  0.00     0.338 C 
ATOM     27  O   UNL A   1      32.225  32.469  26.937  1.00  0.00    -0.246 OA
BRANCH  26  28
ATOM     28  C   UNL A   1      34.101  31.142  27.623  1.00  0.00     0.060 A 
ATOM     29  C   UNL A   1      34.554  29.840  27.840  1.00  0.00     0.016 A 
ATOM     30  C   UNL A   1      34.905  32.216  28.004  1.00  0.00     0.016 A 
ATOM     31  C   UNL A   1      35.756  29.609  28.510  1.00  0.00     0.010 A 
ATOM     32  C   UNL A   1      36.159  31.976  28.589  1.00  0.00     0.010 A 
ATOM     33  C   UNL A   1      36.588  30.668  28.889  1.00  0.00    -0.014 A 
BRANCH  33  34
ATOM     34  C   UNL A   1      37.841  30.421  29.675  1.00  0.00     0.031 A 
ATOM     35  C   UNL A   1      38.956  29.607  29.060  1.00  0.00     0.074 A 
ATOM     36  C   UNL A   1      38.036  30.941  30.907  1.00  0.00     0.049 A 
ATOM     37  N   UNL A   1      39.986  29.038  29.632  1.00  0.00    -0.248 NA
ATOM     38  C   UNL A   1      38.883  29.392  27.607  1.00  0.00     0.031 C 
ATOM     39  C   UNL A   1      37.112  31.829  31.615  1.00  0.00     0.029 A 
ATOM     40  N   UNL A   1      39.094  30.814  31.778  1.00  0.00    -0.354 N 
ATOM     41  C   UNL A   1      40.632  28.321  28.627  1.00  0.00     0.074 A 
ATOM     42  C   UNL A   1      39.877  28.540  27.410  1.00  0.00     0.031 C 
ATOM     43  C   UNL A   1      37.671  32.218  32.772  1.00  0.00     0.029 A 
ATOM     44  C   UNL A   1      38.933  31.510  32.955  1.00  0.00     0.049 A 
ATOM     45  H   UNL A   1      39.893  30.274  31.577  1.00  0.00     0.167 HD
ATOM     46  C   UNL A   1      41.742  27.545  28.716  1.00  0.00     0.034 A 
ATOM     47  C   UNL A   1      39.676  31.533  34.083  1.00  0.00     0.034 A 
ATOM     48  C   UNL A   1      42.528  27.397  29.918  1.00  0.00     0.049 A 
ATOM     49  C   UNL A   1      40.888  30.638  34.177  1.00  0.00     0.074 A 
ATOM     50  C   UNL A   1      43.646  26.609  30.131  1.00  0.00     0.029 A 
ATOM     51  N   UNL A   1      42.297  28.081  31.106  1.00  0.00    -0.354 N 
ATOM     52  N   UNL A   1      41.391  29.831  33.274  1.00  0.00    -0.248 NA
ATOM     53  C   UNL A   1      41.607  30.633  35.459  1.00  0.00     0.031 C 
ATOM     54  C   UNL A   1      44.065  26.783  31.457  1.00  0.00     0.029 A 
ATOM     55  C   UNL A   1      43.246  27.727  32.053  1.00  0.00     0.049 A 
ATOM     56  H   UNL A   1      41.565  28.722  31.253  1.00  0.00     0.167 HD
ATOM     57  C   UNL A   1      42.487  29.222  33.880  1.00  0.00     0.074 A 
ATOM     58  C   UNL A   1      42.589  29.779  35.213  1.00  0.00     0.031 C 
ATOM     59  C   UNL A   1      43.327  28.278  33.384  1.00  0.00     0.034 A 
BRANCH  46  60
ATOM     60  C   UNL A   1      42.114  26.732  27.500  1.00  0.00     0.023 A 
ATOM     61  C   UNL A   1      41.802  25.367  27.380  1.00  0.00     0.031 A 
ATOM     62  C   UNL A   1      42.846  27.333  26.458  1.00  0.00     0.131 A 
ATOM     63  C   UNL A   1      42.286  24.633  26.284  1.00  0.00     0.055 A 
ATOM     64  C   UNL A   1      43.254  26.616  25.333  1.00  0.00     0.041 A 
ATOM     65  F   UNL A   1      43.192  28.628  26.527  1.00  0.00    -0.206 F 
ATOM     66  C   UNL A   1      42.989  25.254  25.249  1.00  0.00     0.022 A 
BRANCH  63  67
ATOM     67  S   UNL A   1      42.114  22.828  26.305  1.00  0.00     0.124 S 
ATOM     68  O   UNL A   1      40.672  22.671  26.477  1.00  0.00    -0.237 OA
ATOM     69  O   UNL A   1      42.647  22.446  25.002  1.00  0.00    -0.237 OA
ATOM     70  O   UNL A   1      42.920  22.419  27.454  1.00  0.00    -0.744 OA
ENDBRANCH  63  67
ENDBRANCH  46  60
BRANCH  47  71
ATOM     71  C   UNL A   1      39.250  32.350  35.259  1.00  0.00     0.023 A 
ATOM     72  C   UNL A   1      39.715  33.663  35.439  1.00  0.00     0.031 A 
ATOM     73  C   UNL A   1      38.409  31.809  36.249  1.00  0.00     0.131 A 
ATOM     74  C   UNL A   1      39.362  34.377  36.596  1.00  0.00     0.055 A 
ATOM     75  C   UNL A   1      38.012  32.545  37.365  1.00  0.00     0.041 A 
ATOM     76  F   UNL A   1      37.947  30.553  36.136  1.00  0.00    -0.206 F 
ATOM     77  C   UNL A   1      38.498  33.834  37.550  1.00  0.00     0.022 A 
BRANCH  74  78
ATOM     78  S   UNL A   1      40.118  36.002  36.884  1.00  0.00     0.124 S 
ATOM     79  O   UNL A   1      39.844  36.684  35.624  1.00  0.00    -0.237 OA
ATOM     80  O   UNL A   1      39.379  36.480  38.047  1.00  0.00    -0.237 OA
ATOM     81  O   UNL A   1      41.524  35.685  37.130  1.00  0.00    -0.744 OA
ENDBRANCH  74  78
ENDBRANCH  47  71
BRANCH  59  82
ATOM     82  C   UNL A   1      44.446  27.821  34.285  1.00  0.00     0.023 A 
ATOM     83  C   UNL A   1      44.292  26.731  35.159  1.00  0.00     0.031 A 
ATOM     84  C   UNL A   1      45.676  28.502  34.286  1.00  0.00     0.131 A 
ATOM     85  C   UNL A   1      45.332  26.385  36.035  1.00  0.00     0.055 A 
ATOM     86  C   UNL A   1      46.725  28.124  35.125  1.00  0.00     0.041 A 
ATOM     87  F   UNL A   1      45.876  29.552  33.472  1.00  0.00    -0.206 F 
ATOM     88  C   UNL A   1      46.551  27.067  36.015  1.00  0.00     0.022 A 
BRANCH  85  89
ATOM     89  S   UNL A   1      45.043  25.080  37.263  1.00  0.00     0.124 S 
ATOM     90  O   UNL A   1      44.267  24.109  36.498  1.00  0.00    -0.237 OA
ATOM     91  O   UNL A   1      46.401  24.677  37.614  1.00  0.00    -0.237 OA
ATOM     92  O   UNL A   1      44.306  25.764  38.324  1.00  0.00    -0.744 OA
ENDBRANCH  85  89
ENDBRANCH  59  82
ENDBRANCH  33  34
ENDBRANCH  26  28
ENDBRANCH  25  26
ENDBRANCH   1  25
TORSDOF 18
ENDMDL
MODEL 2
REMARK VINA RESULT:     -11.5      2.097      3.702
REMARK SMILES CC[NH2+][C@@]1(C(=O)OCCOC(=O)c2ccc(-c3c4nc(c(-c5cc(S(=O)(=O)[O-])ccc5F)c5ccc([nH]5)c(-c5cc(S(=O)(=O)[O-])ccc5F)c5nc(c(-c6cc(S(=O)(=O)[O-])ccc6F)c6ccc3[nH]6)C=C5)C=C4)cc2)CCC[C@@H](Sc2ncc(C)cn2)C1
REMARK SMILES IDX 9 1 8 2 7 3 5 4 6 5 4 6 76 7 88 8 77 9 79 10 78 11 3 12 2 15
REMARK SMILES IDX 1 16 80 17 81 18 82 19 87 20 83 21 86 22 84 23 85 24 10 25
REMARK SMILES IDX 11 26 12 27 13 28 14 29 75 30 15 31 74 32 16 33 17 34 18 35
REMARK SMILES IDX 68 36 19 37 73 38 67 39 69 40 20 41 72 42 66 43 65 44 21 46
REMARK SMILES IDX 53 47 33 48 52 49 34 50 37 51 51 52 70 53 35 54 36 55 50 57
REMARK SMILES IDX 71 58 38 59 22 60 23 61 31 62 24 63 30 64 32 65 29 66 25 67
REMARK SMILES IDX 26 68 27 69 28 70 54 71 55 72 63 73 56 74 62 75 64 76 61 77
REMARK SMILES IDX 57 78 58 79 59 80 60 81 39 82 40 83 48 84 41 85 47 86 49 87
REMARK SMILES IDX 46 88 42 89 43 90 44 91 45 92
REMARK H PARENT 3 13 3 14 69 45 37 56
REMARK Flexibility Score: inf
ROOT
ATOM      1  C   UNL A   1      31.404  30.141  25.335  1.00  0.00     0.275 C 
ENDROOT
BRANCH   1   2
ATOM      2  C   UNL A   1      31.284  28.836  24.552  1.00  0.00     0.274 C 
BRANCH   2   3
ATOM      3  O   UNL A   1      31.033  27.741  25.460  1.00  0.00    -0.457 OA
BRANCH   3   4
ATOM      4  C   UNL A   1      30.543  26.583  24.936  1.00  0.00     0.368 C 
ATOM      5  O   UNL A   1      29.565  26.522  24.198  1.00  0.00    -0.245 OA
BRANCH   4   6
ATOM      6  C   UNL A   1      31.284  25.326  25.499  1.00  0.00     0.195 C 
ATOM      7  C   UNL A   1      32.467  25.845  26.351  1.00  0.00     0.081 C 
ATOM      8  C   UNL A   1      31.763  24.325  24.416  1.00  0.00     0.096 C 
ATOM      9  C   UNL A   1      33.652  26.328  25.525  1.00  0.00     0.008 C 
ATOM     10  C   UNL A   1      33.055  24.729  23.680  1.00  0.00     0.061 C 
ATOM     11  C   UNL A   1      34.160  25.213  24.622  1.00  0.00     0.015 C 
BRANCH   6  12
ATOM     12  N   UNL A   1      30.412  24.612  26.492  1.00  0.00    -0.332 N 
ATOM     13  H   UNL A   1      30.669  24.938  27.424  1.00  0.00     0.347 HD
ATOM     14  H   UNL A   1      29.453  24.831  26.224  1.00  0.00     0.347 HD
BRANCH  12  15
ATOM     15  C   UNL A   1      30.500  23.154  26.489  1.00  0.00     0.257 C 
ATOM     16  C   UNL A   1      29.333  22.538  27.253  1.00  0.00     0.071 C 
ENDBRANCH  12  15
ENDBRANCH   6  12
BRANCH  10  17
ATOM     17  S   UNL A   1      33.673  23.436  22.523  1.00  0.00    -0.083 SA
BRANCH  17  18
ATOM     18  C   UNL A   1      33.429  21.967  23.483  1.00  0.00     0.187 A 
ATOM     19  N   UNL A   1      32.436  21.146  23.114  1.00  0.00    -0.231 NA
ATOM     20  N   UNL A   1      34.256  21.756  24.522  1.00  0.00    -0.231 NA
ATOM     21  C   UNL A   1      32.251  20.045  23.865  1.00  0.00     0.119 A 
ATOM     22  C   UNL A   1      34.037  20.631  25.231  1.00  0.00     0.119 A 
ATOM     23  C   UNL A   1      33.028  19.730  24.959  1.00  0.00    -0.014 A 
ATOM     24  C   UNL A   1      32.823  18.495  25.765  1.00  0.00     0.048 C 
ENDBRANCH  17  18
ENDBRANCH  10  17
ENDBRANCH   4   6
ENDBRANCH   3   4
ENDBRANCH   2   3
ENDBRANCH   1   2
BRANCH   1  25
ATOM     25  O   UNL A   1      32.719  30.181  25.903  1.00  0.00    -0.458 OA
BRANCH  25  26
ATOM     26  C   UNL A   1      32.934  31.106  26.869  1.00  0.00     0.338 C 
ATOM     27  O   UNL A   1      32.157  31.970  27.231  1.00  0.00    -0.246 OA
BRANCH  26  28
ATOM     28  C   UNL A   1      34.284  30.884  27.443  1.00  0.00     0.060 A 
ATOM     29  C   UNL A   1      34.745  29.585  27.666  1.00  0.00     0.016 A 
ATOM     30  C   UNL A   1      35.075  31.964  27.832  1.00  0.00     0.016 A 
ATOM     31  C   UNL A   1      35.941  29.365  28.351  1.00  0.00     0.010 A 
ATOM     32  C   UNL A   1      36.324  31.736  28.431  1.00  0.00     0.010 A 
ATOM     33  C   UNL A   1      36.760  30.432  28.738  1.00  0.00    -0.014 A 
BRANCH  33  34
ATOM     34  C   UNL A   1      38.006  30.196  29.538  1.00  0.00     0.031 A 
ATOM     35  C   UNL A   1      39.120  29.361  28.951  1.00  0.00     0.074 A 
ATOM     36  C   UNL A   1      38.196  30.745  30.758  1.00  0.00     0.049 A 
ATOM     37  N   UNL A   1      40.142  28.799  29.544  1.00  0.00    -0.248 NA
ATOM     38  C   UNL A   1      39.056  29.110  27.503  1.00  0.00     0.031 C 
ATOM     39  C   UNL A   1      37.274  31.656  31.438  1.00  0.00     0.029 A 
ATOM     40  N   UNL A   1      39.247  30.633  31.640  1.00  0.00    -0.354 N 
ATOM     41  C   UNL A   1      40.791  28.054  28.561  1.00  0.00     0.074 A 
ATOM     42  C   UNL A   1      40.046  28.247  27.334  1.00  0.00     0.031 C 
ATOM     43  C   UNL A   1      37.827  32.070  32.589  1.00  0.00     0.029 A 
ATOM     44  C   UNL A   1      39.083  31.358  32.798  1.00  0.00     0.049 A 
ATOM     45  H   UNL A   1      40.044  30.083  31.458  1.00  0.00     0.167 HD
ATOM     46  C   UNL A   1      41.895  27.273  28.677  1.00  0.00     0.034 A 
ATOM     47  C   UNL A   1      39.819  31.404  33.930  1.00  0.00     0.034 A 
ATOM     48  C   UNL A   1      42.672  27.150  29.888  1.00  0.00     0.049 A 
ATOM     49  C   UNL A   1      41.024  30.504  34.055  1.00  0.00     0.074 A 
ATOM     50  C   UNL A   1      43.783  26.360  30.128  1.00  0.00     0.029 A 
ATOM     51  N   UNL A   1      42.437  27.863  31.057  1.00  0.00    -0.354 N 
ATOM     52  N   UNL A   1      41.528  29.672  33.174  1.00  0.00    -0.248 NA
ATOM     53  C   UNL A   1      41.735  30.526  35.341  1.00  0.00     0.031 C 
ATOM     54  C   UNL A   1      44.194  26.564  31.452  1.00  0.00     0.029 A 
ATOM     55  C   UNL A   1      43.377  27.527  32.019  1.00  0.00     0.049 A 
ATOM     56  H   UNL A   1      41.709  28.513  31.183  1.00  0.00     0.167 HD
ATOM     57  C   UNL A   1      42.616  29.071  33.803  1.00  0.00     0.074 A 
ATOM     58  C   UNL A   1      42.713  29.660  35.123  1.00  0.00     0.031 C 
ATOM     59  C   UNL A   1      43.453  28.110  33.336  1.00  0.00     0.034 A 
BRANCH  46  60
ATOM     60  C   UNL A   1      42.270  26.427  27.484  1.00  0.00     0.023 A 
ATOM     61  C   UNL A   1      41.853  25.093  27.343  1.00  0.00     0.031 A 
ATOM     62  C   UNL A   1      43.110  26.963  26.489  1.00  0.00     0.131 A 
ATOM     63  C   UNL A   1      42.338  24.318  26.277  1.00  0.00     0.055 A 
ATOM     64  C   UNL A   1      43.524  26.211  25.388  1.00  0.00     0.041 A 
ATOM     65  F   UNL A   1      43.558  28.225  26.580  1.00  0.00    -0.206 F 
ATOM     66  C   UNL A   1      43.152  24.875  25.286  1.00  0.00     0.022 A 
BRANCH  63  67
ATOM     67  S   UNL A   1      42.017  22.533  26.283  1.00  0.00     0.124 S 
ATOM     68  O   UNL A   1      40.556  22.498  26.310  1.00  0.00    -0.237 OA
ATOM     69  O   UNL A   1      42.644  22.095  25.043  1.00  0.00    -0.237 OA
ATOM     70  O   UNL A   1      42.666  22.072  27.509  1.00  0.00    -0.744 OA
ENDBRANCH  63  67
ENDBRANCH  46  60
BRANCH  47  71
ATOM     71  C   UNL A   1      39.390  32.252  35.082  1.00  0.00     0.023 A 
ATOM     72  C   UNL A   1      38.722  31.696  36.186  1.00  0.00     0.031 A 
ATOM     73  C   UNL A   1      39.595  33.644  35.072  1.00  0.00     0.131 A 
ATOM     74  C   UNL A   1      38.258  32.530  37.217  1.00  0.00     0.055 A 
ATOM     75  C   UNL A   1      39.188  34.460  36.128  1.00  0.00     0.041 A 
ATOM     76  F   UNL A   1      40.213  34.233  34.036  1.00  0.00    -0.206 F 
ATOM     77  C   UNL A   1      38.504  33.905  37.204  1.00  0.00     0.022 A 
BRANCH  74  78
ATOM     78  S   UNL A   1      37.250  31.806  38.540  1.00  0.00     0.124 S 
ATOM     79  O   UNL A   1      38.128  31.951  39.696  1.00  0.00    -0.237 OA
ATOM     80  O   UNL A   1      36.066  32.657  38.521  1.00  0.00    -0.237 OA
ATOM     81  O   UNL A   1      37.033  30.432  38.090  1.00  0.00    -0.744 OA
ENDBRANCH  74  78
ENDBRANCH  47  71
BRANCH  59  82
ATOM     82  C   UNL A   1      44.563  27.669  34.257  1.00  0.00     0.023 A 
ATOM     83  C   UNL A   1      44.406  26.581  35.133  1.00  0.00     0.031 A 
ATOM     84  C   UNL A   1      45.786  28.361  34.272  1.00  0.00     0.131 A 
ATOM     85  C   UNL A   1      45.436  26.249  36.026  1.00  0.00     0.055 A 
ATOM     86  C   UNL A   1      46.826  27.997  35.128  1.00  0.00     0.041 A 
ATOM     87  F   UNL A   1      45.987  29.409  33.456  1.00  0.00    -0.206 F 
ATOM     88  C   UNL A   1      46.649  26.942  36.021  1.00  0.00     0.022 A 
BRANCH  85  89
ATOM     89  S   UNL A   1      45.142  24.947  37.255  1.00  0.00     0.124 S 
ATOM     90  O   UNL A   1      45.148  25.702  38.505  1.00  0.00    -0.237 OA
ATOM     91  O   UNL A   1      43.850  24.412  36.840  1.00  0.00    -0.237 OA
ATOM     92  O   UNL A   1      46.275  24.041  37.074  1.00  0.00    -0.744 OA
ENDBRANCH  85  89
ENDBRANCH  59  82
ENDBRANCH  33  34
ENDBRANCH  26  28
ENDBRANCH  25  26
ENDBRANCH   1  25
TORSDOF 18
ENDMDL
MODEL 3
REMARK VINA RESULT:     -11.5      5.027      9.719
REMARK SMILES CC[NH2+][C@@]1(C(=O)OCCOC(=O)c2ccc(-c3c4nc(c(-c5cc(S(=O)(=O)[O-])ccc5F)c5ccc([nH]5)c(-c5cc(S(=O)(=O)[O-])ccc5F)c5nc(c(-c6cc(S(=O)(=O)[O-])ccc6F)c6ccc3[nH]6)C=C5)C=C4)cc2)CCC[C@@H](Sc2ncc(C)cn2)C1
REMARK SMILES IDX 9 1 8 2 7 3 5 4 6 5 4 6 76 7 88 8 77 9 79 10 78 11 3 12 2 15
REMARK SMILES IDX 1 16 80 17 81 18 82 19 87 20 83 21 86 22 84 23 85 24 10 25
REMARK SMILES IDX 11 26 12 27 13 28 14 29 75 30 15 31 74 32 16 33 17 34 18 35
REMARK SMILES IDX 68 36 19 37 73 38 67 39 69 40 20 41 72 42 66 43 65 44 21 46
REMARK SMILES IDX 53 47 33 48 52 49 34 50 37 51 51 52 70 53 35 54 36 55 50 57
REMARK SMILES IDX 71 58 38 59 22 60 23 61 31 62 24 63 30 64 32 65 29 66 25 67
REMARK SMILES IDX 26 68 27 69 28 70 54 71 55 72 63 73 56 74 62 75 64 76 61 77
REMARK SMILES IDX 57 78 58 79 59 80 60 81 39 82 40 83 48 84 41 85 47 86 49 87
REMARK SMILES IDX 46 88 42 89 43 90 44 91 45 92
REMARK H PARENT 3 13 3 14 69 45 37 56
REMARK Flexibility Score: inf
ROOT
ATOM      1  C   UNL A   1      35.858  21.088  25.112  1.00  0.00     0.275 C 
ENDROOT
BRANCH   1   2
ATOM      2  C   UNL A   1      35.251  21.757  26.343  1.00  0.00     0.274 C 
BRANCH   2   3
ATOM      3  O   UNL A   1      33.830  21.938  26.152  1.00  0.00    -0.457 OA
BRANCH   3   4
ATOM      4  C   UNL A   1      33.389  23.184  25.820  1.00  0.00     0.368 C 
ATOM      5  O   UNL A   1      33.834  24.221  26.300  1.00  0.00    -0.245 OA
BRANCH   4   6
ATOM      6  C   UNL A   1      32.153  23.131  24.863  1.00  0.00     0.195 C 
ATOM      7  C   UNL A   1      32.501  22.133  23.733  1.00  0.00     0.081 C 
ATOM      8  C   UNL A   1      31.726  24.508  24.292  1.00  0.00     0.096 C 
ATOM      9  C   UNL A   1      33.446  22.701  22.683  1.00  0.00     0.008 C 
ATOM     10  C   UNL A   1      32.583  25.021  23.118  1.00  0.00     0.061 C 
ATOM     11  C   UNL A   1      32.851  23.954  22.055  1.00  0.00     0.015 C 
BRANCH   6  12
ATOM     12  N   UNL A   1      30.985  22.492  25.560  1.00  0.00    -0.332 N 
ATOM     13  H   UNL A   1      30.189  22.519  24.923  1.00  0.00     0.347 HD
ATOM     14  H   UNL A   1      31.292  21.551  25.804  1.00  0.00     0.347 HD
BRANCH  12  15
ATOM     15  C   UNL A   1      30.574  23.111  26.817  1.00  0.00     0.257 C 
ATOM     16  C   UNL A   1      29.177  22.650  27.218  1.00  0.00     0.071 C 
ENDBRANCH  12  15
ENDBRANCH   6  12
BRANCH  10  17
ATOM     17  S   UNL A   1      31.940  26.575  22.367  1.00  0.00    -0.083 SA
BRANCH  17  18
ATOM     18  C   UNL A   1      32.155  27.720  23.703  1.00  0.00     0.187 A 
ATOM     19  N   UNL A   1      31.157  28.581  23.945  1.00  0.00    -0.231 NA
ATOM     20  N   UNL A   1      33.302  27.656  24.400  1.00  0.00    -0.231 NA
ATOM     21  C   UNL A   1      31.343  29.455  24.951  1.00  0.00     0.119 A 
ATOM     22  C   UNL A   1      33.432  28.545  25.405  1.00  0.00     0.119 A 
ATOM     23  C   UNL A   1      32.482  29.492  25.726  1.00  0.00    -0.014 A 
ATOM     24  C   UNL A   1      32.662  30.454  26.849  1.00  0.00     0.048 C 
ENDBRANCH  17  18
ENDBRANCH  10  17
ENDBRANCH   4   6
ENDBRANCH   3   4
ENDBRANCH   2   3
ENDBRANCH   1   2
BRANCH   1  25
ATOM     25  O   UNL A   1      37.102  21.743  24.838  1.00  0.00    -0.458 OA
BRANCH  25  26
ATOM     26  C   UNL A   1      38.194  21.262  25.480  1.00  0.00     0.338 C 
ATOM     27  O   UNL A   1      38.563  20.103  25.515  1.00  0.00    -0.246 OA
BRANCH  26  28
ATOM     28  C   UNL A   1      38.895  22.397  26.131  1.00  0.00     0.060 A 
ATOM     29  C   UNL A   1      38.418  23.699  25.973  1.00  0.00     0.016 A 
ATOM     30  C   UNL A   1      40.075  22.185  26.843  1.00  0.00     0.016 A 
ATOM     31  C   UNL A   1      39.155  24.786  26.443  1.00  0.00     0.010 A 
ATOM     32  C   UNL A   1      40.761  23.277  27.399  1.00  0.00     0.010 A 
ATOM     33  C   UNL A   1      40.334  24.601  27.173  1.00  0.00    -0.014 A 
BRANCH  33  34
ATOM     34  C   UNL A   1      41.162  25.771  27.612  1.00  0.00     0.031 A 
ATOM     35  C   UNL A   1      40.570  26.788  28.560  1.00  0.00     0.074 A 
ATOM     36  C   UNL A   1      42.447  25.931  27.227  1.00  0.00     0.049 A 
ATOM     37  N   UNL A   1      40.979  27.996  28.848  1.00  0.00    -0.248 NA
ATOM     38  C   UNL A   1      39.338  26.390  29.258  1.00  0.00     0.031 C 
ATOM     39  C   UNL A   1      43.213  25.001  26.395  1.00  0.00     0.029 A 
ATOM     40  N   UNL A   1      43.350  26.933  27.505  1.00  0.00    -0.354 N 
ATOM     41  C   UNL A   1      40.008  28.538  29.688  1.00  0.00     0.074 A 
ATOM     42  C   UNL A   1      38.997  27.516  29.866  1.00  0.00     0.031 C 
ATOM     43  C   UNL A   1      44.477  25.438  26.290  1.00  0.00     0.029 A 
ATOM     44  C   UNL A   1      44.587  26.743  26.932  1.00  0.00     0.049 A 
ATOM     45  H   UNL A   1      43.130  27.715  28.062  1.00  0.00     0.167 HD
ATOM     46  C   UNL A   1      39.960  29.774  30.247  1.00  0.00     0.034 A 
ATOM     47  C   UNL A   1      45.672  27.545  26.872  1.00  0.00     0.034 A 
ATOM     48  C   UNL A   1      41.013  30.755  30.123  1.00  0.00     0.049 A 
ATOM     49  C   UNL A   1      45.590  28.929  27.468  1.00  0.00     0.074 A 
ATOM     50  C   UNL A   1      41.054  32.049  30.615  1.00  0.00     0.029 A 
ATOM     51  N   UNL A   1      42.229  30.538  29.488  1.00  0.00    -0.354 N 
ATOM     52  N   UNL A   1      44.597  29.493  28.114  1.00  0.00    -0.248 NA
ATOM     53  C   UNL A   1      46.765  29.795  27.293  1.00  0.00     0.031 C 
ATOM     54  C   UNL A   1      42.273  32.627  30.240  1.00  0.00     0.029 A 
ATOM     55  C   UNL A   1      43.021  31.673  29.569  1.00  0.00     0.049 A 
ATOM     56  H   UNL A   1      42.491  29.699  29.044  1.00  0.00     0.167 HD
ATOM     57  C   UNL A   1      45.029  30.781  28.421  1.00  0.00     0.074 A 
ATOM     58  C   UNL A   1      46.382  30.898  27.919  1.00  0.00     0.031 C 
ATOM     59  C   UNL A   1      44.362  31.782  29.051  1.00  0.00     0.034 A 
BRANCH  46  60
ATOM     60  C   UNL A   1      38.690  30.157  30.966  1.00  0.00     0.023 A 
ATOM     61  C   UNL A   1      37.651  30.863  30.338  1.00  0.00     0.031 A 
ATOM     62  C   UNL A   1      38.544  29.848  32.332  1.00  0.00     0.131 A 
ATOM     63  C   UNL A   1      36.550  31.303  31.091  1.00  0.00     0.055 A 
ATOM     64  C   UNL A   1      37.410  30.219  33.056  1.00  0.00     0.041 A 
ATOM     65  F   UNL A   1      39.513  29.195  32.991  1.00  0.00    -0.206 F 
ATOM     66  C   UNL A   1      36.412  30.966  32.440  1.00  0.00     0.022 A 
BRANCH  63  67
ATOM     67  S   UNL A   1      35.376  32.453  30.323  1.00  0.00     0.124 S 
ATOM     68  O   UNL A   1      34.952  31.697  29.145  1.00  0.00    -0.237 OA
ATOM     69  O   UNL A   1      34.373  32.623  31.367  1.00  0.00    -0.237 OA
ATOM     70  O   UNL A   1      36.188  33.634  30.037  1.00  0.00    -0.744 OA
ENDBRANCH  63  67
ENDBRANCH  46  60
BRANCH  47  71
ATOM     71  C   UNL A   1      46.897  27.114  26.134  1.00  0.00     0.023 A 
ATOM     72  C   UNL A   1      47.161  27.572  24.833  1.00  0.00     0.031 A 
ATOM     73  C   UNL A   1      47.798  26.195  26.703  1.00  0.00     0.131 A 
ATOM     74  C   UNL A   1      48.279  27.085  24.134  1.00  0.00     0.055 A 
ATOM     75  C   UNL A   1      48.940  25.763  26.028  1.00  0.00     0.041 A 
ATOM     76  F   UNL A   1      47.587  25.712  27.938  1.00  0.00    -0.206 F 
ATOM     77  C   UNL A   1      49.180  26.200  24.730  1.00  0.00     0.022 A 
BRANCH  74  78
ATOM     78  S   UNL A   1      48.497  27.561  22.396  1.00  0.00     0.124 S 
ATOM     79  O   UNL A   1      48.570  26.260  21.740  1.00  0.00    -0.237 OA
ATOM     80  O   UNL A   1      47.292  28.342  22.141  1.00  0.00    -0.237 OA
ATOM     81  O   UNL A   1      49.742  28.326  22.405  1.00  0.00    -0.744 OA
ENDBRANCH  74  78
ENDBRANCH  47  71
BRANCH  59  82
ATOM     82  C   UNL A   1      45.112  33.074  29.257  1.00  0.00     0.023 A 
ATOM     83  C   UNL A   1      44.994  34.147  28.355  1.00  0.00     0.031 A 
ATOM     84  C   UNL A   1      45.972  33.225  30.357  1.00  0.00     0.131 A 
ATOM     85  C   UNL A   1      45.765  35.304  28.542  1.00  0.00     0.055 A 
ATOM     86  C   UNL A   1      46.701  34.397  30.566  1.00  0.00     0.041 A 
ATOM     87  F   UNL A   1      46.123  32.230  31.247  1.00  0.00    -0.206 F 
ATOM     88  C   UNL A   1      46.609  35.440  29.648  1.00  0.00     0.022 A 
BRANCH  85  89
ATOM     89  S   UNL A   1      45.716  36.602  27.276  1.00  0.00     0.124 S 
ATOM     90  O   UNL A   1      46.730  36.144  26.331  1.00  0.00    -0.237 OA
ATOM     91  O   UNL A   1      44.334  36.533  26.811  1.00  0.00    -0.237 OA
ATOM     92  O   UNL A   1      46.060  37.816  28.014  1.00  0.00    -0.744 OA
ENDBRANCH  85  89
ENDBRANCH  59  82
ENDBRANCH  33  34
ENDBRANCH  26  28
ENDBRANCH  25  26
ENDBRANCH   1  25
TORSDOF 18
ENDMDL
