MODEL 1
REMARK VINA RESULT:     -12.5      0.000      0.000
REMARK SMILES Cc1cc(Br)cc2c1O[C@H](C(F)(F)F)C(C(=O)OCCOC(=O)c1ccc(-c3c4nc(c(-c5cc(S(=O)(=O)[O-])ccc5F)c5ccc([nH]5)c(-c5cc(S(=O)(=O)[O-])ccc5F)c5nc(c(-c6cc(S(=O)(=O)[O-])ccc6F)c6ccc3[nH]6)C=C5)C=C4)cc1)=C2
REMARK SMILES IDX 20 1 19 2 18 3 16 4 17 5 15 6 1 7 2 8 3 9 8 10 4 11 7 12
REMARK SMILES IDX 9 13 5 14 6 15 87 16 10 17 11 18 12 19 13 20 14 21 21 22
REMARK SMILES IDX 22 23 23 24 24 25 25 26 86 27 26 28 85 29 27 30 28 31 29 32
REMARK SMILES IDX 79 33 30 34 84 35 78 36 80 37 31 38 83 39 77 40 76 41 32 43
REMARK SMILES IDX 64 44 44 45 63 46 45 47 48 48 62 49 81 50 46 51 47 52 61 54
REMARK SMILES IDX 82 55 49 56 33 57 34 58 42 59 35 60 41 61 43 62 40 63 36 64
REMARK SMILES IDX 37 65 38 66 39 67 65 68 66 69 74 70 67 71 73 72 75 73 72 74
REMARK SMILES IDX 68 75 69 76 70 77 71 78 50 79 51 80 59 81 52 82 58 83 60 84
REMARK SMILES IDX 57 85 53 86 54 87 55 88 56 89
REMARK H PARENT 80 42 48 53
REMARK Flexibility Score: inf
ROOT
ATOM      1  C   UNL A   1      36.445  20.444  25.011  1.00  0.00     0.275 C 
ENDROOT
BRANCH   1   2
ATOM      2  C   UNL A   1      35.007  20.898  25.262  1.00  0.00     0.275 C 
BRANCH   2   3
ATOM      3  O   UNL A   1      34.961  22.220  25.842  1.00  0.00    -0.459 OA
BRANCH   3   4
ATOM      4  C   UNL A   1      33.751  22.826  25.805  1.00  0.00     0.338 C 
ATOM      5  O   UNL A   1      32.686  22.341  26.156  1.00  0.00    -0.246 OA
BRANCH   4   6
ATOM      6  C   UNL A   1      33.865  24.194  25.268  1.00  0.00     0.087 C 
ATOM      7  C   UNL A   1      33.865  28.325  22.177  1.00  0.00     0.048 C 
ATOM      8  C   UNL A   1      33.622  28.041  23.631  1.00  0.00    -0.007 A 
ATOM      9  C   UNL A   1      33.173  29.092  24.451  1.00  0.00     0.023 A 
ATOM     10  C   UNL A   1      33.766  26.757  24.179  1.00  0.00     0.130 A 
ATOM     11  C   UNL A   1      32.899  28.872  25.799  1.00  0.00     0.019 A 
ATOM     12  C   UNL A   1      33.475  26.545  25.529  1.00  0.00     0.019 A 
ATOM     13  O   UNL A   1      34.204  25.757  23.353  1.00  0.00    -0.475 OA
ATOM     14  Br  UNL A   1      32.284  30.291  26.882  1.00  0.00    -0.051 Br
ATOM     15  C   UNL A   1      33.054  27.604  26.345  1.00  0.00     0.027 A 
ATOM     16  C   UNL A   1      33.551  25.209  26.080  1.00  0.00     0.027 C 
ATOM     17  C   UNL A   1      34.169  24.378  23.814  1.00  0.00     0.316 C 
BRANCH  17  18
ATOM     18  C   UNL A   1      33.192  23.589  22.927  1.00  0.00     0.430 C 
ATOM     19  F   UNL A   1      31.915  23.728  23.361  1.00  0.00    -0.167 F 
ATOM     20  F   UNL A   1      33.207  24.034  21.647  1.00  0.00    -0.167 F 
ATOM     21  F   UNL A   1      33.469  22.267  22.900  1.00  0.00    -0.167 F 
ENDBRANCH  17  18
ENDBRANCH   4   6
ENDBRANCH   3   4
ENDBRANCH   2   3
ENDBRANCH   1   2
BRANCH   1  22
ATOM     22  O   UNL A   1      37.355  21.551  25.135  1.00  0.00    -0.458 OA
BRANCH  22  23
ATOM     23  C   UNL A   1      38.550  21.245  25.689  1.00  0.00     0.338 C 
ATOM     24  O   UNL A   1      39.179  20.208  25.555  1.00  0.00    -0.246 OA
BRANCH  23  25
ATOM     25  C   UNL A   1      39.076  22.391  26.445  1.00  0.00     0.060 A 
ATOM     26  C   UNL A   1      38.563  23.652  26.171  1.00  0.00     0.016 A 
ATOM     27  C   UNL A   1      40.214  22.261  27.235  1.00  0.00     0.016 A 
ATOM     28  C   UNL A   1      39.290  24.785  26.514  1.00  0.00     0.010 A 
ATOM     29  C   UNL A   1      40.846  23.411  27.728  1.00  0.00     0.010 A 
ATOM     30  C   UNL A   1      40.430  24.692  27.324  1.00  0.00    -0.014 A 
BRANCH  30  31
ATOM     31  C   UNL A   1      41.187  25.922  27.710  1.00  0.00     0.031 A 
ATOM     32  C   UNL A   1      40.542  26.977  28.581  1.00  0.00     0.074 A 
ATOM     33  C   UNL A   1      42.469  26.089  27.317  1.00  0.00     0.049 A 
ATOM     34  N   UNL A   1      40.952  28.191  28.850  1.00  0.00    -0.248 NA
ATOM     35  C   UNL A   1      39.260  26.629  29.217  1.00  0.00     0.031 C 
ATOM     36  C   UNL A   1      43.252  25.126  26.534  1.00  0.00     0.029 A 
ATOM     37  N   UNL A   1      43.354  27.118  27.534  1.00  0.00    -0.354 N 
ATOM     38  C   UNL A   1      39.959  28.766  29.639  1.00  0.00     0.074 A 
ATOM     39  C   UNL A   1      38.918  27.774  29.792  1.00  0.00     0.031 C 
ATOM     40  C   UNL A   1      44.508  25.573  26.406  1.00  0.00     0.029 A 
ATOM     41  C   UNL A   1      44.593  26.911  26.972  1.00  0.00     0.049 A 
ATOM     42  H   UNL A   1      43.123  27.927  28.046  1.00  0.00     0.167 HD
ATOM     43  C   UNL A   1      39.924  30.006  30.187  1.00  0.00     0.034 A 
ATOM     44  C   UNL A   1      45.666  27.720  26.861  1.00  0.00     0.034 A 
ATOM     45  C   UNL A   1      40.998  30.963  30.074  1.00  0.00     0.049 A 
ATOM     46  C   UNL A   1      45.572  29.119  27.400  1.00  0.00     0.074 A 
ATOM     47  C   UNL A   1      41.062  32.248  30.587  1.00  0.00     0.029 A 
ATOM     48  N   UNL A   1      42.200  30.738  29.418  1.00  0.00    -0.354 N 
ATOM     49  N   UNL A   1      44.579  29.686  28.044  1.00  0.00    -0.248 NA
ATOM     50  C   UNL A   1      46.726  29.997  27.172  1.00  0.00     0.031 C 
ATOM     51  C   UNL A   1      42.276  32.817  30.193  1.00  0.00     0.029 A 
ATOM     52  C   UNL A   1      43.001  31.866  29.493  1.00  0.00     0.049 A 
ATOM     53  H   UNL A   1      42.449  29.899  28.967  1.00  0.00     0.167 HD
ATOM     54  C   UNL A   1      44.995  30.986  28.308  1.00  0.00     0.074 A 
ATOM     55  C   UNL A   1      46.333  31.115  27.766  1.00  0.00     0.031 C 
ATOM     56  C   UNL A   1      44.327  31.983  28.939  1.00  0.00     0.034 A 
BRANCH  43  57
ATOM     57  C   UNL A   1      38.676  30.424  30.922  1.00  0.00     0.023 A 
ATOM     58  C   UNL A   1      37.639  31.132  30.291  1.00  0.00     0.031 A 
ATOM     59  C   UNL A   1      38.508  30.074  32.276  1.00  0.00     0.131 A 
ATOM     60  C   UNL A   1      36.498  31.497  31.023  1.00  0.00     0.055 A 
ATOM     61  C   UNL A   1      37.344  30.385  32.980  1.00  0.00     0.041 A 
ATOM     62  F   UNL A   1      39.474  29.413  32.934  1.00  0.00    -0.206 F 
ATOM     63  C   UNL A   1      36.331  31.106  32.354  1.00  0.00     0.022 A 
BRANCH  60  64
ATOM     64  S   UNL A   1      35.258  32.559  30.232  1.00  0.00     0.124 S 
ATOM     65  O   UNL A   1      36.072  33.695  29.809  1.00  0.00    -0.237 OA
ATOM     66  O   UNL A   1      34.744  31.708  29.165  1.00  0.00    -0.237 OA
ATOM     67  O   UNL A   1      34.313  32.843  31.310  1.00  0.00    -0.744 OA
ENDBRANCH  60  64
ENDBRANCH  43  57
BRANCH  44  68
ATOM     68  C   UNL A   1      46.886  27.249  26.147  1.00  0.00     0.023 A 
ATOM     69  C   UNL A   1      47.133  27.622  24.817  1.00  0.00     0.031 A 
ATOM     70  C   UNL A   1      47.830  26.423  26.787  1.00  0.00     0.131 A 
ATOM     71  C   UNL A   1      48.289  27.161  24.166  1.00  0.00     0.055 A 
ATOM     72  C   UNL A   1      49.002  26.010  26.153  1.00  0.00     0.041 A 
ATOM     73  F   UNL A   1      47.640  26.036  28.058  1.00  0.00    -0.206 F 
ATOM     74  C   UNL A   1      49.234  26.374  24.831  1.00  0.00     0.022 A 
BRANCH  71  75
ATOM     75  S   UNL A   1      48.527  27.575  22.417  1.00  0.00     0.124 S 
ATOM     76  O   UNL A   1      47.307  28.317  22.120  1.00  0.00    -0.237 OA
ATOM     77  O   UNL A   1      49.760  28.353  22.451  1.00  0.00    -0.237 OA
ATOM     78  O   UNL A   1      48.636  26.268  21.771  1.00  0.00    -0.744 OA
ENDBRANCH  71  75
ENDBRANCH  44  68
BRANCH  56  79
ATOM     79  C   UNL A   1      45.043  33.296  29.103  1.00  0.00     0.023 A 
ATOM     80  C   UNL A   1      44.811  34.369  28.228  1.00  0.00     0.031 A 
ATOM     81  C   UNL A   1      45.939  33.485  30.170  1.00  0.00     0.131 A 
ATOM     82  C   UNL A   1      45.491  35.581  28.419  1.00  0.00     0.055 A 
ATOM     83  C   UNL A   1      46.574  34.708  30.384  1.00  0.00     0.041 A 
ATOM     84  F   UNL A   1      46.192  32.489  31.033  1.00  0.00    -0.206 F 
ATOM     85  C   UNL A   1      46.356  35.764  29.501  1.00  0.00     0.022 A 
BRANCH  82  86
ATOM     86  S   UNL A   1      45.259  36.908  27.206  1.00  0.00     0.124 S 
ATOM     87  O   UNL A   1      43.924  36.620  26.693  1.00  0.00    -0.237 OA
ATOM     88  O   UNL A   1      45.381  38.110  28.024  1.00  0.00    -0.237 OA
ATOM     89  O   UNL A   1      46.349  36.697  26.254  1.00  0.00    -0.744 OA
ENDBRANCH  82  86
ENDBRANCH  56  79
ENDBRANCH  30  31
ENDBRANCH  23  25
ENDBRANCH  22  23
ENDBRANCH   1  22
TORSDOF 15
ENDMDL
MODEL 2
REMARK VINA RESULT:     -12.5      1.362      1.633
REMARK SMILES Cc1cc(Br)cc2c1O[C@H](C(F)(F)F)C(C(=O)OCCOC(=O)c1ccc(-c3c4nc(c(-c5cc(S(=O)(=O)[O-])ccc5F)c5ccc([nH]5)c(-c5cc(S(=O)(=O)[O-])ccc5F)c5nc(c(-c6cc(S(=O)(=O)[O-])ccc6F)c6ccc3[nH]6)C=C5)C=C4)cc1)=C2
REMARK SMILES IDX 20 1 19 2 18 3 16 4 17 5 15 6 1 7 2 8 3 9 8 10 4 11 7 12
REMARK SMILES IDX 9 13 5 14 6 15 87 16 10 17 11 18 12 19 13 20 14 21 21 22
REMARK SMILES IDX 22 23 23 24 24 25 25 26 86 27 26 28 85 29 27 30 28 31 29 32
REMARK SMILES IDX 79 33 30 34 84 35 78 36 80 37 31 38 83 39 77 40 76 41 32 43
REMARK SMILES IDX 64 44 44 45 63 46 45 47 48 48 62 49 81 50 46 51 47 52 61 54
REMARK SMILES IDX 82 55 49 56 33 57 34 58 42 59 35 60 41 61 43 62 40 63 36 64
REMARK SMILES IDX 37 65 38 66 39 67 65 68 66 69 74 70 67 71 73 72 75 73 72 74
REMARK SMILES IDX 68 75 69 76 70 77 71 78 50 79 51 80 59 81 52 82 58 83 60 84
REMARK SMILES IDX 57 85 53 86 54 87 55 88 56 89
REMARK H PARENT 80 42 48 53
REMARK Flexibility Score: inf
ROOT
ATOM      1  C   UNL A   1      36.356  20.453  25.020  1.00  0.00     0.275 C 
ENDROOT
BRANCH   1   2
ATOM      2  C   UNL A   1      34.885  20.819  25.218  1.00  0.00     0.275 C 
BRANCH   2   3
ATOM      3  O   UNL A   1      34.738  22.085  25.897  1.00  0.00    -0.459 OA
BRANCH   3   4
ATOM      4  C   UNL A   1      33.543  22.696  25.729  1.00  0.00     0.338 C 
ATOM      5  O   UNL A   1      32.444  22.215  25.956  1.00  0.00    -0.246 OA
BRANCH   4   6
ATOM      6  C   UNL A   1      33.722  24.066  25.215  1.00  0.00     0.087 C 
ATOM      7  C   UNL A   1      33.937  28.241  22.190  1.00  0.00     0.048 C 
ATOM      8  C   UNL A   1      33.664  27.945  23.636  1.00  0.00    -0.007 A 
ATOM      9  C   UNL A   1      33.250  29.002  24.467  1.00  0.00     0.023 A 
ATOM     10  C   UNL A   1      33.746  26.648  24.165  1.00  0.00     0.130 A 
ATOM     11  C   UNL A   1      32.950  28.772  25.808  1.00  0.00     0.019 A 
ATOM     12  C   UNL A   1      33.429  26.428  25.508  1.00  0.00     0.019 A 
ATOM     13  O   UNL A   1      34.151  25.642  23.329  1.00  0.00    -0.475 OA
ATOM     14  Br  UNL A   1      32.382  30.200  26.906  1.00  0.00    -0.051 Br
ATOM     15  C   UNL A   1      33.044  27.491  26.336  1.00  0.00     0.027 A 
ATOM     16  C   UNL A   1      33.442  25.081  26.039  1.00  0.00     0.027 C 
ATOM     17  C   UNL A   1      34.052  24.259  23.767  1.00  0.00     0.316 C 
BRANCH  17  18
ATOM     18  C   UNL A   1      33.053  23.527  22.857  1.00  0.00     0.430 C 
ATOM     19  F   UNL A   1      31.782  23.671  23.307  1.00  0.00    -0.167 F 
ATOM     20  F   UNL A   1      33.067  24.025  21.597  1.00  0.00    -0.167 F 
ATOM     21  F   UNL A   1      33.305  22.202  22.772  1.00  0.00    -0.167 F 
ENDBRANCH  17  18
ENDBRANCH   4   6
ENDBRANCH   3   4
ENDBRANCH   2   3
ENDBRANCH   1   2
BRANCH   1  22
ATOM     22  O   UNL A   1      37.198  21.596  25.251  1.00  0.00    -0.458 OA
BRANCH  22  23
ATOM     23  C   UNL A   1      38.443  21.305  25.691  1.00  0.00     0.338 C 
ATOM     24  O   UNL A   1      39.087  20.296  25.459  1.00  0.00    -0.246 OA
BRANCH  23  25
ATOM     25  C   UNL A   1      38.997  22.434  26.452  1.00  0.00     0.060 A 
ATOM     26  C   UNL A   1      38.504  23.707  26.196  1.00  0.00     0.016 A 
ATOM     27  C   UNL A   1      40.141  22.276  27.230  1.00  0.00     0.016 A 
ATOM     28  C   UNL A   1      39.255  24.824  26.543  1.00  0.00     0.010 A 
ATOM     29  C   UNL A   1      40.798  23.409  27.727  1.00  0.00     0.010 A 
ATOM     30  C   UNL A   1      40.401  24.701  27.340  1.00  0.00    -0.014 A 
BRANCH  30  31
ATOM     31  C   UNL A   1      41.184  25.914  27.731  1.00  0.00     0.031 A 
ATOM     32  C   UNL A   1      40.559  26.982  28.600  1.00  0.00     0.074 A 
ATOM     33  C   UNL A   1      42.470  26.053  27.342  1.00  0.00     0.049 A 
ATOM     34  N   UNL A   1      40.995  28.186  28.872  1.00  0.00    -0.248 NA
ATOM     35  C   UNL A   1      39.267  26.662  29.231  1.00  0.00     0.031 C 
ATOM     36  C   UNL A   1      43.234  25.074  26.561  1.00  0.00     0.029 A 
ATOM     37  N   UNL A   1      43.377  27.062  27.564  1.00  0.00    -0.354 N 
ATOM     38  C   UNL A   1      40.013  28.783  29.659  1.00  0.00     0.074 A 
ATOM     39  C   UNL A   1      38.949  27.813  29.806  1.00  0.00     0.031 C 
ATOM     40  C   UNL A   1      44.500  25.492  26.438  1.00  0.00     0.029 A 
ATOM     41  C   UNL A   1      44.614  26.828  27.006  1.00  0.00     0.049 A 
ATOM     42  H   UNL A   1      43.163  27.876  28.075  1.00  0.00     0.167 HD
ATOM     43  C   UNL A   1      40.004  30.022  30.207  1.00  0.00     0.034 A 
ATOM     44  C   UNL A   1      45.704  27.613  26.899  1.00  0.00     0.034 A 
ATOM     45  C   UNL A   1      41.099  30.956  30.099  1.00  0.00     0.049 A 
ATOM     46  C   UNL A   1      45.640  29.013  27.440  1.00  0.00     0.074 A 
ATOM     47  C   UNL A   1      41.190  32.238  30.614  1.00  0.00     0.029 A 
ATOM     48  N   UNL A   1      42.298  30.704  29.448  1.00  0.00    -0.354 N 
ATOM     49  N   UNL A   1      44.658  29.601  28.081  1.00  0.00    -0.248 NA
ATOM     50  C   UNL A   1      46.814  29.865  27.217  1.00  0.00     0.031 C 
ATOM     51  C   UNL A   1      42.418  32.780  30.226  1.00  0.00     0.029 A 
ATOM     52  C   UNL A   1      43.123  31.814  29.527  1.00  0.00     0.049 A 
ATOM     53  H   UNL A   1      42.529  29.861  28.997  1.00  0.00     0.167 HD
ATOM     54  C   UNL A   1      45.102  30.891  28.348  1.00  0.00     0.074 A 
ATOM     55  C   UNL A   1      46.444  30.991  27.811  1.00  0.00     0.031 C 
ATOM     56  C   UNL A   1      44.454  31.903  28.978  1.00  0.00     0.034 A 
BRANCH  43  57
ATOM     57  C   UNL A   1      38.762  30.468  30.939  1.00  0.00     0.023 A 
ATOM     58  C   UNL A   1      37.709  31.132  30.288  1.00  0.00     0.031 A 
ATOM     59  C   UNL A   1      38.617  30.187  32.311  1.00  0.00     0.131 A 
ATOM     60  C   UNL A   1      36.576  31.525  31.016  1.00  0.00     0.055 A 
ATOM     61  C   UNL A   1      37.461  30.524  33.016  1.00  0.00     0.041 A 
ATOM     62  F   UNL A   1      39.600  29.570  32.988  1.00  0.00    -0.206 F 
ATOM     63  C   UNL A   1      36.432  31.203  32.369  1.00  0.00     0.022 A 
BRANCH  60  64
ATOM     64  S   UNL A   1      35.314  32.533  30.191  1.00  0.00     0.124 S 
ATOM     65  O   UNL A   1      34.977  31.698  29.041  1.00  0.00    -0.237 OA
ATOM     66  O   UNL A   1      34.284  32.656  31.216  1.00  0.00    -0.237 OA
ATOM     67  O   UNL A   1      36.021  33.771  29.869  1.00  0.00    -0.744 OA
ENDBRANCH  60  64
ENDBRANCH  43  57
BRANCH  44  68
ATOM     68  C   UNL A   1      46.917  27.115  26.189  1.00  0.00     0.023 A 
ATOM     69  C   UNL A   1      47.962  26.499  26.892  1.00  0.00     0.031 A 
ATOM     70  C   UNL A   1      47.044  27.240  24.793  1.00  0.00     0.131 A 
ATOM     71  C   UNL A   1      49.095  26.042  26.199  1.00  0.00     0.055 A 
ATOM     72  C   UNL A   1      48.148  26.739  24.103  1.00  0.00     0.041 A 
ATOM     73  F   UNL A   1      46.072  27.823  24.072  1.00  0.00    -0.206 F 
ATOM     74  C   UNL A   1      49.186  26.141  24.808  1.00  0.00     0.022 A 
BRANCH  71  75
ATOM     75  S   UNL A   1      50.475  25.347  27.149  1.00  0.00     0.124 S 
ATOM     76  O   UNL A   1      51.408  24.981  26.089  1.00  0.00    -0.237 OA
ATOM     77  O   UNL A   1      50.867  26.473  27.989  1.00  0.00    -0.237 OA
ATOM     78  O   UNL A   1      49.866  24.224  27.860  1.00  0.00    -0.744 OA
ENDBRANCH  71  75
ENDBRANCH  44  68
BRANCH  56  79
ATOM     79  C   UNL A   1      45.199  33.199  29.146  1.00  0.00     0.023 A 
ATOM     80  C   UNL A   1      45.039  34.256  28.236  1.00  0.00     0.031 A 
ATOM     81  C   UNL A   1      46.047  33.390  30.250  1.00  0.00     0.131 A 
ATOM     82  C   UNL A   1      45.743  35.453  28.431  1.00  0.00     0.055 A 
ATOM     83  C   UNL A   1      46.706  34.599  30.466  1.00  0.00     0.041 A 
ATOM     84  F   UNL A   1      46.230  32.408  31.148  1.00  0.00    -0.206 F 
ATOM     85  C   UNL A   1      46.560  35.638  29.550  1.00  0.00     0.022 A 
BRANCH  82  86
ATOM     86  S   UNL A   1      45.608  36.756  27.178  1.00  0.00     0.124 S 
ATOM     87  O   UNL A   1      46.463  36.241  26.113  1.00  0.00    -0.237 OA
ATOM     88  O   UNL A   1      44.177  36.774  26.893  1.00  0.00    -0.237 OA
ATOM     89  O   UNL A   1      46.116  37.944  27.861  1.00  0.00    -0.744 OA
ENDBRANCH  82  86
ENDBRANCH  56  79
ENDBRANCH  30  31
ENDBRANCH  23  25
ENDBRANCH  22  23
ENDBRANCH   1  22
TORSDOF 15
ENDMDL
MODEL 3
REMARK VINA RESULT:     -12.3      5.197     10.046
REMARK SMILES Cc1cc(Br)cc2c1O[C@H](C(F)(F)F)C(C(=O)OCCOC(=O)c1ccc(-c3c4nc(c(-c5cc(S(=O)(=O)[O-])ccc5F)c5ccc([nH]5)c(-c5cc(S(=O)(=O)[O-])ccc5F)c5nc(c(-c6cc(S(=O)(=O)[O-])ccc6F)c6ccc3[nH]6)C=C5)C=C4)cc1)=C2
REMARK SMILES IDX 20 1 19 2 18 3 16 4 17 5 15 6 1 7 2 8 3 9 8 10 4 11 7 12
REMARK SMILES IDX 9 13 5 14 6 15 87 16 10 17 11 18 12 19 13 20 14 21 21 22
REMARK SMILES IDX 22 23 23 24 24 25 25 26 86 27 26 28 85 29 27 30 28 31 29 32
REMARK SMILES IDX 79 33 30 34 84 35 78 36 80 37 31 38 83 39 77 40 76 41 32 43
REMARK SMILES IDX 64 44 44 45 63 46 45 47 48 48 62 49 81 50 46 51 47 52 61 54
REMARK SMILES IDX 82 55 49 56 33 57 34 58 42 59 35 60 41 61 43 62 40 63 36 64
REMARK SMILES IDX 37 65 38 66 39 67 65 68 66 69 74 70 67 71 73 72 75 73 72 74
REMARK SMILES IDX 68 75 69 76 70 77 71 78 50 79 51 80 59 81 52 82 58 83 60 84
REMARK SMILES IDX 57 85 53 86 54 87 55 88 56 89
REMARK H PARENT 80 42 48 53
REMARK Flexibility Score: inf
ROOT
ATOM      1  C   UNL A   1      32.477  30.054  25.377  1.00  0.00     0.275 C 
ENDROOT
BRANCH   1   2
ATOM      2  C   UNL A   1      31.744  28.761  25.019  1.00  0.00     0.275 C 
BRANCH   2   3
ATOM      3  O   UNL A   1      32.477  27.596  25.454  1.00  0.00    -0.459 OA
BRANCH   3   4
ATOM      4  C   UNL A   1      31.777  26.725  26.217  1.00  0.00     0.338 C 
ATOM      5  O   UNL A   1      30.931  27.008  27.051  1.00  0.00    -0.246 OA
BRANCH   4   6
ATOM      6  C   UNL A   1      32.169  25.335  25.920  1.00  0.00     0.087 C 
ATOM      7  C   UNL A   1      32.530  20.613  23.871  1.00  0.00     0.048 C 
ATOM      8  C   UNL A   1      33.444  21.584  24.560  1.00  0.00    -0.007 A 
ATOM      9  C   UNL A   1      34.813  21.271  24.641  1.00  0.00     0.023 A 
ATOM     10  C   UNL A   1      32.990  22.812  25.065  1.00  0.00     0.130 A 
ATOM     11  C   UNL A   1      35.707  22.155  25.239  1.00  0.00     0.019 A 
ATOM     12  C   UNL A   1      33.899  23.697  25.650  1.00  0.00     0.019 A 
ATOM     13  O   UNL A   1      31.652  23.086  24.969  1.00  0.00    -0.475 OA
ATOM     14  Br  UNL A   1      37.545  21.725  25.327  1.00  0.00    -0.051 Br
ATOM     15  C   UNL A   1      35.257  23.365  25.751  1.00  0.00     0.027 A 
ATOM     16  C   UNL A   1      33.448  24.995  26.106  1.00  0.00     0.027 C 
ATOM     17  C   UNL A   1      31.167  24.421  25.284  1.00  0.00     0.316 C 
BRANCH  17  18
ATOM     18  C   UNL A   1      30.568  25.037  24.010  1.00  0.00     0.430 C 
ATOM     19  F   UNL A   1      29.543  25.875  24.306  1.00  0.00    -0.167 F 
ATOM     20  F   UNL A   1      31.480  25.778  23.336  1.00  0.00    -0.167 F 
ATOM     21  F   UNL A   1      30.094  24.103  23.157  1.00  0.00    -0.167 F 
ENDBRANCH  17  18
ENDBRANCH   4   6
ENDBRANCH   3   4
ENDBRANCH   2   3
ENDBRANCH   1   2
BRANCH   1  22
ATOM     22  O   UNL A   1      32.599  30.188  26.805  1.00  0.00    -0.458 OA
BRANCH  22  23
ATOM     23  C   UNL A   1      33.216  31.318  27.218  1.00  0.00     0.338 C 
ATOM     24  O   UNL A   1      32.721  32.427  27.332  1.00  0.00    -0.246 OA
BRANCH  23  25
ATOM     25  C   UNL A   1      34.602  31.032  27.617  1.00  0.00     0.060 A 
ATOM     26  C   UNL A   1      34.947  29.718  27.905  1.00  0.00     0.016 A 
ATOM     27  C   UNL A   1      35.480  32.065  27.930  1.00  0.00     0.016 A 
ATOM     28  C   UNL A   1      36.069  29.450  28.679  1.00  0.00     0.010 A 
ATOM     29  C   UNL A   1      36.698  31.768  28.557  1.00  0.00     0.010 A 
ATOM     30  C   UNL A   1      36.984  30.463  28.996  1.00  0.00    -0.014 A 
BRANCH  30  31
ATOM     31  C   UNL A   1      38.203  30.156  29.806  1.00  0.00     0.031 A 
ATOM     32  C   UNL A   1      39.311  29.304  29.228  1.00  0.00     0.074 A 
ATOM     33  C   UNL A   1      38.346  30.664  31.049  1.00  0.00     0.049 A 
ATOM     34  N   UNL A   1      40.338  28.762  29.833  1.00  0.00    -0.248 NA
ATOM     35  C   UNL A   1      39.249  29.010  27.787  1.00  0.00     0.031 C 
ATOM     36  C   UNL A   1      37.395  31.561  31.716  1.00  0.00     0.029 A 
ATOM     37  N   UNL A   1      39.353  30.522  31.974  1.00  0.00    -0.354 N 
ATOM     38  C   UNL A   1      41.010  28.023  28.863  1.00  0.00     0.074 A 
ATOM     39  C   UNL A   1      40.265  28.173  27.632  1.00  0.00     0.031 C 
ATOM     40  C   UNL A   1      37.897  31.944  32.898  1.00  0.00     0.029 A 
ATOM     41  C   UNL A   1      39.136  31.219  33.141  1.00  0.00     0.049 A 
ATOM     42  H   UNL A   1      40.155  29.973  31.816  1.00  0.00     0.167 HD
ATOM     43  C   UNL A   1      42.144  27.291  28.990  1.00  0.00     0.034 A 
ATOM     44  C   UNL A   1      39.813  31.234  34.306  1.00  0.00     0.034 A 
ATOM     45  C   UNL A   1      42.907  27.199  30.211  1.00  0.00     0.049 A 
ATOM     46  C   UNL A   1      41.019  30.349  34.451  1.00  0.00     0.074 A 
ATOM     47  C   UNL A   1      44.068  26.482  30.447  1.00  0.00     0.029 A 
ATOM     48  N   UNL A   1      42.598  27.856  31.394  1.00  0.00    -0.354 N 
ATOM     49  N   UNL A   1      41.575  29.566  33.557  1.00  0.00    -0.248 NA
ATOM     50  C   UNL A   1      41.668  30.323  35.767  1.00  0.00     0.031 C 
ATOM     51  C   UNL A   1      44.427  26.659  31.786  1.00  0.00     0.029 A 
ATOM     52  C   UNL A   1      43.532  27.541  32.369  1.00  0.00     0.049 A 
ATOM     53  H   UNL A   1      41.830  28.457  31.522  1.00  0.00     0.167 HD
ATOM     54  C   UNL A   1      42.649  28.963  34.201  1.00  0.00     0.074 A 
ATOM     55  C   UNL A   1      42.671  29.482  35.553  1.00  0.00     0.031 C 
ATOM     56  C   UNL A   1      43.535  28.057  33.715  1.00  0.00     0.034 A 
BRANCH  43  57
ATOM     57  C   UNL A   1      42.614  26.495  27.798  1.00  0.00     0.023 A 
ATOM     58  C   UNL A   1      42.204  25.170  27.576  1.00  0.00     0.031 A 
ATOM     59  C   UNL A   1      43.464  27.091  26.847  1.00  0.00     0.131 A 
ATOM     60  C   UNL A   1      42.671  24.474  26.450  1.00  0.00     0.055 A 
ATOM     61  C   UNL A   1      43.875  26.415  25.697  1.00  0.00     0.041 A 
ATOM     62  F   UNL A   1      43.902  28.349  27.017  1.00  0.00    -0.206 F 
ATOM     63  C   UNL A   1      43.483  25.095  25.496  1.00  0.00     0.022 A 
BRANCH  60  64
ATOM     64  S   UNL A   1      42.267  22.714  26.283  1.00  0.00     0.124 S 
ATOM     65  O   UNL A   1      42.657  22.453  24.900  1.00  0.00    -0.237 OA
ATOM     66  O   UNL A   1      43.100  22.097  27.309  1.00  0.00    -0.237 OA
ATOM     67  O   UNL A   1      40.829  22.666  26.538  1.00  0.00    -0.744 OA
ENDBRANCH  60  64
ENDBRANCH  43  57
BRANCH  44  68
ATOM     68  C   UNL A   1      39.321  32.059  35.446  1.00  0.00     0.023 A 
ATOM     69  C   UNL A   1      39.785  33.369  35.641  1.00  0.00     0.031 A 
ATOM     70  C   UNL A   1      38.371  31.554  36.353  1.00  0.00     0.131 A 
ATOM     71  C   UNL A   1      39.308  34.124  36.725  1.00  0.00     0.055 A 
ATOM     72  C   UNL A   1      37.861  32.325  37.398  1.00  0.00     0.041 A 
ATOM     73  F   UNL A   1      37.895  30.306  36.212  1.00  0.00    -0.206 F 
ATOM     74  C   UNL A   1      38.335  33.618  37.592  1.00  0.00     0.022 A 
BRANCH  71  75
ATOM     75  S   UNL A   1      40.005  35.773  37.012  1.00  0.00     0.124 S 
ATOM     76  O   UNL A   1      41.419  35.468  37.194  1.00  0.00    -0.237 OA
ATOM     77  O   UNL A   1      39.653  36.473  35.781  1.00  0.00    -0.237 OA
ATOM     78  O   UNL A   1      39.306  36.234  38.209  1.00  0.00    -0.744 OA
ENDBRANCH  71  75
ENDBRANCH  44  68
BRANCH  56  79
ATOM     79  C   UNL A   1      44.621  27.589  34.645  1.00  0.00     0.023 A 
ATOM     80  C   UNL A   1      44.434  26.483  35.488  1.00  0.00     0.031 A 
ATOM     81  C   UNL A   1      45.869  28.236  34.657  1.00  0.00     0.131 A 
ATOM     82  C   UNL A   1      45.473  26.071  36.335  1.00  0.00     0.055 A 
ATOM     83  C   UNL A   1      46.915  27.791  35.464  1.00  0.00     0.041 A 
ATOM     84  F   UNL A   1      46.095  29.298  33.868  1.00  0.00    -0.206 F 
ATOM     85  C   UNL A   1      46.718  26.705  36.314  1.00  0.00     0.022 A 
BRANCH  82  86
ATOM     86  S   UNL A   1      45.163  24.713  37.496  1.00  0.00     0.124 S 
ATOM     87  O   UNL A   1      46.357  24.755  38.334  1.00  0.00    -0.237 OA
ATOM     88  O   UNL A   1      43.919  25.124  38.138  1.00  0.00    -0.237 OA
ATOM     89  O   UNL A   1      45.053  23.540  36.631  1.00  0.00    -0.744 OA
ENDBRANCH  82  86
ENDBRANCH  56  79
ENDBRANCH  30  31
ENDBRANCH  23  25
ENDBRANCH  22  23
ENDBRANCH   1  22
TORSDOF 15
ENDMDL
