MODEL 1
REMARK VINA RESULT:     -10.7      0.000      0.000
REMARK SMILES C/C(=N\O)[C@@H]1C[C@@H](CC(=O)OCCOC(=O)c2ccc(-c3c4nc(c(-c5cc(S(=O)(=O)[O-])ccc5F)c5ccc([nH]5)c(-c5cc(S(=O)(=O)[O-])ccc5F)c5nc(c(-c6cc(S(=O)(=O)[O-])ccc6F)c6ccc3[nH]6)C=C5)C=C4)cc2)C1(C)C
REMARK SMILES IDX 12 1 11 2 9 3 10 4 8 5 7 6 5 7 6 8 80 9 81 10 82 11 2 12
REMARK SMILES IDX 1 13 3 14 4 15 13 17 14 18 15 19 16 20 17 21 18 22 79 23
REMARK SMILES IDX 19 24 78 25 20 26 21 27 22 28 72 29 23 30 77 31 71 32 73 33
REMARK SMILES IDX 24 34 76 35 70 36 69 37 25 39 57 40 37 41 56 42 38 43 41 44
REMARK SMILES IDX 55 45 74 46 39 47 40 48 54 50 75 51 42 52 26 53 27 54 35 55
REMARK SMILES IDX 28 56 34 57 36 58 33 59 29 60 30 61 31 62 32 63 58 64 59 65
REMARK SMILES IDX 67 66 60 67 66 68 68 69 65 70 61 71 62 72 63 73 64 74 43 75
REMARK SMILES IDX 44 76 52 77 45 78 51 79 53 80 50 81 46 82 47 83 48 84 49 85
REMARK H PARENT 4 16 73 38 41 49
REMARK Flexibility Score: inf
ROOT
ATOM      1  C   UNL A   1      35.771  20.515  24.931  1.00  0.00     0.274 C 
ENDROOT
BRANCH   1   2
ATOM      2  O   UNL A   1      35.275  21.179  26.107  1.00  0.00    -0.462 OA
BRANCH   2   3
ATOM      3  C   UNL A   1      33.930  21.251  26.256  1.00  0.00     0.306 C 
ATOM      4  O   UNL A   1      33.155  20.323  26.061  1.00  0.00    -0.252 OA
BRANCH   3   5
ATOM      5  C   UNL A   1      33.466  22.632  26.649  1.00  0.00     0.127 C 
BRANCH   5   6
ATOM      6  C   UNL A   1      33.140  23.597  25.506  1.00  0.00     0.007 C 
ATOM      7  C   UNL A   1      33.851  24.174  23.515  1.00  0.00     0.043 C 
ATOM      8  C   UNL A   1      33.141  22.937  24.111  1.00  0.00     0.015 C 
ATOM      9  C   UNL A   1      34.200  24.630  24.982  1.00  0.00    -0.024 C 
ATOM     10  C   UNL A   1      35.663  24.339  25.329  1.00  0.00     0.012 C 
ATOM     11  C   UNL A   1      33.845  26.079  25.330  1.00  0.00     0.012 C 
BRANCH   7  12
ATOM     12  C   UNL A   1      33.074  25.175  22.585  1.00  0.00     0.058 C 
ATOM     13  C   UNL A   1      31.564  25.208  22.612  1.00  0.00     0.066 C 
ATOM     14  N   UNL A   1      33.817  25.907  21.803  1.00  0.00    -0.099 NA
BRANCH  14  15
ATOM     15  O   UNL A   1      33.062  26.768  21.005  1.00  0.00    -0.411 OA
ATOM     16  H   UNL A   1      33.490  27.415  20.480  1.00  0.00     0.330 HD
ENDBRANCH  14  15
ENDBRANCH   7  12
ENDBRANCH   5   6
ENDBRANCH   3   5
ENDBRANCH   2   3
ENDBRANCH   1   2
BRANCH   1  17
ATOM     17  C   UNL A   1      37.286  20.334  25.022  1.00  0.00     0.275 C 
BRANCH  17  18
ATOM     18  O   UNL A   1      37.899  21.483  25.634  1.00  0.00    -0.458 OA
BRANCH  18  19
ATOM     19  C   UNL A   1      39.119  21.266  26.181  1.00  0.00     0.338 C 
ATOM     20  O   UNL A   1      39.733  20.215  26.228  1.00  0.00    -0.246 OA
BRANCH  19  21
ATOM     21  C   UNL A   1      39.681  22.552  26.619  1.00  0.00     0.060 A 
ATOM     22  C   UNL A   1      39.148  23.724  26.078  1.00  0.00     0.016 A 
ATOM     23  C   UNL A   1      40.760  22.603  27.503  1.00  0.00     0.016 A 
ATOM     24  C   UNL A   1      39.692  24.959  26.418  1.00  0.00     0.010 A 
ATOM     25  C   UNL A   1      41.303  23.845  27.847  1.00  0.00     0.010 A 
ATOM     26  C   UNL A   1      40.778  25.030  27.301  1.00  0.00    -0.014 A 
BRANCH  26  27
ATOM     27  C   UNL A   1      41.384  26.348  27.615  1.00  0.00     0.031 A 
ATOM     28  C   UNL A   1      42.758  26.680  27.106  1.00  0.00     0.074 A 
ATOM     29  C   UNL A   1      40.692  27.245  28.343  1.00  0.00     0.049 A 
ATOM     30  N   UNL A   1      43.479  27.752  27.309  1.00  0.00    -0.248 NA
ATOM     31  C   UNL A   1      43.409  25.668  26.260  1.00  0.00     0.031 C 
ATOM     32  C   UNL A   1      39.341  27.038  28.870  1.00  0.00     0.029 A 
ATOM     33  N   UNL A   1      41.029  28.503  28.773  1.00  0.00    -0.354 N 
ATOM     34  C   UNL A   1      44.678  27.538  26.637  1.00  0.00     0.074 A 
ATOM     35  C   UNL A   1      44.591  26.224  26.033  1.00  0.00     0.031 C 
ATOM     36  C   UNL A   1      38.968  28.131  29.557  1.00  0.00     0.029 A 
ATOM     37  C   UNL A   1      40.065  29.095  29.556  1.00  0.00     0.049 A 
ATOM     38  H   UNL A   1      41.880  28.941  28.542  1.00  0.00     0.167 HD
ATOM     39  C   UNL A   1      45.749  28.363  26.536  1.00  0.00     0.034 A 
ATOM     40  C   UNL A   1      40.078  30.267  30.223  1.00  0.00     0.034 A 
ATOM     41  C   UNL A   1      45.815  29.675  27.132  1.00  0.00     0.049 A 
ATOM     42  C   UNL A   1      41.297  31.149  30.121  1.00  0.00     0.074 A 
ATOM     43  C   UNL A   1      46.831  30.611  27.048  1.00  0.00     0.029 A 
ATOM     44  N   UNL A   1      44.829  30.234  27.936  1.00  0.00    -0.354 N 
ATOM     45  N   UNL A   1      42.413  30.944  29.458  1.00  0.00    -0.248 NA
ATOM     46  C   UNL A   1      41.256  32.423  30.850  1.00  0.00     0.031 C 
ATOM     47  C   UNL A   1      46.489  31.706  27.849  1.00  0.00     0.029 A 
ATOM     48  C   UNL A   1      45.229  31.486  28.381  1.00  0.00     0.049 A 
ATOM     49  H   UNL A   1      43.971  29.806  28.157  1.00  0.00     0.167 HD
ATOM     50  C   UNL A   1      43.196  32.073  29.677  1.00  0.00     0.074 A 
ATOM     51  C   UNL A   1      42.416  32.963  30.513  1.00  0.00     0.031 C 
ATOM     52  C   UNL A   1      44.447  32.353  29.230  1.00  0.00     0.034 A 
BRANCH  39  53
ATOM     53  C   UNL A   1      46.959  27.846  25.799  1.00  0.00     0.023 A 
ATOM     54  C   UNL A   1      47.163  28.094  24.430  1.00  0.00     0.031 A 
ATOM     55  C   UNL A   1      47.923  27.084  26.483  1.00  0.00     0.131 A 
ATOM     56  C   UNL A   1      48.275  27.539  23.778  1.00  0.00     0.055 A 
ATOM     57  C   UNL A   1      49.061  26.590  25.843  1.00  0.00     0.041 A 
ATOM     58  F   UNL A   1      47.769  26.800  27.786  1.00  0.00    -0.206 F 
ATOM     59  C   UNL A   1      49.237  26.808  24.481  1.00  0.00     0.022 A 
BRANCH  56  60
ATOM     60  S   UNL A   1      48.396  27.695  21.976  1.00  0.00     0.124 S 
ATOM     61  O   UNL A   1      47.091  28.261  21.640  1.00  0.00    -0.237 OA
ATOM     62  O   UNL A   1      49.539  28.585  21.811  1.00  0.00    -0.237 OA
ATOM     63  O   UNL A   1      48.606  26.321  21.525  1.00  0.00    -0.744 OA
ENDBRANCH  56  60
ENDBRANCH  39  53
BRANCH  40  64
ATOM     64  C   UNL A   1      38.929  30.657  31.090  1.00  0.00     0.023 A 
ATOM     65  C   UNL A   1      37.911  31.499  30.617  1.00  0.00     0.031 A 
ATOM     66  C   UNL A   1      38.871  30.240  32.432  1.00  0.00     0.131 A 
ATOM     67  C   UNL A   1      36.903  31.937  31.492  1.00  0.00     0.055 A 
ATOM     68  C   UNL A   1      37.839  30.634  33.284  1.00  0.00     0.041 A 
ATOM     69  F   UNL A   1      39.821  29.435  32.935  1.00  0.00    -0.206 F 
ATOM     70  C   UNL A   1      36.855  31.500  32.819  1.00  0.00     0.022 A 
BRANCH  67  71
ATOM     71  S   UNL A   1      35.711  33.167  30.898  1.00  0.00     0.124 S 
ATOM     72  O   UNL A   1      36.026  34.319  31.735  1.00  0.00    -0.237 OA
ATOM     73  O   UNL A   1      36.071  33.280  29.488  1.00  0.00    -0.237 OA
ATOM     74  O   UNL A   1      34.417  32.541  31.160  1.00  0.00    -0.744 OA
ENDBRANCH  67  71
ENDBRANCH  40  64
BRANCH  52  75
ATOM     75  C   UNL A   1      45.023  33.691  29.617  1.00  0.00     0.023 A 
ATOM     76  C   UNL A   1      44.899  34.816  28.782  1.00  0.00     0.031 A 
ATOM     77  C   UNL A   1      45.733  33.836  30.822  1.00  0.00     0.131 A 
ATOM     78  C   UNL A   1      45.526  36.020  29.135  1.00  0.00     0.055 A 
ATOM     79  C   UNL A   1      46.307  35.053  31.195  1.00  0.00     0.041 A 
ATOM     80  F   UNL A   1      45.883  32.794  31.655  1.00  0.00    -0.206 F 
ATOM     81  C   UNL A   1      46.217  36.149  30.343  1.00  0.00     0.022 A 
BRANCH  78  82
ATOM     82  S   UNL A   1      45.509  37.392  27.947  1.00  0.00     0.124 S 
ATOM     83  O   UNL A   1      45.659  36.695  26.674  1.00  0.00    -0.237 OA
ATOM     84  O   UNL A   1      44.204  37.999  28.192  1.00  0.00    -0.237 OA
ATOM     85  O   UNL A   1      46.655  38.206  28.347  1.00  0.00    -0.744 OA
ENDBRANCH  78  82
ENDBRANCH  52  75
ENDBRANCH  26  27
ENDBRANCH  19  21
ENDBRANCH  18  19
ENDBRANCH  17  18
ENDBRANCH   1  17
TORSDOF 17
ENDMDL
MODEL 2
REMARK VINA RESULT:     -10.6      0.663      7.810
REMARK SMILES C/C(=N\O)[C@@H]1C[C@@H](CC(=O)OCCOC(=O)c2ccc(-c3c4nc(c(-c5cc(S(=O)(=O)[O-])ccc5F)c5ccc([nH]5)c(-c5cc(S(=O)(=O)[O-])ccc5F)c5nc(c(-c6cc(S(=O)(=O)[O-])ccc6F)c6ccc3[nH]6)C=C5)C=C4)cc2)C1(C)C
REMARK SMILES IDX 12 1 11 2 9 3 10 4 8 5 7 6 5 7 6 8 80 9 81 10 82 11 2 12
REMARK SMILES IDX 1 13 3 14 4 15 13 17 14 18 15 19 16 20 17 21 18 22 79 23
REMARK SMILES IDX 19 24 78 25 20 26 21 27 22 28 72 29 23 30 77 31 71 32 73 33
REMARK SMILES IDX 24 34 76 35 70 36 69 37 25 39 57 40 37 41 56 42 38 43 41 44
REMARK SMILES IDX 55 45 74 46 39 47 40 48 54 50 75 51 42 52 26 53 27 54 35 55
REMARK SMILES IDX 28 56 34 57 36 58 33 59 29 60 30 61 31 62 32 63 58 64 59 65
REMARK SMILES IDX 67 66 60 67 66 68 68 69 65 70 61 71 62 72 63 73 64 74 43 75
REMARK SMILES IDX 44 76 52 77 45 78 51 79 53 80 50 81 46 82 47 83 48 84 49 85
REMARK H PARENT 4 16 73 38 41 49
REMARK Flexibility Score: inf
ROOT
ATOM      1  C   UNL A   1      36.020  20.210  25.065  1.00  0.00     0.274 C 
ENDROOT
BRANCH   1   2
ATOM      2  O   UNL A   1      35.411  21.157  25.960  1.00  0.00    -0.462 OA
BRANCH   2   3
ATOM      3  C   UNL A   1      34.064  21.096  26.102  1.00  0.00     0.306 C 
ATOM      4  O   UNL A   1      33.382  20.104  25.879  1.00  0.00    -0.252 OA
BRANCH   3   5
ATOM      5  C   UNL A   1      33.469  22.416  26.526  1.00  0.00     0.127 C 
BRANCH   5   6
ATOM      6  C   UNL A   1      33.132  23.408  25.409  1.00  0.00     0.007 C 
ATOM      7  C   UNL A   1      33.911  24.138  23.495  1.00  0.00     0.043 C 
ATOM      8  C   UNL A   1      33.271  22.820  23.989  1.00  0.00     0.015 C 
ATOM      9  C   UNL A   1      34.132  24.548  25.000  1.00  0.00    -0.024 C 
ATOM     10  C   UNL A   1      35.591  24.358  25.425  1.00  0.00     0.012 C 
ATOM     11  C   UNL A   1      33.638  25.944  25.389  1.00  0.00     0.012 C 
BRANCH   7  12
ATOM     12  C   UNL A   1      33.110  25.119  22.563  1.00  0.00     0.058 C 
ATOM     13  C   UNL A   1      31.602  25.169  22.644  1.00  0.00     0.066 C 
ATOM     14  N   UNL A   1      33.830  25.817  21.731  1.00  0.00    -0.099 NA
BRANCH  14  15
ATOM     15  O   UNL A   1      33.056  26.662  20.935  1.00  0.00    -0.411 OA
ATOM     16  H   UNL A   1      32.152  26.466  20.785  1.00  0.00     0.330 HD
ENDBRANCH  14  15
ENDBRANCH   7  12
ENDBRANCH   5   6
ENDBRANCH   3   5
ENDBRANCH   2   3
ENDBRANCH   1   2
BRANCH   1  17
ATOM     17  C   UNL A   1      37.436  20.657  24.701  1.00  0.00     0.275 C 
BRANCH  17  18
ATOM     18  O   UNL A   1      37.924  21.620  25.651  1.00  0.00    -0.458 OA
BRANCH  18  19
ATOM     19  C   UNL A   1      39.138  21.343  26.185  1.00  0.00     0.338 C 
ATOM     20  O   UNL A   1      39.727  20.278  26.170  1.00  0.00    -0.246 OA
BRANCH  19  21
ATOM     21  C   UNL A   1      39.729  22.588  26.696  1.00  0.00     0.060 A 
ATOM     22  C   UNL A   1      39.313  23.797  26.134  1.00  0.00     0.016 A 
ATOM     23  C   UNL A   1      40.726  22.564  27.673  1.00  0.00     0.016 A 
ATOM     24  C   UNL A   1      39.892  24.993  26.546  1.00  0.00     0.010 A 
ATOM     25  C   UNL A   1      41.305  23.768  28.089  1.00  0.00     0.010 A 
ATOM     26  C   UNL A   1      40.897  24.989  27.523  1.00  0.00    -0.014 A 
BRANCH  26  27
ATOM     27  C   UNL A   1      41.545  26.265  27.916  1.00  0.00     0.031 A 
ATOM     28  C   UNL A   1      40.758  27.306  28.660  1.00  0.00     0.074 A 
ATOM     29  C   UNL A   1      42.841  26.476  27.615  1.00  0.00     0.049 A 
ATOM     30  N   UNL A   1      41.125  28.499  29.050  1.00  0.00    -0.248 NA
ATOM     31  C   UNL A   1      39.372  26.959  29.007  1.00  0.00     0.031 C 
ATOM     32  C   UNL A   1      43.709  25.525  26.916  1.00  0.00     0.029 A 
ATOM     33  N   UNL A   1      43.652  27.557  27.850  1.00  0.00    -0.354 N 
ATOM     34  C   UNL A   1      40.012  29.058  29.667  1.00  0.00     0.074 A 
ATOM     35  C   UNL A   1      38.950  28.074  29.586  1.00  0.00     0.031 C 
ATOM     36  C   UNL A   1      44.928  26.070  26.774  1.00  0.00     0.029 A 
ATOM     37  C   UNL A   1      44.919  27.419  27.332  1.00  0.00     0.049 A 
ATOM     38  H   UNL A   1      43.355  28.356  28.344  1.00  0.00     0.167 HD
ATOM     39  C   UNL A   1      39.889  30.276  30.248  1.00  0.00     0.034 A 
ATOM     40  C   UNL A   1      45.945  28.293  27.286  1.00  0.00     0.034 A 
ATOM     41  C   UNL A   1      40.960  31.240  30.333  1.00  0.00     0.049 A 
ATOM     42  C   UNL A   1      45.769  29.656  27.908  1.00  0.00     0.074 A 
ATOM     43  C   UNL A   1      40.956  32.482  30.944  1.00  0.00     0.029 A 
ATOM     44  N   UNL A   1      42.224  31.075  29.779  1.00  0.00    -0.354 N 
ATOM     45  N   UNL A   1      44.717  30.158  28.514  1.00  0.00    -0.248 NA
ATOM     46  C   UNL A   1      46.920  30.565  27.847  1.00  0.00     0.031 C 
ATOM     47  C   UNL A   1      42.193  33.093  30.706  1.00  0.00     0.029 A 
ATOM     48  C   UNL A   1      42.994  32.207  30.005  1.00  0.00     0.049 A 
ATOM     49  H   UNL A   1      42.529  30.273  29.298  1.00  0.00     0.167 HD
ATOM     50  C   UNL A   1      45.090  31.436  28.922  1.00  0.00     0.074 A 
ATOM     51  C   UNL A   1      46.468  31.616  28.514  1.00  0.00     0.031 C 
ATOM     52  C   UNL A   1      44.361  32.378  29.575  1.00  0.00     0.034 A 
BRANCH  39  53
ATOM     53  C   UNL A   1      38.533  30.660  30.785  1.00  0.00     0.023 A 
ATOM     54  C   UNL A   1      37.597  31.371  30.012  1.00  0.00     0.031 A 
ATOM     55  C   UNL A   1      38.175  30.312  32.099  1.00  0.00     0.131 A 
ATOM     56  C   UNL A   1      36.372  31.757  30.580  1.00  0.00     0.055 A 
ATOM     57  C   UNL A   1      36.929  30.642  32.636  1.00  0.00     0.041 A 
ATOM     58  F   UNL A   1      39.037  29.652  32.888  1.00  0.00    -0.206 F 
ATOM     59  C   UNL A   1      36.023  31.377  31.878  1.00  0.00     0.022 A 
BRANCH  56  60
ATOM     60  S   UNL A   1      35.281  32.853  29.634  1.00  0.00     0.124 S 
ATOM     61  O   UNL A   1      36.153  34.001  29.391  1.00  0.00    -0.237 OA
ATOM     62  O   UNL A   1      34.953  32.043  28.467  1.00  0.00    -0.237 OA
ATOM     63  O   UNL A   1      34.171  33.107  30.549  1.00  0.00    -0.744 OA
ENDBRANCH  56  60
ENDBRANCH  39  53
BRANCH  40  64
ATOM     64  C   UNL A   1      47.210  27.938  26.581  1.00  0.00     0.023 A 
ATOM     65  C   UNL A   1      47.317  28.029  25.184  1.00  0.00     0.031 A 
ATOM     66  C   UNL A   1      48.313  27.438  27.297  1.00  0.00     0.131 A 
ATOM     67  C   UNL A   1      48.483  27.582  24.543  1.00  0.00     0.055 A 
ATOM     68  C   UNL A   1      49.490  27.044  26.660  1.00  0.00     0.041 A 
ATOM     69  F   UNL A   1      48.261  27.328  28.635  1.00  0.00    -0.206 F 
ATOM     70  C   UNL A   1      49.574  27.101  25.272  1.00  0.00     0.022 A 
BRANCH  67  71
ATOM     71  S   UNL A   1      48.517  27.543  22.730  1.00  0.00     0.124 S 
ATOM     72  O   UNL A   1      49.794  28.186  22.440  1.00  0.00    -0.237 OA
ATOM     73  O   UNL A   1      48.443  26.111  22.458  1.00  0.00    -0.237 OA
ATOM     74  O   UNL A   1      47.332  28.309  22.351  1.00  0.00    -0.744 OA
ENDBRANCH  67  71
ENDBRANCH  40  64
BRANCH  52  75
ATOM     75  C   UNL A   1      45.065  33.669  29.909  1.00  0.00     0.023 A 
ATOM     76  C   UNL A   1      45.041  34.768  29.034  1.00  0.00     0.031 A 
ATOM     77  C   UNL A   1      45.794  33.789  31.105  1.00  0.00     0.131 A 
ATOM     78  C   UNL A   1      45.782  35.920  29.338  1.00  0.00     0.055 A 
ATOM     79  C   UNL A   1      46.484  34.959  31.430  1.00  0.00     0.041 A 
ATOM     80  F   UNL A   1      45.851  32.769  31.977  1.00  0.00    -0.206 F 
ATOM     81  C   UNL A   1      46.492  36.027  30.538  1.00  0.00     0.022 A 
BRANCH  78  82
ATOM     82  S   UNL A   1      45.887  37.242  28.100  1.00  0.00     0.124 S 
ATOM     83  O   UNL A   1      45.611  38.431  28.899  1.00  0.00    -0.237 OA
ATOM     84  O   UNL A   1      47.257  37.104  27.614  1.00  0.00    -0.237 OA
ATOM     85  O   UNL A   1      44.850  36.890  27.133  1.00  0.00    -0.744 OA
ENDBRANCH  78  82
ENDBRANCH  52  75
ENDBRANCH  26  27
ENDBRANCH  19  21
ENDBRANCH  18  19
ENDBRANCH  17  18
ENDBRANCH   1  17
TORSDOF 17
ENDMDL
MODEL 3
REMARK VINA RESULT:     -10.3      1.718      2.226
REMARK SMILES C/C(=N\O)[C@@H]1C[C@@H](CC(=O)OCCOC(=O)c2ccc(-c3c4nc(c(-c5cc(S(=O)(=O)[O-])ccc5F)c5ccc([nH]5)c(-c5cc(S(=O)(=O)[O-])ccc5F)c5nc(c(-c6cc(S(=O)(=O)[O-])ccc6F)c6ccc3[nH]6)C=C5)C=C4)cc2)C1(C)C
REMARK SMILES IDX 12 1 11 2 9 3 10 4 8 5 7 6 5 7 6 8 80 9 81 10 82 11 2 12
REMARK SMILES IDX 1 13 3 14 4 15 13 17 14 18 15 19 16 20 17 21 18 22 79 23
REMARK SMILES IDX 19 24 78 25 20 26 21 27 22 28 72 29 23 30 77 31 71 32 73 33
REMARK SMILES IDX 24 34 76 35 70 36 69 37 25 39 57 40 37 41 56 42 38 43 41 44
REMARK SMILES IDX 55 45 74 46 39 47 40 48 54 50 75 51 42 52 26 53 27 54 35 55
REMARK SMILES IDX 28 56 34 57 36 58 33 59 29 60 30 61 31 62 32 63 58 64 59 65
REMARK SMILES IDX 67 66 60 67 66 68 68 69 65 70 61 71 62 72 63 73 64 74 43 75
REMARK SMILES IDX 44 76 52 77 45 78 51 79 53 80 50 81 46 82 47 83 48 84 49 85
REMARK H PARENT 4 16 73 38 41 49
REMARK Flexibility Score: inf
ROOT
ATOM      1  C   UNL A   1      36.672  21.924  23.896  1.00  0.00     0.274 C 
ENDROOT
BRANCH   1   2
ATOM      2  O   UNL A   1      35.391  22.377  24.368  1.00  0.00    -0.462 OA
BRANCH   2   3
ATOM      3  C   UNL A   1      34.733  23.281  23.601  1.00  0.00     0.306 C 
ATOM      4  O   UNL A   1      34.785  23.330  22.379  1.00  0.00    -0.252 OA
BRANCH   3   5
ATOM      5  C   UNL A   1      33.950  24.274  24.425  1.00  0.00     0.127 C 
BRANCH   5   6
ATOM      6  C   UNL A   1      33.554  25.580  23.731  1.00  0.00     0.007 C 
ATOM      7  C   UNL A   1      31.906  27.022  23.639  1.00  0.00     0.043 C 
ATOM      8  C   UNL A   1      32.977  26.645  24.688  1.00  0.00     0.015 C 
ATOM      9  C   UNL A   1      32.241  25.686  22.876  1.00  0.00    -0.024 C 
ATOM     10  C   UNL A   1      31.177  24.612  23.126  1.00  0.00     0.012 C 
ATOM     11  C   UNL A   1      32.516  25.827  21.376  1.00  0.00     0.012 C 
BRANCH   7  12
ATOM     12  C   UNL A   1      31.998  28.378  22.849  1.00  0.00     0.058 C 
ATOM     13  C   UNL A   1      33.324  29.094  22.738  1.00  0.00     0.066 C 
ATOM     14  N   UNL A   1      30.874  28.821  22.360  1.00  0.00    -0.099 NA
BRANCH  14  15
ATOM     15  O   UNL A   1      31.029  30.027  21.675  1.00  0.00    -0.411 OA
ATOM     16  H   UNL A   1      31.813  30.192  21.189  1.00  0.00     0.330 HD
ENDBRANCH  14  15
ENDBRANCH   7  12
ENDBRANCH   5   6
ENDBRANCH   3   5
ENDBRANCH   2   3
ENDBRANCH   1   2
BRANCH   1  17
ATOM     17  C   UNL A   1      37.195  20.794  24.782  1.00  0.00     0.275 C 
BRANCH  17  18
ATOM     18  O   UNL A   1      37.717  21.316  26.016  1.00  0.00    -0.458 OA
BRANCH  18  19
ATOM     19  C   UNL A   1      39.053  21.174  26.187  1.00  0.00     0.338 C 
ATOM     20  O   UNL A   1      39.730  20.191  25.944  1.00  0.00    -0.246 OA
BRANCH  19  21
ATOM     21  C   UNL A   1      39.620  22.465  26.603  1.00  0.00     0.060 A 
ATOM     22  C   UNL A   1      39.042  23.633  26.102  1.00  0.00     0.016 A 
ATOM     23  C   UNL A   1      40.746  22.524  27.425  1.00  0.00     0.016 A 
ATOM     24  C   UNL A   1      39.586  24.873  26.422  1.00  0.00     0.010 A 
ATOM     25  C   UNL A   1      41.290  23.772  27.750  1.00  0.00     0.010 A 
ATOM     26  C   UNL A   1      40.719  24.953  27.243  1.00  0.00    -0.014 A 
BRANCH  26  27
ATOM     27  C   UNL A   1      41.323  26.277  27.534  1.00  0.00     0.031 A 
ATOM     28  C   UNL A   1      42.698  26.601  27.022  1.00  0.00     0.074 A 
ATOM     29  C   UNL A   1      40.629  27.187  28.244  1.00  0.00     0.049 A 
ATOM     30  N   UNL A   1      43.418  27.678  27.206  1.00  0.00    -0.248 NA
ATOM     31  C   UNL A   1      43.352  25.574  26.197  1.00  0.00     0.031 C 
ATOM     32  C   UNL A   1      39.276  26.989  28.771  1.00  0.00     0.029 A 
ATOM     33  N   UNL A   1      40.963  28.453  28.651  1.00  0.00    -0.354 N 
ATOM     34  C   UNL A   1      44.618  27.453  26.542  1.00  0.00     0.074 A 
ATOM     35  C   UNL A   1      44.533  26.127  25.962  1.00  0.00     0.031 C 
ATOM     36  C   UNL A   1      38.901  28.094  29.437  1.00  0.00     0.029 A 
ATOM     37  C   UNL A   1      39.997  29.059  29.421  1.00  0.00     0.049 A 
ATOM     38  H   UNL A   1      41.814  28.888  28.414  1.00  0.00     0.167 HD
ATOM     39  C   UNL A   1      45.688  28.276  26.427  1.00  0.00     0.034 A 
ATOM     40  C   UNL A   1      40.007  30.243  30.065  1.00  0.00     0.034 A 
ATOM     41  C   UNL A   1      45.752  29.600  26.999  1.00  0.00     0.049 A 
ATOM     42  C   UNL A   1      41.226  31.124  29.950  1.00  0.00     0.074 A 
ATOM     43  C   UNL A   1      46.768  30.534  26.899  1.00  0.00     0.029 A 
ATOM     44  N   UNL A   1      44.764  30.173  27.790  1.00  0.00    -0.354 N 
ATOM     45  N   UNL A   1      42.343  30.908  29.293  1.00  0.00    -0.248 NA
ATOM     46  C   UNL A   1      41.182  32.411  30.655  1.00  0.00     0.031 C 
ATOM     47  C   UNL A   1      46.423  31.644  27.679  1.00  0.00     0.029 A 
ATOM     48  C   UNL A   1      45.162  31.433  28.212  1.00  0.00     0.049 A 
ATOM     49  H   UNL A   1      43.905  29.748  28.017  1.00  0.00     0.167 HD
ATOM     50  C   UNL A   1      43.125  32.042  29.493  1.00  0.00     0.074 A 
ATOM     51  C   UNL A   1      42.343  32.947  30.310  1.00  0.00     0.031 C 
ATOM     52  C   UNL A   1      44.377  32.315  29.043  1.00  0.00     0.034 A 
BRANCH  39  53
ATOM     53  C   UNL A   1      46.901  27.747  25.703  1.00  0.00     0.023 A 
ATOM     54  C   UNL A   1      47.138  28.021  24.344  1.00  0.00     0.031 A 
ATOM     55  C   UNL A   1      47.832  26.946  26.388  1.00  0.00     0.131 A 
ATOM     56  C   UNL A   1      48.250  27.454  23.702  1.00  0.00     0.055 A 
ATOM     57  C   UNL A   1      48.971  26.439  25.760  1.00  0.00     0.041 A 
ATOM     58  F   UNL A   1      47.645  26.637  27.680  1.00  0.00    -0.206 F 
ATOM     59  C   UNL A   1      49.180  26.684  24.406  1.00  0.00     0.022 A 
BRANCH  56  60
ATOM     60  S   UNL A   1      48.411  27.648  21.906  1.00  0.00     0.124 S 
ATOM     61  O   UNL A   1      48.652  26.271  21.480  1.00  0.00    -0.237 OA
ATOM     62  O   UNL A   1      47.121  28.215  21.532  1.00  0.00    -0.237 OA
ATOM     63  O   UNL A   1      49.554  28.547  21.759  1.00  0.00    -0.744 OA
ENDBRANCH  56  60
ENDBRANCH  39  53
BRANCH  40  64
ATOM     64  C   UNL A   1      38.857  30.648  30.923  1.00  0.00     0.023 A 
ATOM     65  C   UNL A   1      37.843  31.488  30.435  1.00  0.00     0.031 A 
ATOM     66  C   UNL A   1      38.791  30.248  32.270  1.00  0.00     0.131 A 
ATOM     67  C   UNL A   1      36.833  31.940  31.299  1.00  0.00     0.055 A 
ATOM     68  C   UNL A   1      37.757  30.657  33.112  1.00  0.00     0.041 A 
ATOM     69  F   UNL A   1      39.736  29.446  32.787  1.00  0.00    -0.206 F 
ATOM     70  C   UNL A   1      36.778  31.520  32.631  1.00  0.00     0.022 A 
BRANCH  67  71
ATOM     71  S   UNL A   1      35.648  33.167  30.685  1.00  0.00     0.124 S 
ATOM     72  O   UNL A   1      35.670  34.164  31.748  1.00  0.00    -0.237 OA
ATOM     73  O   UNL A   1      36.255  33.564  29.419  1.00  0.00    -0.237 OA
ATOM     74  O   UNL A   1      34.404  32.408  30.566  1.00  0.00    -0.744 OA
ENDBRANCH  67  71
ENDBRANCH  40  64
BRANCH  52  75
ATOM     75  C   UNL A   1      44.951  33.660  29.406  1.00  0.00     0.023 A 
ATOM     76  C   UNL A   1      45.714  33.845  30.573  1.00  0.00     0.031 A 
ATOM     77  C   UNL A   1      44.705  34.780  28.592  1.00  0.00     0.131 A 
ATOM     78  C   UNL A   1      46.154  35.130  30.924  1.00  0.00     0.055 A 
ATOM     79  C   UNL A   1      45.194  36.046  28.917  1.00  0.00     0.041 A 
ATOM     80  F   UNL A   1      43.982  34.660  27.467  1.00  0.00    -0.206 F 
ATOM     81  C   UNL A   1      45.910  36.229  30.096  1.00  0.00     0.022 A 
BRANCH  78  82
ATOM     82  S   UNL A   1      46.967  35.365  32.530  1.00  0.00     0.124 S 
ATOM     83  O   UNL A   1      47.926  36.423  32.233  1.00  0.00    -0.237 OA
ATOM     84  O   UNL A   1      45.850  35.740  33.391  1.00  0.00    -0.237 OA
ATOM     85  O   UNL A   1      47.553  34.057  32.812  1.00  0.00    -0.744 OA
ENDBRANCH  78  82
ENDBRANCH  52  75
ENDBRANCH  26  27
ENDBRANCH  19  21
ENDBRANCH  18  19
ENDBRANCH  17  18
ENDBRANCH   1  17
TORSDOF 17
ENDMDL
