MODEL 1
REMARK VINA RESULT:     -12.1      0.000      0.000
REMARK SMILES Cc1ccnc(C(=O)c2[nH]c3ccc(F)cc3c2CC(=O)OCCOC(=O)c2ccc(-c3c4nc(c(-c5cc(S(=O)(=O)[O-])ccc5F)c5ccc([nH]5)c(-c5cc(S(=O)(=O)[O-])ccc5F)c5nc(c(-c6cc(S(=O)(=O)[O-])ccc6F)c6ccc3[nH]6)C=C5)C=C4)cc2)c1
REMARK SMILES IDX 23 1 22 2 20 3 21 4 19 5 18 6 9 7 10 8 11 9 17 11 12 12
REMARK SMILES IDX 16 13 13 14 14 15 15 16 7 17 8 18 6 19 1 20 2 21 3 22 91 23
REMARK SMILES IDX 4 24 5 25 24 26 25 27 26 28 27 29 28 30 29 31 90 32 30 33
REMARK SMILES IDX 89 34 31 35 32 36 33 37 83 38 34 39 88 40 82 41 84 42 35 43
REMARK SMILES IDX 87 44 81 45 80 46 36 48 68 49 48 50 67 51 49 52 52 53 66 54
REMARK SMILES IDX 85 55 50 56 51 57 65 59 86 60 53 61 37 62 38 63 46 64 39 65
REMARK SMILES IDX 45 66 47 67 44 68 40 69 41 70 42 71 43 72 69 73 70 74 78 75
REMARK SMILES IDX 71 76 77 77 79 78 76 79 72 80 73 81 74 82 75 83 54 84 55 85
REMARK SMILES IDX 63 86 56 87 62 88 64 89 61 90 57 91 58 92 59 93 60 94
REMARK H PARENT 10 10 84 47 52 58
REMARK Flexibility Score: inf
ROOT
ATOM      1  C   UNL A   1      37.019  22.186  23.874  1.00  0.00     0.274 C 
ENDROOT
BRANCH   1   2
ATOM      2  O   UNL A   1      35.588  22.363  23.785  1.00  0.00    -0.462 OA
BRANCH   2   3
ATOM      3  C   UNL A   1      35.158  23.653  23.761  1.00  0.00     0.310 C 
ATOM      4  O   UNL A   1      34.608  24.166  22.789  1.00  0.00    -0.252 OA
BRANCH   3   5
ATOM      5  C   UNL A   1      35.256  24.375  25.086  1.00  0.00     0.161 C 
BRANCH   5   6
ATOM      6  C   UNL A   1      33.985  24.763  25.780  1.00  0.00     0.000 A 
ATOM      7  C   UNL A   1      33.107  23.937  26.489  1.00  0.00     0.093 A 
ATOM      8  N   UNL A   1      31.935  24.644  26.638  1.00  0.00    -0.352 N 
ATOM      9  C   UNL A   1      32.021  25.881  26.043  1.00  0.00     0.046 A 
ATOM     10  H   UNL A   1      31.137  24.308  27.108  1.00  0.00     0.167 HD
ATOM     11  C   UNL A   1      33.322  26.017  25.567  1.00  0.00     0.007 A 
ATOM     12  C   UNL A   1      31.032  26.851  25.832  1.00  0.00     0.030 A 
ATOM     13  C   UNL A   1      33.676  27.200  24.886  1.00  0.00     0.049 A 
ATOM     14  C   UNL A   1      31.399  28.004  25.131  1.00  0.00     0.041 A 
ATOM     15  C   UNL A   1      32.702  28.174  24.684  1.00  0.00     0.123 A 
ATOM     16  F   UNL A   1      33.023  29.290  24.014  1.00  0.00    -0.207 F 
BRANCH   7  17
ATOM     17  C   UNL A   1      33.143  22.499  26.741  1.00  0.00     0.227 C 
ATOM     18  O   UNL A   1      33.507  22.098  27.844  1.00  0.00    -0.285 OA
BRANCH  17  19
ATOM     19  C   UNL A   1      32.826  21.486  25.658  1.00  0.00     0.113 A 
ATOM     20  C   UNL A   1      33.703  17.989  24.469  1.00  0.00     0.044 C 
ATOM     21  C   UNL A   1      33.095  19.357  24.556  1.00  0.00    -0.047 A 
ATOM     22  C   UNL A   1      32.511  19.917  23.418  1.00  0.00     0.023 A 
ATOM     23  C   UNL A   1      33.224  20.148  25.713  1.00  0.00     0.036 A 
ATOM     24  C   UNL A   1      32.071  21.226  23.475  1.00  0.00     0.112 A 
ATOM     25  N   UNL A   1      32.210  22.011  24.560  1.00  0.00    -0.253 NA
ENDBRANCH  17  19
ENDBRANCH   7  17
ENDBRANCH   5   6
ENDBRANCH   3   5
ENDBRANCH   2   3
ENDBRANCH   1   2
BRANCH   1  26
ATOM     26  C   UNL A   1      37.380  20.928  24.682  1.00  0.00     0.275 C 
BRANCH  26  27
ATOM     27  O   UNL A   1      37.774  21.212  26.044  1.00  0.00    -0.458 OA
BRANCH  27  28
ATOM     28  C   UNL A   1      39.114  21.186  26.212  1.00  0.00     0.338 C 
ATOM     29  O   UNL A   1      39.810  20.196  26.121  1.00  0.00    -0.246 OA
BRANCH  28  30
ATOM     30  C   UNL A   1      39.753  22.475  26.443  1.00  0.00     0.060 A 
ATOM     31  C   UNL A   1      40.870  22.514  27.278  1.00  0.00     0.016 A 
ATOM     32  C   UNL A   1      39.072  23.643  26.091  1.00  0.00     0.016 A 
ATOM     33  C   UNL A   1      41.311  23.737  27.768  1.00  0.00     0.010 A 
ATOM     34  C   UNL A   1      39.554  24.876  26.534  1.00  0.00     0.010 A 
ATOM     35  C   UNL A   1      40.682  24.929  27.367  1.00  0.00    -0.014 A 
BRANCH  35  36
ATOM     36  C   UNL A   1      41.356  26.217  27.643  1.00  0.00     0.031 A 
ATOM     37  C   UNL A   1      42.738  26.529  27.162  1.00  0.00     0.074 A 
ATOM     38  C   UNL A   1      40.653  27.110  28.366  1.00  0.00     0.049 A 
ATOM     39  N   UNL A   1      43.435  27.624  27.338  1.00  0.00    -0.248 NA
ATOM     40  C   UNL A   1      43.434  25.487  26.395  1.00  0.00     0.031 C 
ATOM     41  C   UNL A   1      39.298  26.883  28.882  1.00  0.00     0.029 A 
ATOM     42  N   UNL A   1      40.961  28.374  28.785  1.00  0.00    -0.354 N 
ATOM     43  C   UNL A   1      44.654  27.410  26.707  1.00  0.00     0.074 A 
ATOM     44  C   UNL A   1      44.609  26.066  26.164  1.00  0.00     0.031 C 
ATOM     45  C   UNL A   1      38.884  27.980  29.527  1.00  0.00     0.029 A 
ATOM     46  C   UNL A   1      39.959  28.962  29.519  1.00  0.00     0.049 A 
ATOM     47  H   UNL A   1      41.815  28.819  28.583  1.00  0.00     0.167 HD
ATOM     48  C   UNL A   1      45.703  28.264  26.599  1.00  0.00     0.034 A 
ATOM     49  C   UNL A   1      39.913  30.154  30.139  1.00  0.00     0.034 A 
ATOM     50  C   UNL A   1      45.717  29.600  27.161  1.00  0.00     0.049 A 
ATOM     51  C   UNL A   1      41.099  31.063  30.029  1.00  0.00     0.074 A 
ATOM     52  C   UNL A   1      46.703  30.568  27.064  1.00  0.00     0.029 A 
ATOM     53  N   UNL A   1      44.703  30.151  27.938  1.00  0.00    -0.354 N 
ATOM     54  N   UNL A   1      42.237  30.856  29.409  1.00  0.00    -0.248 NA
ATOM     55  C   UNL A   1      40.992  32.364  30.693  1.00  0.00     0.031 C 
ATOM     56  C   UNL A   1      46.316  31.674  27.835  1.00  0.00     0.029 A 
ATOM     57  C   UNL A   1      45.058  31.427  28.358  1.00  0.00     0.049 A 
ATOM     58  H   UNL A   1      43.855  29.702  28.159  1.00  0.00     0.167 HD
ATOM     59  C   UNL A   1      42.985  32.008  29.602  1.00  0.00     0.074 A 
ATOM     60  C   UNL A   1      42.157  32.913  30.379  1.00  0.00     0.031 C 
ATOM     61  C   UNL A   1      44.239  32.296  29.172  1.00  0.00     0.034 A 
BRANCH  48  62
ATOM     62  C   UNL A   1      46.945  27.772  25.893  1.00  0.00     0.023 A 
ATOM     63  C   UNL A   1      47.155  27.969  24.516  1.00  0.00     0.031 A 
ATOM     64  C   UNL A   1      47.953  27.113  26.622  1.00  0.00     0.131 A 
ATOM     65  C   UNL A   1      48.323  27.481  23.906  1.00  0.00     0.055 A 
ATOM     66  C   UNL A   1      49.137  26.678  26.021  1.00  0.00     0.041 A 
ATOM     67  F   UNL A   1      47.804  26.881  27.936  1.00  0.00    -0.206 F 
ATOM     68  C   UNL A   1      49.323  26.853  24.655  1.00  0.00     0.022 A 
BRANCH  65  69
ATOM     69  S   UNL A   1      48.489  27.593  22.102  1.00  0.00     0.124 S 
ATOM     70  O   UNL A   1      47.243  28.257  21.727  1.00  0.00    -0.237 OA
ATOM     71  O   UNL A   1      49.707  28.380  21.947  1.00  0.00    -0.237 OA
ATOM     72  O   UNL A   1      48.593  26.198  21.679  1.00  0.00    -0.744 OA
ENDBRANCH  65  69
ENDBRANCH  48  62
BRANCH  49  73
ATOM     73  C   UNL A   1      38.711  30.518  30.931  1.00  0.00     0.023 A 
ATOM     74  C   UNL A   1      37.666  31.258  30.362  1.00  0.00     0.031 A 
ATOM     75  C   UNL A   1      38.578  30.089  32.265  1.00  0.00     0.131 A 
ATOM     76  C   UNL A   1      36.533  31.561  31.132  1.00  0.00     0.055 A 
ATOM     77  C   UNL A   1      37.432  30.358  33.012  1.00  0.00     0.041 A 
ATOM     78  F   UNL A   1      39.547  29.361  32.844  1.00  0.00    -0.206 F 
ATOM     79  C   UNL A   1      36.404  31.105  32.448  1.00  0.00     0.022 A 
BRANCH  76  80
ATOM     80  S   UNL A   1      35.238  32.597  30.400  1.00  0.00     0.124 S 
ATOM     81  O   UNL A   1      36.004  33.745  29.927  1.00  0.00    -0.237 OA
ATOM     82  O   UNL A   1      34.696  31.718  29.368  1.00  0.00    -0.237 OA
ATOM     83  O   UNL A   1      34.341  32.863  31.522  1.00  0.00    -0.744 OA
ENDBRANCH  76  80
ENDBRANCH  49  73
BRANCH  61  84
ATOM     84  C   UNL A   1      44.767  33.659  29.540  1.00  0.00     0.023 A 
ATOM     85  C   UNL A   1      44.623  34.757  28.674  1.00  0.00     0.031 A 
ATOM     86  C   UNL A   1      45.479  33.843  30.738  1.00  0.00     0.131 A 
ATOM     87  C   UNL A   1      45.236  35.979  28.989  1.00  0.00     0.055 A 
ATOM     88  C   UNL A   1      46.041  35.076  31.071  1.00  0.00     0.041 A 
ATOM     89  F   UNL A   1      45.651  32.824  31.593  1.00  0.00    -0.206 F 
ATOM     90  C   UNL A   1      45.933  36.148  30.188  1.00  0.00     0.022 A 
BRANCH  87  91
ATOM     91  S   UNL A   1      45.195  37.315  27.764  1.00  0.00     0.124 S 
ATOM     92  O   UNL A   1      43.764  37.457  27.516  1.00  0.00    -0.237 OA
ATOM     93  O   UNL A   1      45.831  38.416  28.479  1.00  0.00    -0.237 OA
ATOM     94  O   UNL A   1      45.967  36.776  26.644  1.00  0.00    -0.744 OA
ENDBRANCH  87  91
ENDBRANCH  61  84
ENDBRANCH  35  36
ENDBRANCH  28  30
ENDBRANCH  27  28
ENDBRANCH  26  27
ENDBRANCH   1  26
TORSDOF 17
ENDMDL
MODEL 2
REMARK VINA RESULT:     -12.1      5.053     10.274
REMARK SMILES Cc1ccnc(C(=O)c2[nH]c3ccc(F)cc3c2CC(=O)OCCOC(=O)c2ccc(-c3c4nc(c(-c5cc(S(=O)(=O)[O-])ccc5F)c5ccc([nH]5)c(-c5cc(S(=O)(=O)[O-])ccc5F)c5nc(c(-c6cc(S(=O)(=O)[O-])ccc6F)c6ccc3[nH]6)C=C5)C=C4)cc2)c1
REMARK SMILES IDX 23 1 22 2 20 3 21 4 19 5 18 6 9 7 10 8 11 9 17 11 12 12
REMARK SMILES IDX 16 13 13 14 14 15 15 16 7 17 8 18 6 19 1 20 2 21 3 22 91 23
REMARK SMILES IDX 4 24 5 25 24 26 25 27 26 28 27 29 28 30 29 31 90 32 30 33
REMARK SMILES IDX 89 34 31 35 32 36 33 37 83 38 34 39 88 40 82 41 84 42 35 43
REMARK SMILES IDX 87 44 81 45 80 46 36 48 68 49 48 50 67 51 49 52 52 53 66 54
REMARK SMILES IDX 85 55 50 56 51 57 65 59 86 60 53 61 37 62 38 63 46 64 39 65
REMARK SMILES IDX 45 66 47 67 44 68 40 69 41 70 42 71 43 72 69 73 70 74 78 75
REMARK SMILES IDX 71 76 77 77 79 78 76 79 72 80 73 81 74 82 75 83 54 84 55 85
REMARK SMILES IDX 63 86 56 87 62 88 64 89 61 90 57 91 58 92 59 93 60 94
REMARK H PARENT 10 10 84 47 52 58
REMARK Flexibility Score: inf
ROOT
ATOM      1  C   UNL A   1      31.630  28.826  27.034  1.00  0.00     0.274 C 
ENDROOT
BRANCH   1   2
ATOM      2  O   UNL A   1      31.585  27.823  25.996  1.00  0.00    -0.462 OA
BRANCH   2   3
ATOM      3  C   UNL A   1      32.166  26.633  26.306  1.00  0.00     0.310 C 
ATOM      4  O   UNL A   1      31.576  25.718  26.876  1.00  0.00    -0.252 OA
BRANCH   3   5
ATOM      5  C   UNL A   1      33.560  26.448  25.749  1.00  0.00     0.161 C 
BRANCH   5   6
ATOM      6  C   UNL A   1      33.803  25.308  24.806  1.00  0.00     0.000 A 
ATOM      7  C   UNL A   1      33.542  25.260  23.432  1.00  0.00     0.093 A 
ATOM      8  N   UNL A   1      33.592  23.932  23.069  1.00  0.00    -0.352 N 
ATOM      9  C   UNL A   1      33.860  23.129  24.153  1.00  0.00     0.046 A 
ATOM     10  H   UNL A   1      33.453  23.600  22.152  1.00  0.00     0.167 HD
ATOM     11  C   UNL A   1      34.077  23.970  25.241  1.00  0.00     0.007 A 
ATOM     12  C   UNL A   1      33.855  21.733  24.263  1.00  0.00     0.030 A 
ATOM     13  C   UNL A   1      34.354  23.394  26.498  1.00  0.00     0.049 A 
ATOM     14  C   UNL A   1      34.106  21.184  25.524  1.00  0.00     0.041 A 
ATOM     15  C   UNL A   1      34.365  22.006  26.612  1.00  0.00     0.123 A 
ATOM     16  F   UNL A   1      34.600  21.451  27.810  1.00  0.00    -0.207 F 
BRANCH   7  17
ATOM     17  C   UNL A   1      32.956  26.253  22.537  1.00  0.00     0.227 C 
ATOM     18  O   UNL A   1      33.653  26.739  21.650  1.00  0.00    -0.285 OA
BRANCH  17  19
ATOM     19  C   UNL A   1      31.540  26.764  22.721  1.00  0.00     0.113 A 
ATOM     20  C   UNL A   1      29.510  29.963  22.963  1.00  0.00     0.044 C 
ATOM     21  C   UNL A   1      29.895  28.513  22.945  1.00  0.00    -0.047 A 
ATOM     22  C   UNL A   1      29.026  27.571  23.501  1.00  0.00     0.023 A 
ATOM     23  C   UNL A   1      31.167  28.094  22.513  1.00  0.00     0.036 A 
ATOM     24  C   UNL A   1      29.447  26.258  23.596  1.00  0.00     0.112 A 
ATOM     25  N   UNL A   1      30.669  25.839  23.217  1.00  0.00    -0.253 NA
ENDBRANCH  17  19
ENDBRANCH   7  17
ENDBRANCH   5   6
ENDBRANCH   3   5
ENDBRANCH   2   3
ENDBRANCH   1   2
BRANCH   1  26
ATOM     26  C   UNL A   1      31.760  30.240  26.443  1.00  0.00     0.275 C 
BRANCH  26  27
ATOM     27  O   UNL A   1      33.129  30.652  26.228  1.00  0.00    -0.458 OA
BRANCH  27  28
ATOM     28  C   UNL A   1      33.550  31.550  27.145  1.00  0.00     0.338 C 
ATOM     29  O   UNL A   1      33.034  32.629  27.354  1.00  0.00    -0.246 OA
BRANCH  28  30
ATOM     30  C   UNL A   1      34.663  31.130  27.987  1.00  0.00     0.060 A 
ATOM     31  C   UNL A   1      35.705  32.034  28.197  1.00  0.00     0.016 A 
ATOM     32  C   UNL A   1      34.809  29.775  28.293  1.00  0.00     0.016 A 
ATOM     33  C   UNL A   1      36.908  31.576  28.720  1.00  0.00     0.010 A 
ATOM     34  C   UNL A   1      35.996  29.328  28.876  1.00  0.00     0.010 A 
ATOM     35  C   UNL A   1      37.048  30.230  29.101  1.00  0.00    -0.014 A 
BRANCH  35  36
ATOM     36  C   UNL A   1      38.207  29.842  29.936  1.00  0.00     0.031 A 
ATOM     37  C   UNL A   1      38.398  30.334  31.336  1.00  0.00     0.074 A 
ATOM     38  C   UNL A   1      39.101  29.015  29.361  1.00  0.00     0.049 A 
ATOM     39  N   UNL A   1      39.371  30.064  32.169  1.00  0.00    -0.248 NA
ATOM     40  C   UNL A   1      37.380  31.246  31.873  1.00  0.00     0.031 C 
ATOM     41  C   UNL A   1      38.994  28.493  27.993  1.00  0.00     0.029 A 
ATOM     42  N   UNL A   1      40.256  28.463  29.838  1.00  0.00    -0.354 N 
ATOM     43  C   UNL A   1      39.091  30.771  33.332  1.00  0.00     0.074 A 
ATOM     44  C   UNL A   1      37.864  31.503  33.085  1.00  0.00     0.031 C 
ATOM     45  C   UNL A   1      40.029  27.679  27.753  1.00  0.00     0.029 A 
ATOM     46  C   UNL A   1      40.896  27.665  28.922  1.00  0.00     0.049 A 
ATOM     47  H   UNL A   1      40.597  28.621  30.748  1.00  0.00     0.167 HD
ATOM     48  C   UNL A   1      39.799  30.796  34.489  1.00  0.00     0.034 A 
ATOM     49  C   UNL A   1      42.066  27.007  29.000  1.00  0.00     0.034 A 
ATOM     50  C   UNL A   1      41.027  30.055  34.699  1.00  0.00     0.049 A 
ATOM     51  C   UNL A   1      42.842  27.080  30.279  1.00  0.00     0.074 A 
ATOM     52  C   UNL A   1      41.796  29.965  35.848  1.00  0.00     0.029 A 
ATOM     53  N   UNL A   1      41.675  29.290  33.735  1.00  0.00    -0.354 N 
ATOM     54  N   UNL A   1      42.553  27.735  31.379  1.00  0.00    -0.248 NA
ATOM     55  C   UNL A   1      44.094  26.322  30.331  1.00  0.00     0.031 C 
ATOM     56  C   UNL A   1      42.937  29.204  35.560  1.00  0.00     0.029 A 
ATOM     57  C   UNL A   1      42.851  28.759  34.251  1.00  0.00     0.049 A 
ATOM     58  H   UNL A   1      41.347  29.145  32.818  1.00  0.00     0.167 HD
ATOM     59  C   UNL A   1      43.587  27.462  32.262  1.00  0.00     0.074 A 
ATOM     60  C   UNL A   1      44.495  26.564  31.570  1.00  0.00     0.031 C 
ATOM     61  C   UNL A   1      43.768  27.906  33.531  1.00  0.00     0.034 A 
BRANCH  48  62
ATOM     62  C   UNL A   1      39.302  31.688  35.603  1.00  0.00     0.023 A 
ATOM     63  C   UNL A   1      38.541  31.194  36.678  1.00  0.00     0.031 A 
ATOM     64  C   UNL A   1      39.619  33.060  35.600  1.00  0.00     0.131 A 
ATOM     65  C   UNL A   1      38.093  32.069  37.683  1.00  0.00     0.055 A 
ATOM     66  C   UNL A   1      39.217  33.914  36.629  1.00  0.00     0.041 A 
ATOM     67  F   UNL A   1      40.329  33.594  34.593  1.00  0.00    -0.206 F 
ATOM     68  C   UNL A   1      38.443  33.422  37.673  1.00  0.00     0.022 A 
BRANCH  65  69
ATOM     69  S   UNL A   1      36.969  31.440  38.962  1.00  0.00     0.124 S 
ATOM     70  O   UNL A   1      36.724  30.076  38.502  1.00  0.00    -0.237 OA
ATOM     71  O   UNL A   1      37.768  31.574  40.175  1.00  0.00    -0.237 OA
ATOM     72  O   UNL A   1      35.816  32.334  38.876  1.00  0.00    -0.744 OA
ENDBRANCH  65  69
ENDBRANCH  48  62
BRANCH  49  73
ATOM     73  C   UNL A   1      42.563  26.259  27.818  1.00  0.00     0.023 A 
ATOM     74  C   UNL A   1      42.215  24.917  27.611  1.00  0.00     0.031 A 
ATOM     75  C   UNL A   1      43.364  26.898  26.853  1.00  0.00     0.131 A 
ATOM     76  C   UNL A   1      42.680  24.250  26.468  1.00  0.00     0.055 A 
ATOM     77  C   UNL A   1      43.790  26.242  25.700  1.00  0.00     0.041 A 
ATOM     78  F   UNL A   1      43.705  28.189  27.001  1.00  0.00    -0.206 F 
ATOM     79  C   UNL A   1      43.454  24.906  25.505  1.00  0.00     0.022 A 
BRANCH  76  80
ATOM     80  S   UNL A   1      42.291  22.490  26.272  1.00  0.00     0.124 S 
ATOM     81  O   UNL A   1      42.920  21.910  27.454  1.00  0.00    -0.237 OA
ATOM     82  O   UNL A   1      40.832  22.503  26.263  1.00  0.00    -0.237 OA
ATOM     83  O   UNL A   1      42.916  22.143  24.998  1.00  0.00    -0.744 OA
ENDBRANCH  76  80
ENDBRANCH  49  73
BRANCH  61  84
ATOM     84  C   UNL A   1      45.002  27.406  34.237  1.00  0.00     0.023 A 
ATOM     85  C   UNL A   1      44.985  26.216  34.986  1.00  0.00     0.031 A 
ATOM     86  C   UNL A   1      46.187  28.161  34.213  1.00  0.00     0.131 A 
ATOM     87  C   UNL A   1      46.113  25.846  35.733  1.00  0.00     0.055 A 
ATOM     88  C   UNL A   1      47.324  27.759  34.915  1.00  0.00     0.041 A 
ATOM     89  F   UNL A   1      46.252  29.307  33.519  1.00  0.00    -0.206 F 
ATOM     90  C   UNL A   1      47.286  26.604  35.692  1.00  0.00     0.022 A 
BRANCH  87  91
ATOM     91  S   UNL A   1      45.992  24.414  36.839  1.00  0.00     0.124 S 
ATOM     92  O   UNL A   1      45.927  25.049  38.152  1.00  0.00    -0.237 OA
ATOM     93  O   UNL A   1      44.767  23.768  36.383  1.00  0.00    -0.237 OA
ATOM     94  O   UNL A   1      47.222  23.670  36.572  1.00  0.00    -0.744 OA
ENDBRANCH  87  91
ENDBRANCH  61  84
ENDBRANCH  35  36
ENDBRANCH  28  30
ENDBRANCH  27  28
ENDBRANCH  26  27
ENDBRANCH   1  26
TORSDOF 17
ENDMDL
MODEL 3
REMARK VINA RESULT:     -12.0      5.053     10.018
REMARK SMILES Cc1ccnc(C(=O)c2[nH]c3ccc(F)cc3c2CC(=O)OCCOC(=O)c2ccc(-c3c4nc(c(-c5cc(S(=O)(=O)[O-])ccc5F)c5ccc([nH]5)c(-c5cc(S(=O)(=O)[O-])ccc5F)c5nc(c(-c6cc(S(=O)(=O)[O-])ccc6F)c6ccc3[nH]6)C=C5)C=C4)cc2)c1
REMARK SMILES IDX 23 1 22 2 20 3 21 4 19 5 18 6 9 7 10 8 11 9 17 11 12 12
REMARK SMILES IDX 16 13 13 14 14 15 15 16 7 17 8 18 6 19 1 20 2 21 3 22 91 23
REMARK SMILES IDX 4 24 5 25 24 26 25 27 26 28 27 29 28 30 29 31 90 32 30 33
REMARK SMILES IDX 89 34 31 35 32 36 33 37 83 38 34 39 88 40 82 41 84 42 35 43
REMARK SMILES IDX 87 44 81 45 80 46 36 48 68 49 48 50 67 51 49 52 52 53 66 54
REMARK SMILES IDX 85 55 50 56 51 57 65 59 86 60 53 61 37 62 38 63 46 64 39 65
REMARK SMILES IDX 45 66 47 67 44 68 40 69 41 70 42 71 43 72 69 73 70 74 78 75
REMARK SMILES IDX 71 76 77 77 79 78 76 79 72 80 73 81 74 82 75 83 54 84 55 85
REMARK SMILES IDX 63 86 56 87 62 88 64 89 61 90 57 91 58 92 59 93 60 94
REMARK H PARENT 10 10 84 47 52 58
REMARK Flexibility Score: inf
ROOT
ATOM      1  C   UNL A   1      32.087  28.148  26.400  1.00  0.00     0.274 C 
ENDROOT
BRANCH   1   2
ATOM      2  O   UNL A   1      30.869  27.376  26.317  1.00  0.00    -0.462 OA
BRANCH   2   3
ATOM      3  C   UNL A   1      31.030  26.054  26.040  1.00  0.00     0.310 C 
ATOM      4  O   UNL A   1      31.370  25.222  26.877  1.00  0.00    -0.252 OA
BRANCH   3   5
ATOM      5  C   UNL A   1      30.598  25.645  24.649  1.00  0.00     0.161 C 
BRANCH   5   6
ATOM      6  C   UNL A   1      30.684  26.661  23.551  1.00  0.00     0.000 A 
ATOM      7  C   UNL A   1      31.834  27.163  22.932  1.00  0.00     0.093 A 
ATOM      8  N   UNL A   1      31.452  28.299  22.253  1.00  0.00    -0.352 N 
ATOM      9  C   UNL A   1      30.111  28.552  22.422  1.00  0.00     0.046 A 
ATOM     10  H   UNL A   1      32.060  28.858  21.717  1.00  0.00     0.167 HD
ATOM     11  C   UNL A   1      29.585  27.498  23.165  1.00  0.00     0.007 A 
ATOM     12  C   UNL A   1      29.348  29.662  22.037  1.00  0.00     0.030 A 
ATOM     13  C   UNL A   1      28.216  27.522  23.502  1.00  0.00     0.049 A 
ATOM     14  C   UNL A   1      27.999  29.677  22.405  1.00  0.00     0.041 A 
ATOM     15  C   UNL A   1      27.448  28.615  23.110  1.00  0.00     0.123 A 
ATOM     16  F   UNL A   1      26.152  28.659  23.450  1.00  0.00    -0.207 F 
BRANCH   7  17
ATOM     17  C   UNL A   1      33.246  26.881  23.172  1.00  0.00     0.227 C 
ATOM     18  O   UNL A   1      34.062  27.793  23.058  1.00  0.00    -0.285 OA
BRANCH  17  19
ATOM     19  C   UNL A   1      33.746  25.482  23.476  1.00  0.00     0.113 A 
ATOM     20  C   UNL A   1      36.158  23.572  25.701  1.00  0.00     0.044 C 
ATOM     21  C   UNL A   1      35.136  23.901  24.653  1.00  0.00    -0.047 A 
ATOM     22  C   UNL A   1      34.890  22.983  23.629  1.00  0.00     0.023 A 
ATOM     23  C   UNL A   1      34.522  25.166  24.593  1.00  0.00     0.036 A 
ATOM     24  C   UNL A   1      34.044  23.350  22.600  1.00  0.00     0.112 A 
ATOM     25  N   UNL A   1      33.469  24.564  22.506  1.00  0.00    -0.253 NA
ENDBRANCH  17  19
ENDBRANCH   7  17
ENDBRANCH   5   6
ENDBRANCH   3   5
ENDBRANCH   2   3
ENDBRANCH   1   2
BRANCH   1  26
ATOM     26  C   UNL A   1      31.795  29.657  26.423  1.00  0.00     0.275 C 
BRANCH  26  27
ATOM     27  O   UNL A   1      32.927  30.470  26.037  1.00  0.00    -0.458 OA
BRANCH  27  28
ATOM     28  C   UNL A   1      33.264  31.372  26.984  1.00  0.00     0.338 C 
ATOM     29  O   UNL A   1      32.662  32.401  27.214  1.00  0.00    -0.246 OA
BRANCH  28  30
ATOM     30  C   UNL A   1      34.396  31.017  27.831  1.00  0.00     0.060 A 
ATOM     31  C   UNL A   1      35.404  31.965  28.011  1.00  0.00     0.016 A 
ATOM     32  C   UNL A   1      34.595  29.677  28.171  1.00  0.00     0.016 A 
ATOM     33  C   UNL A   1      36.626  31.567  28.540  1.00  0.00     0.010 A 
ATOM     34  C   UNL A   1      35.801  29.292  28.759  1.00  0.00     0.010 A 
ATOM     35  C   UNL A   1      36.819  30.238  28.955  1.00  0.00    -0.014 A 
BRANCH  35  36
ATOM     36  C   UNL A   1      37.995  29.917  29.794  1.00  0.00     0.031 A 
ATOM     37  C   UNL A   1      38.154  30.420  31.194  1.00  0.00     0.074 A 
ATOM     38  C   UNL A   1      38.936  29.142  29.222  1.00  0.00     0.049 A 
ATOM     39  N   UNL A   1      39.138  30.206  32.030  1.00  0.00    -0.248 NA
ATOM     40  C   UNL A   1      37.084  31.274  31.728  1.00  0.00     0.031 C 
ATOM     41  C   UNL A   1      38.863  28.613  27.854  1.00  0.00     0.029 A 
ATOM     42  N   UNL A   1      40.119  28.656  29.703  1.00  0.00    -0.354 N 
ATOM     43  C   UNL A   1      38.815  30.896  33.192  1.00  0.00     0.074 A 
ATOM     44  C   UNL A   1      37.549  31.558  32.940  1.00  0.00     0.031 C 
ATOM     45  C   UNL A   1      39.943  27.858  27.618  1.00  0.00     0.029 A 
ATOM     46  C   UNL A   1      40.806  27.894  28.789  1.00  0.00     0.049 A 
ATOM     47  H   UNL A   1      40.447  28.833  30.614  1.00  0.00     0.167 HD
ATOM     48  C   UNL A   1      39.518  30.963  34.351  1.00  0.00     0.034 A 
ATOM     49  C   UNL A   1      42.011  27.304  28.871  1.00  0.00     0.034 A 
ATOM     50  C   UNL A   1      40.785  30.293  34.565  1.00  0.00     0.049 A 
ATOM     51  C   UNL A   1      42.778  27.421  30.153  1.00  0.00     0.074 A 
ATOM     52  C   UNL A   1      41.554  30.247  35.716  1.00  0.00     0.029 A 
ATOM     53  N   UNL A   1      41.478  29.565  33.603  1.00  0.00    -0.354 N 
ATOM     54  N   UNL A   1      42.448  28.059  31.251  1.00  0.00    -0.248 NA
ATOM     55  C   UNL A   1      44.070  26.735  30.209  1.00  0.00     0.031 C 
ATOM     56  C   UNL A   1      42.737  29.551  35.432  1.00  0.00     0.029 A 
ATOM     57  C   UNL A   1      42.680  29.101  34.123  1.00  0.00     0.049 A 
ATOM     58  H   UNL A   1      41.161  29.400  32.685  1.00  0.00     0.167 HD
ATOM     59  C   UNL A   1      43.494  27.846  32.137  1.00  0.00     0.074 A 
ATOM     60  C   UNL A   1      44.454  27.001  31.449  1.00  0.00     0.031 C 
ATOM     61  C   UNL A   1      43.646  28.300  33.407  1.00  0.00     0.034 A 
BRANCH  48  62
ATOM     62  C   UNL A   1      38.967  31.825  35.462  1.00  0.00     0.023 A 
ATOM     63  C   UNL A   1      38.350  31.279  36.603  1.00  0.00     0.031 A 
ATOM     64  C   UNL A   1      39.086  33.227  35.389  1.00  0.00     0.131 A 
ATOM     65  C   UNL A   1      37.845  32.128  37.602  1.00  0.00     0.055 A 
ATOM     66  C   UNL A   1      38.630  34.062  36.411  1.00  0.00     0.041 A 
ATOM     67  F   UNL A   1      39.651  33.808  34.319  1.00  0.00    -0.206 F 
ATOM     68  C   UNL A   1      37.998  33.514  37.521  1.00  0.00     0.022 A 
BRANCH  65  69
ATOM     69  S   UNL A   1      36.901  31.407  38.975  1.00  0.00     0.124 S 
ATOM     70  O   UNL A   1      35.739  32.289  39.037  1.00  0.00    -0.237 OA
ATOM     71  O   UNL A   1      36.650  30.049  38.504  1.00  0.00    -0.237 OA
ATOM     72  O   UNL A   1      37.813  31.511  40.112  1.00  0.00    -0.744 OA
ENDBRANCH  65  69
ENDBRANCH  48  62
BRANCH  49  73
ATOM     73  C   UNL A   1      42.553  26.584  27.691  1.00  0.00     0.023 A 
ATOM     74  C   UNL A   1      42.268  25.229  27.475  1.00  0.00     0.031 A 
ATOM     75  C   UNL A   1      43.334  27.263  26.737  1.00  0.00     0.131 A 
ATOM     76  C   UNL A   1      42.774  24.589  26.335  1.00  0.00     0.055 A 
ATOM     77  C   UNL A   1      43.800  26.632  25.586  1.00  0.00     0.041 A 
ATOM     78  F   UNL A   1      43.616  28.567  26.895  1.00  0.00    -0.206 F 
ATOM     79  C   UNL A   1      43.527  25.284  25.382  1.00  0.00     0.022 A 
BRANCH  76  80
ATOM     80  S   UNL A   1      42.466  22.814  26.127  1.00  0.00     0.124 S 
ATOM     81  O   UNL A   1      43.021  22.566  24.802  1.00  0.00    -0.237 OA
ATOM     82  O   UNL A   1      43.206  22.246  27.250  1.00  0.00    -0.237 OA
ATOM     83  O   UNL A   1      41.012  22.708  26.226  1.00  0.00    -0.744 OA
ENDBRANCH  76  80
ENDBRANCH  49  73
BRANCH  61  84
ATOM     84  C   UNL A   1      44.904  27.872  34.116  1.00  0.00     0.023 A 
ATOM     85  C   UNL A   1      44.987  26.630  34.771  1.00  0.00     0.031 A 
ATOM     86  C   UNL A   1      46.006  28.740  34.193  1.00  0.00     0.131 A 
ATOM     87  C   UNL A   1      46.126  26.316  35.528  1.00  0.00     0.055 A 
ATOM     88  C   UNL A   1      47.158  28.399  34.903  1.00  0.00     0.041 A 
ATOM     89  F   UNL A   1      45.973  29.939  33.591  1.00  0.00    -0.206 F 
ATOM     90  C   UNL A   1      47.216  27.188  35.588  1.00  0.00     0.022 A 
BRANCH  87  91
ATOM     91  S   UNL A   1      46.121  24.796  36.517  1.00  0.00     0.124 S 
ATOM     92  O   UNL A   1      44.769  24.293  36.295  1.00  0.00    -0.237 OA
ATOM     93  O   UNL A   1      47.198  24.022  35.908  1.00  0.00    -0.237 OA
ATOM     94  O   UNL A   1      46.390  25.269  37.874  1.00  0.00    -0.744 OA
ENDBRANCH  87  91
ENDBRANCH  61  84
ENDBRANCH  35  36
ENDBRANCH  28  30
ENDBRANCH  27  28
ENDBRANCH  26  27
ENDBRANCH   1  26
TORSDOF 17
ENDMDL
