MODEL 1
REMARK VINA RESULT:     -11.1      0.000      0.000
REMARK SMILES O=C(Cc1ccccc1Nc1c(Cl)cccc1Cl)OCCOC(=O)c1ccc(-c2c3nc(c(-c4cc(S(=O)(=O)[O-])ccc4F)c4ccc([nH]4)c(-c4cc(S(=O)(=O)[O-])ccc4F)c4nc(c(-c5cc(S(=O)(=O)[O-])ccc5F)c5ccc2[nH]5)C=C4)C=C3)cc1
REMARK SMILES IDX 20 1 19 2 2 3 1 4 3 5 4 6 5 7 9 8 6 9 8 10 7 11 10 12 11 14
REMARK SMILES IDX 12 15 17 16 13 17 14 18 16 19 18 20 15 21 21 22 22 23 23 24
REMARK SMILES IDX 24 25 25 26 26 27 87 28 27 29 86 30 28 31 29 32 30 33 80 34
REMARK SMILES IDX 31 35 85 36 79 37 81 38 32 39 84 40 78 41 77 42 33 44 65 45
REMARK SMILES IDX 45 46 64 47 46 48 49 49 63 50 82 51 47 52 48 53 62 55 83 56
REMARK SMILES IDX 50 57 34 58 35 59 43 60 36 61 42 62 44 63 41 64 37 65 38 66
REMARK SMILES IDX 39 67 40 68 66 69 67 70 75 71 68 72 74 73 76 74 73 75 69 76
REMARK SMILES IDX 70 77 71 78 72 79 51 80 52 81 60 82 53 83 59 84 61 85 58 86
REMARK SMILES IDX 54 87 55 88 56 89 57 90
REMARK H PARENT 10 13 81 43 49 54
REMARK Flexibility Score: inf
ROOT
ATOM      1  C   UNL A   1      36.086  22.194  23.778  1.00  0.00     0.274 C 
ENDROOT
BRANCH   1   2
ATOM      2  O   UNL A   1      36.149  23.516  24.349  1.00  0.00    -0.462 OA
BRANCH   2   3
ATOM      3  C   UNL A   1      35.099  24.363  24.497  1.00  0.00     0.310 C 
ATOM      4  O   UNL A   1      34.481  24.742  23.503  1.00  0.00    -0.252 OA
BRANCH   3   5
ATOM      5  C   UNL A   1      34.734  24.862  25.882  1.00  0.00     0.160 C 
BRANCH   5   6
ATOM      6  C   UNL A   1      33.485  25.715  25.880  1.00  0.00    -0.013 A 
ATOM      7  C   UNL A   1      33.627  27.085  25.572  1.00  0.00     0.006 A 
ATOM      8  C   UNL A   1      32.206  25.200  26.183  1.00  0.00     0.042 A 
ATOM      9  C   UNL A   1      32.531  27.941  25.569  1.00  0.00     0.000 A 
ATOM     10  C   UNL A   1      31.129  26.100  26.230  1.00  0.00     0.026 A 
ATOM     11  C   UNL A   1      31.281  27.450  25.912  1.00  0.00     0.002 A 
BRANCH   8  12
ATOM     12  N   UNL A   1      32.003  23.815  26.361  1.00  0.00    -0.353 N 
ATOM     13  H   UNL A   1      31.579  23.582  27.218  1.00  0.00     0.167 HD
BRANCH  12  14
ATOM     14  C   UNL A   1      32.295  22.692  25.536  1.00  0.00     0.076 A 
ATOM     15  C   UNL A   1      33.068  21.640  26.084  1.00  0.00     0.066 A 
ATOM     16  C   UNL A   1      31.856  22.519  24.205  1.00  0.00     0.066 A 
ATOM     17  Cl  UNL A   1      33.755  21.791  27.672  1.00  0.00    -0.082 Cl
ATOM     18  C   UNL A   1      33.325  20.458  25.378  1.00  0.00     0.023 A 
ATOM     19  C   UNL A   1      32.076  21.315  23.516  1.00  0.00     0.023 A 
ATOM     20  Cl  UNL A   1      31.206  23.813  23.244  1.00  0.00    -0.082 Cl
ATOM     21  C   UNL A   1      32.805  20.285  24.101  1.00  0.00     0.003 A 
ENDBRANCH  12  14
ENDBRANCH   8  12
ENDBRANCH   5   6
ENDBRANCH   3   5
ENDBRANCH   2   3
ENDBRANCH   1   2
BRANCH   1  22
ATOM     22  C   UNL A   1      36.825  21.153  24.619  1.00  0.00     0.275 C 
BRANCH  22  23
ATOM     23  O   UNL A   1      37.368  21.740  25.811  1.00  0.00    -0.458 OA
BRANCH  23  24
ATOM     24  C   UNL A   1      38.660  21.413  26.077  1.00  0.00     0.338 C 
ATOM     25  O   UNL A   1      39.193  20.337  25.856  1.00  0.00    -0.246 OA
BRANCH  24  26
ATOM     26  C   UNL A   1      39.391  22.617  26.530  1.00  0.00     0.060 A 
ATOM     27  C   UNL A   1      38.953  23.867  26.075  1.00  0.00     0.016 A 
ATOM     28  C   UNL A   1      40.482  22.530  27.402  1.00  0.00     0.016 A 
ATOM     29  C   UNL A   1      39.607  25.030  26.487  1.00  0.00     0.010 A 
ATOM     30  C   UNL A   1      41.144  23.695  27.800  1.00  0.00     0.010 A 
ATOM     31  C   UNL A   1      40.719  24.951  27.338  1.00  0.00    -0.014 A 
BRANCH  31  32
ATOM     32  C   UNL A   1      41.477  26.175  27.704  1.00  0.00     0.031 A 
ATOM     33  C   UNL A   1      40.811  27.252  28.506  1.00  0.00     0.074 A 
ATOM     34  C   UNL A   1      42.735  26.356  27.261  1.00  0.00     0.049 A 
ATOM     35  N   UNL A   1      41.282  28.414  28.876  1.00  0.00    -0.248 NA
ATOM     36  C   UNL A   1      39.422  27.000  28.914  1.00  0.00     0.031 C 
ATOM     37  C   UNL A   1      43.457  25.420  26.408  1.00  0.00     0.029 A 
ATOM     38  N   UNL A   1      43.613  27.397  27.441  1.00  0.00    -0.354 N 
ATOM     39  C   UNL A   1      40.236  29.056  29.524  1.00  0.00     0.074 A 
ATOM     40  C   UNL A   1      39.110  28.145  29.508  1.00  0.00     0.031 C 
ATOM     41  C   UNL A   1      44.666  25.935  26.138  1.00  0.00     0.029 A 
ATOM     42  C   UNL A   1      44.818  27.223  26.800  1.00  0.00     0.049 A 
ATOM     43  H   UNL A   1      43.400  28.194  27.979  1.00  0.00     0.167 HD
ATOM     44  C   UNL A   1      40.213  30.301  30.061  1.00  0.00     0.034 A 
ATOM     45  C   UNL A   1      45.915  28.007  26.740  1.00  0.00     0.034 A 
ATOM     46  C   UNL A   1      41.334  31.206  30.072  1.00  0.00     0.049 A 
ATOM     47  C   UNL A   1      45.880  29.360  27.407  1.00  0.00     0.074 A 
ATOM     48  C   UNL A   1      41.419  32.458  30.656  1.00  0.00     0.029 A 
ATOM     49  N   UNL A   1      42.555  30.975  29.454  1.00  0.00    -0.354 N 
ATOM     50  N   UNL A   1      44.906  29.920  28.084  1.00  0.00    -0.248 NA
ATOM     51  C   UNL A   1      47.082  30.198  27.278  1.00  0.00     0.031 C 
ATOM     52  C   UNL A   1      42.661  33.014  30.330  1.00  0.00     0.029 A 
ATOM     53  C   UNL A   1      43.381  32.081  29.604  1.00  0.00     0.049 A 
ATOM     54  H   UNL A   1      42.800  30.148  28.980  1.00  0.00     0.167 HD
ATOM     55  C   UNL A   1      45.371  31.183  28.439  1.00  0.00     0.074 A 
ATOM     56  C   UNL A   1      46.732  31.280  27.958  1.00  0.00     0.031 C 
ATOM     57  C   UNL A   1      44.722  32.183  29.084  1.00  0.00     0.034 A 
BRANCH  44  58
ATOM     58  C   UNL A   1      38.902  30.784  30.620  1.00  0.00     0.023 A 
ATOM     59  C   UNL A   1      37.914  31.364  29.807  1.00  0.00     0.031 A 
ATOM     60  C   UNL A   1      38.643  30.659  31.997  1.00  0.00     0.131 A 
ATOM     61  C   UNL A   1      36.730  31.842  30.388  1.00  0.00     0.055 A 
ATOM     62  C   UNL A   1      37.436  31.076  32.557  1.00  0.00     0.041 A 
ATOM     63  F   UNL A   1      39.564  30.132  32.820  1.00  0.00    -0.206 F 
ATOM     64  C   UNL A   1      36.475  31.681  31.753  1.00  0.00     0.022 A 
BRANCH  61  65
ATOM     65  S   UNL A   1      35.568  32.769  29.351  1.00  0.00     0.124 S 
ATOM     66  O   UNL A   1      36.192  34.089  29.315  1.00  0.00    -0.237 OA
ATOM     67  O   UNL A   1      35.591  32.017  28.101  1.00  0.00    -0.237 OA
ATOM     68  O   UNL A   1      34.313  32.699  30.096  1.00  0.00    -0.744 OA
ENDBRANCH  61  65
ENDBRANCH  44  58
BRANCH  45  69
ATOM     69  C   UNL A   1      47.138  27.573  26.001  1.00  0.00     0.023 A 
ATOM     70  C   UNL A   1      47.301  27.887  24.642  1.00  0.00     0.031 A 
ATOM     71  C   UNL A   1      48.124  26.776  26.611  1.00  0.00     0.131 A 
ATOM     72  C   UNL A   1      48.387  27.362  23.924  1.00  0.00     0.055 A 
ATOM     73  C   UNL A   1      49.237  26.311  25.909  1.00  0.00     0.041 A 
ATOM     74  F   UNL A   1      48.018  26.440  27.906  1.00  0.00    -0.206 F 
ATOM     75  C   UNL A   1      49.365  26.588  24.551  1.00  0.00     0.022 A 
BRANCH  72  76
ATOM     76  S   UNL A   1      48.448  27.631  22.133  1.00  0.00     0.124 S 
ATOM     77  O   UNL A   1      48.645  26.274  21.633  1.00  0.00    -0.237 OA
ATOM     78  O   UNL A   1      47.139  28.225  21.881  1.00  0.00    -0.237 OA
ATOM     79  O   UNL A   1      49.585  28.533  21.962  1.00  0.00    -0.744 OA
ENDBRANCH  72  76
ENDBRANCH  45  69
BRANCH  57  80
ATOM     80  C   UNL A   1      45.479  33.473  29.281  1.00  0.00     0.023 A 
ATOM     81  C   UNL A   1      45.453  34.488  28.308  1.00  0.00     0.031 A 
ATOM     82  C   UNL A   1      46.236  33.689  30.443  1.00  0.00     0.131 A 
ATOM     83  C   UNL A   1      46.212  35.654  28.493  1.00  0.00     0.055 A 
ATOM     84  C   UNL A   1      46.945  34.874  30.648  1.00  0.00     0.041 A 
ATOM     85  F   UNL A   1      46.297  32.752  31.404  1.00  0.00    -0.206 F 
ATOM     86  C   UNL A   1      46.944  35.861  29.664  1.00  0.00     0.022 A 
BRANCH  83  87
ATOM     87  S   UNL A   1      46.279  36.875  27.152  1.00  0.00     0.124 S 
ATOM     88  O   UNL A   1      47.461  37.652  27.510  1.00  0.00    -0.237 OA
ATOM     89  O   UNL A   1      46.404  36.035  25.966  1.00  0.00    -0.237 OA
ATOM     90  O   UNL A   1      45.009  37.588  27.273  1.00  0.00    -0.744 OA
ENDBRANCH  83  87
ENDBRANCH  57  80
ENDBRANCH  31  32
ENDBRANCH  24  26
ENDBRANCH  23  24
ENDBRANCH  22  23
ENDBRANCH   1  22
TORSDOF 17
ENDMDL
MODEL 2
REMARK VINA RESULT:     -10.9      2.034      7.945
REMARK SMILES O=C(Cc1ccccc1Nc1c(Cl)cccc1Cl)OCCOC(=O)c1ccc(-c2c3nc(c(-c4cc(S(=O)(=O)[O-])ccc4F)c4ccc([nH]4)c(-c4cc(S(=O)(=O)[O-])ccc4F)c4nc(c(-c5cc(S(=O)(=O)[O-])ccc5F)c5ccc2[nH]5)C=C4)C=C3)cc1
REMARK SMILES IDX 20 1 19 2 2 3 1 4 3 5 4 6 5 7 9 8 6 9 8 10 7 11 10 12 11 14
REMARK SMILES IDX 12 15 17 16 13 17 14 18 16 19 18 20 15 21 21 22 22 23 23 24
REMARK SMILES IDX 24 25 25 26 26 27 87 28 27 29 86 30 28 31 29 32 30 33 80 34
REMARK SMILES IDX 31 35 85 36 79 37 81 38 32 39 84 40 78 41 77 42 33 44 65 45
REMARK SMILES IDX 45 46 64 47 46 48 49 49 63 50 82 51 47 52 48 53 62 55 83 56
REMARK SMILES IDX 50 57 34 58 35 59 43 60 36 61 42 62 44 63 41 64 37 65 38 66
REMARK SMILES IDX 39 67 40 68 66 69 67 70 75 71 68 72 74 73 76 74 73 75 69 76
REMARK SMILES IDX 70 77 71 78 72 79 51 80 52 81 60 82 53 83 59 84 61 85 58 86
REMARK SMILES IDX 54 87 55 88 56 89 57 90
REMARK H PARENT 10 13 81 43 49 54
REMARK Flexibility Score: inf
ROOT
ATOM      1  C   UNL A   1      36.792  21.009  24.437  1.00  0.00     0.274 C 
ENDROOT
BRANCH   1   2
ATOM      2  O   UNL A   1      36.860  22.254  23.714  1.00  0.00    -0.462 OA
BRANCH   2   3
ATOM      3  C   UNL A   1      35.951  23.259  23.786  1.00  0.00     0.310 C 
ATOM      4  O   UNL A   1      35.270  23.532  22.798  1.00  0.00    -0.252 OA
BRANCH   3   5
ATOM      5  C   UNL A   1      35.821  24.057  25.068  1.00  0.00     0.160 C 
BRANCH   5   6
ATOM      6  C   UNL A   1      34.589  23.682  25.864  1.00  0.00    -0.013 A 
ATOM      7  C   UNL A   1      34.755  22.792  26.946  1.00  0.00     0.006 A 
ATOM      8  C   UNL A   1      33.302  24.174  25.558  1.00  0.00     0.042 A 
ATOM      9  C   UNL A   1      33.670  22.382  27.715  1.00  0.00     0.000 A 
ATOM     10  C   UNL A   1      32.220  23.696  26.314  1.00  0.00     0.026 A 
ATOM     11  C   UNL A   1      32.398  22.825  27.389  1.00  0.00     0.002 A 
BRANCH   8  12
ATOM     12  N   UNL A   1      33.118  25.168  24.574  1.00  0.00    -0.353 N 
ATOM     13  H   UNL A   1      33.782  25.138  23.848  1.00  0.00     0.167 HD
BRANCH  12  14
ATOM     14  C   UNL A   1      32.154  26.207  24.432  1.00  0.00     0.076 A 
ATOM     15  C   UNL A   1      32.428  27.462  25.028  1.00  0.00     0.066 A 
ATOM     16  C   UNL A   1      30.940  26.104  23.719  1.00  0.00     0.066 A 
ATOM     17  Cl  UNL A   1      33.837  27.673  26.022  1.00  0.00    -0.082 Cl
ATOM     18  C   UNL A   1      31.582  28.566  24.862  1.00  0.00     0.023 A 
ATOM     19  C   UNL A   1      30.117  27.224  23.516  1.00  0.00     0.023 A 
ATOM     20  Cl  UNL A   1      30.260  24.585  23.218  1.00  0.00    -0.082 Cl
ATOM     21  C   UNL A   1      30.438  28.454  24.082  1.00  0.00     0.003 A 
ENDBRANCH  12  14
ENDBRANCH   8  12
ENDBRANCH   5   6
ENDBRANCH   3   5
ENDBRANCH   2   3
ENDBRANCH   1   2
BRANCH   1  22
ATOM     22  C   UNL A   1      38.081  20.698  25.198  1.00  0.00     0.275 C 
BRANCH  22  23
ATOM     23  O   UNL A   1      38.408  21.752  26.117  1.00  0.00    -0.458 OA
BRANCH  23  24
ATOM     24  C   UNL A   1      39.696  21.757  26.552  1.00  0.00     0.338 C 
ATOM     25  O   UNL A   1      40.492  20.837  26.461  1.00  0.00    -0.246 OA
BRANCH  24  26
ATOM     26  C   UNL A   1      40.056  23.117  27.011  1.00  0.00     0.060 A 
ATOM     27  C   UNL A   1      39.417  24.208  26.409  1.00  0.00     0.016 A 
ATOM     28  C   UNL A   1      40.993  23.325  28.028  1.00  0.00     0.016 A 
ATOM     29  C   UNL A   1      39.719  25.509  26.821  1.00  0.00     0.010 A 
ATOM     30  C   UNL A   1      41.305  24.628  28.427  1.00  0.00     0.010 A 
ATOM     31  C   UNL A   1      40.678  25.729  27.820  1.00  0.00    -0.014 A 
BRANCH  31  32
ATOM     32  C   UNL A   1      41.073  27.111  28.195  1.00  0.00     0.031 A 
ATOM     33  C   UNL A   1      42.516  27.514  28.134  1.00  0.00     0.074 A 
ATOM     34  C   UNL A   1      40.158  27.982  28.655  1.00  0.00     0.049 A 
ATOM     35  N   UNL A   1      43.068  28.650  28.473  1.00  0.00    -0.248 NA
ATOM     36  C   UNL A   1      43.462  26.493  27.663  1.00  0.00     0.031 C 
ATOM     37  C   UNL A   1      38.743  27.680  28.836  1.00  0.00     0.029 A 
ATOM     38  N   UNL A   1      40.283  29.282  29.082  1.00  0.00    -0.354 N 
ATOM     39  C   UNL A   1      44.434  28.472  28.299  1.00  0.00     0.074 A 
ATOM     40  C   UNL A   1      44.622  27.120  27.811  1.00  0.00     0.031 C 
ATOM     41  C   UNL A   1      38.136  28.765  29.341  1.00  0.00     0.029 A 
ATOM     42  C   UNL A   1      39.102  29.842  29.509  1.00  0.00     0.049 A 
ATOM     43  H   UNL A   1      41.139  29.768  29.082  1.00  0.00     0.167 HD
ATOM     44  C   UNL A   1      45.438  29.348  28.548  1.00  0.00     0.034 A 
ATOM     45  C   UNL A   1      38.823  31.072  29.991  1.00  0.00     0.034 A 
ATOM     46  C   UNL A   1      45.246  30.690  29.038  1.00  0.00     0.049 A 
ATOM     47  C   UNL A   1      39.955  32.048  30.192  1.00  0.00     0.074 A 
ATOM     48  C   UNL A   1      46.203  31.669  29.252  1.00  0.00     0.029 A 
ATOM     49  N   UNL A   1      44.029  31.239  29.415  1.00  0.00    -0.354 N 
ATOM     50  N   UNL A   1      41.234  31.888  29.949  1.00  0.00    -0.248 NA
ATOM     51  C   UNL A   1      39.611  33.360  30.760  1.00  0.00     0.031 C 
ATOM     52  C   UNL A   1      45.576  32.780  29.825  1.00  0.00     0.029 A 
ATOM     53  C   UNL A   1      44.217  32.525  29.902  1.00  0.00     0.049 A 
ATOM     54  H   UNL A   1      43.159  30.784  29.345  1.00  0.00     0.167 HD
ATOM     55  C   UNL A   1      41.847  33.070  30.356  1.00  0.00     0.074 A 
ATOM     56  C   UNL A   1      40.793  33.956  30.801  1.00  0.00     0.031 C 
ATOM     57  C   UNL A   1      43.165  33.386  30.383  1.00  0.00     0.034 A 
BRANCH  44  58
ATOM     58  C   UNL A   1      46.846  28.852  28.363  1.00  0.00     0.023 A 
ATOM     59  C   UNL A   1      47.425  28.712  27.091  1.00  0.00     0.031 A 
ATOM     60  C   UNL A   1      47.620  28.515  29.488  1.00  0.00     0.131 A 
ATOM     61  C   UNL A   1      48.725  28.199  26.973  1.00  0.00     0.055 A 
ATOM     62  C   UNL A   1      48.935  28.068  29.367  1.00  0.00     0.041 A 
ATOM     63  F   UNL A   1      47.104  28.610  30.725  1.00  0.00    -0.206 F 
ATOM     64  C   UNL A   1      49.492  27.898  28.103  1.00  0.00     0.022 A 
BRANCH  61  65
ATOM     65  S   UNL A   1      49.367  27.834  25.318  1.00  0.00     0.124 S 
ATOM     66  O   UNL A   1      48.219  28.160  24.477  1.00  0.00    -0.237 OA
ATOM     67  O   UNL A   1      50.511  28.734  25.217  1.00  0.00    -0.237 OA
ATOM     68  O   UNL A   1      49.699  26.412  25.385  1.00  0.00    -0.744 OA
ENDBRANCH  61  65
ENDBRANCH  44  58
BRANCH  45  69
ATOM     69  C   UNL A   1      37.428  31.464  30.353  1.00  0.00     0.023 A 
ATOM     70  C   UNL A   1      36.532  31.909  29.367  1.00  0.00     0.031 A 
ATOM     71  C   UNL A   1      36.990  31.479  31.689  1.00  0.00     0.131 A 
ATOM     72  C   UNL A   1      35.271  32.401  29.733  1.00  0.00     0.055 A 
ATOM     73  C   UNL A   1      35.710  31.908  32.043  1.00  0.00     0.041 A 
ATOM     74  F   UNL A   1      37.805  31.071  32.675  1.00  0.00    -0.206 F 
ATOM     75  C   UNL A   1      34.846  32.391  31.063  1.00  0.00     0.022 A 
BRANCH  72  76
ATOM     76  S   UNL A   1      34.228  33.145  28.451  1.00  0.00     0.124 S 
ATOM     77  O   UNL A   1      35.216  33.812  27.611  1.00  0.00    -0.237 OA
ATOM     78  O   UNL A   1      33.585  31.967  27.877  1.00  0.00    -0.237 OA
ATOM     79  O   UNL A   1      33.343  34.032  29.203  1.00  0.00    -0.744 OA
ENDBRANCH  72  76
ENDBRANCH  45  69
BRANCH  57  80
ATOM     80  C   UNL A   1      43.532  34.740  30.934  1.00  0.00     0.023 A 
ATOM     81  C   UNL A   1      43.625  35.867  30.097  1.00  0.00     0.031 A 
ATOM     82  C   UNL A   1      43.799  34.909  32.303  1.00  0.00     0.131 A 
ATOM     83  C   UNL A   1      44.022  37.103  30.628  1.00  0.00     0.055 A 
ATOM     84  C   UNL A   1      44.141  36.152  32.836  1.00  0.00     0.041 A 
ATOM     85  F   UNL A   1      43.727  33.867  33.147  1.00  0.00    -0.206 F 
ATOM     86  C   UNL A   1      44.265  37.257  31.996  1.00  0.00     0.022 A 
BRANCH  83  87
ATOM     87  S   UNL A   1      44.281  38.499  29.497  1.00  0.00     0.124 S 
ATOM     88  O   UNL A   1      44.866  39.501  30.382  1.00  0.00    -0.237 OA
ATOM     89  O   UNL A   1      45.177  37.931  28.495  1.00  0.00    -0.237 OA
ATOM     90  O   UNL A   1      42.934  38.806  29.019  1.00  0.00    -0.744 OA
ENDBRANCH  83  87
ENDBRANCH  57  80
ENDBRANCH  31  32
ENDBRANCH  24  26
ENDBRANCH  23  24
ENDBRANCH  22  23
ENDBRANCH   1  22
TORSDOF 17
ENDMDL
MODEL 3
REMARK VINA RESULT:     -10.9      1.464      1.703
REMARK SMILES O=C(Cc1ccccc1Nc1c(Cl)cccc1Cl)OCCOC(=O)c1ccc(-c2c3nc(c(-c4cc(S(=O)(=O)[O-])ccc4F)c4ccc([nH]4)c(-c4cc(S(=O)(=O)[O-])ccc4F)c4nc(c(-c5cc(S(=O)(=O)[O-])ccc5F)c5ccc2[nH]5)C=C4)C=C3)cc1
REMARK SMILES IDX 20 1 19 2 2 3 1 4 3 5 4 6 5 7 9 8 6 9 8 10 7 11 10 12 11 14
REMARK SMILES IDX 12 15 17 16 13 17 14 18 16 19 18 20 15 21 21 22 22 23 23 24
REMARK SMILES IDX 24 25 25 26 26 27 87 28 27 29 86 30 28 31 29 32 30 33 80 34
REMARK SMILES IDX 31 35 85 36 79 37 81 38 32 39 84 40 78 41 77 42 33 44 65 45
REMARK SMILES IDX 45 46 64 47 46 48 49 49 63 50 82 51 47 52 48 53 62 55 83 56
REMARK SMILES IDX 50 57 34 58 35 59 43 60 36 61 42 62 44 63 41 64 37 65 38 66
REMARK SMILES IDX 39 67 40 68 66 69 67 70 75 71 68 72 74 73 76 74 73 75 69 76
REMARK SMILES IDX 70 77 71 78 72 79 51 80 52 81 60 82 53 83 59 84 61 85 58 86
REMARK SMILES IDX 54 87 55 88 56 89 57 90
REMARK H PARENT 10 13 81 43 49 54
REMARK Flexibility Score: inf
ROOT
ATOM      1  C   UNL A   1      36.065  22.215  23.747  1.00  0.00     0.274 C 
ENDROOT
BRANCH   1   2
ATOM      2  O   UNL A   1      36.010  23.423  24.531  1.00  0.00    -0.462 OA
BRANCH   2   3
ATOM      3  C   UNL A   1      35.003  24.332  24.510  1.00  0.00     0.310 C 
ATOM      4  O   UNL A   1      34.442  24.592  23.446  1.00  0.00    -0.252 OA
BRANCH   3   5
ATOM      5  C   UNL A   1      34.616  25.045  25.791  1.00  0.00     0.160 C 
BRANCH   5   6
ATOM      6  C   UNL A   1      33.222  25.632  25.731  1.00  0.00    -0.013 A 
ATOM      7  C   UNL A   1      33.092  26.968  25.297  1.00  0.00     0.006 A 
ATOM      8  C   UNL A   1      32.070  24.904  26.098  1.00  0.00     0.042 A 
ATOM      9  C   UNL A   1      31.848  27.587  25.233  1.00  0.00     0.000 A 
ATOM     10  C   UNL A   1      30.837  25.574  26.080  1.00  0.00     0.026 A 
ATOM     11  C   UNL A   1      30.719  26.892  25.638  1.00  0.00     0.002 A 
BRANCH   8  12
ATOM     12  N   UNL A   1      32.145  23.529  26.404  1.00  0.00    -0.353 N 
ATOM     13  H   UNL A   1      31.967  23.321  27.350  1.00  0.00     0.167 HD
BRANCH  12  14
ATOM     14  C   UNL A   1      32.427  22.385  25.604  1.00  0.00     0.076 A 
ATOM     15  C   UNL A   1      33.259  21.375  26.148  1.00  0.00     0.066 A 
ATOM     16  C   UNL A   1      31.927  22.152  24.305  1.00  0.00     0.066 A 
ATOM     17  Cl  UNL A   1      34.021  21.603  27.692  1.00  0.00    -0.082 Cl
ATOM     18  C   UNL A   1      33.515  20.177  25.470  1.00  0.00     0.023 A 
ATOM     19  C   UNL A   1      32.148  20.930  23.647  1.00  0.00     0.023 A 
ATOM     20  Cl  UNL A   1      31.190  23.392  23.335  1.00  0.00    -0.082 Cl
ATOM     21  C   UNL A   1      32.936  19.943  24.229  1.00  0.00     0.003 A 
ENDBRANCH  12  14
ENDBRANCH   8  12
ENDBRANCH   5   6
ENDBRANCH   3   5
ENDBRANCH   2   3
ENDBRANCH   1   2
BRANCH   1  22
ATOM     22  C   UNL A   1      36.775  21.072  24.474  1.00  0.00     0.275 C 
BRANCH  22  23
ATOM     23  O   UNL A   1      37.284  21.504  25.746  1.00  0.00    -0.458 OA
BRANCH  23  24
ATOM     24  C   UNL A   1      38.575  21.160  25.995  1.00  0.00     0.338 C 
ATOM     25  O   UNL A   1      39.094  20.082  25.757  1.00  0.00    -0.246 OA
BRANCH  24  26
ATOM     26  C   UNL A   1      39.323  22.352  26.453  1.00  0.00     0.060 A 
ATOM     27  C   UNL A   1      38.871  23.613  26.043  1.00  0.00     0.016 A 
ATOM     28  C   UNL A   1      40.441  22.243  27.285  1.00  0.00     0.016 A 
ATOM     29  C   UNL A   1      39.540  24.766  26.462  1.00  0.00     0.010 A 
ATOM     30  C   UNL A   1      41.118  23.398  27.690  1.00  0.00     0.010 A 
ATOM     31  C   UNL A   1      40.680  24.666  27.273  1.00  0.00    -0.014 A 
BRANCH  31  32
ATOM     32  C   UNL A   1      41.452  25.879  27.643  1.00  0.00     0.031 A 
ATOM     33  C   UNL A   1      40.785  26.981  28.410  1.00  0.00     0.074 A 
ATOM     34  C   UNL A   1      42.725  26.030  27.234  1.00  0.00     0.049 A 
ATOM     35  N   UNL A   1      41.269  28.139  28.777  1.00  0.00    -0.248 NA
ATOM     36  C   UNL A   1      39.380  26.762  28.782  1.00  0.00     0.031 C 
ATOM     37  C   UNL A   1      43.452  25.067  26.416  1.00  0.00     0.029 A 
ATOM     38  N   UNL A   1      43.618  27.056  27.425  1.00  0.00    -0.354 N 
ATOM     39  C   UNL A   1      40.217  28.810  29.387  1.00  0.00     0.074 A 
ATOM     40  C   UNL A   1      39.074  27.921  29.350  1.00  0.00     0.031 C 
ATOM     41  C   UNL A   1      44.679  25.555  26.173  1.00  0.00     0.029 A 
ATOM     42  C   UNL A   1      44.837  26.848  26.821  1.00  0.00     0.049 A 
ATOM     43  H   UNL A   1      43.406  27.864  27.945  1.00  0.00     0.167 HD
ATOM     44  C   UNL A   1      40.204  30.063  29.905  1.00  0.00     0.034 A 
ATOM     45  C   UNL A   1      45.951  27.610  26.781  1.00  0.00     0.034 A 
ATOM     46  C   UNL A   1      41.342  30.946  29.935  1.00  0.00     0.049 A 
ATOM     47  C   UNL A   1      45.924  28.973  27.428  1.00  0.00     0.074 A 
ATOM     48  C   UNL A   1      41.435  32.205  30.504  1.00  0.00     0.029 A 
ATOM     49  N   UNL A   1      42.575  30.683  29.356  1.00  0.00    -0.354 N 
ATOM     50  N   UNL A   1      44.943  29.562  28.068  1.00  0.00    -0.248 NA
ATOM     51  C   UNL A   1      47.145  29.785  27.321  1.00  0.00     0.031 C 
ATOM     52  C   UNL A   1      42.697  32.731  30.206  1.00  0.00     0.029 A 
ATOM     53  C   UNL A   1      43.418  31.774  29.514  1.00  0.00     0.049 A 
ATOM     54  H   UNL A   1      42.817  29.844  28.900  1.00  0.00     0.167 HD
ATOM     55  C   UNL A   1      45.422  30.820  28.419  1.00  0.00     0.074 A 
ATOM     56  C   UNL A   1      46.798  30.884  27.976  1.00  0.00     0.031 C 
ATOM     57  C   UNL A   1      44.775  31.843  29.031  1.00  0.00     0.034 A 
BRANCH  44  58
ATOM     58  C   UNL A   1      38.887  30.580  30.419  1.00  0.00     0.023 A 
ATOM     59  C   UNL A   1      37.973  31.248  29.587  1.00  0.00     0.031 A 
ATOM     60  C   UNL A   1      38.547  30.397  31.771  1.00  0.00     0.131 A 
ATOM     61  C   UNL A   1      36.782  31.752  30.130  1.00  0.00     0.055 A 
ATOM     62  C   UNL A   1      37.332  30.843  32.289  1.00  0.00     0.041 A 
ATOM     63  F   UNL A   1      39.396  29.784  32.612  1.00  0.00    -0.206 F 
ATOM     64  C   UNL A   1      36.445  31.534  31.469  1.00  0.00     0.022 A 
BRANCH  61  65
ATOM     65  S   UNL A   1      35.723  32.787  29.084  1.00  0.00     0.124 S 
ATOM     66  O   UNL A   1      36.619  33.893  28.759  1.00  0.00    -0.237 OA
ATOM     67  O   UNL A   1      35.390  31.888  27.984  1.00  0.00    -0.237 OA
ATOM     68  O   UNL A   1      34.608  33.133  29.964  1.00  0.00    -0.744 OA
ENDBRANCH  61  65
ENDBRANCH  44  58
BRANCH  45  69
ATOM     69  C   UNL A   1      47.186  27.141  26.084  1.00  0.00     0.023 A 
ATOM     70  C   UNL A   1      48.173  26.428  26.784  1.00  0.00     0.031 A 
ATOM     71  C   UNL A   1      47.440  27.461  24.739  1.00  0.00     0.131 A 
ATOM     72  C   UNL A   1      49.387  26.108  26.157  1.00  0.00     0.055 A 
ATOM     73  C   UNL A   1      48.622  27.083  24.099  1.00  0.00     0.041 A 
ATOM     74  F   UNL A   1      46.535  28.145  24.022  1.00  0.00    -0.206 F 
ATOM     75  C   UNL A   1      49.614  26.418  24.815  1.00  0.00     0.022 A 
BRANCH  72  76
ATOM     76  S   UNL A   1      50.705  25.364  27.155  1.00  0.00     0.124 S 
ATOM     77  O   UNL A   1      51.113  26.485  27.995  1.00  0.00    -0.237 OA
ATOM     78  O   UNL A   1      49.988  24.284  27.827  1.00  0.00    -0.237 OA
ATOM     79  O   UNL A   1      51.685  24.936  26.160  1.00  0.00    -0.744 OA
ENDBRANCH  72  76
ENDBRANCH  45  69
BRANCH  57  80
ATOM     80  C   UNL A   1      45.552  33.120  29.232  1.00  0.00     0.023 A 
ATOM     81  C   UNL A   1      45.515  34.153  28.277  1.00  0.00     0.031 A 
ATOM     82  C   UNL A   1      46.340  33.307  30.379  1.00  0.00     0.131 A 
ATOM     83  C   UNL A   1      46.291  35.306  28.463  1.00  0.00     0.055 A 
ATOM     84  C   UNL A   1      47.068  34.480  30.586  1.00  0.00     0.041 A 
ATOM     85  F   UNL A   1      46.414  32.353  31.321  1.00  0.00    -0.206 F 
ATOM     86  C   UNL A   1      47.054  35.484  29.620  1.00  0.00     0.022 A 
BRANCH  83  87
ATOM     87  S   UNL A   1      46.340  36.550  27.142  1.00  0.00     0.124 S 
ATOM     88  O   UNL A   1      44.929  36.891  26.996  1.00  0.00    -0.237 OA
ATOM     89  O   UNL A   1      47.190  37.587  27.717  1.00  0.00    -0.237 OA
ATOM     90  O   UNL A   1      46.923  35.828  26.014  1.00  0.00    -0.744 OA
ENDBRANCH  83  87
ENDBRANCH  57  80
ENDBRANCH  31  32
ENDBRANCH  24  26
ENDBRANCH  23  24
ENDBRANCH  22  23
ENDBRANCH   1  22
TORSDOF 17
ENDMDL
