MODEL 1
REMARK VINA RESULT:     -10.8      0.000      0.000
REMARK SMILES C[NH2+]C[C@H](C)C(=O)N1CC[C@@](C(=O)OCCOC(=O)c2ccc(-c3c4nc(c(-c5cc(S(=O)(=O)[O-])ccc5F)c5ccc([nH]5)c(-c5cc(S(=O)(=O)[O-])ccc5F)c5nc(c(-c6cc(S(=O)(=O)[O-])ccc6F)c6ccc3[nH]6)C=C5)C=C4)cc2)(C(F)(F)F)C1
REMARK SMILES IDX 15 1 14 2 12 3 13 4 11 5 8 6 9 7 87 8 10 9 6 10 7 11 4 12
REMARK SMILES IDX 5 13 3 14 2 15 1 16 83 19 84 20 85 21 86 22 16 23 17 24
REMARK SMILES IDX 18 25 19 26 20 27 21 28 82 29 22 30 81 31 23 32 24 33 25 34
REMARK SMILES IDX 75 35 26 36 80 37 74 38 76 39 27 40 79 41 73 42 72 43 28 45
REMARK SMILES IDX 60 46 40 47 59 48 41 49 44 50 58 51 77 52 42 53 43 54 57 56
REMARK SMILES IDX 78 57 45 58 29 59 30 60 38 61 31 62 37 63 39 64 36 65 32 66
REMARK SMILES IDX 33 67 34 68 35 69 61 70 62 71 70 72 63 73 69 74 71 75 68 76
REMARK SMILES IDX 64 77 65 78 66 79 67 80 46 81 47 82 55 83 48 84 54 85 56 86
REMARK SMILES IDX 53 87 49 88 50 89 51 90 52 91
REMARK H PARENT 2 17 2 18 76 44 44 55
REMARK Flexibility Score: inf
ROOT
ATOM      1  C   UNL A   1      31.786  29.400  24.802  1.00  0.00     0.274 C 
ENDROOT
BRANCH   1   2
ATOM      2  O   UNL A   1      32.444  28.294  25.457  1.00  0.00    -0.461 OA
BRANCH   2   3
ATOM      3  C   UNL A   1      31.727  27.157  25.668  1.00  0.00     0.323 C 
ATOM      4  O   UNL A   1      31.034  26.972  26.658  1.00  0.00    -0.251 OA
BRANCH   3   5
ATOM      5  C   UNL A   1      31.984  26.104  24.615  1.00  0.00     0.182 C 
ATOM      6  N   UNL A   1      33.086  24.000  24.809  1.00  0.00    -0.341 N 
ATOM      7  C   UNL A   1      33.739  24.710  23.724  1.00  0.00     0.121 C 
ATOM      8  C   UNL A   1      31.941  24.748  25.310  1.00  0.00     0.148 C 
ATOM      9  C   UNL A   1      33.378  26.161  23.963  1.00  0.00     0.052 C 
BRANCH   6  10
ATOM     10  C   UNL A   1      33.361  22.761  25.332  1.00  0.00     0.231 C 
ATOM     11  O   UNL A   1      32.863  21.747  24.829  1.00  0.00    -0.274 OA
BRANCH  10  12
ATOM     12  C   UNL A   1      34.126  22.629  26.642  1.00  0.00     0.130 C 
ATOM     13  C   UNL A   1      33.276  22.241  27.848  1.00  0.00     0.024 C 
BRANCH  12  14
ATOM     14  C   UNL A   1      35.349  21.709  26.450  1.00  0.00     0.273 C 
BRANCH  14  15
ATOM     15  N   UNL A   1      36.591  22.380  26.034  1.00  0.00    -0.348 N 
ATOM     16  C   UNL A   1      37.168  21.794  24.832  1.00  0.00     0.330 C 
ATOM     17  H   UNL A   1      36.387  23.363  25.853  1.00  0.00     0.346 HD
ATOM     18  H   UNL A   1      37.269  22.269  26.788  1.00  0.00     0.346 HD
ENDBRANCH  14  15
ENDBRANCH  12  14
ENDBRANCH  10  12
ENDBRANCH   6  10
BRANCH   5  19
ATOM     19  C   UNL A   1      30.901  26.170  23.567  1.00  0.00     0.406 C 
ATOM     20  F   UNL A   1      29.814  26.830  24.036  1.00  0.00    -0.170 F 
ATOM     21  F   UNL A   1      31.284  26.799  22.440  1.00  0.00    -0.170 F 
ATOM     22  F   UNL A   1      30.478  24.934  23.233  1.00  0.00    -0.170 F 
ENDBRANCH   5  19
ENDBRANCH   3   5
ENDBRANCH   2   3
ENDBRANCH   1   2
BRANCH   1  23
ATOM     23  C   UNL A   1      31.478  30.501  25.810  1.00  0.00     0.275 C 
BRANCH  23  24
ATOM     24  O   UNL A   1      32.410  30.413  26.899  1.00  0.00    -0.458 OA
BRANCH  24  25
ATOM     25  C   UNL A   1      33.037  31.564  27.221  1.00  0.00     0.338 C 
ATOM     26  O   UNL A   1      32.551  32.688  27.262  1.00  0.00    -0.246 OA
BRANCH  25  27
ATOM     27  C   UNL A   1      34.413  31.269  27.632  1.00  0.00     0.060 A 
ATOM     28  C   UNL A   1      34.757  29.945  27.891  1.00  0.00     0.016 A 
ATOM     29  C   UNL A   1      35.306  32.296  27.928  1.00  0.00     0.016 A 
ATOM     30  C   UNL A   1      35.928  29.652  28.581  1.00  0.00     0.010 A 
ATOM     31  C   UNL A   1      36.542  31.982  28.505  1.00  0.00     0.010 A 
ATOM     32  C   UNL A   1      36.847  30.662  28.890  1.00  0.00    -0.014 A 
BRANCH  32  33
ATOM     33  C   UNL A   1      38.077  30.351  29.679  1.00  0.00     0.031 A 
ATOM     34  C   UNL A   1      39.158  29.489  29.075  1.00  0.00     0.074 A 
ATOM     35  C   UNL A   1      38.254  30.857  30.917  1.00  0.00     0.049 A 
ATOM     36  N   UNL A   1      40.176  28.905  29.652  1.00  0.00    -0.248 NA
ATOM     37  C   UNL A   1      39.063  29.231  27.630  1.00  0.00     0.031 C 
ATOM     38  C   UNL A   1      37.331  31.761  31.607  1.00  0.00     0.029 A 
ATOM     39  N   UNL A   1      39.281  30.691  31.815  1.00  0.00    -0.354 N 
ATOM     40  C   UNL A   1      40.795  28.146  28.662  1.00  0.00     0.074 A 
ATOM     41  C   UNL A   1      40.034  28.350  27.447  1.00  0.00     0.031 C 
ATOM     42  C   UNL A   1      37.855  32.108  32.792  1.00  0.00     0.029 A 
ATOM     43  C   UNL A   1      39.094  31.368  32.998  1.00  0.00     0.049 A 
ATOM     44  H   UNL A   1      40.075  30.140  31.629  1.00  0.00     0.167 HD
ATOM     45  C   UNL A   1      41.887  27.348  28.764  1.00  0.00     0.034 A 
ATOM     46  C   UNL A   1      39.804  31.357  34.143  1.00  0.00     0.034 A 
ATOM     47  C   UNL A   1      42.673  27.216  29.969  1.00  0.00     0.049 A 
ATOM     48  C   UNL A   1      41.013  30.466  34.239  1.00  0.00     0.074 A 
ATOM     49  C   UNL A   1      43.794  26.433  30.191  1.00  0.00     0.029 A 
ATOM     50  N   UNL A   1      42.437  27.907  31.150  1.00  0.00    -0.354 N 
ATOM     51  N   UNL A   1      41.513  29.656  33.334  1.00  0.00    -0.248 NA
ATOM     52  C   UNL A   1      41.740  30.472  35.513  1.00  0.00     0.031 C 
ATOM     53  C   UNL A   1      44.207  26.619  31.515  1.00  0.00     0.029 A 
ATOM     54  C   UNL A   1      43.384  27.565  32.104  1.00  0.00     0.049 A 
ATOM     55  H   UNL A   1      41.703  28.550  31.290  1.00  0.00     0.167 HD
ATOM     56  C   UNL A   1      42.618  29.059  33.932  1.00  0.00     0.074 A 
ATOM     57  C   UNL A   1      42.725  29.622  35.263  1.00  0.00     0.031 C 
ATOM     58  C   UNL A   1      43.465  28.125  33.430  1.00  0.00     0.034 A 
BRANCH  45  59
ATOM     59  C   UNL A   1      42.245  26.503  27.565  1.00  0.00     0.023 A 
ATOM     60  C   UNL A   1      41.807  25.176  27.417  1.00  0.00     0.031 A 
ATOM     61  C   UNL A   1      43.084  27.032  26.565  1.00  0.00     0.131 A 
ATOM     62  C   UNL A   1      42.266  24.403  26.338  1.00  0.00     0.055 A 
ATOM     63  C   UNL A   1      43.473  26.284  25.452  1.00  0.00     0.041 A 
ATOM     64  F   UNL A   1      43.553  28.286  26.661  1.00  0.00    -0.206 F 
ATOM     65  C   UNL A   1      43.077  24.954  25.342  1.00  0.00     0.022 A 
BRANCH  62  66
ATOM     66  S   UNL A   1      41.908  22.624  26.327  1.00  0.00     0.124 S 
ATOM     67  O   UNL A   1      42.550  22.201  25.085  1.00  0.00    -0.237 OA
ATOM     68  O   UNL A   1      42.538  22.168  27.561  1.00  0.00    -0.237 OA
ATOM     69  O   UNL A   1      40.448  22.568  26.314  1.00  0.00    -0.744 OA
ENDBRANCH  62  66
ENDBRANCH  45  59
BRANCH  46  70
ATOM     70  C   UNL A   1      39.344  32.149  35.320  1.00  0.00     0.023 A 
ATOM     71  C   UNL A   1      39.780  33.466  35.527  1.00  0.00     0.031 A 
ATOM     72  C   UNL A   1      38.475  31.584  36.271  1.00  0.00     0.131 A 
ATOM     73  C   UNL A   1      39.370  34.166  36.673  1.00  0.00     0.055 A 
ATOM     74  C   UNL A   1      38.027  32.302  37.381  1.00  0.00     0.041 A 
ATOM     75  F   UNL A   1      38.029  30.326  36.122  1.00  0.00    -0.206 F 
ATOM     76  C   UNL A   1      38.482  33.599  37.591  1.00  0.00     0.022 A 
BRANCH  73  77
ATOM     77  S   UNL A   1      40.068  35.810  36.986  1.00  0.00     0.124 S 
ATOM     78  O   UNL A   1      39.662  36.539  35.790  1.00  0.00    -0.237 OA
ATOM     79  O   UNL A   1      39.403  36.191  38.227  1.00  0.00    -0.237 OA
ATOM     80  O   UNL A   1      41.502  35.555  37.103  1.00  0.00    -0.744 OA
ENDBRANCH  73  77
ENDBRANCH  46  70
BRANCH  58  81
ATOM     81  C   UNL A   1      44.599  27.694  34.324  1.00  0.00     0.023 A 
ATOM     82  C   UNL A   1      44.475  26.596  35.192  1.00  0.00     0.031 A 
ATOM     83  C   UNL A   1      45.806  28.414  34.329  1.00  0.00     0.131 A 
ATOM     84  C   UNL A   1      45.522  26.281  36.071  1.00  0.00     0.055 A 
ATOM     85  C   UNL A   1      46.862  28.067  35.170  1.00  0.00     0.041 A 
ATOM     86  F   UNL A   1      45.973  29.472  33.518  1.00  0.00    -0.206 F 
ATOM     87  C   UNL A   1      46.719  27.003  36.057  1.00  0.00     0.022 A 
BRANCH  84  88
ATOM     88  S   UNL A   1      45.267  24.968  37.297  1.00  0.00     0.124 S 
ATOM     89  O   UNL A   1      44.406  25.627  38.274  1.00  0.00    -0.237 OA
ATOM     90  O   UNL A   1      44.642  23.917  36.501  1.00  0.00    -0.237 OA
ATOM     91  O   UNL A   1      46.620  24.669  37.765  1.00  0.00    -0.744 OA
ENDBRANCH  84  88
ENDBRANCH  58  81
ENDBRANCH  32  33
ENDBRANCH  25  27
ENDBRANCH  24  25
ENDBRANCH  23  24
ENDBRANCH   1  23
TORSDOF 19
ENDMDL
MODEL 2
REMARK VINA RESULT:     -10.7      4.989      7.705
REMARK SMILES C[NH2+]C[C@H](C)C(=O)N1CC[C@@](C(=O)OCCOC(=O)c2ccc(-c3c4nc(c(-c5cc(S(=O)(=O)[O-])ccc5F)c5ccc([nH]5)c(-c5cc(S(=O)(=O)[O-])ccc5F)c5nc(c(-c6cc(S(=O)(=O)[O-])ccc6F)c6ccc3[nH]6)C=C5)C=C4)cc2)(C(F)(F)F)C1
REMARK SMILES IDX 15 1 14 2 12 3 13 4 11 5 8 6 9 7 87 8 10 9 6 10 7 11 4 12
REMARK SMILES IDX 5 13 3 14 2 15 1 16 83 19 84 20 85 21 86 22 16 23 17 24
REMARK SMILES IDX 18 25 19 26 20 27 21 28 82 29 22 30 81 31 23 32 24 33 25 34
REMARK SMILES IDX 75 35 26 36 80 37 74 38 76 39 27 40 79 41 73 42 72 43 28 45
REMARK SMILES IDX 60 46 40 47 59 48 41 49 44 50 58 51 77 52 42 53 43 54 57 56
REMARK SMILES IDX 78 57 45 58 29 59 30 60 38 61 31 62 37 63 39 64 36 65 32 66
REMARK SMILES IDX 33 67 34 68 35 69 61 70 62 71 70 72 63 73 69 74 71 75 68 76
REMARK SMILES IDX 64 77 65 78 66 79 67 80 46 81 47 82 55 83 48 84 54 85 56 86
REMARK SMILES IDX 53 87 49 88 50 89 51 90 52 91
REMARK H PARENT 2 17 2 18 76 44 44 55
REMARK Flexibility Score: inf
ROOT
ATOM      1  C   UNL A   1      36.195  19.851  24.863  1.00  0.00     0.274 C 
ENDROOT
BRANCH   1   2
ATOM      2  O   UNL A   1      35.757  21.179  24.503  1.00  0.00    -0.461 OA
BRANCH   2   3
ATOM      3  C   UNL A   1      34.433  21.470  24.618  1.00  0.00     0.323 C 
ATOM      4  O   UNL A   1      33.545  20.729  24.223  1.00  0.00    -0.251 OA
BRANCH   3   5
ATOM      5  C   UNL A   1      34.187  22.857  25.165  1.00  0.00     0.182 C 
ATOM      6  N   UNL A   1      32.659  24.530  24.429  1.00  0.00    -0.341 N 
ATOM      7  C   UNL A   1      33.969  25.154  24.463  1.00  0.00     0.121 C 
ATOM      8  C   UNL A   1      32.711  23.173  24.952  1.00  0.00     0.148 C 
ATOM      9  C   UNL A   1      34.934  23.987  24.433  1.00  0.00     0.052 C 
BRANCH   6  10
ATOM     10  C   UNL A   1      31.450  25.059  24.050  1.00  0.00     0.231 C 
ATOM     11  O   UNL A   1      30.819  24.562  23.111  1.00  0.00    -0.274 OA
BRANCH  10  12
ATOM     12  C   UNL A   1      30.956  26.367  24.654  1.00  0.00     0.130 C 
ATOM     13  C   UNL A   1      29.867  27.074  23.854  1.00  0.00     0.024 C 
BRANCH  12  14
ATOM     14  C   UNL A   1      30.572  26.155  26.133  1.00  0.00     0.273 C 
BRANCH  14  15
ATOM     15  N   UNL A   1      31.127  27.134  27.082  1.00  0.00    -0.348 N 
ATOM     16  C   UNL A   1      32.325  27.788  26.574  1.00  0.00     0.330 C 
ATOM     17  H   UNL A   1      30.420  27.846  27.268  1.00  0.00     0.346 HD
ATOM     18  H   UNL A   1      31.385  26.630  27.930  1.00  0.00     0.346 HD
ENDBRANCH  14  15
ENDBRANCH  12  14
ENDBRANCH  10  12
ENDBRANCH   6  10
BRANCH   5  19
ATOM     19  C   UNL A   1      34.502  22.876  26.640  1.00  0.00     0.406 C 
ATOM     20  F   UNL A   1      33.631  23.670  27.310  1.00  0.00    -0.170 F 
ATOM     21  F   UNL A   1      34.444  21.661  27.216  1.00  0.00    -0.170 F 
ATOM     22  F   UNL A   1      35.729  23.388  26.864  1.00  0.00    -0.170 F 
ENDBRANCH   5  19
ENDBRANCH   3   5
ENDBRANCH   2   3
ENDBRANCH   1   2
BRANCH   1  23
ATOM     23  C   UNL A   1      37.718  19.785  24.877  1.00  0.00     0.275 C 
BRANCH  23  24
ATOM     24  O   UNL A   1      38.234  21.002  25.439  1.00  0.00    -0.458 OA
BRANCH  24  25
ATOM     25  C   UNL A   1      39.394  20.881  26.119  1.00  0.00     0.338 C 
ATOM     26  O   UNL A   1      40.106  19.887  26.201  1.00  0.00    -0.246 OA
BRANCH  25  27
ATOM     27  C   UNL A   1      39.758  22.180  26.693  1.00  0.00     0.060 A 
ATOM     28  C   UNL A   1      39.047  23.305  26.286  1.00  0.00     0.016 A 
ATOM     29  C   UNL A   1      40.895  22.317  27.485  1.00  0.00     0.016 A 
ATOM     30  C   UNL A   1      39.549  24.576  26.543  1.00  0.00     0.010 A 
ATOM     31  C   UNL A   1      41.323  23.599  27.852  1.00  0.00     0.010 A 
ATOM     32  C   UNL A   1      40.688  24.748  27.338  1.00  0.00    -0.014 A 
BRANCH  32  33
ATOM     33  C   UNL A   1      41.255  26.111  27.567  1.00  0.00     0.031 A 
ATOM     34  C   UNL A   1      42.572  26.491  26.938  1.00  0.00     0.074 A 
ATOM     35  C   UNL A   1      40.590  27.025  28.303  1.00  0.00     0.049 A 
ATOM     36  N   UNL A   1      43.352  27.510  27.191  1.00  0.00    -0.248 NA
ATOM     37  C   UNL A   1      43.092  25.585  25.901  1.00  0.00     0.031 C 
ATOM     38  C   UNL A   1      39.275  26.829  28.919  1.00  0.00     0.029 A 
ATOM     39  N   UNL A   1      40.926  28.311  28.653  1.00  0.00    -0.354 N 
ATOM     40  C   UNL A   1      44.489  27.327  26.408  1.00  0.00     0.074 A 
ATOM     41  C   UNL A   1      44.291  26.096  25.670  1.00  0.00     0.031 C 
ATOM     42  C   UNL A   1      38.895  27.965  29.522  1.00  0.00     0.029 A 
ATOM     43  C   UNL A   1      39.982  28.933  29.437  1.00  0.00     0.049 A 
ATOM     44  H   UNL A   1      41.762  28.745  28.369  1.00  0.00     0.167 HD
ATOM     45  C   UNL A   1      45.596  28.107  26.325  1.00  0.00     0.034 A 
ATOM     46  C   UNL A   1      40.004  30.124  30.067  1.00  0.00     0.034 A 
ATOM     47  C   UNL A   1      45.741  29.367  27.015  1.00  0.00     0.049 A 
ATOM     48  C   UNL A   1      41.239  30.977  29.962  1.00  0.00     0.074 A 
ATOM     49  C   UNL A   1      46.819  30.238  27.012  1.00  0.00     0.029 A 
ATOM     50  N   UNL A   1      44.767  29.952  27.814  1.00  0.00    -0.354 N 
ATOM     51  N   UNL A   1      42.358  30.732  29.320  1.00  0.00    -0.248 NA
ATOM     52  C   UNL A   1      41.223  32.255  30.683  1.00  0.00     0.031 C 
ATOM     53  C   UNL A   1      46.511  31.325  27.839  1.00  0.00     0.029 A 
ATOM     54  C   UNL A   1      45.219  31.165  28.311  1.00  0.00     0.049 A 
ATOM     55  H   UNL A   1      43.882  29.561  27.999  1.00  0.00     0.167 HD
ATOM     56  C   UNL A   1      43.177  31.831  29.558  1.00  0.00     0.074 A 
ATOM     57  C   UNL A   1      42.414  32.749  30.379  1.00  0.00     0.031 C 
ATOM     58  C   UNL A   1      44.449  32.059  29.141  1.00  0.00     0.034 A 
BRANCH  45  59
ATOM     59  C   UNL A   1      46.759  27.581  25.517  1.00  0.00     0.023 A 
ATOM     60  C   UNL A   1      47.031  28.018  24.210  1.00  0.00     0.031 A 
ATOM     61  C   UNL A   1      47.589  26.582  26.061  1.00  0.00     0.131 A 
ATOM     62  C   UNL A   1      48.056  27.410  23.467  1.00  0.00     0.055 A 
ATOM     63  C   UNL A   1      48.657  26.037  25.346  1.00  0.00     0.041 A 
ATOM     64  F   UNL A   1      47.366  26.108  27.297  1.00  0.00    -0.206 F 
ATOM     65  C   UNL A   1      48.886  26.439  24.034  1.00  0.00     0.022 A 
BRANCH  62  66
ATOM     66  S   UNL A   1      48.200  27.800  21.701  1.00  0.00     0.124 S 
ATOM     67  O   UNL A   1      46.865  28.314  21.401  1.00  0.00    -0.237 OA
ATOM     68  O   UNL A   1      49.281  28.779  21.681  1.00  0.00    -0.237 OA
ATOM     69  O   UNL A   1      48.515  26.511  21.089  1.00  0.00    -0.744 OA
ENDBRANCH  62  66
ENDBRANCH  45  59
BRANCH  46  70
ATOM     70  C   UNL A   1      38.855  30.545  30.920  1.00  0.00     0.023 A 
ATOM     71  C   UNL A   1      37.750  31.216  30.375  1.00  0.00     0.031 A 
ATOM     72  C   UNL A   1      38.861  30.298  32.305  1.00  0.00     0.131 A 
ATOM     73  C   UNL A   1      36.709  31.644  31.214  1.00  0.00     0.055 A 
ATOM     74  C   UNL A   1      37.799  30.678  33.127  1.00  0.00     0.041 A 
ATOM     75  F   UNL A   1      39.895  29.661  32.878  1.00  0.00    -0.206 F 
ATOM     76  C   UNL A   1      36.719  31.364  32.584  1.00  0.00     0.022 A 
BRANCH  73  77
ATOM     77  S   UNL A   1      35.370  32.638  30.503  1.00  0.00     0.124 S 
ATOM     78  O   UNL A   1      35.160  31.980  29.219  1.00  0.00    -0.237 OA
ATOM     79  O   UNL A   1      34.309  32.470  31.491  1.00  0.00    -0.237 OA
ATOM     80  O   UNL A   1      35.943  33.980  30.430  1.00  0.00    -0.744 OA
ENDBRANCH  73  77
ENDBRANCH  46  70
BRANCH  58  81
ATOM     81  C   UNL A   1      45.064  33.374  29.543  1.00  0.00     0.023 A 
ATOM     82  C   UNL A   1      44.936  34.522  28.741  1.00  0.00     0.031 A 
ATOM     83  C   UNL A   1      45.815  33.469  30.727  1.00  0.00     0.131 A 
ATOM     84  C   UNL A   1      45.597  35.704  29.107  1.00  0.00     0.055 A 
ATOM     85  C   UNL A   1      46.431  34.660  31.110  1.00  0.00     0.041 A 
ATOM     86  F   UNL A   1      45.968  32.400  31.526  1.00  0.00    -0.206 F 
ATOM     87  C   UNL A   1      46.334  35.783  30.292  1.00  0.00     0.022 A 
BRANCH  84  88
ATOM     88  S   UNL A   1      45.555  37.115  27.967  1.00  0.00     0.124 S 
ATOM     89  O   UNL A   1      45.616  38.249  28.884  1.00  0.00    -0.237 OA
ATOM     90  O   UNL A   1      46.743  36.890  27.151  1.00  0.00    -0.237 OA
ATOM     91  O   UNL A   1      44.282  36.951  27.267  1.00  0.00    -0.744 OA
ENDBRANCH  84  88
ENDBRANCH  58  81
ENDBRANCH  32  33
ENDBRANCH  25  27
ENDBRANCH  24  25
ENDBRANCH  23  24
ENDBRANCH   1  23
TORSDOF 19
ENDMDL
MODEL 3
REMARK VINA RESULT:     -10.7      1.377      1.645
REMARK SMILES C[NH2+]C[C@H](C)C(=O)N1CC[C@@](C(=O)OCCOC(=O)c2ccc(-c3c4nc(c(-c5cc(S(=O)(=O)[O-])ccc5F)c5ccc([nH]5)c(-c5cc(S(=O)(=O)[O-])ccc5F)c5nc(c(-c6cc(S(=O)(=O)[O-])ccc6F)c6ccc3[nH]6)C=C5)C=C4)cc2)(C(F)(F)F)C1
REMARK SMILES IDX 15 1 14 2 12 3 13 4 11 5 8 6 9 7 87 8 10 9 6 10 7 11 4 12
REMARK SMILES IDX 5 13 3 14 2 15 1 16 83 19 84 20 85 21 86 22 16 23 17 24
REMARK SMILES IDX 18 25 19 26 20 27 21 28 82 29 22 30 81 31 23 32 24 33 25 34
REMARK SMILES IDX 75 35 26 36 80 37 74 38 76 39 27 40 79 41 73 42 72 43 28 45
REMARK SMILES IDX 60 46 40 47 59 48 41 49 44 50 58 51 77 52 42 53 43 54 57 56
REMARK SMILES IDX 78 57 45 58 29 59 30 60 38 61 31 62 37 63 39 64 36 65 32 66
REMARK SMILES IDX 33 67 34 68 35 69 61 70 62 71 70 72 63 73 69 74 71 75 68 76
REMARK SMILES IDX 64 77 65 78 66 79 67 80 46 81 47 82 55 83 48 84 54 85 56 86
REMARK SMILES IDX 53 87 49 88 50 89 51 90 52 91
REMARK H PARENT 2 17 2 18 76 44 44 55
REMARK Flexibility Score: inf
ROOT
ATOM      1  C   UNL A   1      31.504  29.683  25.162  1.00  0.00     0.274 C 
ENDROOT
BRANCH   1   2
ATOM      2  O   UNL A   1      32.282  28.536  25.567  1.00  0.00    -0.461 OA
BRANCH   2   3
ATOM      3  C   UNL A   1      31.622  27.374  25.825  1.00  0.00     0.323 C 
ATOM      4  O   UNL A   1      31.034  27.153  26.874  1.00  0.00    -0.251 OA
BRANCH   3   5
ATOM      5  C   UNL A   1      31.806  26.345  24.734  1.00  0.00     0.182 C 
ATOM      6  N   UNL A   1      33.125  24.362  24.723  1.00  0.00    -0.341 N 
ATOM      7  C   UNL A   1      33.520  25.126  23.554  1.00  0.00     0.121 C 
ATOM      8  C   UNL A   1      32.010  24.995  25.412  1.00  0.00     0.148 C 
ATOM      9  C   UNL A   1      33.062  26.536  23.864  1.00  0.00     0.052 C 
BRANCH   6  10
ATOM     10  C   UNL A   1      33.602  23.158  25.182  1.00  0.00     0.231 C 
ATOM     11  O   UNL A   1      33.281  22.105  24.620  1.00  0.00    -0.274 OA
BRANCH  10  12
ATOM     12  C   UNL A   1      34.378  23.084  26.490  1.00  0.00     0.130 C 
ATOM     13  C   UNL A   1      33.669  22.338  27.616  1.00  0.00     0.024 C 
BRANCH  12  14
ATOM     14  C   UNL A   1      35.805  22.560  26.229  1.00  0.00     0.273 C 
BRANCH  14  15
ATOM     15  N   UNL A   1      36.402  22.953  24.942  1.00  0.00    -0.348 N 
ATOM     16  C   UNL A   1      37.028  21.833  24.252  1.00  0.00     0.330 C 
ATOM     17  H   UNL A   1      35.669  23.337  24.346  1.00  0.00     0.346 HD
ATOM     18  H   UNL A   1      37.128  23.642  25.137  1.00  0.00     0.346 HD
ENDBRANCH  14  15
ENDBRANCH  12  14
ENDBRANCH  10  12
ENDBRANCH   6  10
BRANCH   5  19
ATOM     19  C   UNL A   1      30.565  26.298  23.877  1.00  0.00     0.406 C 
ATOM     20  F   UNL A   1      30.256  25.021  23.543  1.00  0.00    -0.170 F 
ATOM     21  F   UNL A   1      29.478  26.817  24.479  1.00  0.00    -0.170 F 
ATOM     22  F   UNL A   1      30.755  26.957  22.716  1.00  0.00    -0.170 F 
ENDBRANCH   5  19
ENDBRANCH   3   5
ENDBRANCH   2   3
ENDBRANCH   1   2
BRANCH   1  23
ATOM     23  C   UNL A   1      31.639  30.800  26.192  1.00  0.00     0.275 C 
BRANCH  23  24
ATOM     24  O   UNL A   1      32.801  30.554  26.999  1.00  0.00    -0.458 OA
BRANCH  24  25
ATOM     25  C   UNL A   1      33.481  31.653  27.386  1.00  0.00     0.338 C 
ATOM     26  O   UNL A   1      33.047  32.793  27.501  1.00  0.00    -0.246 OA
BRANCH  25  27
ATOM     27  C   UNL A   1      34.846  31.271  27.766  1.00  0.00     0.060 A 
ATOM     28  C   UNL A   1      35.101  29.934  28.058  1.00  0.00     0.016 A 
ATOM     29  C   UNL A   1      35.819  32.239  28.000  1.00  0.00     0.016 A 
ATOM     30  C   UNL A   1      36.269  29.578  28.722  1.00  0.00     0.010 A 
ATOM     31  C   UNL A   1      37.048  31.854  28.549  1.00  0.00     0.010 A 
ATOM     32  C   UNL A   1      37.268  30.527  28.970  1.00  0.00    -0.014 A 
BRANCH  32  33
ATOM     33  C   UNL A   1      38.498  30.152  29.732  1.00  0.00     0.031 A 
ATOM     34  C   UNL A   1      39.507  29.217  29.114  1.00  0.00     0.074 A 
ATOM     35  C   UNL A   1      38.738  30.663  30.956  1.00  0.00     0.049 A 
ATOM     36  N   UNL A   1      40.502  28.579  29.673  1.00  0.00    -0.248 NA
ATOM     37  C   UNL A   1      39.358  28.945  27.675  1.00  0.00     0.031 C 
ATOM     38  C   UNL A   1      37.891  31.632  31.656  1.00  0.00     0.029 A 
ATOM     39  N   UNL A   1      39.777  30.447  31.830  1.00  0.00    -0.354 N 
ATOM     40  C   UNL A   1      41.046  27.769  28.680  1.00  0.00     0.074 A 
ATOM     41  C   UNL A   1      40.267  28.002  27.481  1.00  0.00     0.031 C 
ATOM     42  C   UNL A   1      38.467  31.963  32.822  1.00  0.00     0.029 A 
ATOM     43  C   UNL A   1      39.664  31.151  33.007  1.00  0.00     0.049 A 
ATOM     44  H   UNL A   1      40.530  29.846  31.632  1.00  0.00     0.167 HD
ATOM     45  C   UNL A   1      42.090  26.907  28.766  1.00  0.00     0.034 A 
ATOM     46  C   UNL A   1      40.401  31.112  34.134  1.00  0.00     0.034 A 
ATOM     47  C   UNL A   1      42.899  26.743  29.952  1.00  0.00     0.049 A 
ATOM     48  C   UNL A   1      41.556  30.149  34.212  1.00  0.00     0.074 A 
ATOM     49  C   UNL A   1      43.974  25.895  30.157  1.00  0.00     0.029 A 
ATOM     50  N   UNL A   1      42.737  27.464  31.128  1.00  0.00    -0.354 N 
ATOM     51  N   UNL A   1      41.981  29.297  33.307  1.00  0.00    -0.248 NA
ATOM     52  C   UNL A   1      42.315  30.128  35.467  1.00  0.00     0.031 C 
ATOM     53  C   UNL A   1      44.434  26.074  31.467  1.00  0.00     0.029 A 
ATOM     54  C   UNL A   1      43.686  27.077  32.062  1.00  0.00     0.049 A 
ATOM     55  H   UNL A   1      42.048  28.152  31.277  1.00  0.00     0.167 HD
ATOM     56  C   UNL A   1      43.063  28.642  33.886  1.00  0.00     0.074 A 
ATOM     57  C   UNL A   1      43.240  29.216  35.205  1.00  0.00     0.031 C 
ATOM     58  C   UNL A   1      43.837  27.650  33.377  1.00  0.00     0.034 A 
BRANCH  45  59
ATOM     59  C   UNL A   1      42.364  26.024  27.571  1.00  0.00     0.023 A 
ATOM     60  C   UNL A   1      41.860  24.717  27.466  1.00  0.00     0.031 A 
ATOM     61  C   UNL A   1      43.188  26.496  26.531  1.00  0.00     0.131 A 
ATOM     62  C   UNL A   1      42.241  23.904  26.386  1.00  0.00     0.055 A 
ATOM     63  C   UNL A   1      43.499  25.710  25.420  1.00  0.00     0.041 A 
ATOM     64  F   UNL A   1      43.717  27.728  26.585  1.00  0.00    -0.206 F 
ATOM     65  C   UNL A   1      43.039  24.399  25.351  1.00  0.00     0.022 A 
BRANCH  62  66
ATOM     66  S   UNL A   1      41.801  22.144  26.423  1.00  0.00     0.124 S 
ATOM     67  O   UNL A   1      40.370  22.191  26.131  1.00  0.00    -0.237 OA
ATOM     68  O   UNL A   1      42.650  21.584  25.377  1.00  0.00    -0.237 OA
ATOM     69  O   UNL A   1      42.138  21.734  27.785  1.00  0.00    -0.744 OA
ENDBRANCH  62  66
ENDBRANCH  45  59
BRANCH  46  70
ATOM     70  C   UNL A   1      40.022  31.947  35.310  1.00  0.00     0.023 A 
ATOM     71  C   UNL A   1      39.090  31.493  36.255  1.00  0.00     0.031 A 
ATOM     72  C   UNL A   1      40.576  33.227  35.489  1.00  0.00     0.131 A 
ATOM     73  C   UNL A   1      38.716  32.325  37.322  1.00  0.00     0.055 A 
ATOM     74  C   UNL A   1      40.242  34.030  36.581  1.00  0.00     0.041 A 
ATOM     75  F   UNL A   1      41.471  33.710  34.612  1.00  0.00    -0.206 F 
ATOM     76  C   UNL A   1      39.299  33.583  37.500  1.00  0.00     0.022 A 
BRANCH  73  77
ATOM     77  S   UNL A   1      37.402  31.770  38.441  1.00  0.00     0.124 S 
ATOM     78  O   UNL A   1      36.330  32.708  38.129  1.00  0.00    -0.237 OA
ATOM     79  O   UNL A   1      37.196  30.392  38.007  1.00  0.00    -0.237 OA
ATOM     80  O   UNL A   1      37.997  31.921  39.767  1.00  0.00    -0.744 OA
ENDBRANCH  73  77
ENDBRANCH  46  70
BRANCH  58  81
ATOM     81  C   UNL A   1      44.966  27.162  34.248  1.00  0.00     0.023 A 
ATOM     82  C   UNL A   1      44.816  26.048  35.091  1.00  0.00     0.031 A 
ATOM     83  C   UNL A   1      46.195  27.844  34.256  1.00  0.00     0.131 A 
ATOM     84  C   UNL A   1      45.861  25.679  35.951  1.00  0.00     0.055 A 
ATOM     85  C   UNL A   1      47.248  27.443  35.078  1.00  0.00     0.041 A 
ATOM     86  F   UNL A   1      46.387  28.915  33.469  1.00  0.00    -0.206 F 
ATOM     87  C   UNL A   1      47.080  26.363  35.942  1.00  0.00     0.022 A 
BRANCH  84  88
ATOM     88  S   UNL A   1      45.577  24.346  37.149  1.00  0.00     0.124 S 
ATOM     89  O   UNL A   1      44.759  25.012  38.157  1.00  0.00    -0.237 OA
ATOM     90  O   UNL A   1      44.898  23.341  36.339  1.00  0.00    -0.237 OA
ATOM     91  O   UNL A   1      46.925  23.984  37.584  1.00  0.00    -0.744 OA
ENDBRANCH  84  88
ENDBRANCH  58  81
ENDBRANCH  32  33
ENDBRANCH  25  27
ENDBRANCH  24  25
ENDBRANCH  23  24
ENDBRANCH   1  23
TORSDOF 19
ENDMDL
