MODEL 1
REMARK VINA RESULT:     -11.3      0.000      0.000
REMARK SMILES Cc1cc(N(C)C[C@H]2C[C@@H]2C)cc(C(=O)OCCOC(=O)c2ccc(-c3c4nc(c(-c5cc(S(=O)(=O)[O-])ccc5F)c5ccc([nH]5)c(-c5cc(S(=O)(=O)[O-])ccc5F)c5nc(c(-c6cc(S(=O)(=O)[O-])ccc6F)c6ccc3[nH]6)C=C5)C=C4)cc2)c1N
REMARK SMILES IDX 17 1 16 2 14 3 15 4 13 5 1 6 2 7 3 8 85 9 4 10 12 11 86 12
REMARK SMILES IDX 5 15 6 16 7 17 8 18 9 19 10 20 11 21 18 22 19 23 20 24 21 25
REMARK SMILES IDX 22 26 23 27 84 28 24 29 83 30 25 31 26 32 27 33 77 34 28 35
REMARK SMILES IDX 82 36 76 37 78 38 29 39 81 40 75 41 74 42 30 44 62 45 42 46
REMARK SMILES IDX 61 47 43 48 46 49 60 50 79 51 44 52 45 53 59 55 80 56 47 57
REMARK SMILES IDX 31 58 32 59 40 60 33 61 39 62 41 63 38 64 34 65 35 66 36 67
REMARK SMILES IDX 37 68 63 69 64 70 72 71 65 72 71 73 73 74 70 75 66 76 67 77
REMARK SMILES IDX 68 78 69 79 48 80 49 81 57 82 50 83 56 84 58 85 55 86 51 87
REMARK SMILES IDX 52 88 53 89 54 90
REMARK H PARENT 86 13 86 14 78 43 46 54
REMARK Flexibility Score: inf
ROOT
ATOM      1  C   UNL A   1      32.373  28.028  25.373  1.00  0.00     0.275 C 
ENDROOT
BRANCH   1   2
ATOM      2  O   UNL A   1      31.267  27.135  25.120  1.00  0.00    -0.458 OA
BRANCH   2   3
ATOM      3  C   UNL A   1      31.520  26.068  24.311  1.00  0.00     0.340 C 
ATOM      4  O   UNL A   1      31.768  26.110  23.116  1.00  0.00    -0.246 OA
BRANCH   3   5
ATOM      5  C   UNL A   1      31.565  24.828  25.130  1.00  0.00     0.085 A 
ATOM      6  C   UNL A   1      29.241  22.683  27.238  1.00  0.00     0.047 C 
ATOM      7  C   UNL A   1      30.443  23.209  26.500  1.00  0.00    -0.025 A 
ATOM      8  C   UNL A   1      31.557  22.367  26.346  1.00  0.00     0.031 A 
ATOM      9  C   UNL A   1      30.497  24.510  25.988  1.00  0.00     0.049 A 
ATOM     10  C   UNL A   1      32.762  22.793  25.770  1.00  0.00     0.038 A 
ATOM     11  C   UNL A   1      32.701  24.001  25.066  1.00  0.00     0.043 A 
BRANCH   9  12
ATOM     12  N   UNL A   1      29.451  25.397  26.226  1.00  0.00    -0.398 N 
ATOM     13  H   UNL A   1      29.513  26.044  26.964  1.00  0.00     0.156 HD
ATOM     14  H   UNL A   1      28.649  25.378  25.655  1.00  0.00     0.156 HD
ENDBRANCH   9  12
BRANCH  10  15
ATOM     15  N   UNL A   1      33.932  22.060  25.928  1.00  0.00    -0.374 N 
ATOM     16  C   UNL A   1      34.341  21.560  27.234  1.00  0.00     0.143 C 
BRANCH  15  17
ATOM     17  C   UNL A   1      34.647  21.504  24.763  1.00  0.00     0.120 C 
BRANCH  17  18
ATOM     18  C   UNL A   1      36.066  22.005  24.632  1.00  0.00     0.011 C 
ATOM     19  C   UNL A   1      36.476  22.929  23.510  1.00  0.00     0.009 C 
ATOM     20  C   UNL A   1      36.445  23.436  24.930  1.00  0.00    -0.009 C 
ATOM     21  C   UNL A   1      37.715  23.711  25.665  1.00  0.00     0.008 C 
ENDBRANCH  17  18
ENDBRANCH  15  17
ENDBRANCH  10  15
ENDBRANCH   3   5
ENDBRANCH   2   3
ENDBRANCH   1   2
BRANCH   1  22
ATOM     22  C   UNL A   1      31.853  29.419  25.744  1.00  0.00     0.275 C 
BRANCH  22  23
ATOM     23  O   UNL A   1      32.955  30.338  25.730  1.00  0.00    -0.458 OA
BRANCH  23  24
ATOM     24  C   UNL A   1      33.074  31.148  26.812  1.00  0.00     0.338 C 
ATOM     25  O   UNL A   1      32.256  31.965  27.194  1.00  0.00    -0.246 OA
BRANCH  24  26
ATOM     26  C   UNL A   1      34.382  30.891  27.470  1.00  0.00     0.060 A 
ATOM     27  C   UNL A   1      34.726  29.602  27.871  1.00  0.00     0.016 A 
ATOM     28  C   UNL A   1      35.257  31.942  27.749  1.00  0.00     0.016 A 
ATOM     29  C   UNL A   1      35.901  29.363  28.587  1.00  0.00     0.010 A 
ATOM     30  C   UNL A   1      36.477  31.686  28.396  1.00  0.00     0.010 A 
ATOM     31  C   UNL A   1      36.810  30.394  28.847  1.00  0.00    -0.014 A 
BRANCH  31  32
ATOM     32  C   UNL A   1      38.048  30.139  29.652  1.00  0.00     0.031 A 
ATOM     33  C   UNL A   1      39.157  29.297  29.067  1.00  0.00     0.074 A 
ATOM     34  C   UNL A   1      38.222  30.666  30.884  1.00  0.00     0.049 A 
ATOM     35  N   UNL A   1      40.180  28.736  29.660  1.00  0.00    -0.248 NA
ATOM     36  C   UNL A   1      39.089  29.039  27.621  1.00  0.00     0.031 C 
ATOM     37  C   UNL A   1      37.287  31.562  31.569  1.00  0.00     0.029 A 
ATOM     38  N   UNL A   1      39.258  30.535  31.781  1.00  0.00    -0.354 N 
ATOM     39  C   UNL A   1      40.826  27.989  28.680  1.00  0.00     0.074 A 
ATOM     40  C   UNL A   1      40.083  28.180  27.452  1.00  0.00     0.031 C 
ATOM     41  C   UNL A   1      37.812  31.937  32.745  1.00  0.00     0.029 A 
ATOM     42  C   UNL A   1      39.068  31.224  32.958  1.00  0.00     0.049 A 
ATOM     43  H   UNL A   1      40.062  29.997  31.597  1.00  0.00     0.167 HD
ATOM     44  C   UNL A   1      41.931  27.210  28.798  1.00  0.00     0.034 A 
ATOM     45  C   UNL A   1      39.783  31.242  34.102  1.00  0.00     0.034 A 
ATOM     46  C   UNL A   1      42.709  27.088  30.008  1.00  0.00     0.049 A 
ATOM     47  C   UNL A   1      41.003  30.361  34.218  1.00  0.00     0.074 A 
ATOM     48  C   UNL A   1      43.836  26.317  30.239  1.00  0.00     0.029 A 
ATOM     49  N   UNL A   1      42.460  27.782  31.185  1.00  0.00    -0.354 N 
ATOM     50  N   UNL A   1      41.523  29.550  33.326  1.00  0.00    -0.248 NA
ATOM     51  C   UNL A   1      41.715  30.378  35.504  1.00  0.00     0.031 C 
ATOM     52  C   UNL A   1      44.243  26.512  31.564  1.00  0.00     0.029 A 
ATOM     53  C   UNL A   1      43.407  27.451  32.143  1.00  0.00     0.049 A 
ATOM     54  H   UNL A   1      41.719  28.415  31.320  1.00  0.00     0.167 HD
ATOM     55  C   UNL A   1      42.620  28.959  33.947  1.00  0.00     0.074 A 
ATOM     56  C   UNL A   1      42.709  29.533  35.273  1.00  0.00     0.031 C 
ATOM     57  C   UNL A   1      43.473  28.018  33.469  1.00  0.00     0.034 A 
BRANCH  44  58
ATOM     58  C   UNL A   1      42.320  26.370  27.605  1.00  0.00     0.023 A 
ATOM     59  C   UNL A   1      41.964  25.016  27.488  1.00  0.00     0.031 A 
ATOM     60  C   UNL A   1      43.088  26.941  26.573  1.00  0.00     0.131 A 
ATOM     61  C   UNL A   1      42.431  24.263  26.399  1.00  0.00     0.055 A 
ATOM     62  C   UNL A   1      43.485  26.207  25.454  1.00  0.00     0.041 A 
ATOM     63  F   UNL A   1      43.474  28.225  26.640  1.00  0.00    -0.206 F 
ATOM     64  C   UNL A   1      43.167  24.854  25.370  1.00  0.00     0.022 A 
BRANCH  61  65
ATOM     65  S   UNL A   1      42.169  22.468  26.408  1.00  0.00     0.124 S 
ATOM     66  O   UNL A   1      42.987  22.045  25.274  1.00  0.00    -0.237 OA
ATOM     67  O   UNL A   1      42.658  22.083  27.727  1.00  0.00    -0.237 OA
ATOM     68  O   UNL A   1      40.726  22.331  26.213  1.00  0.00    -0.744 OA
ENDBRANCH  61  65
ENDBRANCH  44  58
BRANCH  45  69
ATOM     69  C   UNL A   1      39.323  32.045  35.275  1.00  0.00     0.023 A 
ATOM     70  C   UNL A   1      39.764  33.363  35.476  1.00  0.00     0.031 A 
ATOM     71  C   UNL A   1      38.472  31.482  36.244  1.00  0.00     0.131 A 
ATOM     72  C   UNL A   1      39.379  34.061  36.633  1.00  0.00     0.055 A 
ATOM     73  C   UNL A   1      38.044  32.201  37.361  1.00  0.00     0.041 A 
ATOM     74  F   UNL A   1      38.030  30.222  36.111  1.00  0.00    -0.206 F 
ATOM     75  C   UNL A   1      38.508  33.495  37.567  1.00  0.00     0.022 A 
BRANCH  72  76
ATOM     76  S   UNL A   1      40.104  35.696  36.949  1.00  0.00     0.124 S 
ATOM     77  O   UNL A   1      39.652  36.451  35.785  1.00  0.00    -0.237 OA
ATOM     78  O   UNL A   1      39.493  36.056  38.224  1.00  0.00    -0.237 OA
ATOM     79  O   UNL A   1      41.539  35.428  37.001  1.00  0.00    -0.744 OA
ENDBRANCH  72  76
ENDBRANCH  45  69
BRANCH  57  80
ATOM     80  C   UNL A   1      44.587  27.582  34.384  1.00  0.00     0.023 A 
ATOM     81  C   UNL A   1      44.462  26.447  35.206  1.00  0.00     0.031 A 
ATOM     82  C   UNL A   1      45.778  28.324  34.454  1.00  0.00     0.131 A 
ATOM     83  C   UNL A   1      45.491  26.118  36.102  1.00  0.00     0.055 A 
ATOM     84  C   UNL A   1      46.817  27.965  35.312  1.00  0.00     0.041 A 
ATOM     85  F   UNL A   1      45.947  29.416  33.691  1.00  0.00    -0.206 F 
ATOM     86  C   UNL A   1      46.672  26.863  36.152  1.00  0.00     0.022 A 
BRANCH  83  87
ATOM     87  S   UNL A   1      45.232  24.749  37.265  1.00  0.00     0.124 S 
ATOM     88  O   UNL A   1      46.590  24.480  37.724  1.00  0.00    -0.237 OA
ATOM     89  O   UNL A   1      44.332  25.342  38.249  1.00  0.00    -0.237 OA
ATOM     90  O   UNL A   1      44.639  23.703  36.435  1.00  0.00    -0.744 OA
ENDBRANCH  83  87
ENDBRANCH  57  80
ENDBRANCH  31  32
ENDBRANCH  24  26
ENDBRANCH  23  24
ENDBRANCH  22  23
ENDBRANCH   1  22
TORSDOF 18
ENDMDL
MODEL 2
REMARK VINA RESULT:     -11.1      1.075      1.816
REMARK SMILES Cc1cc(N(C)C[C@H]2C[C@@H]2C)cc(C(=O)OCCOC(=O)c2ccc(-c3c4nc(c(-c5cc(S(=O)(=O)[O-])ccc5F)c5ccc([nH]5)c(-c5cc(S(=O)(=O)[O-])ccc5F)c5nc(c(-c6cc(S(=O)(=O)[O-])ccc6F)c6ccc3[nH]6)C=C5)C=C4)cc2)c1N
REMARK SMILES IDX 17 1 16 2 14 3 15 4 13 5 1 6 2 7 3 8 85 9 4 10 12 11 86 12
REMARK SMILES IDX 5 15 6 16 7 17 8 18 9 19 10 20 11 21 18 22 19 23 20 24 21 25
REMARK SMILES IDX 22 26 23 27 84 28 24 29 83 30 25 31 26 32 27 33 77 34 28 35
REMARK SMILES IDX 82 36 76 37 78 38 29 39 81 40 75 41 74 42 30 44 62 45 42 46
REMARK SMILES IDX 61 47 43 48 46 49 60 50 79 51 44 52 45 53 59 55 80 56 47 57
REMARK SMILES IDX 31 58 32 59 40 60 33 61 39 62 41 63 38 64 34 65 35 66 36 67
REMARK SMILES IDX 37 68 63 69 64 70 72 71 65 72 71 73 73 74 70 75 66 76 67 77
REMARK SMILES IDX 68 78 69 79 48 80 49 81 57 82 50 83 56 84 58 85 55 86 51 87
REMARK SMILES IDX 52 88 53 89 54 90
REMARK H PARENT 86 13 86 14 78 43 46 54
REMARK Flexibility Score: inf
ROOT
ATOM      1  C   UNL A   1      31.433  28.271  26.094  1.00  0.00     0.275 C 
ENDROOT
BRANCH   1   2
ATOM      2  O   UNL A   1      32.197  27.259  25.403  1.00  0.00    -0.458 OA
BRANCH   2   3
ATOM      3  C   UNL A   1      32.133  25.997  25.911  1.00  0.00     0.340 C 
ATOM      4  O   UNL A   1      31.436  25.627  26.843  1.00  0.00    -0.246 OA
BRANCH   3   5
ATOM      5  C   UNL A   1      32.967  25.089  25.080  1.00  0.00     0.085 A 
ATOM      6  C   UNL A   1      33.280  23.975  21.460  1.00  0.00     0.047 C 
ATOM      7  C   UNL A   1      33.514  24.163  22.935  1.00  0.00    -0.025 A 
ATOM      8  C   UNL A   1      34.715  23.692  23.490  1.00  0.00     0.031 A 
ATOM      9  C   UNL A   1      32.566  24.763  23.771  1.00  0.00     0.049 A 
ATOM     10  C   UNL A   1      34.983  23.722  24.866  1.00  0.00     0.038 A 
ATOM     11  C   UNL A   1      34.136  24.530  25.629  1.00  0.00     0.043 A 
BRANCH   9  12
ATOM     12  N   UNL A   1      31.324  25.135  23.265  1.00  0.00    -0.398 N 
ATOM     13  H   UNL A   1      31.175  25.156  22.293  1.00  0.00     0.156 HD
ATOM     14  H   UNL A   1      30.594  25.377  23.879  1.00  0.00     0.156 HD
ENDBRANCH   9  12
BRANCH  10  15
ATOM     15  N   UNL A   1      36.012  22.963  25.412  1.00  0.00    -0.374 N 
ATOM     16  C   UNL A   1      37.215  23.590  25.943  1.00  0.00     0.143 C 
BRANCH  15  17
ATOM     17  C   UNL A   1      35.813  21.540  25.752  1.00  0.00     0.120 C 
BRANCH  17  18
ATOM     18  C   UNL A   1      34.953  20.798  24.756  1.00  0.00     0.011 C 
ATOM     19  C   UNL A   1      34.506  19.378  25.005  1.00  0.00     0.009 C 
ATOM     20  C   UNL A   1      33.497  20.498  25.016  1.00  0.00    -0.009 C 
ATOM     21  C   UNL A   1      32.516  20.647  23.900  1.00  0.00     0.008 C 
ENDBRANCH  17  18
ENDBRANCH  15  17
ENDBRANCH  10  15
ENDBRANCH   3   5
ENDBRANCH   2   3
ENDBRANCH   1   2
BRANCH   1  22
ATOM     22  C   UNL A   1      31.569  29.616  25.378  1.00  0.00     0.275 C 
BRANCH  22  23
ATOM     23  O   UNL A   1      32.885  30.134  25.622  1.00  0.00    -0.458 OA
BRANCH  23  24
ATOM     24  C   UNL A   1      33.004  31.005  26.656  1.00  0.00     0.338 C 
ATOM     25  O   UNL A   1      32.185  31.840  26.994  1.00  0.00    -0.246 OA
BRANCH  24  26
ATOM     26  C   UNL A   1      34.315  30.791  27.324  1.00  0.00     0.060 A 
ATOM     27  C   UNL A   1      34.745  29.501  27.632  1.00  0.00     0.016 A 
ATOM     28  C   UNL A   1      35.105  31.876  27.706  1.00  0.00     0.016 A 
ATOM     29  C   UNL A   1      35.920  29.291  28.356  1.00  0.00     0.010 A 
ATOM     30  C   UNL A   1      36.329  31.657  28.360  1.00  0.00     0.010 A 
ATOM     31  C   UNL A   1      36.746  30.360  28.718  1.00  0.00    -0.014 A 
BRANCH  31  32
ATOM     32  C   UNL A   1      37.984  30.130  29.531  1.00  0.00     0.031 A 
ATOM     33  C   UNL A   1      39.099  29.283  28.966  1.00  0.00     0.074 A 
ATOM     34  C   UNL A   1      38.152  30.686  30.750  1.00  0.00     0.049 A 
ATOM     35  N   UNL A   1      40.124  28.742  29.574  1.00  0.00    -0.248 NA
ATOM     36  C   UNL A   1      39.036  28.992  27.526  1.00  0.00     0.031 C 
ATOM     37  C   UNL A   1      37.211  31.591  31.413  1.00  0.00     0.029 A 
ATOM     38  N   UNL A   1      39.187  30.581  31.651  1.00  0.00    -0.354 N 
ATOM     39  C   UNL A   1      40.778  27.977  28.611  1.00  0.00     0.074 A 
ATOM     40  C   UNL A   1      40.036  28.135  27.378  1.00  0.00     0.031 C 
ATOM     41  C   UNL A   1      37.731  31.995  32.582  1.00  0.00     0.029 A 
ATOM     42  C   UNL A   1      38.991  31.295  32.812  1.00  0.00     0.049 A 
ATOM     43  H   UNL A   1      39.995  30.044  31.482  1.00  0.00     0.167 HD
ATOM     44  C   UNL A   1      41.887  27.207  28.749  1.00  0.00     0.034 A 
ATOM     45  C   UNL A   1      39.704  31.343  33.958  1.00  0.00     0.034 A 
ATOM     46  C   UNL A   1      42.663  27.118  29.963  1.00  0.00     0.049 A 
ATOM     47  C   UNL A   1      40.929  30.473  34.096  1.00  0.00     0.074 A 
ATOM     48  C   UNL A   1      43.794  26.359  30.212  1.00  0.00     0.029 A 
ATOM     49  N   UNL A   1      42.407  27.836  31.124  1.00  0.00    -0.354 N 
ATOM     50  N   UNL A   1      41.455  29.646  33.223  1.00  0.00    -0.248 NA
ATOM     51  C   UNL A   1      41.638  30.523  35.382  1.00  0.00     0.031 C 
ATOM     52  C   UNL A   1      44.197  26.586  31.534  1.00  0.00     0.029 A 
ATOM     53  C   UNL A   1      43.355  27.533  32.091  1.00  0.00     0.049 A 
ATOM     54  H   UNL A   1      41.662  28.467  31.243  1.00  0.00     0.167 HD
ATOM     55  C   UNL A   1      42.554  29.075  33.858  1.00  0.00     0.074 A 
ATOM     56  C   UNL A   1      42.637  29.679  35.172  1.00  0.00     0.031 C 
ATOM     57  C   UNL A   1      43.414  28.129  33.403  1.00  0.00     0.034 A 
BRANCH  44  58
ATOM     58  C   UNL A   1      42.283  26.344  27.576  1.00  0.00     0.023 A 
ATOM     59  C   UNL A   1      41.863  25.009  27.446  1.00  0.00     0.031 A 
ATOM     60  C   UNL A   1      43.124  26.870  26.577  1.00  0.00     0.131 A 
ATOM     61  C   UNL A   1      42.337  24.229  26.379  1.00  0.00     0.055 A 
ATOM     62  C   UNL A   1      43.531  26.111  25.478  1.00  0.00     0.041 A 
ATOM     63  F   UNL A   1      43.573  28.132  26.659  1.00  0.00    -0.206 F 
ATOM     64  C   UNL A   1      43.147  24.777  25.383  1.00  0.00     0.022 A 
BRANCH  61  65
ATOM     65  S   UNL A   1      41.982  22.450  26.380  1.00  0.00     0.124 S 
ATOM     66  O   UNL A   1      42.730  22.000  27.551  1.00  0.00    -0.237 OA
ATOM     67  O   UNL A   1      40.529  22.417  26.499  1.00  0.00    -0.237 OA
ATOM     68  O   UNL A   1      42.512  21.994  25.096  1.00  0.00    -0.744 OA
ENDBRANCH  61  65
ENDBRANCH  44  58
BRANCH  45  69
ATOM     69  C   UNL A   1      39.236  32.170  35.112  1.00  0.00     0.023 A 
ATOM     70  C   UNL A   1      39.750  33.455  35.345  1.00  0.00     0.031 A 
ATOM     71  C   UNL A   1      38.302  31.659  36.031  1.00  0.00     0.131 A 
ATOM     72  C   UNL A   1      39.351  34.172  36.486  1.00  0.00     0.055 A 
ATOM     73  C   UNL A   1      37.863  32.399  37.131  1.00  0.00     0.041 A 
ATOM     74  F   UNL A   1      37.786  30.430  35.866  1.00  0.00    -0.206 F 
ATOM     75  C   UNL A   1      38.399  33.660  37.370  1.00  0.00     0.022 A 
BRANCH  72  76
ATOM     76  S   UNL A   1      40.163  35.754  36.851  1.00  0.00     0.124 S 
ATOM     77  O   UNL A   1      39.650  36.605  35.783  1.00  0.00    -0.237 OA
ATOM     78  O   UNL A   1      39.671  36.044  38.194  1.00  0.00    -0.237 OA
ATOM     79  O   UNL A   1      41.586  35.435  36.766  1.00  0.00    -0.744 OA
ENDBRANCH  72  76
ENDBRANCH  45  69
BRANCH  57  80
ATOM     80  C   UNL A   1      44.529  27.720  34.330  1.00  0.00     0.023 A 
ATOM     81  C   UNL A   1      44.387  26.642  35.222  1.00  0.00     0.031 A 
ATOM     82  C   UNL A   1      45.741  28.433  34.339  1.00  0.00     0.131 A 
ATOM     83  C   UNL A   1      45.418  26.342  36.124  1.00  0.00     0.055 A 
ATOM     84  C   UNL A   1      46.782  28.100  35.205  1.00  0.00     0.041 A 
ATOM     85  F   UNL A   1      45.927  29.471  33.508  1.00  0.00    -0.206 F 
ATOM     86  C   UNL A   1      46.619  27.056  36.113  1.00  0.00     0.022 A 
BRANCH  83  87
ATOM     87  S   UNL A   1      45.140  25.055  37.373  1.00  0.00     0.124 S 
ATOM     88  O   UNL A   1      44.285  25.743  38.334  1.00  0.00    -0.237 OA
ATOM     89  O   UNL A   1      44.502  23.998  36.594  1.00  0.00    -0.237 OA
ATOM     90  O   UNL A   1      46.485  24.744  37.851  1.00  0.00    -0.744 OA
ENDBRANCH  83  87
ENDBRANCH  57  80
ENDBRANCH  31  32
ENDBRANCH  24  26
ENDBRANCH  23  24
ENDBRANCH  22  23
ENDBRANCH   1  22
TORSDOF 18
ENDMDL
MODEL 3
REMARK VINA RESULT:     -10.9      3.974      9.464
REMARK SMILES Cc1cc(N(C)C[C@H]2C[C@@H]2C)cc(C(=O)OCCOC(=O)c2ccc(-c3c4nc(c(-c5cc(S(=O)(=O)[O-])ccc5F)c5ccc([nH]5)c(-c5cc(S(=O)(=O)[O-])ccc5F)c5nc(c(-c6cc(S(=O)(=O)[O-])ccc6F)c6ccc3[nH]6)C=C5)C=C4)cc2)c1N
REMARK SMILES IDX 17 1 16 2 14 3 15 4 13 5 1 6 2 7 3 8 85 9 4 10 12 11 86 12
REMARK SMILES IDX 5 15 6 16 7 17 8 18 9 19 10 20 11 21 18 22 19 23 20 24 21 25
REMARK SMILES IDX 22 26 23 27 84 28 24 29 83 30 25 31 26 32 27 33 77 34 28 35
REMARK SMILES IDX 82 36 76 37 78 38 29 39 81 40 75 41 74 42 30 44 62 45 42 46
REMARK SMILES IDX 61 47 43 48 46 49 60 50 79 51 44 52 45 53 59 55 80 56 47 57
REMARK SMILES IDX 31 58 32 59 40 60 33 61 39 62 41 63 38 64 34 65 35 66 36 67
REMARK SMILES IDX 37 68 63 69 64 70 72 71 65 72 71 73 73 74 70 75 66 76 67 77
REMARK SMILES IDX 68 78 69 79 48 80 49 81 57 82 50 83 56 84 58 85 55 86 51 87
REMARK SMILES IDX 52 88 53 89 54 90
REMARK H PARENT 86 13 86 14 78 43 46 54
REMARK Flexibility Score: inf
ROOT
ATOM      1  C   UNL A   1      33.058  35.155  28.472  1.00  0.00     0.275 C 
ENDROOT
BRANCH   1   2
ATOM      2  O   UNL A   1      33.333  33.829  28.972  1.00  0.00    -0.458 OA
BRANCH   2   3
ATOM      3  C   UNL A   1      34.645  33.484  29.091  1.00  0.00     0.340 C 
ATOM      4  O   UNL A   1      35.495  34.085  29.730  1.00  0.00    -0.246 OA
BRANCH   3   5
ATOM      5  C   UNL A   1      34.877  32.183  28.410  1.00  0.00     0.085 A 
ATOM      6  C   UNL A   1      37.708  29.726  27.781  1.00  0.00     0.047 C 
ATOM      7  C   UNL A   1      36.356  30.385  27.826  1.00  0.00    -0.025 A 
ATOM      8  C   UNL A   1      35.228  29.630  27.464  1.00  0.00     0.031 A 
ATOM      9  C   UNL A   1      36.190  31.726  28.187  1.00  0.00     0.049 A 
ATOM     10  C   UNL A   1      33.941  30.177  27.370  1.00  0.00     0.038 A 
ATOM     11  C   UNL A   1      33.775  31.435  27.958  1.00  0.00     0.043 A 
BRANCH   9  12
ATOM     12  N   UNL A   1      37.302  32.525  28.440  1.00  0.00    -0.398 N 
ATOM     13  H   UNL A   1      38.207  32.147  28.359  1.00  0.00     0.156 HD
ATOM     14  H   UNL A   1      37.184  33.467  28.699  1.00  0.00     0.156 HD
ENDBRANCH   9  12
BRANCH  10  15
ATOM     15  N   UNL A   1      32.923  29.505  26.703  1.00  0.00    -0.374 N 
ATOM     16  C   UNL A   1      32.040  28.582  27.402  1.00  0.00     0.143 C 
BRANCH  15  17
ATOM     17  C   UNL A   1      32.501  29.912  25.348  1.00  0.00     0.120 C 
BRANCH  17  18
ATOM     18  C   UNL A   1      32.425  28.763  24.370  1.00  0.00     0.011 C 
ATOM     19  C   UNL A   1      31.434  28.761  23.231  1.00  0.00     0.009 C 
ATOM     20  C   UNL A   1      32.910  28.886  22.946  1.00  0.00    -0.009 C 
ATOM     21  C   UNL A   1      33.663  27.749  22.337  1.00  0.00     0.008 C 
ENDBRANCH  17  18
ENDBRANCH  15  17
ENDBRANCH  10  15
ENDBRANCH   3   5
ENDBRANCH   2   3
ENDBRANCH   1   2
BRANCH   1  22
ATOM     22  C   UNL A   1      32.916  36.138  29.636  1.00  0.00     0.275 C 
BRANCH  22  23
ATOM     23  O   UNL A   1      32.340  35.445  30.753  1.00  0.00    -0.458 OA
BRANCH  23  24
ATOM     24  C   UNL A   1      32.640  35.935  31.982  1.00  0.00     0.338 C 
ATOM     25  O   UNL A   1      32.095  36.872  32.538  1.00  0.00    -0.246 OA
BRANCH  24  26
ATOM     26  C   UNL A   1      33.763  35.149  32.559  1.00  0.00     0.060 A 
ATOM     27  C   UNL A   1      35.033  35.711  32.666  1.00  0.00     0.016 A 
ATOM     28  C   UNL A   1      33.576  33.821  32.945  1.00  0.00     0.016 A 
ATOM     29  C   UNL A   1      36.119  34.950  33.104  1.00  0.00     0.010 A 
ATOM     30  C   UNL A   1      34.653  33.083  33.464  1.00  0.00     0.010 A 
ATOM     31  C   UNL A   1      35.950  33.628  33.530  1.00  0.00    -0.014 A 
BRANCH  31  32
ATOM     32  C   UNL A   1      37.127  32.805  33.958  1.00  0.00     0.031 A 
ATOM     33  C   UNL A   1      37.746  33.041  35.315  1.00  0.00     0.074 A 
ATOM     34  C   UNL A   1      37.639  31.829  33.178  1.00  0.00     0.049 A 
ATOM     35  N   UNL A   1      38.902  32.645  35.784  1.00  0.00    -0.248 NA
ATOM     36  C   UNL A   1      36.962  33.848  36.261  1.00  0.00     0.031 C 
ATOM     37  C   UNL A   1      37.117  31.418  31.873  1.00  0.00     0.029 A 
ATOM     38  N   UNL A   1      38.712  30.990  33.374  1.00  0.00    -0.354 N 
ATOM     39  C   UNL A   1      39.023  33.226  37.043  1.00  0.00     0.074 A 
ATOM     40  C   UNL A   1      37.815  33.993  37.265  1.00  0.00     0.031 C 
ATOM     41  C   UNL A   1      37.834  30.380  31.414  1.00  0.00     0.029 A 
ATOM     42  C   UNL A   1      38.939  30.119  32.332  1.00  0.00     0.049 A 
ATOM     43  H   UNL A   1      39.269  31.011  34.187  1.00  0.00     0.167 HD
ATOM     44  C   UNL A   1      40.050  33.135  37.925  1.00  0.00     0.034 A 
ATOM     45  C   UNL A   1      39.945  29.249  32.102  1.00  0.00     0.034 A 
ATOM     46  C   UNL A   1      41.215  32.306  37.725  1.00  0.00     0.049 A 
ATOM     47  C   UNL A   1      41.083  29.169  33.090  1.00  0.00     0.074 A 
ATOM     48  C   UNL A   1      42.318  32.152  38.549  1.00  0.00     0.029 A 
ATOM     49  N   UNL A   1      41.414  31.464  36.639  1.00  0.00    -0.354 N 
ATOM     50  N   UNL A   1      41.251  29.832  34.211  1.00  0.00    -0.248 NA
ATOM     51  C   UNL A   1      42.179  28.246  32.766  1.00  0.00     0.031 C 
ATOM     52  C   UNL A   1      43.202  31.250  37.941  1.00  0.00     0.029 A 
ATOM     53  C   UNL A   1      42.623  30.795  36.769  1.00  0.00     0.049 A 
ATOM     54  H   UNL A   1      40.790  31.359  35.886  1.00  0.00     0.167 HD
ATOM     55  C   UNL A   1      42.474  29.406  34.721  1.00  0.00     0.074 A 
ATOM     56  C   UNL A   1      42.983  28.405  33.807  1.00  0.00     0.031 C 
ATOM     57  C   UNL A   1      43.126  29.812  35.840  1.00  0.00     0.034 A 
BRANCH  44  58
ATOM     58  C   UNL A   1      39.992  34.012  39.152  1.00  0.00     0.023 A 
ATOM     59  C   UNL A   1      39.316  33.628  40.322  1.00  0.00     0.031 A 
ATOM     60  C   UNL A   1      40.611  35.277  39.134  1.00  0.00     0.131 A 
ATOM     61  C   UNL A   1      39.220  34.523  41.399  1.00  0.00     0.055 A 
ATOM     62  C   UNL A   1      40.577  36.132  40.236  1.00  0.00     0.041 A 
ATOM     63  F   UNL A   1      41.254  35.706  38.036  1.00  0.00    -0.206 F 
ATOM     64  C   UNL A   1      39.865  35.762  41.373  1.00  0.00     0.022 A 
BRANCH  61  65
ATOM     65  S   UNL A   1      38.132  34.099  42.787  1.00  0.00     0.124 S 
ATOM     66  O   UNL A   1      38.953  34.482  43.932  1.00  0.00    -0.237 OA
ATOM     67  O   UNL A   1      36.959  34.929  42.535  1.00  0.00    -0.237 OA
ATOM     68  O   UNL A   1      37.923  32.660  42.631  1.00  0.00    -0.744 OA
ENDBRANCH  61  65
ENDBRANCH  44  58
BRANCH  45  69
ATOM     69  C   UNL A   1      39.985  28.446  30.843  1.00  0.00     0.023 A 
ATOM     70  C   UNL A   1      40.854  28.781  29.791  1.00  0.00     0.031 A 
ATOM     71  C   UNL A   1      39.113  27.359  30.654  1.00  0.00     0.131 A 
ATOM     72  C   UNL A   1      40.807  28.057  28.588  1.00  0.00     0.055 A 
ATOM     73  C   UNL A   1      39.113  26.605  29.479  1.00  0.00     0.041 A 
ATOM     74  F   UNL A   1      38.252  27.001  31.620  1.00  0.00    -0.206 F 
ATOM     75  C   UNL A   1      39.956  26.961  28.432  1.00  0.00     0.022 A 
BRANCH  72  76
ATOM     76  S   UNL A   1      41.817  28.623  27.189  1.00  0.00     0.124 S 
ATOM     77  O   UNL A   1      40.795  28.979  26.211  1.00  0.00    -0.237 OA
ATOM     78  O   UNL A   1      42.555  29.735  27.779  1.00  0.00    -0.237 OA
ATOM     79  O   UNL A   1      42.622  27.451  26.854  1.00  0.00    -0.744 OA
ENDBRANCH  72  76
ENDBRANCH  45  69
BRANCH  57  80
ATOM     80  C   UNL A   1      44.443  29.145  36.141  1.00  0.00     0.023 A 
ATOM     81  C   UNL A   1      44.514  27.971  36.911  1.00  0.00     0.031 A 
ATOM     82  C   UNL A   1      45.644  29.706  35.673  1.00  0.00     0.131 A 
ATOM     83  C   UNL A   1      45.765  27.423  37.236  1.00  0.00     0.055 A 
ATOM     84  C   UNL A   1      46.882  29.131  35.959  1.00  0.00     0.041 A 
ATOM     85  F   UNL A   1      45.631  30.828  34.935  1.00  0.00    -0.206 F 
ATOM     86  C   UNL A   1      46.948  27.990  36.755  1.00  0.00     0.022 A 
BRANCH  83  87
ATOM     87  S   UNL A   1      45.831  26.006  38.366  1.00  0.00     0.124 S 
ATOM     88  O   UNL A   1      44.417  25.689  38.541  1.00  0.00    -0.237 OA
ATOM     89  O   UNL A   1      46.612  25.036  37.604  1.00  0.00    -0.237 OA
ATOM     90  O   UNL A   1      46.497  26.543  39.551  1.00  0.00    -0.744 OA
ENDBRANCH  83  87
ENDBRANCH  57  80
ENDBRANCH  31  32
ENDBRANCH  24  26
ENDBRANCH  23  24
ENDBRANCH  22  23
ENDBRANCH   1  22
TORSDOF 18
ENDMDL
