MODEL 1
REMARK VINA RESULT:     -17.1      0.000      0.000
REMARK SMILES Cc1ccccc1/C=C1\SC(=O)N(CC(=O)Nc2ccccc2C(=O)OCCOC(=O)c2ccc(-c3c4nc(c(-c5cc(S(=O)(=O)[O-])ccc5F)c5ccc([nH]5)c(-c5cc(S(=O)(=O)[O-])ccc5F)c5nc(c(-c6cc(S(=O)(=O)[O-])ccc6F)c6ccc3[nH]6)C=C5)C=C4)cc2)C1=O
REMARK SMILES IDX 27 1 26 2 24 3 25 4 23 5 18 6 19 7 20 8 22 9 21 10 17 11
REMARK SMILES IDX 15 12 16 13 14 15 13 16 8 17 9 18 10 19 95 20 11 21 96 22
REMARK SMILES IDX 12 23 7 24 1 25 2 26 3 27 4 28 6 29 5 30 28 31 29 32 30 33
REMARK SMILES IDX 31 34 32 35 33 36 94 37 34 38 93 39 35 40 36 41 37 42 87 43
REMARK SMILES IDX 38 44 92 45 86 46 88 47 39 48 91 49 85 50 84 51 40 53 72 54
REMARK SMILES IDX 52 55 71 56 53 57 56 58 70 59 89 60 54 61 55 62 69 64 90 65
REMARK SMILES IDX 57 66 41 67 42 68 50 69 43 70 49 71 51 72 48 73 44 74 45 75
REMARK SMILES IDX 46 76 47 77 73 78 74 79 82 80 75 81 81 82 83 83 80 84 76 85
REMARK SMILES IDX 77 86 78 87 79 88 58 89 59 90 67 91 60 92 66 93 68 94 65 95
REMARK SMILES IDX 61 96 62 97 63 98 64 99
REMARK H PARENT 17 14 88 52 56 63
REMARK Flexibility Score: inf
ROOT
ATOM      1  C   UNL A   1      43.186  18.208  26.521  1.00  0.00     0.275 C 
ENDROOT
BRANCH   1   2
ATOM      2  O   UNL A   1      41.262  18.655  25.930  1.00  0.00    -0.458 OA
BRANCH   2   3
ATOM      3  C   UNL A   1      40.095  19.733  25.898  1.00  0.00     0.340 C 
ATOM      4  O   UNL A   1      39.340  18.856  25.385  1.00  0.00    -0.246 OA
BRANCH   3   5
ATOM      5  C   UNL A   1      39.577  21.763  26.418  1.00  0.00     0.083 A 
ATOM      6  C   UNL A   1      38.095  22.504  25.877  1.00  0.00     0.055 A 
ATOM      7  C   UNL A   1      37.765  23.851  26.111  1.00  0.00     0.027 A 
ATOM      8  C   UNL A   1      38.617  24.640  26.878  1.00  0.00     0.002 A 
ATOM      9  C   UNL A   1      40.272  22.817  27.190  1.00  0.00     0.018 A 
ATOM     10  C   UNL A   1      39.811  24.140  27.404  1.00  0.00     0.001 A 
BRANCH   6  11
ATOM     11  N   UNL A   1      36.839  21.709  25.034  1.00  0.00    -0.324 N 
ATOM     12  C   UNL A   1      35.293  21.427  25.268  1.00  0.00     0.244 C 
ATOM     13  O   UNL A   1      34.799  20.798  24.312  1.00  0.00    -0.273 OA
ATOM     14  H   UNL A   1      37.156  21.326  24.184  1.00  0.00     0.170 HD
BRANCH  12  15
ATOM     15  C   UNL A   1      34.086  22.256  26.498  1.00  0.00     0.230 C 
BRANCH  15  16
ATOM     16  N   UNL A   1      32.846  23.548  26.446  1.00  0.00    -0.259 N 
ATOM     17  C   UNL A   1      32.618  27.469  24.627  1.00  0.00     0.029 C 
ATOM     18  C   UNL A   1      32.426  26.409  25.449  1.00  0.00     0.083 C 
ATOM     19  S   UNL A   1      30.358  25.918  25.966  1.00  0.00    -0.022 SA
ATOM     20  C   UNL A   1      33.685  25.000  25.825  1.00  0.00     0.268 C 
ATOM     21  C   UNL A   1      30.956  23.822  26.738  1.00  0.00     0.294 C 
ATOM     22  O   UNL A   1      34.887  25.092  25.626  1.00  0.00    -0.268 OA
ATOM     23  O   UNL A   1      29.990  23.394  27.359  1.00  0.00    -0.261 OA
BRANCH  17  24
ATOM     24  C   UNL A   1      31.571  28.349  24.023  1.00  0.00    -0.021 A 
ATOM     25  C   UNL A   1      31.697  30.181  25.793  1.00  0.00     0.045 C 
ATOM     26  C   UNL A   1      31.096  29.549  24.574  1.00  0.00    -0.044 A 
ATOM     27  C   UNL A   1      30.002  30.219  23.973  1.00  0.00     0.004 A 
ATOM     28  C   UNL A   1      29.435  29.771  22.781  1.00  0.00     0.000 A 
ATOM     29  C   UNL A   1      31.004  27.954  22.798  1.00  0.00     0.008 A 
ATOM     30  C   UNL A   1      29.964  28.651  22.171  1.00  0.00     0.001 A 
ENDBRANCH  17  24
ENDBRANCH  15  16
ENDBRANCH  12  15
ENDBRANCH   6  11
ENDBRANCH   3   5
ENDBRANCH   2   3
ENDBRANCH   1   2
BRANCH   1  31
ATOM     31  C   UNL A   1      44.490  18.767  25.286  1.00  0.00     0.275 C 
BRANCH  31  32
ATOM     32  O   UNL A   1      44.348  20.298  24.497  1.00  0.00    -0.458 OA
BRANCH  32  33
ATOM     33  C   UNL A   1      44.754  21.701  24.608  1.00  0.00     0.338 C 
ATOM     34  O   UNL A   1      45.794  22.074  24.069  1.00  0.00    -0.246 OA
BRANCH  33  35
ATOM     35  C   UNL A   1      44.049  22.742  25.669  1.00  0.00     0.060 A 
ATOM     36  C   UNL A   1      43.669  24.091  24.728  1.00  0.00     0.016 A 
ATOM     37  C   UNL A   1      43.959  23.005  27.412  1.00  0.00     0.016 A 
ATOM     38  C   UNL A   1      42.983  25.766  25.320  1.00  0.00     0.010 A 
ATOM     39  C   UNL A   1      43.391  24.576  28.138  1.00  0.00     0.010 A 
ATOM     40  C   UNL A   1      42.798  25.974  27.124  1.00  0.00    -0.014 A 
BRANCH  40  41
ATOM     41  C   UNL A   1      42.990  27.313  27.808  1.00  0.00     0.031 A 
ATOM     42  C   UNL A   1      41.757  28.095  28.081  1.00  0.00     0.074 A 
ATOM     43  C   UNL A   1      44.120  27.638  28.523  1.00  0.00     0.049 A 
ATOM     44  N   UNL A   1      41.735  29.168  28.781  1.00  0.00    -0.248 NA
ATOM     45  C   UNL A   1      40.425  27.761  27.583  1.00  0.00     0.031 C 
ATOM     46  C   UNL A   1      44.176  28.469  29.734  1.00  0.00     0.029 A 
ATOM     47  N   UNL A   1      45.438  27.169  28.452  1.00  0.00    -0.354 N 
ATOM     48  C   UNL A   1      40.445  29.507  29.072  1.00  0.00     0.074 A 
ATOM     49  C   UNL A   1      39.656  28.627  28.252  1.00  0.00     0.031 C 
ATOM     50  C   UNL A   1      45.389  28.446  30.300  1.00  0.00     0.029 A 
ATOM     51  C   UNL A   1      46.289  27.856  29.348  1.00  0.00     0.049 A 
ATOM     52  H   UNL A   1      45.737  26.448  27.850  1.00  0.00     0.167 HD
ATOM     53  C   UNL A   1      40.245  30.458  30.026  1.00  0.00     0.034 A 
ATOM     54  C   UNL A   1      47.369  28.551  28.883  1.00  0.00     0.034 A 
ATOM     55  C   UNL A   1      41.509  31.177  30.318  1.00  0.00     0.049 A 
ATOM     56  C   UNL A   1      46.983  30.001  28.588  1.00  0.00     0.074 A 
ATOM     57  C   UNL A   1      42.322  31.356  31.425  1.00  0.00     0.029 A 
ATOM     58  N   UNL A   1      42.260  31.657  29.234  1.00  0.00    -0.354 N 
ATOM     59  N   UNL A   1      45.968  30.627  29.135  1.00  0.00    -0.248 NA
ATOM     60  C   UNL A   1      47.689  30.859  27.644  1.00  0.00     0.031 C 
ATOM     61  C   UNL A   1      43.602  31.814  30.964  1.00  0.00     0.029 A 
ATOM     62  C   UNL A   1      43.558  31.986  29.589  1.00  0.00     0.049 A 
ATOM     63  H   UNL A   1      41.902  31.750  28.322  1.00  0.00     0.167 HD
ATOM     64  C   UNL A   1      45.705  31.786  28.453  1.00  0.00     0.074 A 
ATOM     65  C   UNL A   1      46.901  31.950  27.635  1.00  0.00     0.031 C 
ATOM     66  C   UNL A   1      44.505  32.455  28.561  1.00  0.00     0.034 A 
BRANCH  53  67
ATOM     67  C   UNL A   1      38.936  30.679  30.766  1.00  0.00     0.023 A 
ATOM     68  C   UNL A   1      37.861  31.299  30.094  1.00  0.00     0.031 A 
ATOM     69  C   UNL A   1      38.706  30.422  32.140  1.00  0.00     0.131 A 
ATOM     70  C   UNL A   1      36.661  31.623  30.764  1.00  0.00     0.055 A 
ATOM     71  C   UNL A   1      37.491  30.690  32.789  1.00  0.00     0.041 A 
ATOM     72  F   UNL A   1      39.657  29.960  32.958  1.00  0.00    -0.206 F 
ATOM     73  C   UNL A   1      36.461  31.301  32.103  1.00  0.00     0.022 A 
BRANCH  70  74
ATOM     74  S   UNL A   1      35.371  32.543  29.881  1.00  0.00     0.124 S 
ATOM     75  O   UNL A   1      36.113  33.690  29.369  1.00  0.00    -0.237 OA
ATOM     76  O   UNL A   1      34.915  31.570  28.895  1.00  0.00    -0.237 OA
ATOM     77  O   UNL A   1      34.400  32.857  30.929  1.00  0.00    -0.744 OA
ENDBRANCH  70  74
ENDBRANCH  53  67
BRANCH  54  78
ATOM     78  C   UNL A   1      48.248  27.617  28.121  1.00  0.00     0.023 A 
ATOM     79  C   UNL A   1      47.806  27.281  26.810  1.00  0.00     0.031 A 
ATOM     80  C   UNL A   1      49.623  27.580  28.387  1.00  0.00     0.131 A 
ATOM     81  C   UNL A   1      48.735  27.127  25.771  1.00  0.00     0.055 A 
ATOM     82  C   UNL A   1      50.542  27.414  27.351  1.00  0.00     0.041 A 
ATOM     83  F   UNL A   1      50.093  27.893  29.604  1.00  0.00    -0.206 F 
ATOM     84  C   UNL A   1      50.099  27.227  26.037  1.00  0.00     0.022 A 
BRANCH  81  85
ATOM     85  S   UNL A   1      48.189  27.027  24.027  1.00  0.00     0.124 S 
ATOM     86  O   UNL A   1      47.365  25.821  24.044  1.00  0.00    -0.237 OA
ATOM     87  O   UNL A   1      47.460  28.272  23.807  1.00  0.00    -0.237 OA
ATOM     88  O   UNL A   1      49.432  26.896  23.262  1.00  0.00    -0.744 OA
ENDBRANCH  81  85
ENDBRANCH  54  78
BRANCH  66  89
ATOM     89  C   UNL A   1      44.120  33.668  27.714  1.00  0.00     0.023 A 
ATOM     90  C   UNL A   1      44.063  34.973  28.216  1.00  0.00     0.031 A 
ATOM     91  C   UNL A   1      43.771  33.541  26.345  1.00  0.00     0.131 A 
ATOM     92  C   UNL A   1      43.507  36.024  27.467  1.00  0.00     0.055 A 
ATOM     93  C   UNL A   1      43.349  34.618  25.556  1.00  0.00     0.041 A 
ATOM     94  F   UNL A   1      43.806  32.365  25.704  1.00  0.00    -0.206 F 
ATOM     95  C   UNL A   1      43.169  35.864  26.129  1.00  0.00     0.022 A 
BRANCH  92  96
ATOM     96  S   UNL A   1      43.077  37.548  28.348  1.00  0.00     0.124 S 
ATOM     97  O   UNL A   1      41.622  37.449  28.421  1.00  0.00    -0.237 OA
ATOM     98  O   UNL A   1      43.786  37.390  29.614  1.00  0.00    -0.237 OA
ATOM     99  O   UNL A   1      43.583  38.605  27.475  1.00  0.00    -0.744 OA
ENDBRANCH  92  96
ENDBRANCH  66  89
ENDBRANCH  40  41
ENDBRANCH  33  35
ENDBRANCH  32  33
ENDBRANCH  31  32
ENDBRANCH   1  31
TORSDOF 18
ENDMDL
MODEL 2
REMARK VINA RESULT:     -15.2      2.687      4.071
REMARK SMILES Cc1ccccc1/C=C1\SC(=O)N(CC(=O)Nc2ccccc2C(=O)OCCOC(=O)c2ccc(-c3c4nc(c(-c5cc(S(=O)(=O)[O-])ccc5F)c5ccc([nH]5)c(-c5cc(S(=O)(=O)[O-])ccc5F)c5nc(c(-c6cc(S(=O)(=O)[O-])ccc6F)c6ccc3[nH]6)C=C5)C=C4)cc2)C1=O
REMARK SMILES IDX 27 1 26 2 24 3 25 4 23 5 18 6 19 7 20 8 22 9 21 10 17 11
REMARK SMILES IDX 15 12 16 13 14 15 13 16 8 17 9 18 10 19 95 20 11 21 96 22
REMARK SMILES IDX 12 23 7 24 1 25 2 26 3 27 4 28 6 29 5 30 28 31 29 32 30 33
REMARK SMILES IDX 31 34 32 35 33 36 94 37 34 38 93 39 35 40 36 41 37 42 87 43
REMARK SMILES IDX 38 44 92 45 86 46 88 47 39 48 91 49 85 50 84 51 40 53 72 54
REMARK SMILES IDX 52 55 71 56 53 57 56 58 70 59 89 60 54 61 55 62 69 64 90 65
REMARK SMILES IDX 57 66 41 67 42 68 50 69 43 70 49 71 51 72 48 73 44 74 45 75
REMARK SMILES IDX 46 76 47 77 73 78 74 79 82 80 75 81 81 82 83 83 80 84 76 85
REMARK SMILES IDX 77 86 78 87 79 88 58 89 59 90 67 91 60 92 66 93 68 94 65 95
REMARK SMILES IDX 61 96 62 97 63 98 64 99
REMARK H PARENT 17 14 88 52 56 63
REMARK Flexibility Score: inf
ROOT
ATOM      1  C   UNL A   1      38.778  22.613  26.434  1.00  0.00     0.275 C 
ENDROOT
BRANCH   1   2
ATOM      2  O   UNL A   1      36.967  22.091  25.599  1.00  0.00    -0.458 OA
BRANCH   2   3
ATOM      3  C   UNL A   1      35.681  21.161  25.681  1.00  0.00     0.340 C 
ATOM      4  O   UNL A   1      35.202  21.952  26.546  1.00  0.00    -0.246 OA
BRANCH   3   5
ATOM      5  C   UNL A   1      34.751  19.388  24.871  1.00  0.00     0.083 A 
ATOM      6  C   UNL A   1      33.023  19.168  24.879  1.00  0.00     0.055 A 
ATOM      7  C   UNL A   1      32.384  17.991  24.451  1.00  0.00     0.027 A 
ATOM      8  C   UNL A   1      33.146  16.954  23.920  1.00  0.00     0.002 A 
ATOM      9  C   UNL A   1      35.292  18.150  24.266  1.00  0.00     0.018 A 
ATOM     10  C   UNL A   1      34.537  17.037  23.821  1.00  0.00     0.001 A 
BRANCH   6  11
ATOM     11  N   UNL A   1      31.876  20.340  25.361  1.00  0.00    -0.324 N 
ATOM     12  C   UNL A   1      31.783  21.926  25.371  1.00  0.00     0.244 C 
ATOM     13  O   UNL A   1      30.687  22.312  25.822  1.00  0.00    -0.273 OA
ATOM     14  H   UNL A   1      31.062  19.924  25.728  1.00  0.00     0.170 HD
BRANCH  12  15
ATOM     15  C   UNL A   1      32.853  23.205  24.434  1.00  0.00     0.230 C 
BRANCH  15  16
ATOM     16  N   UNL A   1      32.892  24.985  24.237  1.00  0.00    -0.259 N 
ATOM     17  C   UNL A   1      32.212  28.349  26.874  1.00  0.00     0.029 C 
ATOM     18  C   UNL A   1      32.313  27.566  25.773  1.00  0.00     0.083 C 
ATOM     19  S   UNL A   1      33.337  28.421  24.039  1.00  0.00    -0.022 SA
ATOM     20  C   UNL A   1      32.107  25.651  25.699  1.00  0.00     0.268 C 
ATOM     21  C   UNL A   1      33.576  26.345  23.048  1.00  0.00     0.294 C 
ATOM     22  O   UNL A   1      31.544  24.995  26.561  1.00  0.00    -0.268 OA
ATOM     23  O   UNL A   1      33.904  26.554  21.885  1.00  0.00    -0.261 OA
BRANCH  17  24
ATOM     24  C   UNL A   1      32.728  29.743  27.045  1.00  0.00    -0.021 A 
ATOM     25  C   UNL A   1      35.126  29.081  27.606  1.00  0.00     0.045 C 
ATOM     26  C   UNL A   1      34.029  30.089  27.440  1.00  0.00    -0.044 A 
ATOM     27  C   UNL A   1      34.352  31.444  27.699  1.00  0.00     0.004 A 
ATOM     28  C   UNL A   1      33.436  32.470  27.479  1.00  0.00     0.000 A 
ATOM     29  C   UNL A   1      31.846  30.809  26.790  1.00  0.00     0.008 A 
ATOM     30  C   UNL A   1      32.186  32.152  26.987  1.00  0.00     0.001 A 
ENDBRANCH  17  24
ENDBRANCH  15  16
ENDBRANCH  12  15
ENDBRANCH   6  11
ENDBRANCH   3   5
ENDBRANCH   2   3
ENDBRANCH   1   2
BRANCH   1  31
ATOM     31  C   UNL A   1      40.211  21.562  25.815  1.00  0.00     0.275 C 
BRANCH  31  32
ATOM     32  O   UNL A   1      41.784  22.252  25.630  1.00  0.00    -0.458 OA
BRANCH  32  33
ATOM     33  C   UNL A   1      42.518  23.514  25.753  1.00  0.00     0.338 C 
ATOM     34  O   UNL A   1      43.567  23.665  25.132  1.00  0.00    -0.246 OA
BRANCH  33  35
ATOM     35  C   UNL A   1      42.170  24.628  26.913  1.00  0.00     0.060 A 
ATOM     36  C   UNL A   1      41.664  25.982  26.041  1.00  0.00     0.016 A 
ATOM     37  C   UNL A   1      42.529  24.931  28.614  1.00  0.00     0.016 A 
ATOM     38  C   UNL A   1      41.264  27.716  26.717  1.00  0.00     0.010 A 
ATOM     39  C   UNL A   1      42.267  26.557  29.395  1.00  0.00     0.010 A 
ATOM     40  C   UNL A   1      41.542  27.975  28.503  1.00  0.00    -0.014 A 
BRANCH  40  41
ATOM     41  C   UNL A   1      41.989  29.309  29.067  1.00  0.00     0.031 A 
ATOM     42  C   UNL A   1      40.911  30.249  29.465  1.00  0.00     0.074 A 
ATOM     43  C   UNL A   1      43.244  29.523  29.590  1.00  0.00     0.049 A 
ATOM     44  N   UNL A   1      41.120  31.347  30.093  1.00  0.00    -0.248 NA
ATOM     45  C   UNL A   1      39.490  30.062  29.185  1.00  0.00     0.031 C 
ATOM     46  C   UNL A   1      43.577  30.393  30.726  1.00  0.00     0.029 A 
ATOM     47  N   UNL A   1      44.473  28.891  29.360  1.00  0.00    -0.354 N 
ATOM     48  C   UNL A   1      39.936  31.856  30.545  1.00  0.00     0.074 A 
ATOM     49  C   UNL A   1      38.936  31.046  29.903  1.00  0.00     0.031 C 
ATOM     50  C   UNL A   1      44.851  30.245  31.112  1.00  0.00     0.029 A 
ATOM     51  C   UNL A   1      45.523  29.506  30.080  1.00  0.00     0.049 A 
ATOM     52  H   UNL A   1      44.592  28.112  28.768  1.00  0.00     0.167 HD
ATOM     53  C   UNL A   1      39.993  32.866  31.456  1.00  0.00     0.034 A 
ATOM     54  C   UNL A   1      46.594  30.040  29.421  1.00  0.00     0.034 A 
ATOM     55  C   UNL A   1      41.362  33.435  31.518  1.00  0.00     0.049 A 
ATOM     56  C   UNL A   1      46.339  31.512  29.095  1.00  0.00     0.074 A 
ATOM     57  C   UNL A   1      42.347  33.561  32.483  1.00  0.00     0.029 A 
ATOM     58  N   UNL A   1      41.992  33.769  30.310  1.00  0.00    -0.354 N 
ATOM     59  N   UNL A   1      45.498  32.283  29.743  1.00  0.00    -0.248 NA
ATOM     60  C   UNL A   1      46.991  32.233  28.008  1.00  0.00     0.031 C 
ATOM     61  C   UNL A   1      43.588  33.835  31.816  1.00  0.00     0.029 A 
ATOM     62  C   UNL A   1      43.358  33.950  30.453  1.00  0.00     0.049 A 
ATOM     63  H   UNL A   1      41.515  33.865  29.454  1.00  0.00     0.167 HD
ATOM     64  C   UNL A   1      45.272  33.435  29.035  1.00  0.00     0.074 A 
ATOM     65  C   UNL A   1      46.342  33.412  28.045  1.00  0.00     0.031 C 
ATOM     66  C   UNL A   1      44.188  34.252  29.272  1.00  0.00     0.034 A 
BRANCH  53  67
ATOM     67  C   UNL A   1      38.845  33.281  32.362  1.00  0.00     0.023 A 
ATOM     68  C   UNL A   1      38.889  32.935  33.730  1.00  0.00     0.031 A 
ATOM     69  C   UNL A   1      37.642  33.902  31.946  1.00  0.00     0.131 A 
ATOM     70  C   UNL A   1      37.803  33.203  34.592  1.00  0.00     0.055 A 
ATOM     71  C   UNL A   1      36.590  34.221  32.817  1.00  0.00     0.041 A 
ATOM     72  F   UNL A   1      37.377  34.178  30.665  1.00  0.00    -0.206 F 
ATOM     73  C   UNL A   1      36.662  33.865  34.149  1.00  0.00     0.022 A 
BRANCH  70  74
ATOM     74  S   UNL A   1      37.863  32.611  36.306  1.00  0.00     0.124 S 
ATOM     75  O   UNL A   1      37.764  31.166  36.131  1.00  0.00    -0.237 OA
ATOM     76  O   UNL A   1      39.148  33.124  36.767  1.00  0.00    -0.237 OA
ATOM     77  O   UNL A   1      36.694  33.238  36.923  1.00  0.00    -0.744 OA
ENDBRANCH  70  74
ENDBRANCH  53  67
BRANCH  54  78
ATOM     78  C   UNL A   1      47.234  28.971  28.601  1.00  0.00     0.023 A 
ATOM     79  C   UNL A   1      46.436  28.434  27.552  1.00  0.00     0.031 A 
ATOM     80  C   UNL A   1      48.627  28.944  28.454  1.00  0.00     0.131 A 
ATOM     81  C   UNL A   1      47.022  28.087  26.327  1.00  0.00     0.055 A 
ATOM     82  C   UNL A   1      49.205  28.586  27.236  1.00  0.00     0.041 A 
ATOM     83  F   UNL A   1      49.425  29.442  29.411  1.00  0.00    -0.206 F 
ATOM     84  C   UNL A   1      48.402  28.195  26.160  1.00  0.00     0.022 A 
BRANCH  81  85
ATOM     85  S   UNL A   1      45.991  27.713  24.861  1.00  0.00     0.124 S 
ATOM     86  O   UNL A   1      46.648  28.512  23.828  1.00  0.00    -0.237 OA
ATOM     87  O   UNL A   1      46.113  26.268  24.696  1.00  0.00    -0.237 OA
ATOM     88  O   UNL A   1      44.653  28.184  25.225  1.00  0.00    -0.744 OA
ENDBRANCH  81  85
ENDBRANCH  54  78
BRANCH  66  89
ATOM     89  C   UNL A   1      43.824  35.464  28.415  1.00  0.00     0.023 A 
ATOM     90  C   UNL A   1      43.943  36.786  28.859  1.00  0.00     0.031 A 
ATOM     91  C   UNL A   1      43.313  35.321  27.099  1.00  0.00     0.131 A 
ATOM     92  C   UNL A   1      43.406  37.858  28.125  1.00  0.00     0.055 A 
ATOM     93  C   UNL A   1      42.907  36.404  26.311  1.00  0.00     0.041 A 
ATOM     94  F   UNL A   1      43.169  34.124  26.515  1.00  0.00    -0.206 F 
ATOM     95  C   UNL A   1      42.908  37.681  26.841  1.00  0.00     0.022 A 
BRANCH  92  96
ATOM     96  S   UNL A   1      43.219  39.447  28.975  1.00  0.00     0.124 S 
ATOM     97  O   UNL A   1      44.157  40.290  28.239  1.00  0.00    -0.237 OA
ATOM     98  O   UNL A   1      41.806  39.747  28.772  1.00  0.00    -0.237 OA
ATOM     99  O   UNL A   1      43.603  39.148  30.353  1.00  0.00    -0.744 OA
ENDBRANCH  92  96
ENDBRANCH  66  89
ENDBRANCH  40  41
ENDBRANCH  33  35
ENDBRANCH  32  33
ENDBRANCH  31  32
ENDBRANCH   1  31
TORSDOF 18
ENDMDL
MODEL 3
REMARK VINA RESULT:     -14.8      6.010      7.386
REMARK SMILES Cc1ccccc1/C=C1\SC(=O)N(CC(=O)Nc2ccccc2C(=O)OCCOC(=O)c2ccc(-c3c4nc(c(-c5cc(S(=O)(=O)[O-])ccc5F)c5ccc([nH]5)c(-c5cc(S(=O)(=O)[O-])ccc5F)c5nc(c(-c6cc(S(=O)(=O)[O-])ccc6F)c6ccc3[nH]6)C=C5)C=C4)cc2)C1=O
REMARK SMILES IDX 27 1 26 2 24 3 25 4 23 5 18 6 19 7 20 8 22 9 21 10 17 11
REMARK SMILES IDX 15 12 16 13 14 15 13 16 8 17 9 18 10 19 95 20 11 21 96 22
REMARK SMILES IDX 12 23 7 24 1 25 2 26 3 27 4 28 6 29 5 30 28 31 29 32 30 33
REMARK SMILES IDX 31 34 32 35 33 36 94 37 34 38 93 39 35 40 36 41 37 42 87 43
REMARK SMILES IDX 38 44 92 45 86 46 88 47 39 48 91 49 85 50 84 51 40 53 72 54
REMARK SMILES IDX 52 55 71 56 53 57 56 58 70 59 89 60 54 61 55 62 69 64 90 65
REMARK SMILES IDX 57 66 41 67 42 68 50 69 43 70 49 71 51 72 48 73 44 74 45 75
REMARK SMILES IDX 46 76 47 77 73 78 74 79 82 80 75 81 81 82 83 83 80 84 76 85
REMARK SMILES IDX 77 86 78 87 79 88 58 89 59 90 67 91 60 92 66 93 68 94 65 95
REMARK SMILES IDX 61 96 62 97 63 98 64 99
REMARK H PARENT 17 14 88 52 56 63
REMARK Flexibility Score: inf
ROOT
ATOM      1  C   UNL A   1      44.858  21.216  25.174  1.00  0.00     0.275 C 
ENDROOT
BRANCH   1   2
ATOM      2  O   UNL A   1      42.801  21.254  25.295  1.00  0.00    -0.458 OA
BRANCH   2   3
ATOM      3  C   UNL A   1      41.522  21.795  26.067  1.00  0.00     0.340 C 
ATOM      4  O   UNL A   1      41.030  20.630  26.005  1.00  0.00    -0.246 OA
BRANCH   3   5
ATOM      5  C   UNL A   1      40.652  23.535  27.003  1.00  0.00     0.083 A 
ATOM      6  C   UNL A   1      39.168  24.245  26.430  1.00  0.00     0.055 A 
ATOM      7  C   UNL A   1      38.620  25.432  26.948  1.00  0.00     0.027 A 
ATOM      8  C   UNL A   1      39.238  26.057  28.027  1.00  0.00     0.002 A 
ATOM      9  C   UNL A   1      41.078  24.395  28.130  1.00  0.00     0.018 A 
ATOM     10  C   UNL A   1      40.408  25.552  28.600  1.00  0.00     0.001 A 
BRANCH   6  11
ATOM     11  N   UNL A   1      38.165  23.596  25.208  1.00  0.00    -0.324 N 
ATOM     12  C   UNL A   1      36.603  23.494  24.932  1.00  0.00     0.244 C 
ATOM     13  O   UNL A   1      36.372  22.922  23.849  1.00  0.00    -0.273 OA
ATOM     14  H   UNL A   1      38.691  23.176  24.489  1.00  0.00     0.170 HD
BRANCH  12  15
ATOM     15  C   UNL A   1      35.167  24.460  25.745  1.00  0.00     0.230 C 
BRANCH  15  16
ATOM     16  N   UNL A   1      34.283  25.989  25.446  1.00  0.00    -0.259 N 
ATOM     17  C   UNL A   1      31.187  27.217  22.682  1.00  0.00     0.029 C 
ATOM     18  C   UNL A   1      32.239  27.225  23.535  1.00  0.00     0.083 C 
ATOM     19  S   UNL A   1      32.257  28.781  25.073  1.00  0.00    -0.022 SA
ATOM     20  C   UNL A   1      33.458  25.772  23.874  1.00  0.00     0.268 C 
ATOM     21  C   UNL A   1      33.877  27.675  26.297  1.00  0.00     0.294 C 
ATOM     22  O   UNL A   1      33.608  24.821  23.122  1.00  0.00    -0.268 OA
ATOM     23  O   UNL A   1      34.292  28.477  27.125  1.00  0.00    -0.261 OA
BRANCH  17  24
ATOM     24  C   UNL A   1      30.022  28.155  22.671  1.00  0.00    -0.021 A 
ATOM     25  C   UNL A   1      28.426  26.625  23.942  1.00  0.00     0.045 C 
ATOM     26  C   UNL A   1      28.745  27.876  23.181  1.00  0.00    -0.044 A 
ATOM     27  C   UNL A   1      27.688  28.799  22.985  1.00  0.00     0.004 A 
ATOM     28  C   UNL A   1      27.900  30.037  22.379  1.00  0.00     0.000 A 
ATOM     29  C   UNL A   1      30.207  29.431  22.108  1.00  0.00     0.008 A 
ATOM     30  C   UNL A   1      29.176  30.368  21.971  1.00  0.00     0.001 A 
ENDBRANCH  17  24
ENDBRANCH  15  16
ENDBRANCH  12  15
ENDBRANCH   6  11
ENDBRANCH   3   5
ENDBRANCH   2   3
ENDBRANCH   1   2
BRANCH   1  31
ATOM     31  C   UNL A   1      45.577  22.715  24.292  1.00  0.00     0.275 C 
BRANCH  31  32
ATOM     32  O   UNL A   1      45.002  24.303  24.657  1.00  0.00    -0.458 OA
BRANCH  32  33
ATOM     33  C   UNL A   1      45.303  25.487  25.466  1.00  0.00     0.338 C 
ATOM     34  O   UNL A   1      45.494  26.566  24.909  1.00  0.00    -0.246 OA
BRANCH  33  35
ATOM     35  C   UNL A   1      45.694  25.390  27.061  1.00  0.00     0.060 A 
ATOM     36  C   UNL A   1      44.461  24.450  27.729  1.00  0.00     0.016 A 
ATOM     37  C   UNL A   1      46.698  26.241  28.237  1.00  0.00     0.016 A 
ATOM     38  C   UNL A   1      44.162  24.063  29.569  1.00  0.00     0.010 A 
ATOM     39  C   UNL A   1      46.491  26.033  30.035  1.00  0.00     0.010 A 
ATOM     40  C   UNL A   1      45.283  24.872  30.761  1.00  0.00    -0.014 A 
BRANCH  40  41
ATOM     41  C   UNL A   1      44.826  25.295  32.143  1.00  0.00     0.031 A 
ATOM     42  C   UNL A   1      43.988  26.519  32.212  1.00  0.00     0.074 A 
ATOM     43  C   UNL A   1      44.790  24.439  33.219  1.00  0.00     0.049 A 
ATOM     44  N   UNL A   1      43.402  26.921  33.279  1.00  0.00    -0.248 NA
ATOM     45  C   UNL A   1      43.735  27.426  31.096  1.00  0.00     0.031 C 
ATOM     46  C   UNL A   1      43.796  24.441  34.302  1.00  0.00     0.029 A 
ATOM     47  N   UNL A   1      45.506  23.269  33.508  1.00  0.00    -0.354 N 
ATOM     48  C   UNL A   1      42.507  27.906  32.974  1.00  0.00     0.074 A 
ATOM     49  C   UNL A   1      42.792  28.229  31.601  1.00  0.00     0.031 C 
ATOM     50  C   UNL A   1      43.921  23.372  35.098  1.00  0.00     0.029 A 
ATOM     51  C   UNL A   1      45.182  22.757  34.786  1.00  0.00     0.049 A 
ATOM     52  H   UNL A   1      46.157  22.854  32.896  1.00  0.00     0.167 HD
ATOM     53  C   UNL A   1      41.609  28.259  33.934  1.00  0.00     0.034 A 
ATOM     54  C   UNL A   1      46.148  22.617  35.740  1.00  0.00     0.034 A 
ATOM     55  C   UNL A   1      42.016  27.714  35.253  1.00  0.00     0.049 A 
ATOM     56  C   UNL A   1      46.245  23.885  36.589  1.00  0.00     0.074 A 
ATOM     57  C   UNL A   1      41.477  26.836  36.178  1.00  0.00     0.029 A 
ATOM     58  N   UNL A   1      43.342  27.908  35.665  1.00  0.00    -0.354 N 
ATOM     59  N   UNL A   1      45.277  24.757  36.739  1.00  0.00    -0.248 NA
ATOM     60  C   UNL A   1      47.439  24.288  37.324  1.00  0.00     0.031 C 
ATOM     61  C   UNL A   1      42.534  26.410  37.052  1.00  0.00     0.029 A 
ATOM     62  C   UNL A   1      43.702  27.077  36.714  1.00  0.00     0.049 A 
ATOM     63  H   UNL A   1      43.951  28.564  35.254  1.00  0.00     0.167 HD
ATOM     64  C   UNL A   1      45.762  25.912  37.295  1.00  0.00     0.074 A 
ATOM     65  C   UNL A   1      47.076  25.503  37.775  1.00  0.00     0.031 C 
ATOM     66  C   UNL A   1      45.080  27.108  37.238  1.00  0.00     0.034 A 
BRANCH  53  67
ATOM     67  C   UNL A   1      40.314  29.011  33.675  1.00  0.00     0.023 A 
ATOM     68  C   UNL A   1      40.000  30.135  34.469  1.00  0.00     0.031 A 
ATOM     69  C   UNL A   1      39.299  28.628  32.764  1.00  0.00     0.131 A 
ATOM     70  C   UNL A   1      38.764  30.806  34.341  1.00  0.00     0.055 A 
ATOM     71  C   UNL A   1      38.098  29.332  32.596  1.00  0.00     0.041 A 
ATOM     72  F   UNL A   1      39.373  27.514  32.027  1.00  0.00    -0.206 F 
ATOM     73  C   UNL A   1      37.820  30.425  33.392  1.00  0.00     0.022 A 
BRANCH  70  74
ATOM     74  S   UNL A   1      38.363  32.157  35.484  1.00  0.00     0.124 S 
ATOM     75  O   UNL A   1      39.674  32.484  36.037  1.00  0.00    -0.237 OA
ATOM     76  O   UNL A   1      37.766  33.148  34.597  1.00  0.00    -0.237 OA
ATOM     77  O   UNL A   1      37.434  31.538  36.429  1.00  0.00    -0.744 OA
ENDBRANCH  70  74
ENDBRANCH  53  67
BRANCH  54  78
ATOM     78  C   UNL A   1      47.224  21.733  35.208  1.00  0.00     0.023 A 
ATOM     79  C   UNL A   1      48.255  22.385  34.475  1.00  0.00     0.031 A 
ATOM     80  C   UNL A   1      47.536  20.537  35.869  1.00  0.00     0.131 A 
ATOM     81  C   UNL A   1      49.584  21.953  34.589  1.00  0.00     0.055 A 
ATOM     82  C   UNL A   1      48.859  20.105  35.969  1.00  0.00     0.041 A 
ATOM     83  F   UNL A   1      46.602  19.885  36.578  1.00  0.00    -0.206 F 
ATOM     84  C   UNL A   1      49.888  20.834  35.363  1.00  0.00     0.022 A 
BRANCH  81  85
ATOM     85  S   UNL A   1      50.963  22.962  33.933  1.00  0.00     0.124 S 
ATOM     86  O   UNL A   1      50.409  24.311  34.019  1.00  0.00    -0.237 OA
ATOM     87  O   UNL A   1      52.071  22.690  34.843  1.00  0.00    -0.237 OA
ATOM     88  O   UNL A   1      51.154  22.475  32.565  1.00  0.00    -0.744 OA
ENDBRANCH  81  85
ENDBRANCH  54  78
BRANCH  66  89
ATOM     89  C   UNL A   1      45.648  28.443  37.719  1.00  0.00     0.023 A 
ATOM     90  C   UNL A   1      45.168  29.125  38.843  1.00  0.00     0.031 A 
ATOM     91  C   UNL A   1      46.703  29.096  37.031  1.00  0.00     0.131 A 
ATOM     92  C   UNL A   1      45.571  30.440  39.131  1.00  0.00     0.055 A 
ATOM     93  C   UNL A   1      47.202  30.350  37.403  1.00  0.00     0.041 A 
ATOM     94  F   UNL A   1      47.294  28.560  35.955  1.00  0.00    -0.206 F 
ATOM     95  C   UNL A   1      46.604  31.053  38.433  1.00  0.00     0.022 A 
BRANCH  92  96
ATOM     96  S   UNL A   1      44.582  31.380  40.323  1.00  0.00     0.124 S 
ATOM     97  O   UNL A   1      43.382  31.678  39.545  1.00  0.00    -0.237 OA
ATOM     98  O   UNL A   1      44.409  30.424  41.411  1.00  0.00    -0.237 OA
ATOM     99  O   UNL A   1      45.422  32.535  40.633  1.00  0.00    -0.744 OA
ENDBRANCH  92  96
ENDBRANCH  66  89
ENDBRANCH  40  41
ENDBRANCH  33  35
ENDBRANCH  32  33
ENDBRANCH  31  32
ENDBRANCH   1  31
TORSDOF 18
ENDMDL
