MODEL 1
REMARK VINA RESULT:     -11.2      0.000      0.000
REMARK SMILES O=C(OCCOC(=O)[C@H]1C=C[C@H](NS(=O)(=O)c2ccc(F)c(F)c2F)C1)c1ccc(-c2c3nc(c(-c4cc(S(=O)(=O)[O-])ccc4F)c4ccc([nH]4)c(-c4cc(S(=O)(=O)[O-])ccc4F)c4nc(c(-c5cc(S(=O)(=O)[O-])ccc5F)c5ccc2[nH]5)C=C4)C=C3)cc1
REMARK SMILES IDX 4 1 3 2 2 3 1 4 27 5 28 6 89 7 29 8 88 9 30 10 31 11 32 12
REMARK SMILES IDX 82 13 33 14 87 15 81 16 83 17 34 18 86 19 80 20 79 21 35 23
REMARK SMILES IDX 67 24 47 25 66 26 48 27 51 28 65 29 84 30 49 31 50 32 64 34
REMARK SMILES IDX 85 35 52 36 36 37 37 38 45 39 38 40 44 41 46 42 43 43 39 44
REMARK SMILES IDX 40 45 41 46 42 47 68 48 69 49 77 50 70 51 76 52 78 53 75 54
REMARK SMILES IDX 71 55 72 56 73 57 74 58 53 59 54 60 62 61 55 62 61 63 63 64
REMARK SMILES IDX 60 65 56 66 57 67 58 68 59 69 5 70 6 71 7 72 8 73 9 74 10 75
REMARK SMILES IDX 26 76 11 77 12 78 13 79 14 81 15 82 16 83 17 84 18 85 24 86
REMARK SMILES IDX 19 87 22 88 25 89 20 90 23 91 21 92
REMARK H PARENT 83 22 51 33 13 80
REMARK Flexibility Score: inf
ROOT
ATOM      1  C   UNL A   1      37.513  21.329  25.000  1.00  0.00     0.275 C 
ENDROOT
BRANCH   1   2
ATOM      2  O   UNL A   1      37.875  22.439  25.827  1.00  0.00    -0.458 OA
BRANCH   2   3
ATOM      3  C   UNL A   1      39.046  22.651  26.475  1.00  0.00     0.338 C 
ATOM      4  O   UNL A   1      39.614  21.681  26.976  1.00  0.00    -0.246 OA
BRANCH   3   5
ATOM      5  C   UNL A   1      39.575  24.019  26.794  1.00  0.00     0.060 A 
ATOM      6  C   UNL A   1      40.253  24.895  25.938  1.00  0.00     0.016 A 
ATOM      7  C   UNL A   1      39.322  24.465  28.102  1.00  0.00     0.016 A 
ATOM      8  C   UNL A   1      40.568  26.207  26.330  1.00  0.00     0.010 A 
ATOM      9  C   UNL A   1      39.603  25.777  28.487  1.00  0.00     0.010 A 
ATOM     10  C   UNL A   1      40.213  26.669  27.595  1.00  0.00    -0.014 A 
BRANCH  10  11
ATOM     11  C   UNL A   1      40.594  28.019  28.075  1.00  0.00     0.031 A 
ATOM     12  C   UNL A   1      42.052  28.280  28.310  1.00  0.00     0.074 A 
ATOM     13  C   UNL A   1      39.671  28.945  28.395  1.00  0.00     0.049 A 
ATOM     14  N   UNL A   1      42.635  29.280  28.911  1.00  0.00    -0.248 NA
ATOM     15  C   UNL A   1      42.966  27.226  27.847  1.00  0.00     0.031 C 
ATOM     16  C   UNL A   1      38.226  28.805  28.220  1.00  0.00     0.029 A 
ATOM     17  N   UNL A   1      39.812  30.179  28.981  1.00  0.00    -0.354 N 
ATOM     18  C   UNL A   1      43.988  28.961  28.917  1.00  0.00     0.074 A 
ATOM     19  C   UNL A   1      44.109  27.628  28.370  1.00  0.00     0.031 C 
ATOM     20  C   UNL A   1      37.610  29.879  28.744  1.00  0.00     0.029 A 
ATOM     21  C   UNL A   1      38.615  30.787  29.289  1.00  0.00     0.049 A 
ATOM     22  H   UNL A   1      40.688  30.590  29.165  1.00  0.00     0.167 HD
ATOM     23  C   UNL A   1      45.041  29.729  29.294  1.00  0.00     0.034 A 
ATOM     24  C   UNL A   1      38.365  31.936  29.948  1.00  0.00     0.034 A 
ATOM     25  C   UNL A   1      44.891  31.052  29.834  1.00  0.00     0.049 A 
ATOM     26  C   UNL A   1      39.537  32.769  30.410  1.00  0.00     0.074 A 
ATOM     27  C   UNL A   1      45.867  31.948  30.228  1.00  0.00     0.029 A 
ATOM     28  N   UNL A   1      43.665  31.666  30.068  1.00  0.00    -0.354 N 
ATOM     29  N   UNL A   1      40.821  32.498  30.337  1.00  0.00    -0.248 NA
ATOM     30  C   UNL A   1      39.231  34.074  31.012  1.00  0.00     0.031 C 
ATOM     31  C   UNL A   1      45.230  33.086  30.738  1.00  0.00     0.029 A 
ATOM     32  C   UNL A   1      43.858  32.925  30.609  1.00  0.00     0.049 A 
ATOM     33  H   UNL A   1      42.787  31.264  29.876  1.00  0.00     0.167 HD
ATOM     34  C   UNL A   1      41.476  33.619  30.838  1.00  0.00     0.074 A 
ATOM     35  C   UNL A   1      40.446  34.565  31.222  1.00  0.00     0.031 C 
ATOM     36  C   UNL A   1      42.808  33.855  30.954  1.00  0.00     0.034 A 
BRANCH  23  37
ATOM     37  C   UNL A   1      46.406  29.104  29.135  1.00  0.00     0.023 A 
ATOM     38  C   UNL A   1      47.088  29.172  27.904  1.00  0.00     0.031 A 
ATOM     39  C   UNL A   1      46.948  28.290  30.142  1.00  0.00     0.131 A 
ATOM     40  C   UNL A   1      48.159  28.306  27.652  1.00  0.00     0.055 A 
ATOM     41  C   UNL A   1      48.094  27.521  29.923  1.00  0.00     0.041 A 
ATOM     42  F   UNL A   1      46.339  28.175  31.332  1.00  0.00    -0.206 F 
ATOM     43  C   UNL A   1      48.685  27.497  28.660  1.00  0.00     0.022 A 
BRANCH  40  44
ATOM     44  S   UNL A   1      48.663  28.057  25.924  1.00  0.00     0.124 S 
ATOM     45  O   UNL A   1      48.932  26.620  25.900  1.00  0.00    -0.237 OA
ATOM     46  O   UNL A   1      47.486  28.496  25.184  1.00  0.00    -0.237 OA
ATOM     47  O   UNL A   1      49.845  28.906  25.786  1.00  0.00    -0.744 OA
ENDBRANCH  40  44
ENDBRANCH  23  37
BRANCH  24  48
ATOM     48  C   UNL A   1      36.963  32.364  30.220  1.00  0.00     0.023 A 
ATOM     49  C   UNL A   1      36.245  33.151  29.305  1.00  0.00     0.031 A 
ATOM     50  C   UNL A   1      36.327  32.009  31.423  1.00  0.00     0.131 A 
ATOM     51  C   UNL A   1      34.947  33.588  29.621  1.00  0.00     0.055 A 
ATOM     52  C   UNL A   1      35.024  32.418  31.719  1.00  0.00     0.041 A 
ATOM     53  F   UNL A   1      36.963  31.249  32.326  1.00  0.00    -0.206 F 
ATOM     54  C   UNL A   1      34.330  33.222  30.820  1.00  0.00     0.022 A 
BRANCH  51  55
ATOM     55  S   UNL A   1      34.089  34.688  28.460  1.00  0.00     0.124 S 
ATOM     56  O   UNL A   1      34.909  34.556  27.262  1.00  0.00    -0.237 OA
ATOM     57  O   UNL A   1      32.761  34.084  28.397  1.00  0.00    -0.237 OA
ATOM     58  O   UNL A   1      34.146  35.992  29.117  1.00  0.00    -0.744 OA
ENDBRANCH  51  55
ENDBRANCH  24  48
BRANCH  36  59
ATOM     59  C   UNL A   1      43.232  35.219  31.427  1.00  0.00     0.023 A 
ATOM     60  C   UNL A   1      43.405  35.516  32.788  1.00  0.00     0.031 A 
ATOM     61  C   UNL A   1      43.533  36.215  30.480  1.00  0.00     0.131 A 
ATOM     62  C   UNL A   1      43.853  36.791  33.166  1.00  0.00     0.055 A 
ATOM     63  C   UNL A   1      44.019  37.465  30.861  1.00  0.00     0.041 A 
ATOM     64  F   UNL A   1      43.384  35.975  29.167  1.00  0.00    -0.206 F 
ATOM     65  C   UNL A   1      44.179  37.759  32.211  1.00  0.00     0.022 A 
BRANCH  62  66
ATOM     66  S   UNL A   1      43.992  37.182  34.933  1.00  0.00     0.124 S 
ATOM     67  O   UNL A   1      43.026  36.261  35.522  1.00  0.00    -0.237 OA
ATOM     68  O   UNL A   1      45.397  36.899  35.208  1.00  0.00    -0.237 OA
ATOM     69  O   UNL A   1      43.623  38.595  35.000  1.00  0.00    -0.744 OA
ENDBRANCH  62  66
ENDBRANCH  36  59
ENDBRANCH  10  11
ENDBRANCH   3   5
ENDBRANCH   2   3
ENDBRANCH   1   2
BRANCH   1  70
ATOM     70  C   UNL A   1      36.136  20.742  25.318  1.00  0.00     0.274 C 
BRANCH  70  71
ATOM     71  O   UNL A   1      35.039  21.374  24.632  1.00  0.00    -0.462 OA
BRANCH  71  72
ATOM     72  C   UNL A   1      34.581  22.528  25.198  1.00  0.00     0.312 C 
ATOM     73  O   UNL A   1      33.817  22.558  26.159  1.00  0.00    -0.252 OA
BRANCH  72  74
ATOM     74  C   UNL A   1      34.997  23.779  24.414  1.00  0.00     0.123 C 
ATOM     75  C   UNL A   1      34.553  23.651  22.983  1.00  0.00    -0.015 C 
ATOM     76  C   UNL A   1      34.368  25.109  24.845  1.00  0.00     0.043 C 
ATOM     77  C   UNL A   1      33.644  24.570  22.646  1.00  0.00    -0.011 C 
ATOM     78  C   UNL A   1      33.348  25.490  23.771  1.00  0.00     0.093 C 
BRANCH  78  79
ATOM     79  N   UNL A   1      33.375  26.904  23.445  1.00  0.00    -0.204 NA
ATOM     80  H   UNL A   1      33.639  26.949  22.461  1.00  0.00     0.142 HD
BRANCH  79  81
ATOM     81  S   UNL A   1      32.096  27.960  23.606  1.00  0.00     0.244 S 
ATOM     82  O   UNL A   1      32.167  28.907  22.519  1.00  0.00    -0.207 OA
ATOM     83  O   UNL A   1      30.899  27.193  23.872  1.00  0.00    -0.207 OA
BRANCH  81  84
ATOM     84  C   UNL A   1      32.518  28.839  25.073  1.00  0.00     0.121 A 
ATOM     85  C   UNL A   1      33.706  28.532  25.750  1.00  0.00     0.028 A 
ATOM     86  C   UNL A   1      31.719  29.903  25.480  1.00  0.00     0.181 A 
ATOM     87  C   UNL A   1      34.115  29.335  26.814  1.00  0.00     0.044 A 
ATOM     88  C   UNL A   1      32.125  30.690  26.549  1.00  0.00     0.195 A 
ATOM     89  F   UNL A   1      30.593  30.222  24.826  1.00  0.00    -0.202 F 
ATOM     90  C   UNL A   1      33.322  30.413  27.202  1.00  0.00     0.161 A 
ATOM     91  F   UNL A   1      31.384  31.740  26.931  1.00  0.00    -0.200 F 
ATOM     92  F   UNL A   1      33.739  31.200  28.203  1.00  0.00    -0.204 F 
ENDBRANCH  81  84
ENDBRANCH  79  81
ENDBRANCH  78  79
ENDBRANCH  72  74
ENDBRANCH  71  72
ENDBRANCH  70  71
ENDBRANCH   1  70
TORSDOF 17
ENDMDL
MODEL 2
REMARK VINA RESULT:     -11.2      4.629      6.710
REMARK SMILES O=C(OCCOC(=O)[C@H]1C=C[C@H](NS(=O)(=O)c2ccc(F)c(F)c2F)C1)c1ccc(-c2c3nc(c(-c4cc(S(=O)(=O)[O-])ccc4F)c4ccc([nH]4)c(-c4cc(S(=O)(=O)[O-])ccc4F)c4nc(c(-c5cc(S(=O)(=O)[O-])ccc5F)c5ccc2[nH]5)C=C4)C=C3)cc1
REMARK SMILES IDX 4 1 3 2 2 3 1 4 27 5 28 6 89 7 29 8 88 9 30 10 31 11 32 12
REMARK SMILES IDX 82 13 33 14 87 15 81 16 83 17 34 18 86 19 80 20 79 21 35 23
REMARK SMILES IDX 67 24 47 25 66 26 48 27 51 28 65 29 84 30 49 31 50 32 64 34
REMARK SMILES IDX 85 35 52 36 36 37 37 38 45 39 38 40 44 41 46 42 43 43 39 44
REMARK SMILES IDX 40 45 41 46 42 47 68 48 69 49 77 50 70 51 76 52 78 53 75 54
REMARK SMILES IDX 71 55 72 56 73 57 74 58 53 59 54 60 62 61 55 62 61 63 63 64
REMARK SMILES IDX 60 65 56 66 57 67 58 68 59 69 5 70 6 71 7 72 8 73 9 74 10 75
REMARK SMILES IDX 26 76 11 77 12 78 13 79 14 81 15 82 16 83 17 84 18 85 24 86
REMARK SMILES IDX 19 87 22 88 25 89 20 90 23 91 21 92
REMARK H PARENT 83 22 51 33 13 80
REMARK Flexibility Score: inf
ROOT
ATOM      1  C   UNL A   1      43.259  18.513  25.827  1.00  0.00     0.275 C 
ENDROOT
BRANCH   1   2
ATOM      2  O   UNL A   1      43.846  19.027  24.628  1.00  0.00    -0.458 OA
BRANCH   2   3
ATOM      3  C   UNL A   1      45.013  19.701  24.492  1.00  0.00     0.338 C 
ATOM      4  O   UNL A   1      46.048  19.046  24.363  1.00  0.00    -0.246 OA
BRANCH   3   5
ATOM      5  C   UNL A   1      45.138  21.183  24.698  1.00  0.00     0.060 A 
ATOM      6  C   UNL A   1      44.917  22.198  23.761  1.00  0.00     0.016 A 
ATOM      7  C   UNL A   1      45.489  21.574  26.001  1.00  0.00     0.016 A 
ATOM      8  C   UNL A   1      44.933  23.553  24.131  1.00  0.00     0.010 A 
ATOM      9  C   UNL A   1      45.475  22.917  26.383  1.00  0.00     0.010 A 
ATOM     10  C   UNL A   1      45.177  23.921  25.452  1.00  0.00    -0.014 A 
BRANCH  10  11
ATOM     11  C   UNL A   1      45.278  25.340  25.868  1.00  0.00     0.031 A 
ATOM     12  C   UNL A   1      46.638  25.973  25.833  1.00  0.00     0.074 A 
ATOM     13  C   UNL A   1      44.221  26.013  26.362  1.00  0.00     0.049 A 
ATOM     14  N   UNL A   1      47.044  27.109  26.327  1.00  0.00    -0.248 NA
ATOM     15  C   UNL A   1      47.694  25.169  25.199  1.00  0.00     0.031 C 
ATOM     16  C   UNL A   1      42.855  25.503  26.454  1.00  0.00     0.029 A 
ATOM     17  N   UNL A   1      44.145  27.263  26.925  1.00  0.00    -0.354 N 
ATOM     18  C   UNL A   1      48.411  27.146  26.082  1.00  0.00     0.074 A 
ATOM     19  C   UNL A   1      48.770  25.868  25.507  1.00  0.00     0.031 C 
ATOM     20  C   UNL A   1      42.088  26.404  27.093  1.00  0.00     0.029 A 
ATOM     21  C   UNL A   1      42.907  27.557  27.453  1.00  0.00     0.049 A 
ATOM     22  H   UNL A   1      44.904  27.890  26.949  1.00  0.00     0.167 HD
ATOM     23  C   UNL A   1      49.281  28.169  26.266  1.00  0.00     0.034 A 
ATOM     24  C   UNL A   1      42.494  28.629  28.160  1.00  0.00     0.034 A 
ATOM     25  C   UNL A   1      48.897  29.431  26.839  1.00  0.00     0.049 A 
ATOM     26  C   UNL A   1      43.476  29.749  28.407  1.00  0.00     0.074 A 
ATOM     27  C   UNL A   1      49.664  30.559  27.056  1.00  0.00     0.029 A 
ATOM     28  N   UNL A   1      47.617  29.720  27.300  1.00  0.00    -0.354 N 
ATOM     29  N   UNL A   1      44.751  29.811  28.096  1.00  0.00    -0.248 NA
ATOM     30  C   UNL A   1      42.959  30.955  29.069  1.00  0.00     0.031 C 
ATOM     31  C   UNL A   1      48.859  31.516  27.687  1.00  0.00     0.029 A 
ATOM     32  C   UNL A   1      47.575  31.006  27.810  1.00  0.00     0.049 A 
ATOM     33  H   UNL A   1      46.852  29.101  27.269  1.00  0.00     0.167 HD
ATOM     34  C   UNL A   1      45.175  31.080  28.480  1.00  0.00     0.074 A 
ATOM     35  C   UNL A   1      44.024  31.746  29.056  1.00  0.00     0.031 C 
ATOM     36  C   UNL A   1      46.401  31.651  28.351  1.00  0.00     0.034 A 
BRANCH  23  37
ATOM     37  C   UNL A   1      50.709  27.906  25.853  1.00  0.00     0.023 A 
ATOM     38  C   UNL A   1      51.109  28.068  24.512  1.00  0.00     0.031 A 
ATOM     39  C   UNL A   1      51.624  27.326  26.746  1.00  0.00     0.131 A 
ATOM     40  C   UNL A   1      52.306  27.491  24.068  1.00  0.00     0.055 A 
ATOM     41  C   UNL A   1      52.871  26.864  26.318  1.00  0.00     0.041 A 
ATOM     42  F   UNL A   1      51.298  27.137  28.033  1.00  0.00    -0.206 F 
ATOM     43  C   UNL A   1      53.204  26.912  24.965  1.00  0.00     0.022 A 
BRANCH  40  44
ATOM     44  S   UNL A   1      52.530  27.268  22.278  1.00  0.00     0.124 S 
ATOM     45  O   UNL A   1      51.152  27.068  21.832  1.00  0.00    -0.237 OA
ATOM     46  O   UNL A   1      53.151  28.525  21.878  1.00  0.00    -0.237 OA
ATOM     47  O   UNL A   1      53.385  26.087  22.183  1.00  0.00    -0.744 OA
ENDBRANCH  40  44
ENDBRANCH  23  37
BRANCH  24  48
ATOM     48  C   UNL A   1      41.102  28.696  28.689  1.00  0.00     0.023 A 
ATOM     49  C   UNL A   1      40.833  28.587  30.064  1.00  0.00     0.031 A 
ATOM     50  C   UNL A   1      40.010  28.846  27.816  1.00  0.00     0.131 A 
ATOM     51  C   UNL A   1      39.504  28.593  30.522  1.00  0.00     0.055 A 
ATOM     52  C   UNL A   1      38.693  28.885  28.278  1.00  0.00     0.041 A 
ATOM     53  F   UNL A   1      40.213  28.967  26.495  1.00  0.00    -0.206 F 
ATOM     54  C   UNL A   1      38.432  28.747  29.638  1.00  0.00     0.022 A 
BRANCH  51  55
ATOM     55  S   UNL A   1      39.189  28.348  32.292  1.00  0.00     0.124 S 
ATOM     56  O   UNL A   1      40.525  28.050  32.795  1.00  0.00    -0.237 OA
ATOM     57  O   UNL A   1      38.631  29.639  32.682  1.00  0.00    -0.237 OA
ATOM     58  O   UNL A   1      38.247  27.232  32.322  1.00  0.00    -0.744 OA
ENDBRANCH  51  55
ENDBRANCH  24  48
BRANCH  36  59
ATOM     59  C   UNL A   1      46.538  33.095  28.753  1.00  0.00     0.023 A 
ATOM     60  C   UNL A   1      46.337  34.145  27.844  1.00  0.00     0.031 A 
ATOM     61  C   UNL A   1      46.808  33.414  30.097  1.00  0.00     0.131 A 
ATOM     62  C   UNL A   1      46.427  35.472  28.289  1.00  0.00     0.055 A 
ATOM     63  C   UNL A   1      46.854  34.734  30.541  1.00  0.00     0.041 A 
ATOM     64  F   UNL A   1      47.005  32.442  31.003  1.00  0.00    -0.206 F 
ATOM     65  C   UNL A   1      46.665  35.772  29.634  1.00  0.00     0.022 A 
BRANCH  62  66
ATOM     66  S   UNL A   1      46.246  36.815  27.082  1.00  0.00     0.124 S 
ATOM     67  O   UNL A   1      47.204  37.798  27.579  1.00  0.00    -0.237 OA
ATOM     68  O   UNL A   1      46.596  36.159  25.827  1.00  0.00    -0.237 OA
ATOM     69  O   UNL A   1      44.841  37.199  27.207  1.00  0.00    -0.744 OA
ENDBRANCH  62  66
ENDBRANCH  36  59
ENDBRANCH  10  11
ENDBRANCH   3   5
ENDBRANCH   2   3
ENDBRANCH   1   2
BRANCH   1  70
ATOM     70  C   UNL A   1      41.966  19.221  26.239  1.00  0.00     0.274 C 
BRANCH  70  71
ATOM     71  O   UNL A   1      42.154  20.524  26.822  1.00  0.00    -0.462 OA
BRANCH  71  72
ATOM     72  C   UNL A   1      41.460  21.538  26.227  1.00  0.00     0.312 C 
ATOM     73  O   UNL A   1      41.937  22.279  25.372  1.00  0.00    -0.252 OA
BRANCH  72  74
ATOM     74  C   UNL A   1      40.075  21.753  26.849  1.00  0.00     0.123 C 
ATOM     75  C   UNL A   1      39.944  23.176  27.317  1.00  0.00    -0.015 C 
ATOM     76  C   UNL A   1      38.864  21.589  25.922  1.00  0.00     0.043 C 
ATOM     77  C   UNL A   1      39.002  23.848  26.651  1.00  0.00    -0.011 C 
ATOM     78  C   UNL A   1      38.316  22.991  25.654  1.00  0.00     0.093 C 
BRANCH  78  79
ATOM     79  N   UNL A   1      36.865  23.043  25.678  1.00  0.00    -0.204 NA
ATOM     80  H   UNL A   1      36.631  23.666  26.451  1.00  0.00     0.142 HD
BRANCH  79  81
ATOM     81  S   UNL A   1      35.891  23.522  24.414  1.00  0.00     0.244 S 
ATOM     82  O   UNL A   1      35.112  24.652  24.863  1.00  0.00    -0.207 OA
ATOM     83  O   UNL A   1      36.693  23.579  23.212  1.00  0.00    -0.207 OA
BRANCH  81  84
ATOM     84  C   UNL A   1      34.777  22.166  24.263  1.00  0.00     0.121 A 
ATOM     85  C   UNL A   1      34.937  21.041  25.084  1.00  0.00     0.028 A 
ATOM     86  C   UNL A   1      33.686  22.277  23.407  1.00  0.00     0.181 A 
ATOM     87  C   UNL A   1      33.963  20.044  25.075  1.00  0.00     0.044 A 
ATOM     88  C   UNL A   1      32.727  21.273  23.393  1.00  0.00     0.195 A 
ATOM     89  F   UNL A   1      33.509  23.359  22.636  1.00  0.00    -0.202 F 
ATOM     90  C   UNL A   1      32.861  20.171  24.232  1.00  0.00     0.161 A 
ATOM     91  F   UNL A   1      31.652  21.381  22.600  1.00  0.00    -0.200 F 
ATOM     92  F   UNL A   1      31.912  19.225  24.254  1.00  0.00    -0.204 F 
ENDBRANCH  81  84
ENDBRANCH  79  81
ENDBRANCH  78  79
ENDBRANCH  72  74
ENDBRANCH  71  72
ENDBRANCH  70  71
ENDBRANCH   1  70
TORSDOF 17
ENDMDL
MODEL 3
REMARK VINA RESULT:     -11.2      2.541      7.898
REMARK SMILES O=C(OCCOC(=O)[C@H]1C=C[C@H](NS(=O)(=O)c2ccc(F)c(F)c2F)C1)c1ccc(-c2c3nc(c(-c4cc(S(=O)(=O)[O-])ccc4F)c4ccc([nH]4)c(-c4cc(S(=O)(=O)[O-])ccc4F)c4nc(c(-c5cc(S(=O)(=O)[O-])ccc5F)c5ccc2[nH]5)C=C4)C=C3)cc1
REMARK SMILES IDX 4 1 3 2 2 3 1 4 27 5 28 6 89 7 29 8 88 9 30 10 31 11 32 12
REMARK SMILES IDX 82 13 33 14 87 15 81 16 83 17 34 18 86 19 80 20 79 21 35 23
REMARK SMILES IDX 67 24 47 25 66 26 48 27 51 28 65 29 84 30 49 31 50 32 64 34
REMARK SMILES IDX 85 35 52 36 36 37 37 38 45 39 38 40 44 41 46 42 43 43 39 44
REMARK SMILES IDX 40 45 41 46 42 47 68 48 69 49 77 50 70 51 76 52 78 53 75 54
REMARK SMILES IDX 71 55 72 56 73 57 74 58 53 59 54 60 62 61 55 62 61 63 63 64
REMARK SMILES IDX 60 65 56 66 57 67 58 68 59 69 5 70 6 71 7 72 8 73 9 74 10 75
REMARK SMILES IDX 26 76 11 77 12 78 13 79 14 81 15 82 16 83 17 84 18 85 24 86
REMARK SMILES IDX 19 87 22 88 25 89 20 90 23 91 21 92
REMARK H PARENT 83 22 51 33 13 80
REMARK Flexibility Score: inf
ROOT
ATOM      1  C   UNL A   1      35.732  21.466  24.724  1.00  0.00     0.275 C 
ENDROOT
BRANCH   1   2
ATOM      2  O   UNL A   1      36.663  21.443  25.812  1.00  0.00    -0.458 OA
BRANCH   2   3
ATOM      3  C   UNL A   1      38.015  21.386  25.753  1.00  0.00     0.338 C 
ATOM      4  O   UNL A   1      38.534  20.339  25.367  1.00  0.00    -0.246 OA
BRANCH   3   5
ATOM      5  C   UNL A   1      38.909  22.447  26.326  1.00  0.00     0.060 A 
ATOM      6  C   UNL A   1      40.054  22.269  27.111  1.00  0.00     0.016 A 
ATOM      7  C   UNL A   1      38.554  23.765  25.996  1.00  0.00     0.016 A 
ATOM      8  C   UNL A   1      40.879  23.350  27.462  1.00  0.00     0.010 A 
ATOM      9  C   UNL A   1      39.387  24.841  26.313  1.00  0.00     0.010 A 
ATOM     10  C   UNL A   1      40.570  24.639  27.035  1.00  0.00    -0.014 A 
BRANCH  10  11
ATOM     11  C   UNL A   1      41.371  25.817  27.447  1.00  0.00     0.031 A 
ATOM     12  C   UNL A   1      40.669  26.889  28.226  1.00  0.00     0.074 A 
ATOM     13  C   UNL A   1      42.648  25.981  27.052  1.00  0.00     0.049 A 
ATOM     14  N   UNL A   1      41.062  28.095  28.530  1.00  0.00    -0.248 NA
ATOM     15  C   UNL A   1      39.305  26.560  28.668  1.00  0.00     0.031 C 
ATOM     16  C   UNL A   1      43.434  25.015  26.286  1.00  0.00     0.029 A 
ATOM     17  N   UNL A   1      43.498  27.049  27.203  1.00  0.00    -0.354 N 
ATOM     18  C   UNL A   1      39.981  28.677  29.181  1.00  0.00     0.074 A 
ATOM     19  C   UNL A   1      38.890  27.731  29.114  1.00  0.00     0.031 C 
ATOM     20  C   UNL A   1      44.627  25.556  25.981  1.00  0.00     0.029 A 
ATOM     21  C   UNL A   1      44.692  26.906  26.532  1.00  0.00     0.049 A 
ATOM     22  H   UNL A   1      43.273  27.843  27.741  1.00  0.00     0.167 HD
ATOM     23  C   UNL A   1      39.918  29.869  29.824  1.00  0.00     0.034 A 
ATOM     24  C   UNL A   1      45.710  27.775  26.372  1.00  0.00     0.034 A 
ATOM     25  C   UNL A   1      41.019  30.791  29.876  1.00  0.00     0.049 A 
ATOM     26  C   UNL A   1      45.621  29.122  27.049  1.00  0.00     0.074 A 
ATOM     27  C   UNL A   1      41.102  32.014  30.513  1.00  0.00     0.029 A 
ATOM     28  N   UNL A   1      42.241  30.584  29.243  1.00  0.00    -0.354 N 
ATOM     29  N   UNL A   1      44.624  29.634  27.737  1.00  0.00    -0.248 NA
ATOM     30  C   UNL A   1      46.799  29.994  26.959  1.00  0.00     0.031 C 
ATOM     31  C   UNL A   1      42.359  32.565  30.231  1.00  0.00     0.029 A 
ATOM     32  C   UNL A   1      43.081  31.660  29.467  1.00  0.00     0.049 A 
ATOM     33  H   UNL A   1      42.474  29.787  28.713  1.00  0.00     0.167 HD
ATOM     34  C   UNL A   1      45.075  30.866  28.201  1.00  0.00     0.074 A 
ATOM     35  C   UNL A   1      46.428  31.026  27.706  1.00  0.00     0.031 C 
ATOM     36  C   UNL A   1      44.437  31.775  28.982  1.00  0.00     0.034 A 
BRANCH  23  37
ATOM     37  C   UNL A   1      38.597  30.198  30.479  1.00  0.00     0.023 A 
ATOM     38  C   UNL A   1      37.596  30.886  29.767  1.00  0.00     0.031 A 
ATOM     39  C   UNL A   1      38.402  29.992  31.854  1.00  0.00     0.131 A 
ATOM     40  C   UNL A   1      36.543  31.498  30.460  1.00  0.00     0.055 A 
ATOM     41  C   UNL A   1      37.282  30.500  32.517  1.00  0.00     0.041 A 
ATOM     42  F   UNL A   1      39.325  29.352  32.588  1.00  0.00    -0.206 F 
ATOM     43  C   UNL A   1      36.363  31.290  31.828  1.00  0.00     0.022 A 
BRANCH  40  44
ATOM     44  S   UNL A   1      35.589  32.782  29.597  1.00  0.00     0.124 S 
ATOM     45  O   UNL A   1      35.595  32.280  28.224  1.00  0.00    -0.237 OA
ATOM     46  O   UNL A   1      34.304  32.737  30.285  1.00  0.00    -0.237 OA
ATOM     47  O   UNL A   1      36.374  33.995  29.812  1.00  0.00    -0.744 OA
ENDBRANCH  40  44
ENDBRANCH  23  37
BRANCH  24  48
ATOM     48  C   UNL A   1      46.892  27.412  25.537  1.00  0.00     0.023 A 
ATOM     49  C   UNL A   1      47.000  27.829  24.199  1.00  0.00     0.031 A 
ATOM     50  C   UNL A   1      47.923  26.616  26.064  1.00  0.00     0.131 A 
ATOM     51  C   UNL A   1      48.098  27.416  23.424  1.00  0.00     0.055 A 
ATOM     52  C   UNL A   1      49.029  26.237  25.299  1.00  0.00     0.041 A 
ATOM     53  F   UNL A   1      47.874  26.202  27.339  1.00  0.00    -0.206 F 
ATOM     54  C   UNL A   1      49.115  26.628  23.967  1.00  0.00     0.022 A 
BRANCH  51  55
ATOM     55  S   UNL A   1      48.155  27.888  21.672  1.00  0.00     0.124 S 
ATOM     56  O   UNL A   1      46.872  28.559  21.501  1.00  0.00    -0.237 OA
ATOM     57  O   UNL A   1      49.337  28.743  21.627  1.00  0.00    -0.237 OA
ATOM     58  O   UNL A   1      48.288  26.609  20.977  1.00  0.00    -0.744 OA
ENDBRANCH  51  55
ENDBRANCH  24  48
BRANCH  36  59
ATOM     59  C   UNL A   1      45.223  32.978  29.429  1.00  0.00     0.023 A 
ATOM     60  C   UNL A   1      46.013  32.965  30.588  1.00  0.00     0.031 A 
ATOM     61  C   UNL A   1      45.227  34.136  28.628  1.00  0.00     0.131 A 
ATOM     62  C   UNL A   1      46.765  34.099  30.926  1.00  0.00     0.055 A 
ATOM     63  C   UNL A   1      46.010  35.243  28.947  1.00  0.00     0.041 A 
ATOM     64  F   UNL A   1      44.488  34.193  27.508  1.00  0.00    -0.206 F 
ATOM     65  C   UNL A   1      46.784  35.230  30.103  1.00  0.00     0.022 A 
BRANCH  62  66
ATOM     66  S   UNL A   1      47.716  34.092  32.472  1.00  0.00     0.124 S 
ATOM     67  O   UNL A   1      48.721  33.069  32.203  1.00  0.00    -0.237 OA
ATOM     68  O   UNL A   1      48.204  35.465  32.548  1.00  0.00    -0.237 OA
ATOM     69  O   UNL A   1      46.722  33.735  33.483  1.00  0.00    -0.744 OA
ENDBRANCH  62  66
ENDBRANCH  36  59
ENDBRANCH  10  11
ENDBRANCH   3   5
ENDBRANCH   2   3
ENDBRANCH   1   2
BRANCH   1  70
ATOM     70  C   UNL A   1      34.597  20.448  24.857  1.00  0.00     0.274 C 
BRANCH  70  71
ATOM     71  O   UNL A   1      33.597  20.787  25.835  1.00  0.00    -0.462 OA
BRANCH  71  72
ATOM     72  C   UNL A   1      32.310  20.787  25.381  1.00  0.00     0.312 C 
ATOM     73  O   UNL A   1      31.854  19.931  24.626  1.00  0.00    -0.252 OA
BRANCH  72  74
ATOM     74  C   UNL A   1      31.538  22.049  25.785  1.00  0.00     0.123 C 
ATOM     75  C   UNL A   1      32.299  22.789  26.851  1.00  0.00    -0.015 C 
ATOM     76  C   UNL A   1      31.343  23.119  24.705  1.00  0.00     0.043 C 
ATOM     77  C   UNL A   1      32.710  23.992  26.443  1.00  0.00    -0.011 C 
ATOM     78  C   UNL A   1      32.271  24.283  25.056  1.00  0.00     0.093 C 
BRANCH  78  79
ATOM     79  N   UNL A   1      31.650  25.579  24.857  1.00  0.00    -0.204 NA
ATOM     80  H   UNL A   1      31.668  26.030  25.771  1.00  0.00     0.142 HD
BRANCH  79  81
ATOM     81  S   UNL A   1      32.162  26.744  23.781  1.00  0.00     0.244 S 
ATOM     82  O   UNL A   1      33.441  26.328  23.258  1.00  0.00    -0.207 OA
ATOM     83  O   UNL A   1      31.058  27.085  22.913  1.00  0.00    -0.207 OA
BRANCH  81  84
ATOM     84  C   UNL A   1      32.471  28.120  24.838  1.00  0.00     0.121 A 
ATOM     85  C   UNL A   1      31.629  29.240  24.784  1.00  0.00     0.028 A 
ATOM     86  C   UNL A   1      33.481  28.031  25.790  1.00  0.00     0.181 A 
ATOM     87  C   UNL A   1      31.778  30.254  25.729  1.00  0.00     0.044 A 
ATOM     88  C   UNL A   1      33.633  29.051  26.719  1.00  0.00     0.195 A 
ATOM     89  F   UNL A   1      34.276  26.954  25.867  1.00  0.00    -0.202 F 
ATOM     90  C   UNL A   1      32.778  30.148  26.694  1.00  0.00     0.161 A 
ATOM     91  F   UNL A   1      34.579  28.964  27.665  1.00  0.00    -0.200 F 
ATOM     92  F   UNL A   1      32.892  31.110  27.620  1.00  0.00    -0.204 F 
ENDBRANCH  81  84
ENDBRANCH  79  81
ENDBRANCH  78  79
ENDBRANCH  72  74
ENDBRANCH  71  72
ENDBRANCH  70  71
ENDBRANCH   1  70
TORSDOF 17
ENDMDL
