MODEL 1
REMARK VINA RESULT:     -11.0      0.000      0.000
REMARK SMILES O=C(OCCOC(=O)[C@@H]1[C@H](C(=O)NCc2ccncc2)[C@H]2C=C[C@@H]1O2)c1ccc(-c2c3nc(c(-c4cc(S(=O)(=O)[O-])ccc4F)c4ccc([nH]4)c(-c4cc(S(=O)(=O)[O-])ccc4F)c4nc(c(-c5cc(S(=O)(=O)[O-])ccc5F)c5ccc2[nH]5)C=C4)C=C3)cc1
REMARK SMILES IDX 4 1 3 2 2 3 1 4 26 5 27 6 88 7 28 8 87 9 29 10 30 11 31 12
REMARK SMILES IDX 81 13 32 14 86 15 80 16 82 17 33 18 85 19 79 20 78 21 34 23
REMARK SMILES IDX 66 24 46 25 65 26 47 27 50 28 64 29 83 30 48 31 49 32 63 34
REMARK SMILES IDX 84 35 51 36 35 37 36 38 44 39 37 40 43 41 45 42 42 43 38 44
REMARK SMILES IDX 39 45 40 46 41 47 67 48 68 49 76 50 69 51 75 52 77 53 74 54
REMARK SMILES IDX 70 55 71 56 72 57 73 58 52 59 53 60 61 61 54 62 60 63 62 64
REMARK SMILES IDX 59 65 55 66 56 67 57 68 58 69 5 70 6 71 7 72 8 73 9 74 10 75
REMARK SMILES IDX 24 76 21 77 23 78 25 79 22 80 11 81 12 82 13 83 14 85 15 86
REMARK SMILES IDX 16 87 20 88 17 89 19 90 18 91
REMARK H PARENT 82 22 50 33 13 84
REMARK Flexibility Score: inf
ROOT
ATOM      1  C   UNL A   1      41.013  20.860  26.889  1.00  0.00     0.275 C 
ENDROOT
BRANCH   1   2
ATOM      2  O   UNL A   1      39.694  21.400  27.105  1.00  0.00    -0.458 OA
BRANCH   2   3
ATOM      3  C   UNL A   1      39.138  22.463  26.481  1.00  0.00     0.338 C 
ATOM      4  O   UNL A   1      38.348  22.266  25.558  1.00  0.00    -0.246 OA
BRANCH   3   5
ATOM      5  C   UNL A   1      39.373  23.876  26.934  1.00  0.00     0.060 A 
ATOM      6  C   UNL A   1      39.290  24.338  28.247  1.00  0.00     0.016 A 
ATOM      7  C   UNL A   1      39.833  24.782  25.959  1.00  0.00     0.016 A 
ATOM      8  C   UNL A   1      39.739  25.617  28.605  1.00  0.00     0.010 A 
ATOM      9  C   UNL A   1      40.328  26.043  26.322  1.00  0.00     0.010 A 
ATOM     10  C   UNL A   1      40.303  26.466  27.662  1.00  0.00    -0.014 A 
BRANCH  10  11
ATOM     11  C   UNL A   1      40.647  27.867  28.028  1.00  0.00     0.031 A 
ATOM     12  C   UNL A   1      42.086  28.252  27.900  1.00  0.00     0.074 A 
ATOM     13  C   UNL A   1      39.737  28.788  28.409  1.00  0.00     0.049 A 
ATOM     14  N   UNL A   1      42.681  29.362  28.232  1.00  0.00    -0.248 NA
ATOM     15  C   UNL A   1      42.968  27.243  27.290  1.00  0.00     0.031 C 
ATOM     16  C   UNL A   1      38.292  28.616  28.375  1.00  0.00     0.029 A 
ATOM     17  N   UNL A   1      39.885  30.059  28.913  1.00  0.00    -0.354 N 
ATOM     18  C   UNL A   1      44.006  29.189  27.861  1.00  0.00     0.074 A 
ATOM     19  C   UNL A   1      44.144  27.833  27.379  1.00  0.00     0.031 C 
ATOM     20  C   UNL A   1      37.684  29.672  28.941  1.00  0.00     0.029 A 
ATOM     21  C   UNL A   1      38.703  30.630  29.342  1.00  0.00     0.049 A 
ATOM     22  H   UNL A   1      40.754  30.520  28.962  1.00  0.00     0.167 HD
ATOM     23  C   UNL A   1      45.007  30.098  27.872  1.00  0.00     0.034 A 
ATOM     24  C   UNL A   1      38.467  31.797  29.973  1.00  0.00     0.034 A 
ATOM     25  C   UNL A   1      44.844  31.437  28.368  1.00  0.00     0.049 A 
ATOM     26  C   UNL A   1      39.635  32.729  30.160  1.00  0.00     0.074 A 
ATOM     27  C   UNL A   1      45.787  32.442  28.466  1.00  0.00     0.029 A 
ATOM     28  N   UNL A   1      43.651  31.954  28.864  1.00  0.00    -0.354 N 
ATOM     29  N   UNL A   1      40.888  32.556  29.805  1.00  0.00    -0.248 NA
ATOM     30  C   UNL A   1      39.355  34.032  30.772  1.00  0.00     0.031 C 
ATOM     31  C   UNL A   1      45.185  33.537  29.093  1.00  0.00     0.029 A 
ATOM     32  C   UNL A   1      43.845  33.253  29.306  1.00  0.00     0.049 A 
ATOM     33  H   UNL A   1      42.796  31.469  28.896  1.00  0.00     0.167 HD
ATOM     34  C   UNL A   1      41.528  33.759  30.078  1.00  0.00     0.074 A 
ATOM     35  C   UNL A   1      40.523  34.641  30.639  1.00  0.00     0.031 C 
ATOM     36  C   UNL A   1      42.822  34.111  29.861  1.00  0.00     0.034 A 
BRANCH  23  37
ATOM     37  C   UNL A   1      46.348  29.609  27.392  1.00  0.00     0.023 A 
ATOM     38  C   UNL A   1      46.560  29.254  26.046  1.00  0.00     0.031 A 
ATOM     39  C   UNL A   1      47.370  29.338  28.316  1.00  0.00     0.131 A 
ATOM     40  C   UNL A   1      47.708  28.532  25.690  1.00  0.00     0.055 A 
ATOM     41  C   UNL A   1      48.557  28.713  27.933  1.00  0.00     0.041 A 
ATOM     42  F   UNL A   1      47.207  29.623  29.618  1.00  0.00    -0.206 F 
ATOM     43  C   UNL A   1      48.720  28.282  26.619  1.00  0.00     0.022 A 
BRANCH  40  44
ATOM     44  S   UNL A   1      47.751  27.731  24.061  1.00  0.00     0.124 S 
ATOM     45  O   UNL A   1      49.179  27.766  23.754  1.00  0.00    -0.237 OA
ATOM     46  O   UNL A   1      47.191  26.414  24.341  1.00  0.00    -0.237 OA
ATOM     47  O   UNL A   1      46.920  28.600  23.230  1.00  0.00    -0.744 OA
ENDBRANCH  40  44
ENDBRANCH  23  37
BRANCH  24  48
ATOM     48  C   UNL A   1      37.097  32.176  30.439  1.00  0.00     0.023 A 
ATOM     49  C   UNL A   1      36.223  32.909  29.620  1.00  0.00     0.031 A 
ATOM     50  C   UNL A   1      36.669  31.878  31.746  1.00  0.00     0.131 A 
ATOM     51  C   UNL A   1      34.996  33.371  30.131  1.00  0.00     0.055 A 
ATOM     52  C   UNL A   1      35.430  32.303  32.237  1.00  0.00     0.041 A 
ATOM     53  F   UNL A   1      37.456  31.172  32.574  1.00  0.00    -0.206 F 
ATOM     54  C   UNL A   1      34.592  33.068  31.433  1.00  0.00     0.022 A 
BRANCH  51  55
ATOM     55  S   UNL A   1      33.971  34.451  29.092  1.00  0.00     0.124 S 
ATOM     56  O   UNL A   1      33.230  35.210  30.093  1.00  0.00    -0.237 OA
ATOM     57  O   UNL A   1      34.980  35.189  28.341  1.00  0.00    -0.237 OA
ATOM     58  O   UNL A   1      33.175  33.511  28.306  1.00  0.00    -0.744 OA
ENDBRANCH  51  55
ENDBRANCH  24  48
BRANCH  36  59
ATOM     59  C   UNL A   1      43.197  35.537  30.170  1.00  0.00     0.023 A 
ATOM     60  C   UNL A   1      43.094  36.554  29.208  1.00  0.00     0.031 A 
ATOM     61  C   UNL A   1      43.674  35.875  31.448  1.00  0.00     0.131 A 
ATOM     62  C   UNL A   1      43.530  37.850  29.520  1.00  0.00     0.055 A 
ATOM     63  C   UNL A   1      44.029  37.183  31.776  1.00  0.00     0.041 A 
ATOM     64  F   UNL A   1      43.797  34.939  32.404  1.00  0.00    -0.206 F 
ATOM     65  C   UNL A   1      43.974  38.176  30.804  1.00  0.00     0.022 A 
BRANCH  62  66
ATOM     66  S   UNL A   1      43.619  39.072  28.185  1.00  0.00     0.124 S 
ATOM     67  O   UNL A   1      42.310  39.711  28.273  1.00  0.00    -0.237 OA
ATOM     68  O   UNL A   1      44.757  39.892  28.589  1.00  0.00    -0.237 OA
ATOM     69  O   UNL A   1      43.835  38.259  26.990  1.00  0.00    -0.744 OA
ENDBRANCH  62  66
ENDBRANCH  36  59
ENDBRANCH  10  11
ENDBRANCH   3   5
ENDBRANCH   2   3
ENDBRANCH   1   2
BRANCH   1  70
ATOM     70  C   UNL A   1      42.171  21.685  27.455  1.00  0.00     0.274 C 
BRANCH  70  71
ATOM     71  O   UNL A   1      42.661  22.702  26.560  1.00  0.00    -0.462 OA
BRANCH  71  72
ATOM     72  C   UNL A   1      43.321  22.240  25.464  1.00  0.00     0.312 C 
ATOM     73  O   UNL A   1      43.089  22.610  24.313  1.00  0.00    -0.252 OA
BRANCH  72  74
ATOM     74  C   UNL A   1      44.349  21.170  25.735  1.00  0.00     0.147 C 
ATOM     75  C   UNL A   1      45.826  21.590  25.531  1.00  0.00     0.128 C 
ATOM     76  C   UNL A   1      44.256  19.944  24.844  1.00  0.00     0.157 C 
ATOM     77  C   UNL A   1      46.346  20.493  24.611  1.00  0.00     0.155 C 
ATOM     78  C   UNL A   1      45.042  18.795  25.392  1.00  0.00     0.004 C 
ATOM     79  O   UNL A   1      45.160  20.325  23.795  1.00  0.00    -0.365 OA
ATOM     80  C   UNL A   1      46.332  19.141  25.275  1.00  0.00     0.004 C 
BRANCH  75  81
ATOM     81  C   UNL A   1      46.064  23.019  25.069  1.00  0.00     0.227 C 
ATOM     82  O   UNL A   1      46.329  23.191  23.869  1.00  0.00    -0.275 OA
ATOM     83  N   UNL A   1      46.088  24.149  25.807  1.00  0.00    -0.352 N 
ATOM     84  H   UNL A   1      46.390  24.920  25.276  1.00  0.00     0.163 HD
BRANCH  83  85
ATOM     85  C   UNL A   1      45.784  24.535  27.184  1.00  0.00     0.151 C 
BRANCH  85  86
ATOM     86  C   UNL A   1      47.011  24.955  27.976  1.00  0.00    -0.026 A 
ATOM     87  C   UNL A   1      46.847  25.582  29.218  1.00  0.00     0.025 A 
ATOM     88  C   UNL A   1      48.322  24.775  27.532  1.00  0.00     0.025 A 
ATOM     89  C   UNL A   1      47.955  25.851  30.010  1.00  0.00     0.111 A 
ATOM     90  C   UNL A   1      49.374  25.093  28.384  1.00  0.00     0.111 A 
ATOM     91  N   UNL A   1      49.219  25.588  29.628  1.00  0.00    -0.265 NA
ENDBRANCH  85  86
ENDBRANCH  83  85
ENDBRANCH  75  81
ENDBRANCH  72  74
ENDBRANCH  71  72
ENDBRANCH  70  71
ENDBRANCH   1  70
TORSDOF 17
ENDMDL
MODEL 2
REMARK VINA RESULT:     -10.9      6.027     12.600
REMARK SMILES O=C(OCCOC(=O)[C@@H]1[C@H](C(=O)NCc2ccncc2)[C@H]2C=C[C@@H]1O2)c1ccc(-c2c3nc(c(-c4cc(S(=O)(=O)[O-])ccc4F)c4ccc([nH]4)c(-c4cc(S(=O)(=O)[O-])ccc4F)c4nc(c(-c5cc(S(=O)(=O)[O-])ccc5F)c5ccc2[nH]5)C=C4)C=C3)cc1
REMARK SMILES IDX 4 1 3 2 2 3 1 4 26 5 27 6 88 7 28 8 87 9 29 10 30 11 31 12
REMARK SMILES IDX 81 13 32 14 86 15 80 16 82 17 33 18 85 19 79 20 78 21 34 23
REMARK SMILES IDX 66 24 46 25 65 26 47 27 50 28 64 29 83 30 48 31 49 32 63 34
REMARK SMILES IDX 84 35 51 36 35 37 36 38 44 39 37 40 43 41 45 42 42 43 38 44
REMARK SMILES IDX 39 45 40 46 41 47 67 48 68 49 76 50 69 51 75 52 77 53 74 54
REMARK SMILES IDX 70 55 71 56 72 57 73 58 52 59 53 60 61 61 54 62 60 63 62 64
REMARK SMILES IDX 59 65 55 66 56 67 57 68 58 69 5 70 6 71 7 72 8 73 9 74 10 75
REMARK SMILES IDX 24 76 21 77 23 78 25 79 22 80 11 81 12 82 13 83 14 85 15 86
REMARK SMILES IDX 16 87 20 88 17 89 19 90 18 91
REMARK H PARENT 82 22 50 33 13 84
REMARK Flexibility Score: inf
ROOT
ATOM      1  C   UNL A   1      32.231  29.689  26.894  1.00  0.00     0.275 C 
ENDROOT
BRANCH   1   2
ATOM      2  O   UNL A   1      33.409  30.451  26.563  1.00  0.00    -0.458 OA
BRANCH   2   3
ATOM      3  C   UNL A   1      34.298  30.991  27.427  1.00  0.00     0.338 C 
ATOM      4  O   UNL A   1      34.040  32.076  27.947  1.00  0.00    -0.246 OA
BRANCH   3   5
ATOM      5  C   UNL A   1      35.546  30.271  27.853  1.00  0.00     0.060 A 
ATOM      6  C   UNL A   1      36.744  30.220  27.141  1.00  0.00     0.016 A 
ATOM      7  C   UNL A   1      35.536  29.699  29.140  1.00  0.00     0.016 A 
ATOM      8  C   UNL A   1      37.918  29.714  27.715  1.00  0.00     0.010 A 
ATOM      9  C   UNL A   1      36.720  29.237  29.734  1.00  0.00     0.010 A 
ATOM     10  C   UNL A   1      37.934  29.259  29.027  1.00  0.00    -0.014 A 
BRANCH  10  11
ATOM     11  C   UNL A   1      39.150  28.598  29.575  1.00  0.00     0.031 A 
ATOM     12  C   UNL A   1      39.697  29.166  30.846  1.00  0.00     0.074 A 
ATOM     13  C   UNL A   1      39.729  27.513  29.020  1.00  0.00     0.049 A 
ATOM     14  N   UNL A   1      40.784  28.855  31.493  1.00  0.00    -0.248 NA
ATOM     15  C   UNL A   1      38.886  30.217  31.480  1.00  0.00     0.031 C 
ATOM     16  C   UNL A   1      39.188  26.735  27.914  1.00  0.00     0.029 A 
ATOM     17  N   UNL A   1      40.913  26.872  29.298  1.00  0.00    -0.354 N 
ATOM     18  C   UNL A   1      40.781  29.666  32.617  1.00  0.00     0.074 A 
ATOM     19  C   UNL A   1      39.644  30.551  32.507  1.00  0.00     0.031 C 
ATOM     20  C   UNL A   1      40.073  25.804  27.524  1.00  0.00     0.029 A 
ATOM     21  C   UNL A   1      41.240  25.885  28.389  1.00  0.00     0.049 A 
ATOM     22  H   UNL A   1      41.476  27.095  30.074  1.00  0.00     0.167 HD
ATOM     23  C   UNL A   1      41.623  29.638  33.675  1.00  0.00     0.034 A 
ATOM     24  C   UNL A   1      42.347  25.124  28.274  1.00  0.00     0.034 A 
ATOM     25  C   UNL A   1      42.754  28.754  33.754  1.00  0.00     0.049 A 
ATOM     26  C   UNL A   1      43.382  25.243  29.362  1.00  0.00     0.074 A 
ATOM     27  C   UNL A   1      43.702  28.653  34.753  1.00  0.00     0.029 A 
ATOM     28  N   UNL A   1      43.095  27.822  32.779  1.00  0.00    -0.354 N 
ATOM     29  N   UNL A   1      43.370  26.015  30.425  1.00  0.00    -0.248 NA
ATOM     30  C   UNL A   1      44.543  24.352  29.275  1.00  0.00     0.031 C 
ATOM     31  C   UNL A   1      44.658  27.717  34.346  1.00  0.00     0.029 A 
ATOM     32  C   UNL A   1      44.262  27.168  33.136  1.00  0.00     0.049 A 
ATOM     33  H   UNL A   1      42.582  27.652  31.956  1.00  0.00     0.167 HD
ATOM     34  C   UNL A   1      44.481  25.646  31.172  1.00  0.00     0.074 A 
ATOM     35  C   UNL A   1      45.144  24.592  30.430  1.00  0.00     0.031 C 
ATOM     36  C   UNL A   1      44.902  26.117  32.376  1.00  0.00     0.034 A 
BRANCH  23  37
ATOM     37  C   UNL A   1      41.354  30.648  34.760  1.00  0.00     0.023 A 
ATOM     38  C   UNL A   1      40.209  30.559  35.576  1.00  0.00     0.031 A 
ATOM     39  C   UNL A   1      42.156  31.795  34.868  1.00  0.00     0.131 A 
ATOM     40  C   UNL A   1      39.832  31.654  36.366  1.00  0.00     0.055 A 
ATOM     41  C   UNL A   1      41.829  32.838  35.736  1.00  0.00     0.041 A 
ATOM     42  F   UNL A   1      43.238  31.948  34.089  1.00  0.00    -0.206 F 
ATOM     43  C   UNL A   1      40.647  32.783  36.471  1.00  0.00     0.022 A 
BRANCH  40  44
ATOM     44  S   UNL A   1      38.156  31.674  37.065  1.00  0.00     0.124 S 
ATOM     45  O   UNL A   1      37.835  30.248  37.096  1.00  0.00    -0.237 OA
ATOM     46  O   UNL A   1      38.360  32.310  38.360  1.00  0.00    -0.237 OA
ATOM     47  O   UNL A   1      37.391  32.457  36.097  1.00  0.00    -0.744 OA
ENDBRANCH  40  44
ENDBRANCH  23  37
BRANCH  24  48
ATOM     48  C   UNL A   1      42.531  24.171  27.136  1.00  0.00     0.023 A 
ATOM     49  C   UNL A   1      42.004  22.870  27.179  1.00  0.00     0.031 A 
ATOM     50  C   UNL A   1      43.310  24.522  26.017  1.00  0.00     0.131 A 
ATOM     51  C   UNL A   1      42.308  21.950  26.159  1.00  0.00     0.055 A 
ATOM     52  C   UNL A   1      43.576  23.617  24.984  1.00  0.00     0.041 A 
ATOM     53  F   UNL A   1      43.834  25.754  25.914  1.00  0.00    -0.206 F 
ATOM     54  C   UNL A   1      43.086  22.317  25.060  1.00  0.00     0.022 A 
BRANCH  51  55
ATOM     55  S   UNL A   1      41.741  20.234  26.336  1.00  0.00     0.124 S 
ATOM     56  O   UNL A   1      42.242  19.890  27.661  1.00  0.00    -0.237 OA
ATOM     57  O   UNL A   1      40.295  20.384  26.213  1.00  0.00    -0.237 OA
ATOM     58  O   UNL A   1      42.391  19.545  25.223  1.00  0.00    -0.744 OA
ENDBRANCH  51  55
ENDBRANCH  24  48
BRANCH  36  59
ATOM     59  C   UNL A   1      46.099  25.439  32.988  1.00  0.00     0.023 A 
ATOM     60  C   UNL A   1      45.968  24.310  33.812  1.00  0.00     0.031 A 
ATOM     61  C   UNL A   1      47.389  25.942  32.747  1.00  0.00     0.131 A 
ATOM     62  C   UNL A   1      47.105  23.762  34.423  1.00  0.00     0.055 A 
ATOM     63  C   UNL A   1      48.523  25.342  33.293  1.00  0.00     0.041 A 
ATOM     64  F   UNL A   1      47.570  27.023  31.971  1.00  0.00    -0.206 F 
ATOM     65  C   UNL A   1      48.383  24.255  34.150  1.00  0.00     0.022 A 
BRANCH  62  66
ATOM     66  S   UNL A   1      46.872  22.470  35.672  1.00  0.00     0.124 S 
ATOM     67  O   UNL A   1      46.613  21.295  34.846  1.00  0.00    -0.237 OA
ATOM     68  O   UNL A   1      48.150  22.484  36.377  1.00  0.00    -0.237 OA
ATOM     69  O   UNL A   1      45.731  22.948  36.450  1.00  0.00    -0.744 OA
ENDBRANCH  62  66
ENDBRANCH  36  59
ENDBRANCH  10  11
ENDBRANCH   3   5
ENDBRANCH   2   3
ENDBRANCH   1   2
BRANCH   1  70
ATOM     70  C   UNL A   1      32.444  28.187  27.099  1.00  0.00     0.274 C 
BRANCH  70  71
ATOM     71  O   UNL A   1      31.317  27.376  26.714  1.00  0.00    -0.462 OA
BRANCH  71  72
ATOM     72  C   UNL A   1      31.598  26.064  26.494  1.00  0.00     0.312 C 
ATOM     73  O   UNL A   1      30.912  25.132  26.918  1.00  0.00    -0.252 OA
BRANCH  72  74
ATOM     74  C   UNL A   1      32.867  25.796  25.725  1.00  0.00     0.147 C 
ATOM     75  C   UNL A   1      32.722  25.741  24.185  1.00  0.00     0.128 C 
ATOM     76  C   UNL A   1      33.530  24.460  26.016  1.00  0.00     0.157 C 
ATOM     77  C   UNL A   1      33.387  24.412  23.847  1.00  0.00     0.155 C 
ATOM     78  C   UNL A   1      34.939  24.415  25.516  1.00  0.00     0.004 C 
ATOM     79  O   UNL A   1      32.926  23.652  24.993  1.00  0.00    -0.365 OA
ATOM     80  C   UNL A   1      34.857  24.413  24.178  1.00  0.00     0.004 C 
BRANCH  75  81
ATOM     81  C   UNL A   1      31.320  25.947  23.631  1.00  0.00     0.227 C 
ATOM     82  O   UNL A   1      30.637  24.932  23.424  1.00  0.00    -0.275 OA
ATOM     83  N   UNL A   1      30.720  27.099  23.268  1.00  0.00    -0.352 N 
ATOM     84  H   UNL A   1      29.858  26.932  22.823  1.00  0.00     0.163 HD
BRANCH  83  85
ATOM     85  C   UNL A   1      31.006  28.530  23.358  1.00  0.00     0.151 C 
BRANCH  85  86
ATOM     86  C   UNL A   1      29.759  29.398  23.304  1.00  0.00    -0.026 A 
ATOM     87  C   UNL A   1      28.591  28.889  22.723  1.00  0.00     0.025 A 
ATOM     88  C   UNL A   1      29.701  30.707  23.787  1.00  0.00     0.025 A 
ATOM     89  C   UNL A   1      27.411  29.619  22.785  1.00  0.00     0.111 A 
ATOM     90  C   UNL A   1      28.481  31.373  23.789  1.00  0.00     0.111 A 
ATOM     91  N   UNL A   1      27.327  30.843  23.338  1.00  0.00    -0.265 NA
ENDBRANCH  85  86
ENDBRANCH  83  85
ENDBRANCH  75  81
ENDBRANCH  72  74
ENDBRANCH  71  72
ENDBRANCH  70  71
ENDBRANCH   1  70
TORSDOF 17
ENDMDL
MODEL 3
REMARK VINA RESULT:     -10.7      3.864      6.887
REMARK SMILES O=C(OCCOC(=O)[C@@H]1[C@H](C(=O)NCc2ccncc2)[C@H]2C=C[C@@H]1O2)c1ccc(-c2c3nc(c(-c4cc(S(=O)(=O)[O-])ccc4F)c4ccc([nH]4)c(-c4cc(S(=O)(=O)[O-])ccc4F)c4nc(c(-c5cc(S(=O)(=O)[O-])ccc5F)c5ccc2[nH]5)C=C4)C=C3)cc1
REMARK SMILES IDX 4 1 3 2 2 3 1 4 26 5 27 6 88 7 28 8 87 9 29 10 30 11 31 12
REMARK SMILES IDX 81 13 32 14 86 15 80 16 82 17 33 18 85 19 79 20 78 21 34 23
REMARK SMILES IDX 66 24 46 25 65 26 47 27 50 28 64 29 83 30 48 31 49 32 63 34
REMARK SMILES IDX 84 35 51 36 35 37 36 38 44 39 37 40 43 41 45 42 42 43 38 44
REMARK SMILES IDX 39 45 40 46 41 47 67 48 68 49 76 50 69 51 75 52 77 53 74 54
REMARK SMILES IDX 70 55 71 56 72 57 73 58 52 59 53 60 61 61 54 62 60 63 62 64
REMARK SMILES IDX 59 65 55 66 56 67 57 68 58 69 5 70 6 71 7 72 8 73 9 74 10 75
REMARK SMILES IDX 24 76 21 77 23 78 25 79 22 80 11 81 12 82 13 83 14 85 15 86
REMARK SMILES IDX 16 87 20 88 17 89 19 90 18 91
REMARK H PARENT 82 22 50 33 13 84
REMARK Flexibility Score: inf
ROOT
ATOM      1  C   UNL A   1      37.706  20.449  24.992  1.00  0.00     0.275 C 
ENDROOT
BRANCH   1   2
ATOM      2  O   UNL A   1      38.514  21.604  25.295  1.00  0.00    -0.458 OA
BRANCH   2   3
ATOM      3  C   UNL A   1      39.386  21.740  26.320  1.00  0.00     0.338 C 
ATOM      4  O   UNL A   1      39.951  20.739  26.758  1.00  0.00    -0.246 OA
BRANCH   3   5
ATOM      5  C   UNL A   1      39.766  23.081  26.881  1.00  0.00     0.060 A 
ATOM      6  C   UNL A   1      40.605  23.302  27.972  1.00  0.00     0.016 A 
ATOM      7  C   UNL A   1      39.329  24.211  26.163  1.00  0.00     0.016 A 
ATOM      8  C   UNL A   1      41.078  24.584  28.287  1.00  0.00     0.010 A 
ATOM      9  C   UNL A   1      39.839  25.487  26.446  1.00  0.00     0.010 A 
ATOM     10  C   UNL A   1      40.740  25.681  27.506  1.00  0.00    -0.014 A 
BRANCH  10  11
ATOM     11  C   UNL A   1      41.136  27.051  27.932  1.00  0.00     0.031 A 
ATOM     12  C   UNL A   1      42.581  27.404  27.774  1.00  0.00     0.074 A 
ATOM     13  C   UNL A   1      40.266  27.976  28.390  1.00  0.00     0.049 A 
ATOM     14  N   UNL A   1      43.218  28.479  28.141  1.00  0.00    -0.248 NA
ATOM     15  C   UNL A   1      43.412  26.405  27.083  1.00  0.00     0.031 C 
ATOM     16  C   UNL A   1      38.816  27.845  28.398  1.00  0.00     0.029 A 
ATOM     17  N   UNL A   1      40.467  29.214  28.953  1.00  0.00    -0.354 N 
ATOM     18  C   UNL A   1      44.525  28.289  27.717  1.00  0.00     0.074 A 
ATOM     19  C   UNL A   1      44.608  26.958  27.161  1.00  0.00     0.031 C 
ATOM     20  C   UNL A   1      38.258  28.885  29.037  1.00  0.00     0.029 A 
ATOM     21  C   UNL A   1      39.317  29.793  29.451  1.00  0.00     0.049 A 
ATOM     22  H   UNL A   1      41.350  29.648  28.996  1.00  0.00     0.167 HD
ATOM     23  C   UNL A   1      45.551  29.170  27.739  1.00  0.00     0.034 A 
ATOM     24  C   UNL A   1      39.135  30.933  30.149  1.00  0.00     0.034 A 
ATOM     25  C   UNL A   1      45.442  30.485  28.308  1.00  0.00     0.049 A 
ATOM     26  C   UNL A   1      40.335  31.822  30.343  1.00  0.00     0.074 A 
ATOM     27  C   UNL A   1      46.417  31.457  28.425  1.00  0.00     0.029 A 
ATOM     28  N   UNL A   1      44.282  31.008  28.871  1.00  0.00    -0.354 N 
ATOM     29  N   UNL A   1      41.570  31.634  29.936  1.00  0.00    -0.248 NA
ATOM     30  C   UNL A   1      40.112  33.098  31.030  1.00  0.00     0.031 C 
ATOM     31  C   UNL A   1      45.868  32.535  29.128  1.00  0.00     0.029 A 
ATOM     32  C   UNL A   1      44.527  32.275  29.372  1.00  0.00     0.049 A 
ATOM     33  H   UNL A   1      43.415  30.544  28.908  1.00  0.00     0.167 HD
ATOM     34  C   UNL A   1      42.253  32.803  30.248  1.00  0.00     0.074 A 
ATOM     35  C   UNL A   1      41.293  33.681  30.888  1.00  0.00     0.031 C 
ATOM     36  C   UNL A   1      43.549  33.131  30.005  1.00  0.00     0.034 A 
BRANCH  23  37
ATOM     37  C   UNL A   1      46.860  28.670  27.189  1.00  0.00     0.023 A 
ATOM     38  C   UNL A   1      47.084  28.573  25.802  1.00  0.00     0.031 A 
ATOM     39  C   UNL A   1      47.827  28.133  28.054  1.00  0.00     0.131 A 
ATOM     40  C   UNL A   1      48.178  27.839  25.323  1.00  0.00     0.055 A 
ATOM     41  C   UNL A   1      48.970  27.495  27.569  1.00  0.00     0.041 A 
ATOM     42  F   UNL A   1      47.648  28.166  29.384  1.00  0.00    -0.206 F 
ATOM     43  C   UNL A   1      49.137  27.322  26.197  1.00  0.00     0.022 A 
BRANCH  40  44
ATOM     44  S   UNL A   1      48.204  27.378  23.568  1.00  0.00     0.124 S 
ATOM     45  O   UNL A   1      49.533  27.834  23.164  1.00  0.00    -0.237 OA
ATOM     46  O   UNL A   1      48.013  25.933  23.617  1.00  0.00    -0.237 OA
ATOM     47  O   UNL A   1      47.093  28.136  22.998  1.00  0.00    -0.744 OA
ENDBRANCH  40  44
ENDBRANCH  23  37
BRANCH  24  48
ATOM     48  C   UNL A   1      37.793  31.323  30.681  1.00  0.00     0.023 A 
ATOM     49  C   UNL A   1      36.868  32.024  29.889  1.00  0.00     0.031 A 
ATOM     50  C   UNL A   1      37.444  31.071  32.021  1.00  0.00     0.131 A 
ATOM     51  C   UNL A   1      35.671  32.499  30.454  1.00  0.00     0.055 A 
ATOM     52  C   UNL A   1      36.233  31.509  32.568  1.00  0.00     0.041 A 
ATOM     53  F   UNL A   1      38.282  30.398  32.826  1.00  0.00    -0.206 F 
ATOM     54  C   UNL A   1      35.345  32.242  31.787  1.00  0.00     0.022 A 
BRANCH  51  55
ATOM     55  S   UNL A   1      34.581  33.538  29.440  1.00  0.00     0.124 S 
ATOM     56  O   UNL A   1      33.704  34.122  30.448  1.00  0.00    -0.237 OA
ATOM     57  O   UNL A   1      35.534  34.447  28.812  1.00  0.00    -0.237 OA
ATOM     58  O   UNL A   1      33.945  32.582  28.536  1.00  0.00    -0.744 OA
ENDBRANCH  51  55
ENDBRANCH  24  48
BRANCH  36  59
ATOM     59  C   UNL A   1      43.975  34.528  30.373  1.00  0.00     0.023 A 
ATOM     60  C   UNL A   1      43.806  35.609  29.494  1.00  0.00     0.031 A 
ATOM     61  C   UNL A   1      44.567  34.773  31.624  1.00  0.00     0.131 A 
ATOM     62  C   UNL A   1      44.290  36.875  29.851  1.00  0.00     0.055 A 
ATOM     63  C   UNL A   1      44.973  36.052  32.005  1.00  0.00     0.041 A 
ATOM     64  F   UNL A   1      44.756  33.774  32.501  1.00  0.00    -0.206 F 
ATOM     65  C   UNL A   1      44.851  37.109  31.110  1.00  0.00     0.022 A 
BRANCH  62  66
ATOM     66  S   UNL A   1      44.284  38.184  28.597  1.00  0.00     0.124 S 
ATOM     67  O   UNL A   1      44.329  37.415  27.358  1.00  0.00    -0.237 OA
ATOM     68  O   UNL A   1      43.029  38.875  28.874  1.00  0.00    -0.237 OA
ATOM     69  O   UNL A   1      45.492  38.950  28.897  1.00  0.00    -0.744 OA
ENDBRANCH  62  66
ENDBRANCH  36  59
ENDBRANCH  10  11
ENDBRANCH   3   5
ENDBRANCH   2   3
ENDBRANCH   1   2
BRANCH   1  70
ATOM     70  C   UNL A   1      36.195  20.636  25.140  1.00  0.00     0.274 C 
BRANCH  70  71
ATOM     71  O   UNL A   1      35.660  21.733  24.373  1.00  0.00    -0.462 OA
BRANCH  71  72
ATOM     72  C   UNL A   1      35.283  22.818  25.101  1.00  0.00     0.312 C 
ATOM     73  O   UNL A   1      35.805  23.148  26.167  1.00  0.00    -0.252 OA
BRANCH  72  74
ATOM     74  C   UNL A   1      34.114  23.592  24.545  1.00  0.00     0.147 C 
ATOM     75  C   UNL A   1      32.713  23.096  24.977  1.00  0.00     0.128 C 
ATOM     76  C   UNL A   1      33.990  23.576  23.031  1.00  0.00     0.157 C 
ATOM     77  C   UNL A   1      32.000  22.944  23.639  1.00  0.00     0.155 C 
ATOM     78  C   UNL A   1      33.057  24.636  22.536  1.00  0.00     0.004 C 
ATOM     79  O   UNL A   1      33.119  22.446  22.863  1.00  0.00    -0.365 OA
ATOM     80  C   UNL A   1      31.832  24.264  22.932  1.00  0.00     0.004 C 
BRANCH  75  81
ATOM     81  C   UNL A   1      32.679  21.883  25.894  1.00  0.00     0.227 C 
ATOM     82  O   UNL A   1      32.765  22.092  27.114  1.00  0.00    -0.275 OA
ATOM     83  N   UNL A   1      32.626  20.577  25.560  1.00  0.00    -0.352 N 
ATOM     84  H   UNL A   1      32.743  19.999  26.348  1.00  0.00     0.163 HD
BRANCH  83  85
ATOM     85  C   UNL A   1      32.441  19.790  24.342  1.00  0.00     0.151 C 
BRANCH  85  86
ATOM     86  C   UNL A   1      32.933  18.358  24.470  1.00  0.00    -0.026 A 
ATOM     87  C   UNL A   1      32.658  17.637  25.639  1.00  0.00     0.025 A 
ATOM     88  C   UNL A   1      33.677  17.701  23.488  1.00  0.00     0.025 A 
ATOM     89  C   UNL A   1      32.985  16.290  25.715  1.00  0.00     0.111 A 
ATOM     90  C   UNL A   1      33.981  16.355  23.657  1.00  0.00     0.111 A 
ATOM     91  N   UNL A   1      33.616  15.624  24.730  1.00  0.00    -0.265 NA
ENDBRANCH  85  86
ENDBRANCH  83  85
ENDBRANCH  75  81
ENDBRANCH  72  74
ENDBRANCH  71  72
ENDBRANCH  70  71
ENDBRANCH   1  70
TORSDOF 17
ENDMDL
