MODEL 1
REMARK VINA RESULT:     -13.2      0.000      0.000
REMARK SMILES Cc1ccc(-c2cc(Cl)cc3c2O[C@H](C(F)(F)F)C(C(=O)OCCOC(=O)c2ccc(-c4c5nc(c(-c6cc(S(=O)(=O)[O-])ccc6F)c6ccc([nH]6)c(-c6cc(S(=O)(=O)[O-])ccc6F)c6nc(c(-c7cc(S(=O)(=O)[O-])ccc7F)c7ccc4[nH]7)C=C6)C=C5)cc2)=C3)cc1
REMARK SMILES IDX 24 1 23 2 22 3 20 4 21 5 19 6 6 7 7 8 12 9 8 10 11 11 13 12
REMARK SMILES IDX 9 13 10 14 91 15 14 16 5 17 1 18 2 19 3 20 93 21 4 22 92 23
REMARK SMILES IDX 15 24 16 25 17 26 18 27 25 28 26 29 27 30 28 31 29 32 90 33
REMARK SMILES IDX 30 34 89 35 31 36 32 37 33 38 83 39 34 40 88 41 82 42 84 43
REMARK SMILES IDX 35 44 87 45 81 46 80 47 36 49 68 50 48 51 67 52 49 53 52 54
REMARK SMILES IDX 66 55 85 56 50 57 51 58 65 60 86 61 53 62 37 63 38 64 46 65
REMARK SMILES IDX 39 66 45 67 47 68 44 69 40 70 41 71 42 72 43 73 69 74 70 75
REMARK SMILES IDX 78 76 71 77 77 78 79 79 76 80 72 81 73 82 74 83 75 84 54 85
REMARK SMILES IDX 55 86 63 87 56 88 62 89 64 90 61 91 57 92 58 93 59 94 60 95
REMARK H PARENT 84 48 52 59
REMARK Flexibility Score: inf
ROOT
ATOM      1  C   UNL A   1      33.789  28.308  27.076  1.00  0.00     0.275 C 
ENDROOT
BRANCH   1   2
ATOM      2  C   UNL A   1      33.361  27.277  25.953  1.00  0.00     0.275 C 
BRANCH   2   3
ATOM      3  O   UNL A   1      33.710  25.544  26.079  1.00  0.00    -0.459 OA
BRANCH   3   4
ATOM      4  C   UNL A   1      35.185  24.229  25.875  1.00  0.00     0.338 C 
ATOM      5  O   UNL A   1      36.027  24.162  24.930  1.00  0.00    -0.246 OA
BRANCH   4   6
ATOM      6  C   UNL A   1      35.151  22.816  26.601  1.00  0.00     0.087 C 
ATOM      7  C   UNL A   1      33.412  22.564  23.282  1.00  0.00     0.026 A 
ATOM      8  C   UNL A   1      32.645  21.433  22.935  1.00  0.00     0.033 A 
ATOM      9  C   UNL A   1      34.421  22.245  24.182  1.00  0.00     0.135 A 
ATOM     10  C   UNL A   1      32.844  20.161  23.551  1.00  0.00     0.042 A 
ATOM     11  C   UNL A   1      34.409  21.136  24.996  1.00  0.00     0.019 A 
ATOM     12  O   UNL A   1      35.644  22.830  24.274  1.00  0.00    -0.475 OA
ATOM     13  Cl  UNL A   1      31.778  18.849  23.205  1.00  0.00    -0.084 Cl
ATOM     14  C   UNL A   1      33.718  20.010  24.626  1.00  0.00     0.032 A 
ATOM     15  C   UNL A   1      34.834  21.520  26.327  1.00  0.00     0.027 C 
ATOM     16  C   UNL A   1      36.213  23.696  25.803  1.00  0.00     0.316 C 
BRANCH   7  17
ATOM     17  C   UNL A   1      32.893  23.993  23.117  1.00  0.00    -0.015 A 
ATOM     18  C   UNL A   1      30.873  27.844  22.379  1.00  0.00     0.044 C 
ATOM     19  C   UNL A   1      31.622  26.591  22.744  1.00  0.00    -0.051 A 
ATOM     20  C   UNL A   1      32.950  26.338  22.355  1.00  0.00     0.004 A 
ATOM     21  C   UNL A   1      30.976  25.591  23.442  1.00  0.00     0.004 A 
ATOM     22  C   UNL A   1      33.574  25.063  22.539  1.00  0.00     0.009 A 
ATOM     23  C   UNL A   1      31.604  24.343  23.598  1.00  0.00     0.009 A 
ENDBRANCH   7  17
BRANCH  16  24
ATOM     24  C   UNL A   1      38.217  24.268  26.529  1.00  0.00     0.430 C 
ATOM     25  F   UNL A   1      39.295  24.488  25.612  1.00  0.00    -0.167 F 
ATOM     26  F   UNL A   1      38.302  25.492  27.250  1.00  0.00    -0.167 F 
ATOM     27  F   UNL A   1      38.973  23.432  27.344  1.00  0.00    -0.167 F 
ENDBRANCH  16  24
ENDBRANCH   4   6
ENDBRANCH   3   4
ENDBRANCH   2   3
ENDBRANCH   1   2
BRANCH   1  28
ATOM     28  O   UNL A   1      35.181  28.753  27.289  1.00  0.00    -0.458 OA
BRANCH  28  29
ATOM     29  C   UNL A   1      35.669  29.805  27.994  1.00  0.00     0.338 C 
ATOM     30  O   UNL A   1      35.071  30.832  28.248  1.00  0.00    -0.246 OA
BRANCH  29  31
ATOM     31  C   UNL A   1      36.998  29.505  28.470  1.00  0.00     0.060 A 
ATOM     32  C   UNL A   1      37.432  28.953  30.355  1.00  0.00     0.016 A 
ATOM     33  C   UNL A   1      38.257  29.664  26.973  1.00  0.00     0.016 A 
ATOM     34  C   UNL A   1      39.268  28.198  30.559  1.00  0.00     0.010 A 
ATOM     35  C   UNL A   1      40.021  28.770  27.087  1.00  0.00     0.010 A 
ATOM     36  C   UNL A   1      40.375  28.071  28.895  1.00  0.00    -0.014 A 
BRANCH  36  37
ATOM     37  C   UNL A   1      41.862  27.867  28.820  1.00  0.00     0.031 A 
ATOM     38  C   UNL A   1      42.228  26.451  28.701  1.00  0.00     0.074 A 
ATOM     39  C   UNL A   1      42.629  28.903  28.336  1.00  0.00     0.049 A 
ATOM     40  N   UNL A   1      43.289  25.883  29.180  1.00  0.00    -0.248 NA
ATOM     41  C   UNL A   1      41.222  25.490  28.213  1.00  0.00     0.031 C 
ATOM     42  C   UNL A   1      43.376  28.868  27.062  1.00  0.00     0.029 A 
ATOM     43  N   UNL A   1      42.624  30.291  28.607  1.00  0.00    -0.354 N 
ATOM     44  C   UNL A   1      43.205  24.601  28.657  1.00  0.00     0.074 A 
ATOM     45  C   UNL A   1      41.794  24.348  28.579  1.00  0.00     0.031 C 
ATOM     46  C   UNL A   1      43.889  30.086  26.780  1.00  0.00     0.029 A 
ATOM     47  C   UNL A   1      43.657  30.963  27.911  1.00  0.00     0.049 A 
ATOM     48  H   UNL A   1      41.981  30.735  29.206  1.00  0.00     0.167 HD
ATOM     49  C   UNL A   1      44.056  24.215  27.655  1.00  0.00     0.034 A 
ATOM     50  C   UNL A   1      44.649  31.677  28.539  1.00  0.00     0.034 A 
ATOM     51  C   UNL A   1      44.914  25.320  27.222  1.00  0.00     0.049 A 
ATOM     52  C   UNL A   1      45.894  30.834  28.680  1.00  0.00     0.074 A 
ATOM     53  C   UNL A   1      45.055  26.043  26.051  1.00  0.00     0.029 A 
ATOM     54  N   UNL A   1      45.663  25.988  28.163  1.00  0.00    -0.354 N 
ATOM     55  N   UNL A   1      46.019  29.648  28.164  1.00  0.00    -0.248 NA
ATOM     56  C   UNL A   1      47.013  31.204  29.537  1.00  0.00     0.031 C 
ATOM     57  C   UNL A   1      45.970  27.110  26.304  1.00  0.00     0.029 A 
ATOM     58  C   UNL A   1      46.399  27.006  27.615  1.00  0.00     0.049 A 
ATOM     59  H   UNL A   1      45.668  25.760  29.121  1.00  0.00     0.167 HD
ATOM     60  C   UNL A   1      47.082  29.018  28.735  1.00  0.00     0.074 A 
ATOM     61  C   UNL A   1      47.674  30.038  29.595  1.00  0.00     0.031 C 
ATOM     62  C   UNL A   1      47.333  27.697  28.485  1.00  0.00     0.034 A 
BRANCH  49  63
ATOM     63  C   UNL A   1      43.974  22.930  26.848  1.00  0.00     0.023 A 
ATOM     64  C   UNL A   1      42.759  22.224  26.932  1.00  0.00     0.031 A 
ATOM     65  C   UNL A   1      44.931  22.357  25.983  1.00  0.00     0.131 A 
ATOM     66  C   UNL A   1      42.542  21.028  26.233  1.00  0.00     0.055 A 
ATOM     67  C   UNL A   1      44.721  21.157  25.289  1.00  0.00     0.041 A 
ATOM     68  F   UNL A   1      46.117  22.914  25.724  1.00  0.00    -0.206 F 
ATOM     69  C   UNL A   1      43.518  20.485  25.408  1.00  0.00     0.022 A 
BRANCH  66  70
ATOM     70  S   UNL A   1      40.944  20.209  26.420  1.00  0.00     0.124 S 
ATOM     71  O   UNL A   1      40.048  21.145  25.750  1.00  0.00    -0.237 OA
ATOM     72  O   UNL A   1      41.172  18.933  25.751  1.00  0.00    -0.237 OA
ATOM     73  O   UNL A   1      40.779  20.124  27.870  1.00  0.00    -0.744 OA
ENDBRANCH  66  70
ENDBRANCH  49  63
BRANCH  50  74
ATOM     74  C   UNL A   1      44.183  32.512  29.677  1.00  0.00     0.023 A 
ATOM     75  C   UNL A   1      44.090  31.952  30.967  1.00  0.00     0.031 A 
ATOM     76  C   UNL A   1      44.366  33.890  29.532  1.00  0.00     0.131 A 
ATOM     77  C   UNL A   1      44.447  32.727  32.070  1.00  0.00     0.055 A 
ATOM     78  C   UNL A   1      44.851  34.612  30.598  1.00  0.00     0.041 A 
ATOM     79  F   UNL A   1      44.346  34.469  28.322  1.00  0.00    -0.206 F 
ATOM     80  C   UNL A   1      44.945  34.012  31.853  1.00  0.00     0.022 A 
BRANCH  77  81
ATOM     81  S   UNL A   1      44.495  31.979  33.744  1.00  0.00     0.124 S 
ATOM     82  O   UNL A   1      44.166  30.588  33.461  1.00  0.00    -0.237 OA
ATOM     83  O   UNL A   1      45.866  32.236  34.178  1.00  0.00    -0.237 OA
ATOM     84  O   UNL A   1      43.474  32.683  34.506  1.00  0.00    -0.744 OA
ENDBRANCH  77  81
ENDBRANCH  50  74
BRANCH  62  85
ATOM     85  C   UNL A   1      48.466  26.929  29.112  1.00  0.00     0.023 A 
ATOM     86  C   UNL A   1      49.691  26.842  28.458  1.00  0.00     0.031 A 
ATOM     87  C   UNL A   1      48.383  26.232  30.342  1.00  0.00     0.131 A 
ATOM     88  C   UNL A   1      50.811  26.299  29.088  1.00  0.00     0.055 A 
ATOM     89  C   UNL A   1      49.472  25.578  30.919  1.00  0.00     0.041 A 
ATOM     90  F   UNL A   1      47.260  26.157  31.068  1.00  0.00    -0.206 F 
ATOM     91  C   UNL A   1      50.712  25.646  30.311  1.00  0.00     0.022 A 
BRANCH  88  92
ATOM     92  S   UNL A   1      52.402  26.573  28.289  1.00  0.00     0.124 S 
ATOM     93  O   UNL A   1      52.391  25.583  27.216  1.00  0.00    -0.237 OA
ATOM     94  O   UNL A   1      52.277  27.964  27.861  1.00  0.00    -0.237 OA
ATOM     95  O   UNL A   1      53.366  26.330  29.357  1.00  0.00    -0.744 OA
ENDBRANCH  88  92
ENDBRANCH  62  85
ENDBRANCH  36  37
ENDBRANCH  29  31
ENDBRANCH  28  29
ENDBRANCH   1  28
TORSDOF 16
ENDMDL
MODEL 2
REMARK VINA RESULT:     -13.2      4.153      9.576
REMARK SMILES Cc1ccc(-c2cc(Cl)cc3c2O[C@H](C(F)(F)F)C(C(=O)OCCOC(=O)c2ccc(-c4c5nc(c(-c6cc(S(=O)(=O)[O-])ccc6F)c6ccc([nH]6)c(-c6cc(S(=O)(=O)[O-])ccc6F)c6nc(c(-c7cc(S(=O)(=O)[O-])ccc7F)c7ccc4[nH]7)C=C6)C=C5)cc2)=C3)cc1
REMARK SMILES IDX 24 1 23 2 22 3 20 4 21 5 19 6 6 7 7 8 12 9 8 10 11 11 13 12
REMARK SMILES IDX 9 13 10 14 91 15 14 16 5 17 1 18 2 19 3 20 93 21 4 22 92 23
REMARK SMILES IDX 15 24 16 25 17 26 18 27 25 28 26 29 27 30 28 31 29 32 90 33
REMARK SMILES IDX 30 34 89 35 31 36 32 37 33 38 83 39 34 40 88 41 82 42 84 43
REMARK SMILES IDX 35 44 87 45 81 46 80 47 36 49 68 50 48 51 67 52 49 53 52 54
REMARK SMILES IDX 66 55 85 56 50 57 51 58 65 60 86 61 53 62 37 63 38 64 46 65
REMARK SMILES IDX 39 66 45 67 47 68 44 69 40 70 41 71 42 72 43 73 69 74 70 75
REMARK SMILES IDX 78 76 71 77 77 78 79 79 76 80 72 81 73 82 74 83 75 84 54 85
REMARK SMILES IDX 55 86 63 87 56 88 62 89 64 90 61 91 57 92 58 93 59 94 60 95
REMARK H PARENT 84 48 52 59
REMARK Flexibility Score: inf
ROOT
ATOM      1  C   UNL A   1      36.588  23.925  26.063  1.00  0.00     0.275 C 
ENDROOT
BRANCH   1   2
ATOM      2  C   UNL A   1      35.496  24.025  24.920  1.00  0.00     0.275 C 
BRANCH   2   3
ATOM      3  O   UNL A   1      34.407  25.415  24.773  1.00  0.00    -0.459 OA
BRANCH   3   4
ATOM      4  C   UNL A   1      34.076  27.226  25.521  1.00  0.00     0.338 C 
ATOM      5  O   UNL A   1      33.657  27.511  26.682  1.00  0.00    -0.246 OA
BRANCH   4   6
ATOM      6  C   UNL A   1      33.807  28.480  24.583  1.00  0.00     0.087 C 
ATOM      7  C   UNL A   1      30.616  26.557  25.047  1.00  0.00     0.026 A 
ATOM      8  C   UNL A   1      29.475  26.820  24.263  1.00  0.00     0.033 A 
ATOM      9  C   UNL A   1      31.418  27.682  25.185  1.00  0.00     0.135 A 
ATOM     10  C   UNL A   1      29.273  28.074  23.612  1.00  0.00     0.042 A 
ATOM     11  C   UNL A   1      31.398  28.755  24.324  1.00  0.00     0.019 A 
ATOM     12  O   UNL A   1      32.185  28.009  26.258  1.00  0.00    -0.475 OA
ATOM     13  Cl  UNL A   1      27.939  28.293  22.538  1.00  0.00    -0.084 Cl
ATOM     14  C   UNL A   1      30.264  29.052  23.611  1.00  0.00     0.032 A 
ATOM     15  C   UNL A   1      32.760  29.157  24.035  1.00  0.00     0.027 C 
ATOM     16  C   UNL A   1      34.018  28.205  26.139  1.00  0.00     0.316 C 
BRANCH   7  17
ATOM     17  C   UNL A   1      31.158  25.143  25.264  1.00  0.00    -0.015 A 
ATOM     18  C   UNL A   1      33.221  21.352  26.172  1.00  0.00     0.044 C 
ATOM     19  C   UNL A   1      32.396  22.574  25.877  1.00  0.00    -0.051 A 
ATOM     20  C   UNL A   1      31.896  22.885  24.600  1.00  0.00     0.004 A 
ATOM     21  C   UNL A   1      32.153  23.490  26.881  1.00  0.00     0.004 A 
ATOM     22  C   UNL A   1      31.288  24.146  24.299  1.00  0.00     0.009 A 
ATOM     23  C   UNL A   1      31.566  24.727  26.558  1.00  0.00     0.009 A 
ENDBRANCH   7  17
BRANCH  16  24
ATOM     24  C   UNL A   1      35.492  29.211  27.436  1.00  0.00     0.430 C 
ATOM     25  F   UNL A   1      35.911  30.555  27.166  1.00  0.00    -0.167 F 
ATOM     26  F   UNL A   1      35.125  29.376  28.800  1.00  0.00    -0.167 F 
ATOM     27  F   UNL A   1      36.796  28.746  27.571  1.00  0.00    -0.167 F 
ENDBRANCH  16  24
ENDBRANCH   4   6
ENDBRANCH   3   4
ENDBRANCH   2   3
ENDBRANCH   1   2
BRANCH   1  28
ATOM     28  O   UNL A   1      37.902  24.596  25.999  1.00  0.00    -0.458 OA
BRANCH  28  29
ATOM     29  C   UNL A   1      39.086  24.265  26.574  1.00  0.00     0.338 C 
ATOM     30  O   UNL A   1      39.631  23.180  26.511  1.00  0.00    -0.246 OA
BRANCH  29  31
ATOM     31  C   UNL A   1      39.656  25.419  27.226  1.00  0.00     0.060 A 
ATOM     32  C   UNL A   1      40.882  26.740  26.332  1.00  0.00     0.016 A 
ATOM     33  C   UNL A   1      38.985  25.500  29.069  1.00  0.00     0.016 A 
ATOM     34  C   UNL A   1      41.127  28.426  27.370  1.00  0.00     0.010 A 
ATOM     35  C   UNL A   1      39.060  27.216  30.056  1.00  0.00     0.010 A 
ATOM     36  C   UNL A   1      40.117  28.572  29.095  1.00  0.00    -0.014 A 
BRANCH  36  37
ATOM     37  C   UNL A   1      40.374  29.552  30.204  1.00  0.00     0.031 A 
ATOM     38  C   UNL A   1      39.550  30.761  30.085  1.00  0.00     0.074 A 
ATOM     39  C   UNL A   1      40.849  29.060  31.399  1.00  0.00     0.049 A 
ATOM     40  N   UNL A   1      39.882  31.961  30.441  1.00  0.00    -0.248 NA
ATOM     41  C   UNL A   1      38.321  30.713  29.273  1.00  0.00     0.031 C 
ATOM     42  C   UNL A   1      40.090  29.061  32.666  1.00  0.00     0.029 A 
ATOM     43  N   UNL A   1      41.874  28.135  31.700  1.00  0.00    -0.354 N 
ATOM     44  C   UNL A   1      38.704  32.667  30.247  1.00  0.00     0.074 A 
ATOM     45  C   UNL A   1      38.084  32.013  29.130  1.00  0.00     0.031 C 
ATOM     46  C   UNL A   1      40.751  28.362  33.615  1.00  0.00     0.029 A 
ATOM     47  C   UNL A   1      42.053  27.987  33.097  1.00  0.00     0.049 A 
ATOM     48  H   UNL A   1      42.400  27.651  31.022  1.00  0.00     0.167 HD
ATOM     49  C   UNL A   1      37.971  33.084  31.328  1.00  0.00     0.034 A 
ATOM     50  C   UNL A   1      43.237  28.260  33.738  1.00  0.00     0.034 A 
ATOM     51  C   UNL A   1      38.553  32.612  32.587  1.00  0.00     0.049 A 
ATOM     52  C   UNL A   1      43.205  29.647  34.333  1.00  0.00     0.074 A 
ATOM     53  C   UNL A   1      38.144  31.744  33.583  1.00  0.00     0.029 A 
ATOM     54  N   UNL A   1      39.873  32.890  32.854  1.00  0.00    -0.354 N 
ATOM     55  N   UNL A   1      42.151  30.406  34.326  1.00  0.00    -0.248 NA
ATOM     56  C   UNL A   1      44.394  30.326  34.832  1.00  0.00     0.031 C 
ATOM     57  C   UNL A   1      39.235  31.579  34.491  1.00  0.00     0.029 A 
ATOM     58  C   UNL A   1      40.281  32.370  34.055  1.00  0.00     0.049 A 
ATOM     59  H   UNL A   1      40.459  33.402  32.250  1.00  0.00     0.167 HD
ATOM     60  C   UNL A   1      42.515  31.686  34.613  1.00  0.00     0.074 A 
ATOM     61  C   UNL A   1      43.938  31.586  34.921  1.00  0.00     0.031 C 
ATOM     62  C   UNL A   1      41.616  32.712  34.510  1.00  0.00     0.034 A 
BRANCH  49  63
ATOM     63  C   UNL A   1      36.580  33.692  31.292  1.00  0.00     0.023 A 
ATOM     64  C   UNL A   1      35.885  33.575  30.074  1.00  0.00     0.031 A 
ATOM     65  C   UNL A   1      35.857  34.327  32.326  1.00  0.00     0.131 A 
ATOM     66  C   UNL A   1      34.589  34.083  29.903  1.00  0.00     0.055 A 
ATOM     67  C   UNL A   1      34.564  34.843  32.156  1.00  0.00     0.041 A 
ATOM     68  F   UNL A   1      36.323  34.474  33.568  1.00  0.00    -0.206 F 
ATOM     69  C   UNL A   1      33.919  34.720  30.939  1.00  0.00     0.022 A 
BRANCH  66  70
ATOM     70  S   UNL A   1      33.797  33.876  28.293  1.00  0.00     0.124 S 
ATOM     71  O   UNL A   1      33.731  32.423  28.177  1.00  0.00    -0.237 OA
ATOM     72  O   UNL A   1      32.529  34.572  28.482  1.00  0.00    -0.237 OA
ATOM     73  O   UNL A   1      34.729  34.528  27.375  1.00  0.00    -0.744 OA
ENDBRANCH  66  70
ENDBRANCH  49  63
BRANCH  50  74
ATOM     74  C   UNL A   1      44.451  27.784  33.024  1.00  0.00     0.023 A 
ATOM     75  C   UNL A   1      44.995  28.553  31.976  1.00  0.00     0.031 A 
ATOM     76  C   UNL A   1      45.272  26.910  33.741  1.00  0.00     0.131 A 
ATOM     77  C   UNL A   1      46.381  28.635  31.845  1.00  0.00     0.055 A 
ATOM     78  C   UNL A   1      46.635  27.099  33.704  1.00  0.00     0.041 A 
ATOM     79  F   UNL A   1      44.765  26.083  34.667  1.00  0.00    -0.206 F 
ATOM     80  C   UNL A   1      47.183  28.004  32.795  1.00  0.00     0.022 A 
BRANCH  77  81
ATOM     81  S   UNL A   1      47.122  29.757  30.597  1.00  0.00     0.124 S 
ATOM     82  O   UNL A   1      48.544  29.477  30.748  1.00  0.00    -0.237 OA
ATOM     83  O   UNL A   1      46.511  29.307  29.349  1.00  0.00    -0.237 OA
ATOM     84  O   UNL A   1      46.738  31.097  31.013  1.00  0.00    -0.744 OA
ENDBRANCH  77  81
ENDBRANCH  50  74
BRANCH  62  85
ATOM     85  C   UNL A   1      41.961  34.154  34.774  1.00  0.00     0.023 A 
ATOM     86  C   UNL A   1      41.543  34.763  35.952  1.00  0.00     0.031 A 
ATOM     87  C   UNL A   1      42.673  34.988  33.878  1.00  0.00     0.131 A 
ATOM     88  C   UNL A   1      41.997  36.032  36.312  1.00  0.00     0.055 A 
ATOM     89  C   UNL A   1      43.023  36.304  34.182  1.00  0.00     0.041 A 
ATOM     90  F   UNL A   1      43.091  34.582  32.673  1.00  0.00    -0.206 F 
ATOM     91  C   UNL A   1      42.722  36.822  35.428  1.00  0.00     0.022 A 
BRANCH  88  92
ATOM     92  S   UNL A   1      41.684  36.554  38.007  1.00  0.00     0.124 S 
ATOM     93  O   UNL A   1      42.685  37.598  38.207  1.00  0.00    -0.237 OA
ATOM     94  O   UNL A   1      40.302  37.018  37.920  1.00  0.00    -0.237 OA
ATOM     95  O   UNL A   1      41.888  35.334  38.782  1.00  0.00    -0.744 OA
ENDBRANCH  88  92
ENDBRANCH  62  85
ENDBRANCH  36  37
ENDBRANCH  29  31
ENDBRANCH  28  29
ENDBRANCH   1  28
TORSDOF 16
ENDMDL
MODEL 3
REMARK VINA RESULT:     -13.1      4.740     10.035
REMARK SMILES Cc1ccc(-c2cc(Cl)cc3c2O[C@H](C(F)(F)F)C(C(=O)OCCOC(=O)c2ccc(-c4c5nc(c(-c6cc(S(=O)(=O)[O-])ccc6F)c6ccc([nH]6)c(-c6cc(S(=O)(=O)[O-])ccc6F)c6nc(c(-c7cc(S(=O)(=O)[O-])ccc7F)c7ccc4[nH]7)C=C6)C=C5)cc2)=C3)cc1
REMARK SMILES IDX 24 1 23 2 22 3 20 4 21 5 19 6 6 7 7 8 12 9 8 10 11 11 13 12
REMARK SMILES IDX 9 13 10 14 91 15 14 16 5 17 1 18 2 19 3 20 93 21 4 22 92 23
REMARK SMILES IDX 15 24 16 25 17 26 18 27 25 28 26 29 27 30 28 31 29 32 90 33
REMARK SMILES IDX 30 34 89 35 31 36 32 37 33 38 83 39 34 40 88 41 82 42 84 43
REMARK SMILES IDX 35 44 87 45 81 46 80 47 36 49 68 50 48 51 67 52 49 53 52 54
REMARK SMILES IDX 66 55 85 56 50 57 51 58 65 60 86 61 53 62 37 63 38 64 46 65
REMARK SMILES IDX 39 66 45 67 47 68 44 69 40 70 41 71 42 72 43 73 69 74 70 75
REMARK SMILES IDX 78 76 71 77 77 78 79 79 76 80 72 81 73 82 74 83 75 84 54 85
REMARK SMILES IDX 55 86 63 87 56 88 62 89 64 90 61 91 57 92 58 93 59 94 60 95
REMARK H PARENT 84 48 52 59
REMARK Flexibility Score: inf
ROOT
ATOM      1  C   UNL A   1      36.752  24.017  25.968  1.00  0.00     0.275 C 
ENDROOT
BRANCH   1   2
ATOM      2  C   UNL A   1      35.637  24.078  24.845  1.00  0.00     0.275 C 
BRANCH   2   3
ATOM      3  O   UNL A   1      34.431  25.375  24.782  1.00  0.00    -0.459 OA
BRANCH   3   4
ATOM      4  C   UNL A   1      34.035  27.178  25.518  1.00  0.00     0.338 C 
ATOM      5  O   UNL A   1      33.578  27.453  26.667  1.00  0.00    -0.246 OA
BRANCH   4   6
ATOM      6  C   UNL A   1      33.762  28.424  24.571  1.00  0.00     0.087 C 
ATOM      7  C   UNL A   1      30.582  26.483  25.034  1.00  0.00     0.026 A 
ATOM      8  C   UNL A   1      29.442  26.734  24.243  1.00  0.00     0.033 A 
ATOM      9  C   UNL A   1      31.376  27.615  25.168  1.00  0.00     0.135 A 
ATOM     10  C   UNL A   1      29.235  27.982  23.583  1.00  0.00     0.042 A 
ATOM     11  C   UNL A   1      31.353  28.682  24.300  1.00  0.00     0.019 A 
ATOM     12  O   UNL A   1      32.136  27.953  26.242  1.00  0.00    -0.475 OA
ATOM     13  Cl  UNL A   1      27.905  28.187  22.502  1.00  0.00    -0.084 Cl
ATOM     14  C   UNL A   1      30.220  28.968  23.580  1.00  0.00     0.032 A 
ATOM     15  C   UNL A   1      32.713  29.091  24.014  1.00  0.00     0.027 C 
ATOM     16  C   UNL A   1      33.968  28.161  26.129  1.00  0.00     0.316 C 
BRANCH   7  17
ATOM     17  C   UNL A   1      31.132  25.074  25.261  1.00  0.00    -0.015 A 
ATOM     18  C   UNL A   1      33.220  21.303  26.193  1.00  0.00     0.044 C 
ATOM     19  C   UNL A   1      32.387  22.518  25.892  1.00  0.00    -0.051 A 
ATOM     20  C   UNL A   1      31.874  22.812  24.616  1.00  0.00     0.004 A 
ATOM     21  C   UNL A   1      32.150  23.444  26.888  1.00  0.00     0.004 A 
ATOM     22  C   UNL A   1      31.258  24.066  24.307  1.00  0.00     0.009 A 
ATOM     23  C   UNL A   1      31.554  24.675  26.556  1.00  0.00     0.009 A 
ENDBRANCH   7  17
BRANCH  16  24
ATOM     24  C   UNL A   1      35.430  29.184  27.426  1.00  0.00     0.430 C 
ATOM     25  F   UNL A   1      35.920  30.489  27.094  1.00  0.00    -0.167 F 
ATOM     26  F   UNL A   1      35.014  29.450  28.761  1.00  0.00    -0.167 F 
ATOM     27  F   UNL A   1      36.705  28.674  27.648  1.00  0.00    -0.167 F 
ENDBRANCH  16  24
ENDBRANCH   4   6
ENDBRANCH   3   4
ENDBRANCH   2   3
ENDBRANCH   1   2
BRANCH   1  28
ATOM     28  O   UNL A   1      38.058  24.697  25.862  1.00  0.00    -0.458 OA
BRANCH  28  29
ATOM     29  C   UNL A   1      39.230  24.454  26.502  1.00  0.00     0.338 C 
ATOM     30  O   UNL A   1      39.886  23.434  26.428  1.00  0.00    -0.246 OA
BRANCH  29  31
ATOM     31  C   UNL A   1      39.636  25.623  27.246  1.00  0.00     0.060 A 
ATOM     32  C   UNL A   1      40.803  27.088  26.512  1.00  0.00     0.016 A 
ATOM     33  C   UNL A   1      38.813  25.557  29.027  1.00  0.00     0.016 A 
ATOM     34  C   UNL A   1      40.806  28.738  27.632  1.00  0.00     0.010 A 
ATOM     35  C   UNL A   1      38.649  27.225  30.083  1.00  0.00     0.010 A 
ATOM     36  C   UNL A   1      39.651  28.713  29.269  1.00  0.00    -0.014 A 
BRANCH  36  37
ATOM     37  C   UNL A   1      39.725  29.659  30.434  1.00  0.00     0.031 A 
ATOM     38  C   UNL A   1      38.963  30.891  30.204  1.00  0.00     0.074 A 
ATOM     39  C   UNL A   1      39.967  29.126  31.680  1.00  0.00     0.049 A 
ATOM     40  N   UNL A   1      39.251  32.074  30.648  1.00  0.00    -0.248 NA
ATOM     41  C   UNL A   1      37.899  30.895  29.184  1.00  0.00     0.031 C 
ATOM     42  C   UNL A   1      38.993  29.116  32.791  1.00  0.00     0.029 A 
ATOM     43  N   UNL A   1      40.901  28.167  32.134  1.00  0.00    -0.354 N 
ATOM     44  C   UNL A   1      38.143  32.815  30.266  1.00  0.00     0.074 A 
ATOM     45  C   UNL A   1      37.720  32.204  29.038  1.00  0.00     0.031 C 
ATOM     46  C   UNL A   1      39.457  28.377  33.822  1.00  0.00     0.029 A 
ATOM     47  C   UNL A   1      40.822  27.981  33.535  1.00  0.00     0.049 A 
ATOM     48  H   UNL A   1      41.530  27.686  31.547  1.00  0.00     0.167 HD
ATOM     49  C   UNL A   1      37.237  33.225  31.209  1.00  0.00     0.034 A 
ATOM     50  C   UNL A   1      41.878  28.206  34.386  1.00  0.00     0.034 A 
ATOM     51  C   UNL A   1      37.572  32.708  32.539  1.00  0.00     0.049 A 
ATOM     52  C   UNL A   1      41.769  29.579  35.004  1.00  0.00     0.074 A 
ATOM     53  C   UNL A   1      36.972  31.826  33.420  1.00  0.00     0.029 A 
ATOM     54  N   UNL A   1      38.829  32.944  33.045  1.00  0.00    -0.354 N 
ATOM     55  N   UNL A   1      40.750  30.366  34.830  1.00  0.00    -0.248 NA
ATOM     56  C   UNL A   1      42.864  30.215  35.728  1.00  0.00     0.031 C 
ATOM     57  C   UNL A   1      37.878  31.611  34.504  1.00  0.00     0.029 A 
ATOM     58  C   UNL A   1      39.002  32.385  34.285  1.00  0.00     0.049 A 
ATOM     59  H   UNL A   1      39.524  33.455  32.571  1.00  0.00     0.167 HD
ATOM     60  C   UNL A   1      41.084  31.628  35.215  1.00  0.00     0.074 A 
ATOM     61  C   UNL A   1      42.427  31.483  35.770  1.00  0.00     0.031 C 
ATOM     62  C   UNL A   1      40.241  32.680  34.982  1.00  0.00     0.034 A 
BRANCH  49  63
ATOM     63  C   UNL A   1      35.888  33.870  30.942  1.00  0.00     0.023 A 
ATOM     64  C   UNL A   1      35.468  34.836  31.877  1.00  0.00     0.031 A 
ATOM     65  C   UNL A   1      35.003  33.674  29.859  1.00  0.00     0.131 A 
ATOM     66  C   UNL A   1      34.249  35.516  31.749  1.00  0.00     0.055 A 
ATOM     67  C   UNL A   1      33.780  34.347  29.733  1.00  0.00     0.041 A 
ATOM     68  F   UNL A   1      35.257  32.848  28.841  1.00  0.00    -0.206 F 
ATOM     69  C   UNL A   1      33.397  35.279  30.680  1.00  0.00     0.022 A 
BRANCH  66  70
ATOM     70  S   UNL A   1      33.815  36.732  33.012  1.00  0.00     0.124 S 
ATOM     71  O   UNL A   1      32.357  36.715  32.955  1.00  0.00    -0.237 OA
ATOM     72  O   UNL A   1      34.427  36.165  34.209  1.00  0.00    -0.237 OA
ATOM     73  O   UNL A   1      34.439  37.960  32.523  1.00  0.00    -0.744 OA
ENDBRANCH  66  70
ENDBRANCH  49  63
BRANCH  50  74
ATOM     74  C   UNL A   1      43.189  27.716  33.887  1.00  0.00     0.023 A 
ATOM     75  C   UNL A   1      43.556  26.370  34.085  1.00  0.00     0.031 A 
ATOM     76  C   UNL A   1      43.742  28.435  32.825  1.00  0.00     0.131 A 
ATOM     77  C   UNL A   1      44.245  25.699  33.074  1.00  0.00     0.055 A 
ATOM     78  C   UNL A   1      44.295  27.745  31.771  1.00  0.00     0.041 A 
ATOM     79  F   UNL A   1      43.502  29.746  32.676  1.00  0.00    -0.206 F 
ATOM     80  C   UNL A   1      44.493  26.368  31.875  1.00  0.00     0.022 A 
BRANCH  77  81
ATOM     81  S   UNL A   1      44.591  23.905  33.229  1.00  0.00     0.124 S 
ATOM     82  O   UNL A   1      44.436  23.449  31.854  1.00  0.00    -0.237 OA
ATOM     83  O   UNL A   1      45.951  23.878  33.761  1.00  0.00    -0.237 OA
ATOM     84  O   UNL A   1      43.573  23.398  34.137  1.00  0.00    -0.744 OA
ENDBRANCH  77  81
ENDBRANCH  50  74
BRANCH  62  85
ATOM     85  C   UNL A   1      40.564  34.105  35.344  1.00  0.00     0.023 A 
ATOM     86  C   UNL A   1      41.682  34.724  34.793  1.00  0.00     0.031 A 
ATOM     87  C   UNL A   1      39.821  34.892  36.257  1.00  0.00     0.131 A 
ATOM     88  C   UNL A   1      41.909  36.091  34.961  1.00  0.00     0.055 A 
ATOM     89  C   UNL A   1      40.120  36.229  36.524  1.00  0.00     0.041 A 
ATOM     90  F   UNL A   1      38.757  34.431  36.926  1.00  0.00    -0.206 F 
ATOM     91  C   UNL A   1      41.147  36.852  35.839  1.00  0.00     0.022 A 
BRANCH  88  92
ATOM     92  S   UNL A   1      43.167  36.837  33.911  1.00  0.00     0.124 S 
ATOM     93  O   UNL A   1      43.008  36.107  32.657  1.00  0.00    -0.237 OA
ATOM     94  O   UNL A   1      42.735  38.233  33.884  1.00  0.00    -0.237 OA
ATOM     95  O   UNL A   1      44.409  36.580  34.633  1.00  0.00    -0.744 OA
ENDBRANCH  88  92
ENDBRANCH  62  85
ENDBRANCH  36  37
ENDBRANCH  29  31
ENDBRANCH  28  29
ENDBRANCH   1  28
TORSDOF 16
ENDMDL
