MODEL 1
REMARK VINA RESULT:     -11.4      0.000      0.000
REMARK SMILES O=C(OCCOC(=O)[C@@]1([C@@H]2CCO[C@@]3(CCOC3)C2)CCOC1)c1ccc(-c2c3nc(c(-c4cc(S(=O)(=O)[O-])ccc4F)c4ccc([nH]4)c(-c4cc(S(=O)(=O)[O-])ccc4F)c4nc(c(-c5cc(S(=O)(=O)[O-])ccc5F)c5ccc2[nH]5)C=C4)C=C3)cc1
REMARK SMILES IDX 4 1 3 2 2 3 1 4 24 5 25 6 86 7 26 8 85 9 27 10 28 11 29 12
REMARK SMILES IDX 79 13 30 14 84 15 78 16 80 17 31 18 83 19 77 20 76 21 32 23
REMARK SMILES IDX 64 24 44 25 63 26 45 27 48 28 62 29 81 30 46 31 47 32 61 34
REMARK SMILES IDX 82 35 49 36 33 37 34 38 42 39 35 40 41 41 43 42 40 43 36 44
REMARK SMILES IDX 37 45 38 46 39 47 65 48 66 49 74 50 67 51 73 52 75 53 72 54
REMARK SMILES IDX 68 55 69 56 70 57 71 58 50 59 51 60 59 61 52 62 58 63 60 64
REMARK SMILES IDX 57 65 53 66 54 67 55 68 56 69 5 70 6 71 7 72 8 73 9 74 20 75
REMARK SMILES IDX 23 76 21 77 22 78 10 79 11 80 19 81 12 82 14 83 13 84 15 85
REMARK SMILES IDX 18 86 16 87 17 88
REMARK H PARENT 80 22 48 33
REMARK Flexibility Score: inf
ROOT
ATOM      1  C   UNL A   1      32.037  29.816  26.884  1.00  0.00     0.275 C 
ENDROOT
BRANCH   1   2
ATOM      2  O   UNL A   1      33.292  30.448  26.603  1.00  0.00    -0.458 OA
BRANCH   2   3
ATOM      3  C   UNL A   1      34.189  30.955  27.480  1.00  0.00     0.338 C 
ATOM      4  O   UNL A   1      33.947  32.052  27.982  1.00  0.00    -0.246 OA
BRANCH   3   5
ATOM      5  C   UNL A   1      35.487  30.281  27.830  1.00  0.00     0.060 A 
ATOM      6  C   UNL A   1      36.722  30.425  27.184  1.00  0.00     0.016 A 
ATOM      7  C   UNL A   1      35.451  29.474  28.973  1.00  0.00     0.016 A 
ATOM      8  C   UNL A   1      37.909  29.915  27.744  1.00  0.00     0.010 A 
ATOM      9  C   UNL A   1      36.632  29.010  29.558  1.00  0.00     0.010 A 
ATOM     10  C   UNL A   1      37.883  29.232  28.958  1.00  0.00    -0.014 A 
BRANCH  10  11
ATOM     11  C   UNL A   1      39.076  28.540  29.526  1.00  0.00     0.031 A 
ATOM     12  C   UNL A   1      39.666  29.148  30.770  1.00  0.00     0.074 A 
ATOM     13  C   UNL A   1      39.670  27.472  28.948  1.00  0.00     0.049 A 
ATOM     14  N   UNL A   1      40.774  28.862  31.396  1.00  0.00    -0.248 NA
ATOM     15  C   UNL A   1      38.912  30.268  31.366  1.00  0.00     0.031 C 
ATOM     16  C   UNL A   1      39.200  26.764  27.760  1.00  0.00     0.029 A 
ATOM     17  N   UNL A   1      40.842  26.818  29.261  1.00  0.00    -0.354 N 
ATOM     18  C   UNL A   1      40.826  29.750  32.463  1.00  0.00     0.074 A 
ATOM     19  C   UNL A   1      39.747  30.692  32.294  1.00  0.00     0.031 C 
ATOM     20  C   UNL A   1      40.104  25.835  27.397  1.00  0.00     0.029 A 
ATOM     21  C   UNL A   1      41.215  25.857  28.341  1.00  0.00     0.049 A 
ATOM     22  H   UNL A   1      41.367  27.017  30.070  1.00  0.00     0.167 HD
ATOM     23  C   UNL A   1      41.635  29.729  33.546  1.00  0.00     0.034 A 
ATOM     24  C   UNL A   1      42.323  25.089  28.272  1.00  0.00     0.034 A 
ATOM     25  C   UNL A   1      42.697  28.780  33.707  1.00  0.00     0.049 A 
ATOM     26  C   UNL A   1      43.314  25.172  29.412  1.00  0.00     0.074 A 
ATOM     27  C   UNL A   1      43.569  28.631  34.767  1.00  0.00     0.029 A 
ATOM     28  N   UNL A   1      43.038  27.820  32.762  1.00  0.00    -0.354 N 
ATOM     29  N   UNL A   1      43.293  25.956  30.467  1.00  0.00    -0.248 NA
ATOM     30  C   UNL A   1      44.442  24.232  29.384  1.00  0.00     0.031 C 
ATOM     31  C   UNL A   1      44.483  27.627  34.433  1.00  0.00     0.029 A 
ATOM     32  C   UNL A   1      44.130  27.094  33.201  1.00  0.00     0.049 A 
ATOM     33  H   UNL A   1      42.571  27.677  31.907  1.00  0.00     0.167 HD
ATOM     34  C   UNL A   1      44.357  25.545  31.266  1.00  0.00     0.074 A 
ATOM     35  C   UNL A   1      45.008  24.460  30.561  1.00  0.00     0.031 C 
ATOM     36  C   UNL A   1      44.746  26.003  32.483  1.00  0.00     0.034 A 
BRANCH  23  37
ATOM     37  C   UNL A   1      41.359  30.761  34.608  1.00  0.00     0.023 A 
ATOM     38  C   UNL A   1      40.218  30.667  35.431  1.00  0.00     0.031 A 
ATOM     39  C   UNL A   1      42.167  31.901  34.727  1.00  0.00     0.131 A 
ATOM     40  C   UNL A   1      39.858  31.743  36.252  1.00  0.00     0.055 A 
ATOM     41  C   UNL A   1      41.855  32.926  35.621  1.00  0.00     0.041 A 
ATOM     42  F   UNL A   1      43.248  32.057  33.947  1.00  0.00    -0.206 F 
ATOM     43  C   UNL A   1      40.684  32.861  36.375  1.00  0.00     0.022 A 
BRANCH  40  44
ATOM     44  S   UNL A   1      38.211  31.735  37.013  1.00  0.00     0.124 S 
ATOM     45  O   UNL A   1      37.460  32.591  36.096  1.00  0.00    -0.237 OA
ATOM     46  O   UNL A   1      37.858  30.320  36.994  1.00  0.00    -0.237 OA
ATOM     47  O   UNL A   1      38.442  32.305  38.338  1.00  0.00    -0.744 OA
ENDBRANCH  40  44
ENDBRANCH  23  37
BRANCH  24  48
ATOM     48  C   UNL A   1      42.567  24.156  27.127  1.00  0.00     0.023 A 
ATOM     49  C   UNL A   1      42.044  22.851  27.120  1.00  0.00     0.031 A 
ATOM     50  C   UNL A   1      43.407  24.525  26.061  1.00  0.00     0.131 A 
ATOM     51  C   UNL A   1      42.413  21.946  26.108  1.00  0.00     0.055 A 
ATOM     52  C   UNL A   1      43.734  23.636  25.031  1.00  0.00     0.041 A 
ATOM     53  F   UNL A   1      43.942  25.756  26.012  1.00  0.00    -0.206 F 
ATOM     54  C   UNL A   1      43.248  22.332  25.060  1.00  0.00     0.022 A 
BRANCH  51  55
ATOM     55  S   UNL A   1      41.862  20.220  26.238  1.00  0.00     0.124 S 
ATOM     56  O   UNL A   1      42.311  19.863  27.579  1.00  0.00    -0.237 OA
ATOM     57  O   UNL A   1      40.420  20.349  26.056  1.00  0.00    -0.237 OA
ATOM     58  O   UNL A   1      42.567  19.554  25.144  1.00  0.00    -0.744 OA
ENDBRANCH  51  55
ENDBRANCH  24  48
BRANCH  36  59
ATOM     59  C   UNL A   1      45.871  25.274  33.169  1.00  0.00     0.023 A 
ATOM     60  C   UNL A   1      47.216  25.600  32.940  1.00  0.00     0.031 A 
ATOM     61  C   UNL A   1      45.581  24.245  34.084  1.00  0.00     0.131 A 
ATOM     62  C   UNL A   1      48.225  24.868  33.579  1.00  0.00     0.055 A 
ATOM     63  C   UNL A   1      46.587  23.568  34.770  1.00  0.00     0.041 A 
ATOM     64  F   UNL A   1      44.309  23.892  34.336  1.00  0.00    -0.206 F 
ATOM     65  C   UNL A   1      47.920  23.871  34.510  1.00  0.00     0.022 A 
BRANCH  62  66
ATOM     66  S   UNL A   1      49.947  25.175  33.106  1.00  0.00     0.124 S 
ATOM     67  O   UNL A   1      50.375  23.857  32.650  1.00  0.00    -0.237 OA
ATOM     68  O   UNL A   1      49.810  26.194  32.069  1.00  0.00    -0.237 OA
ATOM     69  O   UNL A   1      50.567  25.634  34.347  1.00  0.00    -0.744 OA
ENDBRANCH  62  66
ENDBRANCH  36  59
ENDBRANCH  10  11
ENDBRANCH   3   5
ENDBRANCH   2   3
ENDBRANCH   1   2
BRANCH   1  70
ATOM     70  C   UNL A   1      32.115  28.487  27.640  1.00  0.00     0.274 C 
BRANCH  70  71
ATOM     71  O   UNL A   1      31.954  27.322  26.813  1.00  0.00    -0.462 OA
BRANCH  71  72
ATOM     72  C   UNL A   1      33.051  26.793  26.182  1.00  0.00     0.314 C 
ATOM     73  O   UNL A   1      34.086  27.423  26.000  1.00  0.00    -0.252 OA
BRANCH  72  74
ATOM     74  C   UNL A   1      32.768  25.368  25.649  1.00  0.00     0.096 C 
ATOM     75  C   UNL A   1      33.884  24.353  25.876  1.00  0.00     0.050 C 
ATOM     76  C   UNL A   1      31.759  24.752  26.645  1.00  0.00     0.179 C 
ATOM     77  C   UNL A   1      33.135  23.023  26.015  1.00  0.00     0.161 C 
ATOM     78  O   UNL A   1      31.801  23.345  26.426  1.00  0.00    -0.380 OA
BRANCH  74  79
ATOM     79  C   UNL A   1      32.388  25.172  24.125  1.00  0.00     0.014 C 
ATOM     80  C   UNL A   1      33.458  25.141  23.019  1.00  0.00     0.033 C 
ATOM     81  C   UNL A   1      31.158  25.953  23.675  1.00  0.00     0.043 C 
ATOM     82  C   UNL A   1      32.750  25.155  21.648  1.00  0.00     0.161 C 
ATOM     83  C   UNL A   1      31.473  26.979  22.603  1.00  0.00     0.094 C 
ATOM     84  O   UNL A   1      31.854  26.266  21.421  1.00  0.00    -0.372 OA
ATOM     85  C   UNL A   1      30.226  27.845  22.457  1.00  0.00     0.066 C 
ATOM     86  C   UNL A   1      32.516  28.061  22.925  1.00  0.00     0.195 C 
ATOM     87  C   UNL A   1      30.455  28.898  23.532  1.00  0.00     0.163 C 
ATOM     88  O   UNL A   1      31.853  29.193  23.502  1.00  0.00    -0.378 OA
ENDBRANCH  74  79
ENDBRANCH  72  74
ENDBRANCH  71  72
ENDBRANCH  70  71
ENDBRANCH   1  70
TORSDOF 15
ENDMDL
MODEL 2
REMARK VINA RESULT:     -11.4      1.539      1.859
REMARK SMILES O=C(OCCOC(=O)[C@@]1([C@@H]2CCO[C@@]3(CCOC3)C2)CCOC1)c1ccc(-c2c3nc(c(-c4cc(S(=O)(=O)[O-])ccc4F)c4ccc([nH]4)c(-c4cc(S(=O)(=O)[O-])ccc4F)c4nc(c(-c5cc(S(=O)(=O)[O-])ccc5F)c5ccc2[nH]5)C=C4)C=C3)cc1
REMARK SMILES IDX 4 1 3 2 2 3 1 4 24 5 25 6 86 7 26 8 85 9 27 10 28 11 29 12
REMARK SMILES IDX 79 13 30 14 84 15 78 16 80 17 31 18 83 19 77 20 76 21 32 23
REMARK SMILES IDX 64 24 44 25 63 26 45 27 48 28 62 29 81 30 46 31 47 32 61 34
REMARK SMILES IDX 82 35 49 36 33 37 34 38 42 39 35 40 41 41 43 42 40 43 36 44
REMARK SMILES IDX 37 45 38 46 39 47 65 48 66 49 74 50 67 51 73 52 75 53 72 54
REMARK SMILES IDX 68 55 69 56 70 57 71 58 50 59 51 60 59 61 52 62 58 63 60 64
REMARK SMILES IDX 57 65 53 66 54 67 55 68 56 69 5 70 6 71 7 72 8 73 9 74 20 75
REMARK SMILES IDX 23 76 21 77 22 78 10 79 11 80 19 81 12 82 14 83 13 84 15 85
REMARK SMILES IDX 18 86 16 87 17 88
REMARK H PARENT 80 22 48 33
REMARK Flexibility Score: inf
ROOT
ATOM      1  C   UNL A   1      33.309  29.215  26.053  1.00  0.00     0.275 C 
ENDROOT
BRANCH   1   2
ATOM      2  O   UNL A   1      33.409  30.530  26.613  1.00  0.00    -0.458 OA
BRANCH   2   3
ATOM      3  C   UNL A   1      34.346  31.008  27.464  1.00  0.00     0.338 C 
ATOM      4  O   UNL A   1      34.183  32.137  27.926  1.00  0.00    -0.246 OA
BRANCH   3   5
ATOM      5  C   UNL A   1      35.600  30.262  27.829  1.00  0.00     0.060 A 
ATOM      6  C   UNL A   1      36.782  30.166  27.081  1.00  0.00     0.016 A 
ATOM      7  C   UNL A   1      35.589  29.657  29.091  1.00  0.00     0.016 A 
ATOM      8  C   UNL A   1      37.960  29.626  27.633  1.00  0.00     0.010 A 
ATOM      9  C   UNL A   1      36.768  29.168  29.660  1.00  0.00     0.010 A 
ATOM     10  C   UNL A   1      37.976  29.154  28.943  1.00  0.00    -0.014 A 
BRANCH  10  11
ATOM     11  C   UNL A   1      39.142  28.437  29.533  1.00  0.00     0.031 A 
ATOM     12  C   UNL A   1      39.719  29.030  30.791  1.00  0.00     0.074 A 
ATOM     13  C   UNL A   1      39.727  27.359  28.964  1.00  0.00     0.049 A 
ATOM     14  N   UNL A   1      40.809  28.720  31.438  1.00  0.00    -0.248 NA
ATOM     15  C   UNL A   1      38.976  30.163  31.374  1.00  0.00     0.031 C 
ATOM     16  C   UNL A   1      39.267  26.663  27.765  1.00  0.00     0.029 A 
ATOM     17  N   UNL A   1      40.880  26.681  29.299  1.00  0.00    -0.354 N 
ATOM     18  C   UNL A   1      40.856  29.604  32.508  1.00  0.00     0.074 A 
ATOM     19  C   UNL A   1      39.801  30.568  32.321  1.00  0.00     0.031 C 
ATOM     20  C   UNL A   1      40.160  25.718  27.417  1.00  0.00     0.029 A 
ATOM     21  C   UNL A   1      41.251  25.715  28.384  1.00  0.00     0.049 A 
ATOM     22  H   UNL A   1      41.392  26.867  30.119  1.00  0.00     0.167 HD
ATOM     23  C   UNL A   1      41.643  29.564  33.607  1.00  0.00     0.034 A 
ATOM     24  C   UNL A   1      42.345  24.925  28.335  1.00  0.00     0.034 A 
ATOM     25  C   UNL A   1      42.683  28.594  33.787  1.00  0.00     0.049 A 
ATOM     26  C   UNL A   1      43.314  24.985  29.495  1.00  0.00     0.074 A 
ATOM     27  C   UNL A   1      43.530  28.425  34.864  1.00  0.00     0.029 A 
ATOM     28  N   UNL A   1      43.024  27.629  32.847  1.00  0.00    -0.354 N 
ATOM     29  N   UNL A   1      43.288  25.767  30.552  1.00  0.00    -0.248 NA
ATOM     30  C   UNL A   1      44.424  24.023  29.487  1.00  0.00     0.031 C 
ATOM     31  C   UNL A   1      44.431  27.404  34.545  1.00  0.00     0.029 A 
ATOM     32  C   UNL A   1      44.092  26.881  33.305  1.00  0.00     0.049 A 
ATOM     33  H   UNL A   1      42.571  27.498  31.982  1.00  0.00     0.167 HD
ATOM     34  C   UNL A   1      44.327  25.333  31.370  1.00  0.00     0.074 A 
ATOM     35  C   UNL A   1      44.970  24.236  30.676  1.00  0.00     0.031 C 
ATOM     36  C   UNL A   1      44.700  25.780  32.597  1.00  0.00     0.034 A 
BRANCH  23  37
ATOM     37  C   UNL A   1      41.366  30.599  34.667  1.00  0.00     0.023 A 
ATOM     38  C   UNL A   1      40.211  30.522  35.470  1.00  0.00     0.031 A 
ATOM     39  C   UNL A   1      42.191  31.725  34.802  1.00  0.00     0.131 A 
ATOM     40  C   UNL A   1      39.855  31.602  36.288  1.00  0.00     0.055 A 
ATOM     41  C   UNL A   1      41.881  32.754  35.692  1.00  0.00     0.041 A 
ATOM     42  F   UNL A   1      43.287  31.866  34.040  1.00  0.00    -0.206 F 
ATOM     43  C   UNL A   1      40.697  32.707  36.426  1.00  0.00     0.022 A 
BRANCH  40  44
ATOM     44  S   UNL A   1      38.195  31.620  37.021  1.00  0.00     0.124 S 
ATOM     45  O   UNL A   1      37.462  32.454  36.069  1.00  0.00    -0.237 OA
ATOM     46  O   UNL A   1      37.838  30.207  37.034  1.00  0.00    -0.237 OA
ATOM     47  O   UNL A   1      38.407  32.224  38.334  1.00  0.00    -0.744 OA
ENDBRANCH  40  44
ENDBRANCH  23  37
BRANCH  24  48
ATOM     48  C   UNL A   1      42.593  23.990  27.192  1.00  0.00     0.023 A 
ATOM     49  C   UNL A   1      42.044  22.696  27.170  1.00  0.00     0.031 A 
ATOM     50  C   UNL A   1      43.463  24.345  26.145  1.00  0.00     0.131 A 
ATOM     51  C   UNL A   1      42.414  21.787  26.164  1.00  0.00     0.055 A 
ATOM     52  C   UNL A   1      43.794  23.451  25.120  1.00  0.00     0.041 A 
ATOM     53  F   UNL A   1      44.025  25.564  26.112  1.00  0.00    -0.206 F 
ATOM     54  C   UNL A   1      43.280  22.158  25.134  1.00  0.00     0.022 A 
BRANCH  51  55
ATOM     55  S   UNL A   1      41.825  20.072  26.276  1.00  0.00     0.124 S 
ATOM     56  O   UNL A   1      40.384  20.242  26.132  1.00  0.00    -0.237 OA
ATOM     57  O   UNL A   1      42.513  19.443  25.154  1.00  0.00    -0.237 OA
ATOM     58  O   UNL A   1      42.275  19.642  27.599  1.00  0.00    -0.744 OA
ENDBRANCH  51  55
ENDBRANCH  24  48
BRANCH  36  59
ATOM     59  C   UNL A   1      45.797  25.027  33.303  1.00  0.00     0.023 A 
ATOM     60  C   UNL A   1      45.540  23.862  34.042  1.00  0.00     0.031 A 
ATOM     61  C   UNL A   1      47.126  25.480  33.212  1.00  0.00     0.131 A 
ATOM     62  C   UNL A   1      46.592  23.218  34.707  1.00  0.00     0.055 A 
ATOM     63  C   UNL A   1      48.177  24.795  33.817  1.00  0.00     0.041 A 
ATOM     64  F   UNL A   1      47.424  26.592  32.519  1.00  0.00    -0.206 F 
ATOM     65  C   UNL A   1      47.912  23.663  34.581  1.00  0.00     0.022 A 
BRANCH  62  66
ATOM     66  S   UNL A   1      46.198  21.843  35.819  1.00  0.00     0.124 S 
ATOM     67  O   UNL A   1      47.500  21.205  35.984  1.00  0.00    -0.237 OA
ATOM     68  O   UNL A   1      45.672  22.530  36.994  1.00  0.00    -0.237 OA
ATOM     69  O   UNL A   1      45.216  21.065  35.065  1.00  0.00    -0.744 OA
ENDBRANCH  62  66
ENDBRANCH  36  59
ENDBRANCH  10  11
ENDBRANCH   3   5
ENDBRANCH   2   3
ENDBRANCH   1   2
BRANCH   1  70
ATOM     70  C   UNL A   1      32.761  28.133  26.988  1.00  0.00     0.274 C 
BRANCH  70  71
ATOM     71  O   UNL A   1      32.858  26.795  26.470  1.00  0.00    -0.462 OA
BRANCH  71  72
ATOM     72  C   UNL A   1      31.720  26.155  26.051  1.00  0.00     0.314 C 
ATOM     73  O   UNL A   1      30.649  26.731  25.897  1.00  0.00    -0.252 OA
BRANCH  72  74
ATOM     74  C   UNL A   1      31.942  24.631  25.911  1.00  0.00     0.096 C 
ATOM     75  C   UNL A   1      32.890  24.013  26.934  1.00  0.00     0.050 C 
ATOM     76  C   UNL A   1      30.648  23.979  26.449  1.00  0.00     0.179 C 
ATOM     77  C   UNL A   1      32.355  22.587  27.103  1.00  0.00     0.161 C 
ATOM     78  O   UNL A   1      30.976  22.618  26.717  1.00  0.00    -0.380 OA
BRANCH  74  79
ATOM     79  C   UNL A   1      32.447  24.044  24.530  1.00  0.00     0.014 C 
ATOM     80  C   UNL A   1      33.944  23.852  24.229  1.00  0.00     0.033 C 
ATOM     81  C   UNL A   1      31.707  24.578  23.309  1.00  0.00     0.043 C 
ATOM     82  C   UNL A   1      34.103  23.474  22.741  1.00  0.00     0.161 C 
ATOM     83  C   UNL A   1      32.610  25.344  22.362  1.00  0.00     0.094 C 
ATOM     84  O   UNL A   1      33.537  24.411  21.797  1.00  0.00    -0.372 OA
ATOM     85  C   UNL A   1      31.694  26.031  21.354  1.00  0.00     0.066 C 
ATOM     86  C   UNL A   1      33.364  26.565  22.915  1.00  0.00     0.195 C 
ATOM     87  C   UNL A   1      31.353  27.326  22.079  1.00  0.00     0.163 C 
ATOM     88  O   UNL A   1      32.554  27.734  22.738  1.00  0.00    -0.378 OA
ENDBRANCH  74  79
ENDBRANCH  72  74
ENDBRANCH  71  72
ENDBRANCH  70  71
ENDBRANCH   1  70
TORSDOF 15
ENDMDL
MODEL 3
REMARK VINA RESULT:     -11.4      5.033      9.972
REMARK SMILES O=C(OCCOC(=O)[C@@]1([C@@H]2CCO[C@@]3(CCOC3)C2)CCOC1)c1ccc(-c2c3nc(c(-c4cc(S(=O)(=O)[O-])ccc4F)c4ccc([nH]4)c(-c4cc(S(=O)(=O)[O-])ccc4F)c4nc(c(-c5cc(S(=O)(=O)[O-])ccc5F)c5ccc2[nH]5)C=C4)C=C3)cc1
REMARK SMILES IDX 4 1 3 2 2 3 1 4 24 5 25 6 86 7 26 8 85 9 27 10 28 11 29 12
REMARK SMILES IDX 79 13 30 14 84 15 78 16 80 17 31 18 83 19 77 20 76 21 32 23
REMARK SMILES IDX 64 24 44 25 63 26 45 27 48 28 62 29 81 30 46 31 47 32 61 34
REMARK SMILES IDX 82 35 49 36 33 37 34 38 42 39 35 40 41 41 43 42 40 43 36 44
REMARK SMILES IDX 37 45 38 46 39 47 65 48 66 49 74 50 67 51 73 52 75 53 72 54
REMARK SMILES IDX 68 55 69 56 70 57 71 58 50 59 51 60 59 61 52 62 58 63 60 64
REMARK SMILES IDX 57 65 53 66 54 67 55 68 56 69 5 70 6 71 7 72 8 73 9 74 20 75
REMARK SMILES IDX 23 76 21 77 22 78 10 79 11 80 19 81 12 82 14 83 13 84 15 85
REMARK SMILES IDX 18 86 16 87 17 88
REMARK H PARENT 80 22 48 33
REMARK Flexibility Score: inf
ROOT
ATOM      1  C   UNL A   1      36.942  22.382  25.435  1.00  0.00     0.275 C 
ENDROOT
BRANCH   1   2
ATOM      2  O   UNL A   1      38.344  22.089  25.488  1.00  0.00    -0.458 OA
BRANCH   2   3
ATOM      3  C   UNL A   1      39.241  22.457  26.432  1.00  0.00     0.338 C 
ATOM      4  O   UNL A   1      39.929  21.577  26.947  1.00  0.00    -0.246 OA
BRANCH   3   5
ATOM      5  C   UNL A   1      39.401  23.869  26.926  1.00  0.00     0.060 A 
ATOM      6  C   UNL A   1      39.081  24.368  28.196  1.00  0.00     0.016 A 
ATOM      7  C   UNL A   1      39.999  24.754  26.020  1.00  0.00     0.016 A 
ATOM      8  C   UNL A   1      39.486  25.654  28.604  1.00  0.00     0.010 A 
ATOM      9  C   UNL A   1      40.446  26.009  26.438  1.00  0.00     0.010 A 
ATOM     10  C   UNL A   1      40.206  26.477  27.741  1.00  0.00    -0.014 A 
BRANCH  10  11
ATOM     11  C   UNL A   1      40.532  27.897  28.057  1.00  0.00     0.031 A 
ATOM     12  C   UNL A   1      41.991  28.266  28.025  1.00  0.00     0.074 A 
ATOM     13  C   UNL A   1      39.611  28.814  28.430  1.00  0.00     0.049 A 
ATOM     14  N   UNL A   1      42.583  29.369  28.395  1.00  0.00    -0.248 NA
ATOM     15  C   UNL A   1      42.915  27.222  27.543  1.00  0.00     0.031 C 
ATOM     16  C   UNL A   1      38.165  28.608  28.483  1.00  0.00     0.029 A 
ATOM     17  N   UNL A   1      39.762  30.105  28.887  1.00  0.00    -0.354 N 
ATOM     18  C   UNL A   1      43.935  29.147  28.164  1.00  0.00     0.074 A 
ATOM     19  C   UNL A   1      44.091  27.761  27.802  1.00  0.00     0.031 C 
ATOM     20  C   UNL A   1      37.572  29.692  29.017  1.00  0.00     0.029 A 
ATOM     21  C   UNL A   1      38.590  30.689  29.324  1.00  0.00     0.049 A 
ATOM     22  H   UNL A   1      40.630  30.570  28.899  1.00  0.00     0.167 HD
ATOM     23  C   UNL A   1      44.950  30.040  28.154  1.00  0.00     0.034 A 
ATOM     24  C   UNL A   1      38.368  31.888  29.905  1.00  0.00     0.034 A 
ATOM     25  C   UNL A   1      44.781  31.419  28.506  1.00  0.00     0.049 A 
ATOM     26  C   UNL A   1      39.538  32.838  30.037  1.00  0.00     0.074 A 
ATOM     27  C   UNL A   1      45.719  32.431  28.508  1.00  0.00     0.029 A 
ATOM     28  N   UNL A   1      43.581  31.975  28.934  1.00  0.00    -0.354 N 
ATOM     29  N   UNL A   1      40.799  32.642  29.720  1.00  0.00    -0.248 NA
ATOM     30  C   UNL A   1      39.249  34.185  30.546  1.00  0.00     0.031 C 
ATOM     31  C   UNL A   1      45.104  33.585  29.006  1.00  0.00     0.029 A 
ATOM     32  C   UNL A   1      43.763  33.312  29.235  1.00  0.00     0.049 A 
ATOM     33  H   UNL A   1      42.728  31.489  29.011  1.00  0.00     0.167 HD
ATOM     34  C   UNL A   1      41.433  33.866  29.915  1.00  0.00     0.074 A 
ATOM     35  C   UNL A   1      40.421  34.785  30.394  1.00  0.00     0.031 C 
ATOM     36  C   UNL A   1      42.728  34.209  29.693  1.00  0.00     0.034 A 
BRANCH  23  37
ATOM     37  C   UNL A   1      46.299  29.514  27.735  1.00  0.00     0.023 A 
ATOM     38  C   UNL A   1      46.556  29.165  26.393  1.00  0.00     0.031 A 
ATOM     39  C   UNL A   1      47.294  29.251  28.688  1.00  0.00     0.131 A 
ATOM     40  C   UNL A   1      47.728  28.473  26.063  1.00  0.00     0.055 A 
ATOM     41  C   UNL A   1      48.502  28.648  28.333  1.00  0.00     0.041 A 
ATOM     42  F   UNL A   1      47.091  29.533  29.984  1.00  0.00    -0.206 F 
ATOM     43  C   UNL A   1      48.717  28.237  27.019  1.00  0.00     0.022 A 
BRANCH  40  44
ATOM     44  S   UNL A   1      47.855  27.729  24.412  1.00  0.00     0.124 S 
ATOM     45  O   UNL A   1      47.491  26.340  24.687  1.00  0.00    -0.237 OA
ATOM     46  O   UNL A   1      46.888  28.500  23.641  1.00  0.00    -0.237 OA
ATOM     47  O   UNL A   1      49.254  27.939  24.050  1.00  0.00    -0.744 OA
ENDBRANCH  40  44
ENDBRANCH  23  37
BRANCH  24  48
ATOM     48  C   UNL A   1      37.009  32.294  30.383  1.00  0.00     0.023 A 
ATOM     49  C   UNL A   1      36.081  32.906  29.522  1.00  0.00     0.031 A 
ATOM     50  C   UNL A   1      36.650  32.161  31.737  1.00  0.00     0.131 A 
ATOM     51  C   UNL A   1      34.872  33.415  30.030  1.00  0.00     0.055 A 
ATOM     52  C   UNL A   1      35.426  32.629  32.229  1.00  0.00     0.041 A 
ATOM     53  F   UNL A   1      37.494  31.591  32.611  1.00  0.00    -0.206 F 
ATOM     54  C   UNL A   1      34.535  33.274  31.377  1.00  0.00     0.022 A 
BRANCH  51  55
ATOM     55  S   UNL A   1      33.787  34.359  28.920  1.00  0.00     0.124 S 
ATOM     56  O   UNL A   1      34.697  35.376  28.406  1.00  0.00    -0.237 OA
ATOM     57  O   UNL A   1      33.366  33.335  27.970  1.00  0.00    -0.237 OA
ATOM     58  O   UNL A   1      32.736  34.851  29.808  1.00  0.00    -0.744 OA
ENDBRANCH  51  55
ENDBRANCH  24  48
BRANCH  36  59
ATOM     59  C   UNL A   1      43.102  35.656  29.879  1.00  0.00     0.023 A 
ATOM     60  C   UNL A   1      42.887  36.613  28.877  1.00  0.00     0.031 A 
ATOM     61  C   UNL A   1      43.667  36.079  31.097  1.00  0.00     0.131 A 
ATOM     62  C   UNL A   1      43.284  37.940  29.090  1.00  0.00     0.055 A 
ATOM     63  C   UNL A   1      43.993  37.414  31.328  1.00  0.00     0.041 A 
ATOM     64  F   UNL A   1      43.895  35.202  32.088  1.00  0.00    -0.206 F 
ATOM     65  C   UNL A   1      43.813  38.352  30.316  1.00  0.00     0.022 A 
BRANCH  62  66
ATOM     66  S   UNL A   1      43.184  39.104  27.705  1.00  0.00     0.124 S 
ATOM     67  O   UNL A   1      44.539  39.049  27.166  1.00  0.00    -0.237 OA
ATOM     68  O   UNL A   1      42.143  38.511  26.872  1.00  0.00    -0.237 OA
ATOM     69  O   UNL A   1      42.821  40.367  28.344  1.00  0.00    -0.744 OA
ENDBRANCH  62  66
ENDBRANCH  36  59
ENDBRANCH  10  11
ENDBRANCH   3   5
ENDBRANCH   2   3
ENDBRANCH   1   2
BRANCH   1  70
ATOM     70  C   UNL A   1      36.536  23.532  24.509  1.00  0.00     0.274 C 
BRANCH  70  71
ATOM     71  O   UNL A   1      35.267  24.129  24.824  1.00  0.00    -0.462 OA
BRANCH  71  72
ATOM     72  C   UNL A   1      34.242  24.041  23.917  1.00  0.00     0.314 C 
ATOM     73  O   UNL A   1      34.323  24.477  22.774  1.00  0.00    -0.252 OA
BRANCH  72  74
ATOM     74  C   UNL A   1      32.969  23.434  24.553  1.00  0.00     0.096 C 
ATOM     75  C   UNL A   1      32.476  22.139  23.915  1.00  0.00     0.050 C 
ATOM     76  C   UNL A   1      33.438  22.810  25.888  1.00  0.00     0.179 C 
ATOM     77  C   UNL A   1      31.818  21.393  25.082  1.00  0.00     0.161 C 
ATOM     78  O   UNL A   1      32.409  21.907  26.281  1.00  0.00    -0.380 OA
BRANCH  74  79
ATOM     79  C   UNL A   1      31.661  24.317  24.666  1.00  0.00     0.014 C 
ATOM     80  C   UNL A   1      30.947  24.873  23.421  1.00  0.00     0.033 C 
ATOM     81  C   UNL A   1      31.692  25.351  25.786  1.00  0.00     0.043 C 
ATOM     82  C   UNL A   1      29.851  25.858  23.879  1.00  0.00     0.161 C 
ATOM     83  C   UNL A   1      31.606  26.776  25.274  1.00  0.00     0.094 C 
ATOM     84  O   UNL A   1      30.305  26.954  24.705  1.00  0.00    -0.372 OA
ATOM     85  C   UNL A   1      31.918  27.680  26.463  1.00  0.00     0.066 C 
ATOM     86  C   UNL A   1      32.683  27.252  24.285  1.00  0.00     0.195 C 
ATOM     87  C   UNL A   1      33.438  27.750  26.407  1.00  0.00     0.163 C 
ATOM     88  O   UNL A   1      33.777  27.815  25.020  1.00  0.00    -0.378 OA
ENDBRANCH  74  79
ENDBRANCH  72  74
ENDBRANCH  71  72
ENDBRANCH  70  71
ENDBRANCH   1  70
TORSDOF 15
ENDMDL
