MODEL 1
REMARK VINA RESULT:     -10.3      0.000      0.000
REMARK SMILES C=CCN(CC(=O)OCCOC(=O)c1ccc(-c2c3nc(c(-c4cc(S(=O)(=O)[O-])ccc4F)c4ccc([nH]4)c(-c4cc(S(=O)(=O)[O-])ccc4F)c4nc(c(-c5cc(S(=O)(=O)[O-])ccc5F)c5ccc2[nH]5)C=C4)C=C3)cc1)S(=O)(=O)Cc1cc(C)on1
REMARK SMILES IDX 9 1 8 2 6 3 7 4 5 5 4 6 3 7 2 8 1 9 77 10 78 11 79 12 80 13
REMARK SMILES IDX 81 14 82 15 86 16 83 17 85 18 84 19 10 20 11 21 12 22 13 23
REMARK SMILES IDX 14 24 15 25 76 26 16 27 75 28 17 29 18 30 19 31 69 32 20 33
REMARK SMILES IDX 74 34 68 35 70 36 21 37 73 38 67 39 66 40 22 42 54 43 34 44
REMARK SMILES IDX 53 45 35 46 38 47 52 48 71 49 36 50 37 51 51 53 72 54 39 55
REMARK SMILES IDX 23 56 24 57 32 58 25 59 31 60 33 61 30 62 26 63 27 64 28 65
REMARK SMILES IDX 29 66 55 67 56 68 64 69 57 70 63 71 65 72 62 73 58 74 59 75
REMARK SMILES IDX 60 76 61 77 40 78 41 79 49 80 42 81 48 82 50 83 47 84 43 85
REMARK SMILES IDX 44 86 45 87 46 88
REMARK H PARENT 70 41 38 52
REMARK Flexibility Score: inf
ROOT
ATOM      1  C   UNL A   1      31.427  29.027  25.392  1.00  0.00     0.274 C 
ENDROOT
BRANCH   1   2
ATOM      2  O   UNL A   1      32.143  28.349  24.337  1.00  0.00    -0.461 OA
BRANCH   2   3
ATOM      3  C   UNL A   1      32.162  26.998  24.407  1.00  0.00     0.321 C 
ATOM      4  O   UNL A   1      31.149  26.305  24.472  1.00  0.00    -0.251 OA
BRANCH   3   5
ATOM      5  C   UNL A   1      33.532  26.374  24.470  1.00  0.00     0.225 C 
BRANCH   5   6
ATOM      6  N   UNL A   1      33.843  24.927  24.355  1.00  0.00    -0.187 NA
BRANCH   6   7
ATOM      7  C   UNL A   1      35.091  24.575  25.087  1.00  0.00     0.129 C 
BRANCH   7   8
ATOM      8  C   UNL A   1      34.823  23.596  26.185  1.00  0.00    -0.018 C 
ATOM      9  C   UNL A   1      35.337  22.357  26.210  1.00  0.00     0.005 C 
ENDBRANCH   7   8
ENDBRANCH   6   7
BRANCH   6  10
ATOM     10  S   UNL A   1      33.667  24.132  22.856  1.00  0.00     0.220 S 
ATOM     11  O   UNL A   1      33.559  25.180  21.860  1.00  0.00    -0.212 OA
ATOM     12  O   UNL A   1      34.758  23.180  22.764  1.00  0.00    -0.212 OA
BRANCH  10  13
ATOM     13  C   UNL A   1      32.131  23.203  22.896  1.00  0.00     0.214 C 
BRANCH  13  14
ATOM     14  C   UNL A   1      32.234  21.758  23.232  1.00  0.00     0.100 A 
ATOM     15  C   UNL A   1      32.464  21.088  24.461  1.00  0.00     0.073 A 
ATOM     16  N   UNL A   1      32.036  20.869  22.247  1.00  0.00    -0.084 NA
ATOM     17  C   UNL A   1      32.440  19.752  24.138  1.00  0.00     0.133 A 
ATOM     18  O   UNL A   1      32.192  19.621  22.811  1.00  0.00    -0.361 OA
ATOM     19  C   UNL A   1      32.626  18.502  24.897  1.00  0.00     0.091 C 
ENDBRANCH  13  14
ENDBRANCH  10  13
ENDBRANCH   6  10
ENDBRANCH   5   6
ENDBRANCH   3   5
ENDBRANCH   2   3
ENDBRANCH   1   2
BRANCH   1  20
ATOM     20  C   UNL A   1      32.004  30.410  25.703  1.00  0.00     0.275 C 
BRANCH  20  21
ATOM     21  O   UNL A   1      32.385  30.541  27.086  1.00  0.00    -0.458 OA
BRANCH  21  22
ATOM     22  C   UNL A   1      33.176  31.605  27.332  1.00  0.00     0.338 C 
ATOM     23  O   UNL A   1      32.837  32.776  27.394  1.00  0.00    -0.246 OA
BRANCH  22  24
ATOM     24  C   UNL A   1      34.556  31.224  27.625  1.00  0.00     0.060 A 
ATOM     25  C   UNL A   1      34.807  29.891  27.949  1.00  0.00     0.016 A 
ATOM     26  C   UNL A   1      35.500  32.219  27.880  1.00  0.00     0.016 A 
ATOM     27  C   UNL A   1      35.979  29.559  28.615  1.00  0.00     0.010 A 
ATOM     28  C   UNL A   1      36.705  31.870  28.492  1.00  0.00     0.010 A 
ATOM     29  C   UNL A   1      36.934  30.546  28.901  1.00  0.00    -0.014 A 
BRANCH  29  30
ATOM     30  C   UNL A   1      38.148  30.180  29.668  1.00  0.00     0.031 A 
ATOM     31  C   UNL A   1      39.189  29.277  29.064  1.00  0.00     0.074 A 
ATOM     32  C   UNL A   1      38.321  30.697  30.898  1.00  0.00     0.049 A 
ATOM     33  N   UNL A   1      40.263  28.773  29.614  1.00  0.00    -0.248 NA
ATOM     34  C   UNL A   1      38.981  28.874  27.666  1.00  0.00     0.031 C 
ATOM     35  C   UNL A   1      37.389  31.608  31.568  1.00  0.00     0.029 A 
ATOM     36  N   UNL A   1      39.345  30.548  31.795  1.00  0.00    -0.354 N 
ATOM     37  C   UNL A   1      40.840  27.959  28.644  1.00  0.00     0.074 A 
ATOM     38  C   UNL A   1      39.989  28.033  27.474  1.00  0.00     0.031 C 
ATOM     39  C   UNL A   1      37.900  31.962  32.757  1.00  0.00     0.029 A 
ATOM     40  C   UNL A   1      39.163  31.259  32.956  1.00  0.00     0.049 A 
ATOM     41  H   UNL A   1      40.134  29.985  31.624  1.00  0.00     0.167 HD
ATOM     42  C   UNL A   1      41.972  27.214  28.730  1.00  0.00     0.034 A 
ATOM     43  C   UNL A   1      39.919  31.320  34.067  1.00  0.00     0.034 A 
ATOM     44  C   UNL A   1      42.826  27.185  29.895  1.00  0.00     0.049 A 
ATOM     45  C   UNL A   1      41.181  30.508  34.128  1.00  0.00     0.074 A 
ATOM     46  C   UNL A   1      43.996  26.472  30.095  1.00  0.00     0.029 A 
ATOM     47  N   UNL A   1      42.606  27.915  31.057  1.00  0.00    -0.354 N 
ATOM     48  N   UNL A   1      41.680  29.691  33.230  1.00  0.00    -0.248 NA
ATOM     49  C   UNL A   1      41.978  30.623  35.354  1.00  0.00     0.031 C 
ATOM     50  C   UNL A   1      44.458  26.736  31.390  1.00  0.00     0.029 A 
ATOM     51  C   UNL A   1      43.608  27.656  31.982  1.00  0.00     0.049 A 
ATOM     52  H   UNL A   1      41.848  28.526  31.204  1.00  0.00     0.167 HD
ATOM     53  C   UNL A   1      42.845  29.183  33.789  1.00  0.00     0.074 A 
ATOM     54  C   UNL A   1      42.993  29.816  35.086  1.00  0.00     0.031 C 
ATOM     55  C   UNL A   1      43.712  28.270  33.283  1.00  0.00     0.034 A 
BRANCH  42  56
ATOM     56  C   UNL A   1      42.305  26.319  27.561  1.00  0.00     0.023 A 
ATOM     57  C   UNL A   1      41.870  24.985  27.486  1.00  0.00     0.031 A 
ATOM     58  C   UNL A   1      43.103  26.813  26.513  1.00  0.00     0.131 A 
ATOM     59  C   UNL A   1      42.283  24.174  26.414  1.00  0.00     0.055 A 
ATOM     60  C   UNL A   1      43.457  26.021  25.418  1.00  0.00     0.041 A 
ATOM     61  F   UNL A   1      43.566  28.073  26.541  1.00  0.00    -0.206 F 
ATOM     62  C   UNL A   1      43.055  24.690  25.370  1.00  0.00     0.022 A 
BRANCH  59  63
ATOM     63  S   UNL A   1      41.890  22.404  26.452  1.00  0.00     0.124 S 
ATOM     64  O   UNL A   1      40.436  22.421  26.305  1.00  0.00    -0.237 OA
ATOM     65  O   UNL A   1      42.644  21.887  25.317  1.00  0.00    -0.237 OA
ATOM     66  O   UNL A   1      42.369  21.975  27.766  1.00  0.00    -0.744 OA
ENDBRANCH  59  63
ENDBRANCH  42  56
BRANCH  43  67
ATOM     67  C   UNL A   1      39.474  32.140  35.223  1.00  0.00     0.023 A 
ATOM     68  C   UNL A   1      39.887  33.472  35.369  1.00  0.00     0.031 A 
ATOM     69  C   UNL A   1      38.621  31.596  36.200  1.00  0.00     0.131 A 
ATOM     70  C   UNL A   1      39.464  34.214  36.482  1.00  0.00     0.055 A 
ATOM     71  C   UNL A   1      38.174  32.349  37.286  1.00  0.00     0.041 A 
ATOM     72  F   UNL A   1      38.189  30.330  36.095  1.00  0.00    -0.206 F 
ATOM     73  C   UNL A   1      38.602  33.663  37.436  1.00  0.00     0.022 A 
BRANCH  70  74
ATOM     74  S   UNL A   1      40.088  35.903  36.690  1.00  0.00     0.124 S 
ATOM     75  O   UNL A   1      41.524  35.680  36.813  1.00  0.00    -0.237 OA
ATOM     76  O   UNL A   1      39.642  36.546  35.458  1.00  0.00    -0.237 OA
ATOM     77  O   UNL A   1      39.422  36.366  37.906  1.00  0.00    -0.744 OA
ENDBRANCH  70  74
ENDBRANCH  43  67
BRANCH  55  78
ATOM     78  C   UNL A   1      44.887  27.917  34.156  1.00  0.00     0.023 A 
ATOM     79  C   UNL A   1      44.811  26.867  35.088  1.00  0.00     0.031 A 
ATOM     80  C   UNL A   1      46.069  28.673  34.096  1.00  0.00     0.131 A 
ATOM     81  C   UNL A   1      45.879  26.636  35.966  1.00  0.00     0.055 A 
ATOM     82  C   UNL A   1      47.147  28.408  34.942  1.00  0.00     0.041 A 
ATOM     83  F   UNL A   1      46.188  29.688  33.227  1.00  0.00    -0.206 F 
ATOM     84  C   UNL A   1      47.051  27.396  35.893  1.00  0.00     0.022 A 
BRANCH  81  85
ATOM     85  S   UNL A   1      45.678  25.397  37.275  1.00  0.00     0.124 S 
ATOM     86  O   UNL A   1      44.360  24.845  36.974  1.00  0.00    -0.237 OA
ATOM     87  O   UNL A   1      46.810  24.507  37.038  1.00  0.00    -0.237 OA
ATOM     88  O   UNL A   1      45.753  26.181  38.505  1.00  0.00    -0.744 OA
ENDBRANCH  81  85
ENDBRANCH  55  78
ENDBRANCH  29  30
ENDBRANCH  22  24
ENDBRANCH  21  22
ENDBRANCH  20  21
ENDBRANCH   1  20
TORSDOF 20
ENDMDL
MODEL 2
REMARK VINA RESULT:     -10.2      2.614      8.534
REMARK SMILES C=CCN(CC(=O)OCCOC(=O)c1ccc(-c2c3nc(c(-c4cc(S(=O)(=O)[O-])ccc4F)c4ccc([nH]4)c(-c4cc(S(=O)(=O)[O-])ccc4F)c4nc(c(-c5cc(S(=O)(=O)[O-])ccc5F)c5ccc2[nH]5)C=C4)C=C3)cc1)S(=O)(=O)Cc1cc(C)on1
REMARK SMILES IDX 9 1 8 2 6 3 7 4 5 5 4 6 3 7 2 8 1 9 77 10 78 11 79 12 80 13
REMARK SMILES IDX 81 14 82 15 86 16 83 17 85 18 84 19 10 20 11 21 12 22 13 23
REMARK SMILES IDX 14 24 15 25 76 26 16 27 75 28 17 29 18 30 19 31 69 32 20 33
REMARK SMILES IDX 74 34 68 35 70 36 21 37 73 38 67 39 66 40 22 42 54 43 34 44
REMARK SMILES IDX 53 45 35 46 38 47 52 48 71 49 36 50 37 51 51 53 72 54 39 55
REMARK SMILES IDX 23 56 24 57 32 58 25 59 31 60 33 61 30 62 26 63 27 64 28 65
REMARK SMILES IDX 29 66 55 67 56 68 64 69 57 70 63 71 65 72 62 73 58 74 59 75
REMARK SMILES IDX 60 76 61 77 40 78 41 79 49 80 42 81 48 82 50 83 47 84 43 85
REMARK SMILES IDX 44 86 45 87 46 88
REMARK H PARENT 70 41 38 52
REMARK Flexibility Score: inf
ROOT
ATOM      1  C   UNL A   1      31.642  30.792  26.673  1.00  0.00     0.274 C 
ENDROOT
BRANCH   1   2
ATOM      2  O   UNL A   1      32.190  30.460  25.378  1.00  0.00    -0.461 OA
BRANCH   2   3
ATOM      3  C   UNL A   1      32.887  29.303  25.309  1.00  0.00     0.321 C 
ATOM      4  O   UNL A   1      33.990  29.139  25.826  1.00  0.00    -0.251 OA
BRANCH   3   5
ATOM      5  C   UNL A   1      32.252  28.215  24.482  1.00  0.00     0.225 C 
BRANCH   5   6
ATOM      6  N   UNL A   1      30.856  27.724  24.601  1.00  0.00    -0.187 NA
BRANCH   6   7
ATOM      7  C   UNL A   1      30.684  26.848  25.793  1.00  0.00     0.129 C 
BRANCH   7   8
ATOM      8  C   UNL A   1      31.947  26.120  26.124  1.00  0.00    -0.018 C 
ATOM      9  C   UNL A   1      32.211  24.873  25.704  1.00  0.00     0.005 C 
ENDBRANCH   7   8
ENDBRANCH   6   7
BRANCH   6  10
ATOM     10  S   UNL A   1      30.017  27.189  23.215  1.00  0.00     0.220 S 
ATOM     11  O   UNL A   1      30.831  27.581  22.082  1.00  0.00    -0.212 OA
ATOM     12  O   UNL A   1      29.728  25.783  23.426  1.00  0.00    -0.212 OA
BRANCH  10  13
ATOM     13  C   UNL A   1      28.452  28.065  23.140  1.00  0.00     0.214 C 
BRANCH  13  14
ATOM     14  C   UNL A   1      28.512  29.508  22.786  1.00  0.00     0.100 A 
ATOM     15  C   UNL A   1      28.848  30.656  23.548  1.00  0.00     0.073 A 
ATOM     16  N   UNL A   1      28.260  29.852  21.514  1.00  0.00    -0.084 NA
ATOM     17  C   UNL A   1      28.733  31.705  22.668  1.00  0.00     0.133 A 
ATOM     18  O   UNL A   1      28.372  31.225  21.451  1.00  0.00    -0.361 OA
ATOM     19  C   UNL A   1      28.904  33.165  22.772  1.00  0.00     0.091 C 
ENDBRANCH  13  14
ENDBRANCH  10  13
ENDBRANCH   6  10
ENDBRANCH   5   6
ENDBRANCH   3   5
ENDBRANCH   2   3
ENDBRANCH   1   2
BRANCH   1  20
ATOM     20  C   UNL A   1      31.499  32.302  26.883  1.00  0.00     0.275 C 
BRANCH  20  21
ATOM     21  O   UNL A   1      32.737  33.001  26.656  1.00  0.00    -0.458 OA
BRANCH  21  22
ATOM     22  C   UNL A   1      33.349  33.401  27.789  1.00  0.00     0.338 C 
ATOM     23  O   UNL A   1      32.935  34.213  28.603  1.00  0.00    -0.246 OA
BRANCH  22  24
ATOM     24  C   UNL A   1      34.596  32.682  28.040  1.00  0.00     0.060 A 
ATOM     25  C   UNL A   1      34.508  31.344  28.424  1.00  0.00     0.016 A 
ATOM     26  C   UNL A   1      35.781  33.402  28.197  1.00  0.00     0.016 A 
ATOM     27  C   UNL A   1      35.588  30.742  29.054  1.00  0.00     0.010 A 
ATOM     28  C   UNL A   1      36.886  32.772  28.772  1.00  0.00     0.010 A 
ATOM     29  C   UNL A   1      36.783  31.452  29.242  1.00  0.00    -0.014 A 
BRANCH  29  30
ATOM     30  C   UNL A   1      37.901  30.810  29.972  1.00  0.00     0.031 A 
ATOM     31  C   UNL A   1      38.091  31.056  31.445  1.00  0.00     0.074 A 
ATOM     32  C   UNL A   1      38.720  29.975  29.307  1.00  0.00     0.049 A 
ATOM     33  N   UNL A   1      39.060  30.661  32.229  1.00  0.00    -0.248 NA
ATOM     34  C   UNL A   1      37.067  31.869  32.115  1.00  0.00     0.031 C 
ATOM     35  C   UNL A   1      38.609  29.642  27.885  1.00  0.00     0.029 A 
ATOM     36  N   UNL A   1      39.794  29.244  29.738  1.00  0.00    -0.354 N 
ATOM     37  C   UNL A   1      38.787  31.211  33.478  1.00  0.00     0.074 A 
ATOM     38  C   UNL A   1      37.563  31.974  33.340  1.00  0.00     0.031 C 
ATOM     39  C   UNL A   1      39.556  28.746  27.569  1.00  0.00     0.029 A 
ATOM     40  C   UNL A   1      40.374  28.488  28.749  1.00  0.00     0.049 A 
ATOM     41  H   UNL A   1      40.119  29.259  30.667  1.00  0.00     0.167 HD
ATOM     42  C   UNL A   1      39.500  31.094  34.627  1.00  0.00     0.034 A 
ATOM     43  C   UNL A   1      41.459  27.694  28.783  1.00  0.00     0.034 A 
ATOM     44  C   UNL A   1      40.698  30.296  34.749  1.00  0.00     0.049 A 
ATOM     45  C   UNL A   1      42.215  27.558  30.073  1.00  0.00     0.074 A 
ATOM     46  C   UNL A   1      41.499  30.100  35.861  1.00  0.00     0.029 A 
ATOM     47  N   UNL A   1      41.261  29.548  33.722  1.00  0.00    -0.354 N 
ATOM     48  N   UNL A   1      41.985  28.137  31.228  1.00  0.00    -0.248 NA
ATOM     49  C   UNL A   1      43.381  26.667  30.061  1.00  0.00     0.031 C 
ATOM     50  C   UNL A   1      42.568  29.272  35.495  1.00  0.00     0.029 A 
ATOM     51  C   UNL A   1      42.406  28.905  34.169  1.00  0.00     0.049 A 
ATOM     52  H   UNL A   1      40.900  29.484  32.808  1.00  0.00     0.167 HD
ATOM     53  C   UNL A   1      42.986  27.689  32.080  1.00  0.00     0.074 A 
ATOM     54  C   UNL A   1      43.799  26.763  31.315  1.00  0.00     0.031 C 
ATOM     55  C   UNL A   1      43.221  28.018  33.376  1.00  0.00     0.034 A 
BRANCH  42  56
ATOM     56  C   UNL A   1      39.040  31.904  35.815  1.00  0.00     0.023 A 
ATOM     57  C   UNL A   1      38.330  31.334  36.886  1.00  0.00     0.031 A 
ATOM     58  C   UNL A   1      39.296  33.286  35.855  1.00  0.00     0.131 A 
ATOM     59  C   UNL A   1      37.854  32.153  37.924  1.00  0.00     0.055 A 
ATOM     60  C   UNL A   1      38.875  34.084  36.921  1.00  0.00     0.041 A 
ATOM     61  F   UNL A   1      39.950  33.890  34.850  1.00  0.00    -0.206 F 
ATOM     62  C   UNL A   1      38.140  33.520  37.958  1.00  0.00     0.022 A 
BRANCH  59  63
ATOM     63  S   UNL A   1      36.759  31.431  39.177  1.00  0.00     0.124 S 
ATOM     64  O   UNL A   1      35.690  32.425  39.243  1.00  0.00    -0.237 OA
ATOM     65  O   UNL A   1      36.406  30.146  38.588  1.00  0.00    -0.237 OA
ATOM     66  O   UNL A   1      37.603  31.357  40.369  1.00  0.00    -0.744 OA
ENDBRANCH  59  63
ENDBRANCH  42  56
BRANCH  43  67
ATOM     67  C   UNL A   1      41.918  27.010  27.546  1.00  0.00     0.023 A 
ATOM     68  C   UNL A   1      41.829  25.618  27.412  1.00  0.00     0.031 A 
ATOM     69  C   UNL A   1      42.449  27.751  26.474  1.00  0.00     0.131 A 
ATOM     70  C   UNL A   1      42.288  25.001  26.238  1.00  0.00     0.055 A 
ATOM     71  C   UNL A   1      42.870  27.137  25.295  1.00  0.00     0.041 A 
ATOM     72  F   UNL A   1      42.540  29.088  26.552  1.00  0.00    -0.206 F 
ATOM     73  C   UNL A   1      42.799  25.753  25.175  1.00  0.00     0.022 A 
BRANCH  70  74
ATOM     74  S   UNL A   1      42.246  23.192  26.133  1.00  0.00     0.124 S 
ATOM     75  O   UNL A   1      40.821  22.915  26.267  1.00  0.00    -0.237 OA
ATOM     76  O   UNL A   1      42.825  22.951  24.815  1.00  0.00    -0.237 OA
ATOM     77  O   UNL A   1      43.074  22.765  27.260  1.00  0.00    -0.744 OA
ENDBRANCH  70  74
ENDBRANCH  43  67
BRANCH  55  78
ATOM     78  C   UNL A   1      44.411  27.360  34.021  1.00  0.00     0.023 A 
ATOM     79  C   UNL A   1      44.321  26.068  34.569  1.00  0.00     0.031 A 
ATOM     80  C   UNL A   1      45.628  28.052  34.140  1.00  0.00     0.131 A 
ATOM     81  C   UNL A   1      45.411  25.528  35.264  1.00  0.00     0.055 A 
ATOM     82  C   UNL A   1      46.726  27.490  34.792  1.00  0.00     0.041 A 
ATOM     83  F   UNL A   1      45.762  29.289  33.637  1.00  0.00    -0.206 F 
ATOM     84  C   UNL A   1      46.617  26.228  35.372  1.00  0.00     0.022 A 
BRANCH  81  85
ATOM     85  S   UNL A   1      45.202  23.940  36.115  1.00  0.00     0.124 S 
ATOM     86  O   UNL A   1      46.418  23.227  35.733  1.00  0.00    -0.237 OA
ATOM     87  O   UNL A   1      45.113  24.345  37.513  1.00  0.00    -0.237 OA
ATOM     88  O   UNL A   1      43.968  23.404  35.544  1.00  0.00    -0.744 OA
ENDBRANCH  81  85
ENDBRANCH  55  78
ENDBRANCH  29  30
ENDBRANCH  22  24
ENDBRANCH  21  22
ENDBRANCH  20  21
ENDBRANCH   1  20
TORSDOF 20
ENDMDL
MODEL 3
REMARK VINA RESULT:     -10.2      1.988      2.530
REMARK SMILES C=CCN(CC(=O)OCCOC(=O)c1ccc(-c2c3nc(c(-c4cc(S(=O)(=O)[O-])ccc4F)c4ccc([nH]4)c(-c4cc(S(=O)(=O)[O-])ccc4F)c4nc(c(-c5cc(S(=O)(=O)[O-])ccc5F)c5ccc2[nH]5)C=C4)C=C3)cc1)S(=O)(=O)Cc1cc(C)on1
REMARK SMILES IDX 9 1 8 2 6 3 7 4 5 5 4 6 3 7 2 8 1 9 77 10 78 11 79 12 80 13
REMARK SMILES IDX 81 14 82 15 86 16 83 17 85 18 84 19 10 20 11 21 12 22 13 23
REMARK SMILES IDX 14 24 15 25 76 26 16 27 75 28 17 29 18 30 19 31 69 32 20 33
REMARK SMILES IDX 74 34 68 35 70 36 21 37 73 38 67 39 66 40 22 42 54 43 34 44
REMARK SMILES IDX 53 45 35 46 38 47 52 48 71 49 36 50 37 51 51 53 72 54 39 55
REMARK SMILES IDX 23 56 24 57 32 58 25 59 31 60 33 61 30 62 26 63 27 64 28 65
REMARK SMILES IDX 29 66 55 67 56 68 64 69 57 70 63 71 65 72 62 73 58 74 59 75
REMARK SMILES IDX 60 76 61 77 40 78 41 79 49 80 42 81 48 82 50 83 47 84 43 85
REMARK SMILES IDX 44 86 45 87 46 88
REMARK H PARENT 70 41 38 52
REMARK Flexibility Score: inf
ROOT
ATOM      1  C   UNL A   1      31.410  29.260  25.272  1.00  0.00     0.274 C 
ENDROOT
BRANCH   1   2
ATOM      2  O   UNL A   1      30.838  29.328  23.948  1.00  0.00    -0.461 OA
BRANCH   2   3
ATOM      3  C   UNL A   1      30.138  28.241  23.548  1.00  0.00     0.321 C 
ATOM      4  O   UNL A   1      29.146  28.298  22.825  1.00  0.00    -0.251 OA
BRANCH   3   5
ATOM      5  C   UNL A   1      30.612  26.925  24.108  1.00  0.00     0.225 C 
BRANCH   5   6
ATOM      6  N   UNL A   1      31.673  26.059  23.535  1.00  0.00    -0.187 NA
BRANCH   6   7
ATOM      7  C   UNL A   1      32.116  26.547  22.199  1.00  0.00     0.129 C 
BRANCH   7   8
ATOM      8  C   UNL A   1      33.361  27.369  22.303  1.00  0.00    -0.018 C 
ATOM      9  C   UNL A   1      34.036  27.542  23.449  1.00  0.00     0.005 C 
ENDBRANCH   7   8
ENDBRANCH   6   7
BRANCH   6  10
ATOM     10  S   UNL A   1      31.545  24.362  23.650  1.00  0.00     0.220 S 
ATOM     11  O   UNL A   1      31.869  24.030  25.023  1.00  0.00    -0.212 OA
ATOM     12  O   UNL A   1      30.237  24.011  23.128  1.00  0.00    -0.212 OA
BRANCH  10  13
ATOM     13  C   UNL A   1      32.779  23.636  22.567  1.00  0.00     0.214 C 
BRANCH  13  14
ATOM     14  C   UNL A   1      34.011  23.114  23.216  1.00  0.00     0.100 A 
ATOM     15  C   UNL A   1      34.270  21.913  23.923  1.00  0.00     0.073 A 
ATOM     16  N   UNL A   1      35.133  23.842  23.108  1.00  0.00    -0.084 NA
ATOM     17  C   UNL A   1      35.597  21.993  24.272  1.00  0.00     0.133 A 
ATOM     18  O   UNL A   1      36.112  23.153  23.792  1.00  0.00    -0.361 OA
ATOM     19  C   UNL A   1      36.522  21.129  25.027  1.00  0.00     0.091 C 
ENDBRANCH  13  14
ENDBRANCH  10  13
ENDBRANCH   6  10
ENDBRANCH   5   6
ENDBRANCH   3   5
ENDBRANCH   2   3
ENDBRANCH   1   2
BRANCH   1  20
ATOM     20  C   UNL A   1      31.766  30.639  25.833  1.00  0.00     0.275 C 
BRANCH  20  21
ATOM     21  O   UNL A   1      32.417  30.552  27.115  1.00  0.00    -0.458 OA
BRANCH  21  22
ATOM     22  C   UNL A   1      33.206  31.608  27.395  1.00  0.00     0.338 C 
ATOM     23  O   UNL A   1      32.878  32.783  27.437  1.00  0.00    -0.246 OA
BRANCH  22  24
ATOM     24  C   UNL A   1      34.566  31.214  27.755  1.00  0.00     0.060 A 
ATOM     25  C   UNL A   1      34.793  29.873  28.069  1.00  0.00     0.016 A 
ATOM     26  C   UNL A   1      35.502  32.198  28.076  1.00  0.00     0.016 A 
ATOM     27  C   UNL A   1      35.926  29.523  28.791  1.00  0.00     0.010 A 
ATOM     28  C   UNL A   1      36.670  31.831  28.745  1.00  0.00     0.010 A 
ATOM     29  C   UNL A   1      36.869  30.499  29.144  1.00  0.00    -0.014 A 
BRANCH  29  30
ATOM     30  C   UNL A   1      38.038  30.113  29.968  1.00  0.00     0.031 A 
ATOM     31  C   UNL A   1      39.113  29.226  29.401  1.00  0.00     0.074 A 
ATOM     32  C   UNL A   1      38.142  30.598  31.219  1.00  0.00     0.049 A 
ATOM     33  N   UNL A   1      40.155  28.707  29.996  1.00  0.00    -0.248 NA
ATOM     34  C   UNL A   1      38.985  28.860  27.983  1.00  0.00     0.031 C 
ATOM     35  C   UNL A   1      37.173  31.491  31.860  1.00  0.00     0.029 A 
ATOM     36  N   UNL A   1      39.114  30.425  32.168  1.00  0.00    -0.354 N 
ATOM     37  C   UNL A   1      40.787  27.918  29.039  1.00  0.00     0.074 A 
ATOM     38  C   UNL A   1      40.002  28.024  27.826  1.00  0.00     0.031 C 
ATOM     39  C   UNL A   1      37.616  31.814  33.084  1.00  0.00     0.029 A 
ATOM     40  C   UNL A   1      38.866  31.106  33.335  1.00  0.00     0.049 A 
ATOM     41  H   UNL A   1      39.912  29.866  32.027  1.00  0.00     0.167 HD
ATOM     42  C   UNL A   1      41.912  27.171  29.170  1.00  0.00     0.034 A 
ATOM     43  C   UNL A   1      39.558  31.137  34.488  1.00  0.00     0.034 A 
ATOM     44  C   UNL A   1      42.699  27.111  30.380  1.00  0.00     0.049 A 
ATOM     45  C   UNL A   1      40.816  30.324  34.599  1.00  0.00     0.074 A 
ATOM     46  C   UNL A   1      43.857  26.393  30.626  1.00  0.00     0.029 A 
ATOM     47  N   UNL A   1      42.414  27.810  31.547  1.00  0.00    -0.354 N 
ATOM     48  N   UNL A   1      41.365  29.529  33.709  1.00  0.00    -0.248 NA
ATOM     49  C   UNL A   1      41.542  30.406  35.871  1.00  0.00     0.031 C 
ATOM     50  C   UNL A   1      44.246  26.623  31.952  1.00  0.00     0.029 A 
ATOM     51  C   UNL A   1      43.362  27.527  32.519  1.00  0.00     0.049 A 
ATOM     52  H   UNL A   1      41.649  28.418  31.666  1.00  0.00     0.167 HD
ATOM     53  C   UNL A   1      42.498  29.007  34.319  1.00  0.00     0.074 A 
ATOM     54  C   UNL A   1      42.572  29.605  35.639  1.00  0.00     0.031 C 
ATOM     55  C   UNL A   1      43.393  28.107  33.839  1.00  0.00     0.034 A 
BRANCH  42  56
ATOM     56  C   UNL A   1      42.311  26.307  27.998  1.00  0.00     0.023 A 
ATOM     57  C   UNL A   1      41.863  24.983  27.851  1.00  0.00     0.031 A 
ATOM     58  C   UNL A   1      43.188  26.818  27.024  1.00  0.00     0.131 A 
ATOM     59  C   UNL A   1      42.336  24.199  26.784  1.00  0.00     0.055 A 
ATOM     60  C   UNL A   1      43.604  26.054  25.931  1.00  0.00     0.041 A 
ATOM     61  F   UNL A   1      43.666  28.069  27.124  1.00  0.00    -0.206 F 
ATOM     62  C   UNL A   1      43.186  24.733  25.813  1.00  0.00     0.022 A 
BRANCH  59  63
ATOM     63  S   UNL A   1      41.914  22.435  26.740  1.00  0.00     0.124 S 
ATOM     64  O   UNL A   1      42.791  21.896  27.777  1.00  0.00    -0.237 OA
ATOM     65  O   UNL A   1      40.489  22.442  27.044  1.00  0.00    -0.237 OA
ATOM     66  O   UNL A   1      42.257  22.035  25.375  1.00  0.00    -0.744 OA
ENDBRANCH  59  63
ENDBRANCH  42  56
BRANCH  43  67
ATOM     67  C   UNL A   1      39.048  31.927  35.638  1.00  0.00     0.023 A 
ATOM     68  C   UNL A   1      38.312  31.320  36.665  1.00  0.00     0.031 A 
ATOM     69  C   UNL A   1      39.298  33.309  35.724  1.00  0.00     0.131 A 
ATOM     70  C   UNL A   1      37.829  32.098  37.728  1.00  0.00     0.055 A 
ATOM     71  C   UNL A   1      38.846  34.071  36.801  1.00  0.00     0.041 A 
ATOM     72  F   UNL A   1      40.010  33.930  34.771  1.00  0.00    -0.206 F 
ATOM     73  C   UNL A   1      38.099  33.467  37.807  1.00  0.00     0.022 A 
BRANCH  70  74
ATOM     74  S   UNL A   1      36.802  31.301  38.992  1.00  0.00     0.124 S 
ATOM     75  O   UNL A   1      37.676  31.340  40.158  1.00  0.00    -0.237 OA
ATOM     76  O   UNL A   1      35.636  32.178  39.033  1.00  0.00    -0.237 OA
ATOM     77  O   UNL A   1      36.555  29.969  38.441  1.00  0.00    -0.744 OA
ENDBRANCH  70  74
ENDBRANCH  43  67
BRANCH  55  78
ATOM     78  C   UNL A   1      44.517  27.731  34.768  1.00  0.00     0.023 A 
ATOM     79  C   UNL A   1      44.285  26.945  35.910  1.00  0.00     0.031 A 
ATOM     80  C   UNL A   1      45.818  28.209  34.539  1.00  0.00     0.131 A 
ATOM     81  C   UNL A   1      45.327  26.707  36.816  1.00  0.00     0.055 A 
ATOM     82  C   UNL A   1      46.863  27.931  35.421  1.00  0.00     0.041 A 
ATOM     83  F   UNL A   1      46.088  28.968  33.465  1.00  0.00    -0.206 F 
ATOM     84  C   UNL A   1      46.618  27.189  36.574  1.00  0.00     0.022 A 
BRANCH  81  85
ATOM     85  S   UNL A   1      44.954  25.847  38.368  1.00  0.00     0.124 S 
ATOM     86  O   UNL A   1      46.196  26.018  39.118  1.00  0.00    -0.237 OA
ATOM     87  O   UNL A   1      43.801  26.590  38.867  1.00  0.00    -0.237 OA
ATOM     88  O   UNL A   1      44.673  24.478  37.943  1.00  0.00    -0.744 OA
ENDBRANCH  81  85
ENDBRANCH  55  78
ENDBRANCH  29  30
ENDBRANCH  22  24
ENDBRANCH  21  22
ENDBRANCH  20  21
ENDBRANCH   1  20
TORSDOF 20
ENDMDL
