MODEL 1
REMARK VINA RESULT:     -10.7      0.000      0.000
REMARK SMILES CCCc1nnc(SCC(=O)OCCOC(=O)c2ccc(-c3c4nc(c(-c5cc(S(=O)(=O)[O-])ccc5F)c5ccc([nH]5)c(-c5cc(S(=O)(=O)[O-])ccc5F)c5nc(c(-c6cc(S(=O)(=O)[O-])ccc6F)c6ccc3[nH]6)C=C5)C=C4)cc2)n1C[C@H]1CCCO1
REMARK SMILES IDX 13 1 12 2 10 3 11 4 9 5 8 6 7 7 4 8 5 9 81 10 6 11 3 12 2 13
REMARK SMILES IDX 1 14 82 15 83 16 84 17 87 18 85 19 86 20 14 21 15 22 16 23
REMARK SMILES IDX 17 24 18 25 19 26 80 27 20 28 79 29 21 30 22 31 23 32 73 33
REMARK SMILES IDX 24 34 78 35 72 36 74 37 25 38 77 39 71 40 70 41 26 43 58 44
REMARK SMILES IDX 38 45 57 46 39 47 42 48 56 49 75 50 40 51 41 52 55 54 76 55
REMARK SMILES IDX 43 56 27 57 28 58 36 59 29 60 35 61 37 62 34 63 30 64 31 65
REMARK SMILES IDX 32 66 33 67 59 68 60 69 68 70 61 71 67 72 69 73 66 74 62 75
REMARK SMILES IDX 63 76 64 77 65 78 44 79 45 80 53 81 46 82 52 83 54 84 51 85
REMARK SMILES IDX 47 86 48 87 49 88 50 89
REMARK H PARENT 74 42 42 53
REMARK Flexibility Score: inf
ROOT
ATOM      1  C   UNL A   1      34.559  30.228  27.360  1.00  0.00     0.274 C 
ENDROOT
BRANCH   1   2
ATOM      2  O   UNL A   1      33.202  30.451  27.804  1.00  0.00    -0.461 OA
BRANCH   2   3
ATOM      3  C   UNL A   1      32.239  30.559  26.852  1.00  0.00     0.316 C 
ATOM      4  O   UNL A   1      31.557  31.566  26.664  1.00  0.00    -0.251 OA
BRANCH   3   5
ATOM      5  C   UNL A   1      31.945  29.265  26.123  1.00  0.00     0.200 C 
BRANCH   5   6
ATOM      6  S   UNL A   1      31.831  27.792  27.115  1.00  0.00    -0.074 SA
BRANCH   6   7
ATOM      7  C   UNL A   1      31.346  26.433  26.156  1.00  0.00     0.191 A 
ATOM      8  C   UNL A   1      31.582  24.396  25.436  1.00  0.00     0.133 A 
ATOM      9  N   UNL A   1      30.403  24.481  26.019  1.00  0.00    -0.134 NA
ATOM     10  N   UNL A   1      32.043  25.690  25.237  1.00  0.00    -0.303 N 
ATOM     11  N   UNL A   1      30.256  25.766  26.469  1.00  0.00    -0.123 NA
BRANCH   8  12
ATOM     12  C   UNL A   1      32.337  23.128  25.178  1.00  0.00     0.077 C 
BRANCH  12  13
ATOM     13  C   UNL A   1      33.468  22.930  26.204  1.00  0.00     0.005 C 
ATOM     14  C   UNL A   1      32.940  22.699  27.611  1.00  0.00     0.004 C 
ENDBRANCH  12  13
ENDBRANCH   8  12
BRANCH  10  15
ATOM     15  C   UNL A   1      33.040  26.082  24.279  1.00  0.00     0.158 C 
BRANCH  15  16
ATOM     16  C   UNL A   1      32.571  26.456  22.864  1.00  0.00     0.138 C 
ATOM     17  C   UNL A   1      31.610  27.628  22.755  1.00  0.00     0.036 C 
ATOM     18  O   UNL A   1      33.730  26.895  22.110  1.00  0.00    -0.376 OA
ATOM     19  C   UNL A   1      32.483  28.853  22.568  1.00  0.00     0.031 C 
ATOM     20  C   UNL A   1      33.868  28.309  22.290  1.00  0.00     0.160 C 
ENDBRANCH  15  16
ENDBRANCH  10  15
ENDBRANCH   6   7
ENDBRANCH   5   6
ENDBRANCH   3   5
ENDBRANCH   2   3
ENDBRANCH   1   2
BRANCH   1  21
ATOM     21  C   UNL A   1      35.504  31.354  27.788  1.00  0.00     0.275 C 
BRANCH  21  22
ATOM     22  O   UNL A   1      35.825  31.346  29.190  1.00  0.00    -0.458 OA
BRANCH  22  23
ATOM     23  C   UNL A   1      36.354  30.177  29.604  1.00  0.00     0.338 C 
ATOM     24  O   UNL A   1      35.992  29.528  30.566  1.00  0.00    -0.246 OA
BRANCH  23  25
ATOM     25  C   UNL A   1      37.614  29.853  28.918  1.00  0.00     0.060 A 
ATOM     26  C   UNL A   1      37.709  28.566  28.395  1.00  0.00     0.016 A 
ATOM     27  C   UNL A   1      38.759  30.593  29.210  1.00  0.00     0.016 A 
ATOM     28  C   UNL A   1      38.919  27.905  28.483  1.00  0.00     0.010 A 
ATOM     29  C   UNL A   1      39.992  29.954  29.179  1.00  0.00     0.010 A 
ATOM     30  C   UNL A   1      40.054  28.572  28.965  1.00  0.00    -0.014 A 
BRANCH  30  31
ATOM     31  C   UNL A   1      41.285  27.782  29.188  1.00  0.00     0.031 A 
ATOM     32  C   UNL A   1      41.881  27.890  30.556  1.00  0.00     0.074 A 
ATOM     33  C   UNL A   1      41.796  26.931  28.266  1.00  0.00     0.049 A 
ATOM     34  N   UNL A   1      43.123  28.014  30.903  1.00  0.00    -0.248 NA
ATOM     35  C   UNL A   1      40.936  28.001  31.685  1.00  0.00     0.031 C 
ATOM     36  C   UNL A   1      41.242  26.642  26.938  1.00  0.00     0.029 A 
ATOM     37  N   UNL A   1      42.825  26.028  28.369  1.00  0.00    -0.354 N 
ATOM     38  C   UNL A   1      43.120  28.004  32.296  1.00  0.00     0.074 A 
ATOM     39  C   UNL A   1      41.761  28.213  32.704  1.00  0.00     0.031 C 
ATOM     40  C   UNL A   1      41.733  25.470  26.497  1.00  0.00     0.029 A 
ATOM     41  C   UNL A   1      42.704  24.978  27.460  1.00  0.00     0.049 A 
ATOM     42  H   UNL A   1      43.565  26.111  29.012  1.00  0.00     0.167 HD
ATOM     43  C   UNL A   1      44.168  27.534  33.023  1.00  0.00     0.034 A 
ATOM     44  C   UNL A   1      43.240  23.732  27.527  1.00  0.00     0.034 A 
ATOM     45  C   UNL A   1      45.422  27.714  32.335  1.00  0.00     0.049 A 
ATOM     46  C   UNL A   1      44.396  23.773  28.447  1.00  0.00     0.074 A 
ATOM     47  C   UNL A   1      46.093  28.809  31.821  1.00  0.00     0.029 A 
ATOM     48  N   UNL A   1      46.084  26.615  31.841  1.00  0.00    -0.354 N 
ATOM     49  N   UNL A   1      45.514  24.391  28.188  1.00  0.00    -0.248 NA
ATOM     50  C   UNL A   1      44.184  23.440  29.848  1.00  0.00     0.031 C 
ATOM     51  C   UNL A   1      46.831  28.319  30.706  1.00  0.00     0.029 A 
ATOM     52  C   UNL A   1      46.592  26.949  30.611  1.00  0.00     0.049 A 
ATOM     53  H   UNL A   1      46.177  25.743  32.291  1.00  0.00     0.167 HD
ATOM     54  C   UNL A   1      45.941  24.886  29.410  1.00  0.00     0.074 A 
ATOM     55  C   UNL A   1      45.160  24.161  30.404  1.00  0.00     0.031 C 
ATOM     56  C   UNL A   1      46.678  26.033  29.490  1.00  0.00     0.034 A 
BRANCH  43  57
ATOM     57  C   UNL A   1      43.974  26.565  34.182  1.00  0.00     0.023 A 
ATOM     58  C   UNL A   1      44.283  27.028  35.474  1.00  0.00     0.031 A 
ATOM     59  C   UNL A   1      43.795  25.161  34.070  1.00  0.00     0.131 A 
ATOM     60  C   UNL A   1      44.522  26.126  36.527  1.00  0.00     0.055 A 
ATOM     61  C   UNL A   1      43.962  24.278  35.138  1.00  0.00     0.041 A 
ATOM     62  F   UNL A   1      43.529  24.542  32.915  1.00  0.00    -0.206 F 
ATOM     63  C   UNL A   1      44.368  24.753  36.367  1.00  0.00     0.022 A 
BRANCH  60  64
ATOM     64  S   UNL A   1      45.248  26.768  38.055  1.00  0.00     0.124 S 
ATOM     65  O   UNL A   1      46.579  27.159  37.603  1.00  0.00    -0.237 OA
ATOM     66  O   UNL A   1      44.329  27.853  38.384  1.00  0.00    -0.237 OA
ATOM     67  O   UNL A   1      45.207  25.618  38.956  1.00  0.00    -0.744 OA
ENDBRANCH  60  64
ENDBRANCH  43  57
BRANCH  44  68
ATOM     68  C   UNL A   1      42.599  22.481  27.029  1.00  0.00     0.023 A 
ATOM     69  C   UNL A   1      43.312  21.453  26.385  1.00  0.00     0.031 A 
ATOM     70  C   UNL A   1      41.246  22.207  27.346  1.00  0.00     0.131 A 
ATOM     71  C   UNL A   1      42.661  20.242  26.047  1.00  0.00     0.055 A 
ATOM     72  C   UNL A   1      40.598  21.030  26.975  1.00  0.00     0.041 A 
ATOM     73  F   UNL A   1      40.520  23.051  28.097  1.00  0.00    -0.206 F 
ATOM     74  C   UNL A   1      41.305  20.038  26.321  1.00  0.00     0.022 A 
BRANCH  71  75
ATOM     75  S   UNL A   1      43.603  18.855  25.336  1.00  0.00     0.124 S 
ATOM     76  O   UNL A   1      42.843  17.696  25.786  1.00  0.00    -0.237 OA
ATOM     77  O   UNL A   1      43.560  19.150  23.908  1.00  0.00    -0.237 OA
ATOM     78  O   UNL A   1      44.927  18.996  25.946  1.00  0.00    -0.744 OA
ENDBRANCH  71  75
ENDBRANCH  44  68
BRANCH  56  79
ATOM     79  C   UNL A   1      47.404  26.522  28.256  1.00  0.00     0.023 A 
ATOM     80  C   UNL A   1      46.774  26.888  27.048  1.00  0.00     0.031 A 
ATOM     81  C   UNL A   1      48.792  26.730  28.358  1.00  0.00     0.131 A 
ATOM     82  C   UNL A   1      47.535  27.428  25.995  1.00  0.00     0.055 A 
ATOM     83  C   UNL A   1      49.539  27.285  27.320  1.00  0.00     0.041 A 
ATOM     84  F   UNL A   1      49.445  26.428  29.494  1.00  0.00    -0.206 F 
ATOM     85  C   UNL A   1      48.912  27.631  26.129  1.00  0.00     0.022 A 
BRANCH  82  86
ATOM     86  S   UNL A   1      46.747  27.866  24.414  1.00  0.00     0.124 S 
ATOM     87  O   UNL A   1      47.701  27.404  23.413  1.00  0.00    -0.237 OA
ATOM     88  O   UNL A   1      45.488  27.131  24.488  1.00  0.00    -0.237 OA
ATOM     89  O   UNL A   1      46.607  29.321  24.499  1.00  0.00    -0.744 OA
ENDBRANCH  82  86
ENDBRANCH  56  79
ENDBRANCH  30  31
ENDBRANCH  23  25
ENDBRANCH  22  23
ENDBRANCH  21  22
ENDBRANCH   1  21
TORSDOF 20
ENDMDL
MODEL 2
REMARK VINA RESULT:     -10.6      2.646      7.836
REMARK SMILES CCCc1nnc(SCC(=O)OCCOC(=O)c2ccc(-c3c4nc(c(-c5cc(S(=O)(=O)[O-])ccc5F)c5ccc([nH]5)c(-c5cc(S(=O)(=O)[O-])ccc5F)c5nc(c(-c6cc(S(=O)(=O)[O-])ccc6F)c6ccc3[nH]6)C=C5)C=C4)cc2)n1C[C@H]1CCCO1
REMARK SMILES IDX 13 1 12 2 10 3 11 4 9 5 8 6 7 7 4 8 5 9 81 10 6 11 3 12 2 13
REMARK SMILES IDX 1 14 82 15 83 16 84 17 87 18 85 19 86 20 14 21 15 22 16 23
REMARK SMILES IDX 17 24 18 25 19 26 80 27 20 28 79 29 21 30 22 31 23 32 73 33
REMARK SMILES IDX 24 34 78 35 72 36 74 37 25 38 77 39 71 40 70 41 26 43 58 44
REMARK SMILES IDX 38 45 57 46 39 47 42 48 56 49 75 50 40 51 41 52 55 54 76 55
REMARK SMILES IDX 43 56 27 57 28 58 36 59 29 60 35 61 37 62 34 63 30 64 31 65
REMARK SMILES IDX 32 66 33 67 59 68 60 69 68 70 61 71 67 72 69 73 66 74 62 75
REMARK SMILES IDX 63 76 64 77 65 78 44 79 45 80 53 81 46 82 52 83 54 84 51 85
REMARK SMILES IDX 47 86 48 87 49 88 50 89
REMARK H PARENT 74 42 42 53
REMARK Flexibility Score: inf
ROOT
ATOM      1  C   UNL A   1      33.212  29.922  27.275  1.00  0.00     0.274 C 
ENDROOT
BRANCH   1   2
ATOM      2  O   UNL A   1      32.672  30.012  25.938  1.00  0.00    -0.461 OA
BRANCH   2   3
ATOM      3  C   UNL A   1      32.033  28.919  25.444  1.00  0.00     0.316 C 
ATOM      4  O   UNL A   1      31.232  28.945  24.509  1.00  0.00    -0.251 OA
BRANCH   3   5
ATOM      5  C   UNL A   1      32.258  27.657  26.249  1.00  0.00     0.200 C 
BRANCH   5   6
ATOM      6  S   UNL A   1      30.917  26.488  26.304  1.00  0.00    -0.074 SA
BRANCH   6   7
ATOM      7  C   UNL A   1      31.509  24.861  26.242  1.00  0.00     0.191 A 
ATOM      8  C   UNL A   1      33.077  23.388  25.933  1.00  0.00     0.133 A 
ATOM      9  N   UNL A   1      32.624  23.239  27.162  1.00  0.00    -0.134 NA
ATOM     10  N   UNL A   1      32.170  24.185  25.248  1.00  0.00    -0.303 N 
ATOM     11  N   UNL A   1      31.635  24.167  27.353  1.00  0.00    -0.123 NA
BRANCH   8  12
ATOM     12  C   UNL A   1      34.401  22.902  25.427  1.00  0.00     0.077 C 
BRANCH  12  13
ATOM     13  C   UNL A   1      35.499  23.963  25.625  1.00  0.00     0.005 C 
ATOM     14  C   UNL A   1      36.893  23.355  25.654  1.00  0.00     0.004 C 
ENDBRANCH  12  13
ENDBRANCH   8  12
BRANCH  10  15
ATOM     15  C   UNL A   1      32.028  24.248  23.819  1.00  0.00     0.158 C 
BRANCH  15  16
ATOM     16  C   UNL A   1      33.192  24.835  23.005  1.00  0.00     0.138 C 
ATOM     17  C   UNL A   1      33.203  24.527  21.517  1.00  0.00     0.036 C 
ATOM     18  O   UNL A   1      33.086  26.281  23.052  1.00  0.00    -0.376 OA
ATOM     19  C   UNL A   1      32.441  25.661  20.861  1.00  0.00     0.031 C 
ATOM     20  C   UNL A   1      32.279  26.704  21.947  1.00  0.00     0.160 C 
ENDBRANCH  15  16
ENDBRANCH  10  15
ENDBRANCH   6   7
ENDBRANCH   5   6
ENDBRANCH   3   5
ENDBRANCH   2   3
ENDBRANCH   1   2
BRANCH   1  21
ATOM     21  C   UNL A   1      34.736  29.775  27.279  1.00  0.00     0.275 C 
BRANCH  21  22
ATOM     22  O   UNL A   1      35.437  30.977  27.645  1.00  0.00    -0.458 OA
BRANCH  22  23
ATOM     23  C   UNL A   1      36.429  30.760  28.532  1.00  0.00     0.338 C 
ATOM     24  O   UNL A   1      36.747  31.498  29.445  1.00  0.00    -0.246 OA
BRANCH  23  25
ATOM     25  C   UNL A   1      37.292  29.632  28.151  1.00  0.00     0.060 A 
ATOM     26  C   UNL A   1      37.521  28.679  29.140  1.00  0.00     0.016 A 
ATOM     27  C   UNL A   1      38.175  29.781  27.082  1.00  0.00     0.016 A 
ATOM     28  C   UNL A   1      38.781  28.120  29.239  1.00  0.00     0.010 A 
ATOM     29  C   UNL A   1      39.396  29.120  27.128  1.00  0.00     0.010 A 
ATOM     30  C   UNL A   1      39.760  28.412  28.280  1.00  0.00    -0.014 A 
BRANCH  30  31
ATOM     31  C   UNL A   1      41.135  27.918  28.515  1.00  0.00     0.031 A 
ATOM     32  C   UNL A   1      41.434  26.559  27.964  1.00  0.00     0.074 A 
ATOM     33  C   UNL A   1      42.102  28.668  29.093  1.00  0.00     0.049 A 
ATOM     34  N   UNL A   1      42.087  25.580  28.505  1.00  0.00    -0.248 NA
ATOM     35  C   UNL A   1      40.802  26.212  26.676  1.00  0.00     0.031 C 
ATOM     36  C   UNL A   1      41.974  30.052  29.565  1.00  0.00     0.029 A 
ATOM     37  N   UNL A   1      43.444  28.419  29.244  1.00  0.00    -0.354 N 
ATOM     38  C   UNL A   1      42.122  24.580  27.535  1.00  0.00     0.074 A 
ATOM     39  C   UNL A   1      41.149  24.936  26.544  1.00  0.00     0.031 C 
ATOM     40  C   UNL A   1      43.197  30.603  29.663  1.00  0.00     0.029 A 
ATOM     41  C   UNL A   1      44.193  29.590  29.359  1.00  0.00     0.049 A 
ATOM     42  H   UNL A   1      43.835  27.516  29.269  1.00  0.00     0.167 HD
ATOM     43  C   UNL A   1      43.142  23.684  27.449  1.00  0.00     0.034 A 
ATOM     44  C   UNL A   1      45.512  29.781  29.102  1.00  0.00     0.034 A 
ATOM     45  C   UNL A   1      43.735  23.422  28.736  1.00  0.00     0.049 A 
ATOM     46  C   UNL A   1      46.192  28.470  29.161  1.00  0.00     0.074 A 
ATOM     47  C   UNL A   1      43.251  22.960  29.946  1.00  0.00     0.029 A 
ATOM     48  N   UNL A   1      45.002  23.887  29.002  1.00  0.00    -0.354 N 
ATOM     49  N   UNL A   1      46.363  27.784  30.257  1.00  0.00    -0.248 NA
ATOM     50  C   UNL A   1      46.361  27.716  27.928  1.00  0.00     0.031 C 
ATOM     51  C   UNL A   1      44.062  23.572  30.944  1.00  0.00     0.029 A 
ATOM     52  C   UNL A   1      45.012  24.356  30.292  1.00  0.00     0.049 A 
ATOM     53  H   UNL A   1      45.764  23.884  28.378  1.00  0.00     0.167 HD
ATOM     54  C   UNL A   1      46.248  26.458  29.871  1.00  0.00     0.074 A 
ATOM     55  C   UNL A   1      46.380  26.475  28.420  1.00  0.00     0.031 C 
ATOM     56  C   UNL A   1      45.774  25.510  30.732  1.00  0.00     0.034 A 
BRANCH  43  57
ATOM     57  C   UNL A   1      43.824  23.367  26.125  1.00  0.00     0.023 A 
ATOM     58  C   UNL A   1      43.828  22.026  25.702  1.00  0.00     0.031 A 
ATOM     59  C   UNL A   1      44.706  24.226  25.419  1.00  0.00     0.131 A 
ATOM     60  C   UNL A   1      44.748  21.574  24.737  1.00  0.00     0.055 A 
ATOM     61  C   UNL A   1      45.566  23.785  24.411  1.00  0.00     0.041 A 
ATOM     62  F   UNL A   1      44.859  25.523  25.705  1.00  0.00    -0.206 F 
ATOM     63  C   UNL A   1      45.620  22.444  24.091  1.00  0.00     0.022 A 
BRANCH  60  64
ATOM     64  S   UNL A   1      44.930  19.790  24.498  1.00  0.00     0.124 S 
ATOM     65  O   UNL A   1      46.358  19.609  24.737  1.00  0.00    -0.237 OA
ATOM     66  O   UNL A   1      44.029  19.263  25.517  1.00  0.00    -0.237 OA
ATOM     67  O   UNL A   1      44.498  19.591  23.116  1.00  0.00    -0.744 OA
ENDBRANCH  60  64
ENDBRANCH  43  57
BRANCH  44  68
ATOM     68  C   UNL A   1      46.118  31.023  28.543  1.00  0.00     0.023 A 
ATOM     69  C   UNL A   1      45.578  31.717  27.444  1.00  0.00     0.031 A 
ATOM     70  C   UNL A   1      47.190  31.654  29.222  1.00  0.00     0.131 A 
ATOM     71  C   UNL A   1      46.138  32.955  27.042  1.00  0.00     0.055 A 
ATOM     72  C   UNL A   1      47.763  32.852  28.799  1.00  0.00     0.041 A 
ATOM     73  F   UNL A   1      47.674  31.160  30.373  1.00  0.00    -0.206 F 
ATOM     74  C   UNL A   1      47.238  33.511  27.702  1.00  0.00     0.022 A 
BRANCH  71  75
ATOM     75  S   UNL A   1      45.366  33.925  25.708  1.00  0.00     0.124 S 
ATOM     76  O   UNL A   1      44.467  34.806  26.442  1.00  0.00    -0.237 OA
ATOM     77  O   UNL A   1      46.520  34.553  25.073  1.00  0.00    -0.237 OA
ATOM     78  O   UNL A   1      44.700  32.910  24.890  1.00  0.00    -0.744 OA
ENDBRANCH  71  75
ENDBRANCH  44  68
BRANCH  56  79
ATOM     79  C   UNL A   1      45.792  25.797  32.216  1.00  0.00     0.023 A 
ATOM     80  C   UNL A   1      44.661  26.160  32.976  1.00  0.00     0.031 A 
ATOM     81  C   UNL A   1      47.000  25.579  32.906  1.00  0.00     0.131 A 
ATOM     82  C   UNL A   1      44.770  26.305  34.372  1.00  0.00     0.055 A 
ATOM     83  C   UNL A   1      47.098  25.703  34.291  1.00  0.00     0.041 A 
ATOM     84  F   UNL A   1      48.106  25.202  32.241  1.00  0.00    -0.206 F 
ATOM     85  C   UNL A   1      45.982  26.073  35.030  1.00  0.00     0.022 A 
BRANCH  82  86
ATOM     86  S   UNL A   1      43.331  26.815  35.364  1.00  0.00     0.124 S 
ATOM     87  O   UNL A   1      43.904  27.692  36.377  1.00  0.00    -0.237 OA
ATOM     88  O   UNL A   1      42.484  27.458  34.364  1.00  0.00    -0.237 OA
ATOM     89  O   UNL A   1      42.809  25.547  35.877  1.00  0.00    -0.744 OA
ENDBRANCH  82  86
ENDBRANCH  56  79
ENDBRANCH  30  31
ENDBRANCH  23  25
ENDBRANCH  22  23
ENDBRANCH  21  22
ENDBRANCH   1  21
TORSDOF 20
ENDMDL
MODEL 3
REMARK VINA RESULT:     -10.5      5.258     10.494
REMARK SMILES CCCc1nnc(SCC(=O)OCCOC(=O)c2ccc(-c3c4nc(c(-c5cc(S(=O)(=O)[O-])ccc5F)c5ccc([nH]5)c(-c5cc(S(=O)(=O)[O-])ccc5F)c5nc(c(-c6cc(S(=O)(=O)[O-])ccc6F)c6ccc3[nH]6)C=C5)C=C4)cc2)n1C[C@H]1CCCO1
REMARK SMILES IDX 13 1 12 2 10 3 11 4 9 5 8 6 7 7 4 8 5 9 81 10 6 11 3 12 2 13
REMARK SMILES IDX 1 14 82 15 83 16 84 17 87 18 85 19 86 20 14 21 15 22 16 23
REMARK SMILES IDX 17 24 18 25 19 26 80 27 20 28 79 29 21 30 22 31 23 32 73 33
REMARK SMILES IDX 24 34 78 35 72 36 74 37 25 38 77 39 71 40 70 41 26 43 58 44
REMARK SMILES IDX 38 45 57 46 39 47 42 48 56 49 75 50 40 51 41 52 55 54 76 55
REMARK SMILES IDX 43 56 27 57 28 58 36 59 29 60 35 61 37 62 34 63 30 64 31 65
REMARK SMILES IDX 32 66 33 67 59 68 60 69 68 70 61 71 67 72 69 73 66 74 62 75
REMARK SMILES IDX 63 76 64 77 65 78 44 79 45 80 53 81 46 82 52 83 54 84 51 85
REMARK SMILES IDX 47 86 48 87 49 88 50 89
REMARK H PARENT 74 42 42 53
REMARK Flexibility Score: inf
ROOT
ATOM      1  C   UNL A   1      40.004  21.939  26.184  1.00  0.00     0.274 C 
ENDROOT
BRANCH   1   2
ATOM      2  O   UNL A   1      38.569  22.061  26.071  1.00  0.00    -0.461 OA
BRANCH   2   3
ATOM      3  C   UNL A   1      37.910  21.110  25.358  1.00  0.00     0.316 C 
ATOM      4  O   UNL A   1      38.389  20.021  25.042  1.00  0.00    -0.251 OA
BRANCH   3   5
ATOM      5  C   UNL A   1      36.565  21.559  24.828  1.00  0.00     0.200 C 
BRANCH   5   6
ATOM      6  S   UNL A   1      36.565  22.929  23.692  1.00  0.00    -0.074 SA
BRANCH   6   7
ATOM      7  C   UNL A   1      34.979  23.612  23.544  1.00  0.00     0.191 A 
ATOM      8  C   UNL A   1      33.582  25.275  23.598  1.00  0.00     0.133 A 
ATOM      9  N   UNL A   1      33.534  24.751  22.390  1.00  0.00    -0.134 NA
ATOM     10  N   UNL A   1      34.246  24.374  24.418  1.00  0.00    -0.303 N 
ATOM     11  N   UNL A   1      34.414  23.702  22.359  1.00  0.00    -0.123 NA
BRANCH   8  12
ATOM     12  C   UNL A   1      33.130  26.655  23.968  1.00  0.00     0.077 C 
BRANCH  12  13
ATOM     13  C   UNL A   1      31.594  26.769  23.937  1.00  0.00     0.005 C 
ATOM     14  C   UNL A   1      31.086  27.398  22.650  1.00  0.00     0.004 C 
ENDBRANCH  12  13
ENDBRANCH   8  12
BRANCH  10  15
ATOM     15  C   UNL A   1      34.151  24.323  25.851  1.00  0.00     0.158 C 
BRANCH  15  16
ATOM     16  C   UNL A   1      32.930  23.621  26.467  1.00  0.00     0.138 C 
ATOM     17  C   UNL A   1      32.154  22.685  25.556  1.00  0.00     0.036 C 
ATOM     18  O   UNL A   1      33.401  22.751  27.527  1.00  0.00    -0.376 OA
ATOM     19  C   UNL A   1      32.780  21.318  25.750  1.00  0.00     0.031 C 
ATOM     20  C   UNL A   1      33.680  21.467  26.958  1.00  0.00     0.160 C 
ENDBRANCH  15  16
ENDBRANCH  10  15
ENDBRANCH   6   7
ENDBRANCH   5   6
ENDBRANCH   3   5
ENDBRANCH   2   3
ENDBRANCH   1   2
BRANCH   1  21
ATOM     21  C   UNL A   1      40.552  22.640  27.430  1.00  0.00     0.275 C 
BRANCH  21  22
ATOM     22  O   UNL A   1      40.978  23.994  27.198  1.00  0.00    -0.458 OA
BRANCH  22  23
ATOM     23  C   UNL A   1      41.871  24.429  28.109  1.00  0.00     0.338 C 
ATOM     24  O   UNL A   1      42.249  23.820  29.091  1.00  0.00    -0.246 OA
BRANCH  23  25
ATOM     25  C   UNL A   1      42.188  25.857  27.952  1.00  0.00     0.060 A 
ATOM     26  C   UNL A   1      42.884  26.446  29.004  1.00  0.00     0.016 A 
ATOM     27  C   UNL A   1      41.431  26.631  27.073  1.00  0.00     0.016 A 
ATOM     28  C   UNL A   1      42.555  27.736  29.373  1.00  0.00     0.010 A 
ATOM     29  C   UNL A   1      41.202  27.964  27.385  1.00  0.00     0.010 A 
ATOM     30  C   UNL A   1      41.637  28.475  28.615  1.00  0.00    -0.014 A 
BRANCH  30  31
ATOM     31  C   UNL A   1      41.199  29.789  29.136  1.00  0.00     0.031 A 
ATOM     32  C   UNL A   1      42.195  30.897  29.008  1.00  0.00     0.074 A 
ATOM     33  C   UNL A   1      39.949  30.020  29.604  1.00  0.00     0.049 A 
ATOM     34  N   UNL A   1      42.519  31.813  29.866  1.00  0.00    -0.248 NA
ATOM     35  C   UNL A   1      43.036  30.897  27.794  1.00  0.00     0.031 C 
ATOM     36  C   UNL A   1      38.845  29.055  29.669  1.00  0.00     0.029 A 
ATOM     37  N   UNL A   1      39.347  31.197  29.976  1.00  0.00    -0.354 N 
ATOM     38  C   UNL A   1      43.445  32.622  29.210  1.00  0.00     0.074 A 
ATOM     39  C   UNL A   1      43.875  31.894  28.051  1.00  0.00     0.031 C 
ATOM     40  C   UNL A   1      37.679  29.720  29.763  1.00  0.00     0.029 A 
ATOM     41  C   UNL A   1      37.959  31.143  29.862  1.00  0.00     0.049 A 
ATOM     42  H   UNL A   1      39.839  31.990  30.287  1.00  0.00     0.167 HD
ATOM     43  C   UNL A   1      43.583  33.945  29.490  1.00  0.00     0.034 A 
ATOM     44  C   UNL A   1      37.079  32.167  29.723  1.00  0.00     0.034 A 
ATOM     45  C   UNL A   1      43.254  34.241  30.862  1.00  0.00     0.049 A 
ATOM     46  C   UNL A   1      37.725  33.404  30.212  1.00  0.00     0.074 A 
ATOM     47  C   UNL A   1      43.721  33.794  32.085  1.00  0.00     0.029 A 
ATOM     48  N   UNL A   1      42.107  34.944  31.144  1.00  0.00    -0.354 N 
ATOM     49  N   UNL A   1      38.009  33.634  31.463  1.00  0.00    -0.248 NA
ATOM     50  C   UNL A   1      38.416  34.254  29.254  1.00  0.00     0.031 C 
ATOM     51  C   UNL A   1      42.610  33.869  32.971  1.00  0.00     0.029 A 
ATOM     52  C   UNL A   1      41.530  34.378  32.252  1.00  0.00     0.049 A 
ATOM     53  H   UNL A   1      41.761  35.716  30.639  1.00  0.00     0.167 HD
ATOM     54  C   UNL A   1      39.194  34.350  31.435  1.00  0.00     0.074 A 
ATOM     55  C   UNL A   1      39.324  34.812  30.059  1.00  0.00     0.031 C 
ATOM     56  C   UNL A   1      40.098  34.262  32.455  1.00  0.00     0.034 A 
BRANCH  43  57
ATOM     57  C   UNL A   1      43.641  34.997  28.391  1.00  0.00     0.023 A 
ATOM     58  C   UNL A   1      44.832  35.734  28.260  1.00  0.00     0.031 A 
ATOM     59  C   UNL A   1      42.529  35.515  27.677  1.00  0.00     0.131 A 
ATOM     60  C   UNL A   1      44.850  36.963  27.574  1.00  0.00     0.055 A 
ATOM     61  C   UNL A   1      42.574  36.698  26.937  1.00  0.00     0.041 A 
ATOM     62  F   UNL A   1      41.311  34.965  27.711  1.00  0.00    -0.206 F 
ATOM     63  C   UNL A   1      43.728  37.453  26.915  1.00  0.00     0.022 A 
BRANCH  60  64
ATOM     64  S   UNL A   1      46.314  38.014  27.741  1.00  0.00     0.124 S 
ATOM     65  O   UNL A   1      47.340  37.186  27.118  1.00  0.00    -0.237 OA
ATOM     66  O   UNL A   1      45.906  39.206  27.005  1.00  0.00    -0.237 OA
ATOM     67  O   UNL A   1      46.442  38.185  29.187  1.00  0.00    -0.744 OA
ENDBRANCH  60  64
ENDBRANCH  43  57
BRANCH  44  68
ATOM     68  C   UNL A   1      35.817  32.129  28.929  1.00  0.00     0.023 A 
ATOM     69  C   UNL A   1      35.431  31.023  28.149  1.00  0.00     0.031 A 
ATOM     70  C   UNL A   1      34.863  33.166  29.069  1.00  0.00     0.131 A 
ATOM     71  C   UNL A   1      34.163  31.009  27.517  1.00  0.00     0.055 A 
ATOM     72  C   UNL A   1      33.633  33.167  28.412  1.00  0.00     0.041 A 
ATOM     73  F   UNL A   1      35.064  34.190  29.914  1.00  0.00    -0.206 F 
ATOM     74  C   UNL A   1      33.276  32.084  27.630  1.00  0.00     0.022 A 
BRANCH  71  75
ATOM     75  S   UNL A   1      33.597  29.529  26.618  1.00  0.00     0.124 S 
ATOM     76  O   UNL A   1      33.078  28.691  27.691  1.00  0.00    -0.237 OA
ATOM     77  O   UNL A   1      32.617  30.085  25.692  1.00  0.00    -0.237 OA
ATOM     78  O   UNL A   1      34.818  29.030  25.984  1.00  0.00    -0.744 OA
ENDBRANCH  71  75
ENDBRANCH  44  68
BRANCH  56  79
ATOM     79  C   UNL A   1      39.634  33.749  33.800  1.00  0.00     0.023 A 
ATOM     80  C   UNL A   1      39.401  32.392  34.104  1.00  0.00     0.031 A 
ATOM     81  C   UNL A   1      39.532  34.681  34.850  1.00  0.00     0.131 A 
ATOM     82  C   UNL A   1      39.069  32.013  35.418  1.00  0.00     0.055 A 
ATOM     83  C   UNL A   1      39.223  34.299  36.155  1.00  0.00     0.041 A 
ATOM     84  F   UNL A   1      39.770  35.985  34.630  1.00  0.00    -0.206 F 
ATOM     85  C   UNL A   1      38.984  32.961  36.443  1.00  0.00     0.022 A 
BRANCH  82  86
ATOM     86  S   UNL A   1      38.724  30.272  35.820  1.00  0.00     0.124 S 
ATOM     87  O   UNL A   1      40.036  29.729  36.155  1.00  0.00    -0.237 OA
ATOM     88  O   UNL A   1      37.780  30.395  36.926  1.00  0.00    -0.237 OA
ATOM     89  O   UNL A   1      38.145  29.748  34.582  1.00  0.00    -0.744 OA
ENDBRANCH  82  86
ENDBRANCH  56  79
ENDBRANCH  30  31
ENDBRANCH  23  25
ENDBRANCH  22  23
ENDBRANCH  21  22
ENDBRANCH   1  21
TORSDOF 20
ENDMDL
