MODEL 1
REMARK VINA RESULT:     -11.5      0.000      0.000
REMARK SMILES CCC[C@](C)(C(=O)OCCOC(=O)c1ccc(-c2c3nc(c(-c4cc(S(=O)(=O)[O-])ccc4F)c4ccc([nH]4)c(-c4cc(S(=O)(=O)[O-])ccc4F)c4nc(c(-c5cc(S(=O)(=O)[O-])ccc5F)c5ccc2[nH]5)C=C4)C=C3)cc1)[C@@H]1CCO[C@]2(CCSC2)C1
REMARK SMILES IDX 10 1 9 2 8 3 6 4 7 5 4 6 5 7 3 8 2 9 1 10 77 11 78 12 86 13
REMARK SMILES IDX 79 14 81 15 80 16 82 17 85 18 83 19 84 20 11 21 12 22 13 23
REMARK SMILES IDX 14 24 15 25 76 26 16 27 75 28 17 29 18 30 19 31 69 32 20 33
REMARK SMILES IDX 74 34 68 35 70 36 21 37 73 38 67 39 66 40 22 42 54 43 34 44
REMARK SMILES IDX 53 45 35 46 38 47 52 48 71 49 36 50 37 51 51 53 72 54 39 55
REMARK SMILES IDX 23 56 24 57 32 58 25 59 31 60 33 61 30 62 26 63 27 64 28 65
REMARK SMILES IDX 29 66 55 67 56 68 64 69 57 70 63 71 65 72 62 73 58 74 59 75
REMARK SMILES IDX 60 76 61 77 40 78 41 79 49 80 42 81 48 82 50 83 47 84 43 85
REMARK SMILES IDX 44 86 45 87 46 88
REMARK H PARENT 70 41 38 52
REMARK Flexibility Score: inf
ROOT
ATOM      1  C   UNL A   1      37.880  19.677  24.948  1.00  0.00     0.275 C 
ENDROOT
BRANCH   1   2
ATOM      2  C   UNL A   1      36.355  19.772  24.989  1.00  0.00     0.274 C 
BRANCH   2   3
ATOM      3  O   UNL A   1      35.921  21.139  25.158  1.00  0.00    -0.462 OA
BRANCH   3   4
ATOM      4  C   UNL A   1      34.599  21.393  24.924  1.00  0.00     0.312 C 
ATOM      5  O   UNL A   1      33.755  20.505  24.866  1.00  0.00    -0.252 OA
BRANCH   4   6
ATOM      6  C   UNL A   1      34.322  22.877  24.501  1.00  0.00     0.068 C 
ATOM      7  C   UNL A   1      35.589  23.462  23.802  1.00  0.00     0.024 C 
BRANCH   6   8
ATOM      8  C   UNL A   1      33.226  22.652  23.415  1.00  0.00     0.018 C 
BRANCH   8   9
ATOM      9  C   UNL A   1      33.271  23.302  22.038  1.00  0.00    -0.002 C 
ATOM     10  C   UNL A   1      32.863  24.753  21.882  1.00  0.00     0.004 C 
ENDBRANCH   8   9
ENDBRANCH   6   8
BRANCH   6  11
ATOM     11  C   UNL A   1      33.983  23.809  25.782  1.00  0.00     0.011 C 
ATOM     12  C   UNL A   1      33.360  23.173  27.034  1.00  0.00     0.033 C 
ATOM     13  C   UNL A   1      33.304  25.206  25.587  1.00  0.00     0.041 C 
ATOM     14  C   UNL A   1      31.856  23.172  26.925  1.00  0.00     0.161 C 
ATOM     15  C   UNL A   1      31.827  25.432  26.091  1.00  0.00     0.078 C 
ATOM     16  O   UNL A   1      31.422  24.511  27.110  1.00  0.00    -0.374 OA
ATOM     17  C   UNL A   1      30.716  25.440  25.023  1.00  0.00     0.047 C 
ATOM     18  C   UNL A   1      31.678  26.853  26.700  1.00  0.00     0.105 C 
ATOM     19  C   UNL A   1      30.835  26.699  24.174  1.00  0.00     0.072 C 
ATOM     20  S   UNL A   1      31.392  27.990  25.308  1.00  0.00    -0.159 SA
ENDBRANCH   6  11
ENDBRANCH   4   6
ENDBRANCH   3   4
ENDBRANCH   2   3
ENDBRANCH   1   2
BRANCH   1  21
ATOM     21  O   UNL A   1      38.469  20.883  25.463  1.00  0.00    -0.458 OA
BRANCH  21  22
ATOM     22  C   UNL A   1      39.614  20.693  26.158  1.00  0.00     0.338 C 
ATOM     23  O   UNL A   1      40.304  19.678  26.182  1.00  0.00    -0.246 OA
BRANCH  22  24
ATOM     24  C   UNL A   1      40.054  21.969  26.735  1.00  0.00     0.060 A 
ATOM     25  C   UNL A   1      39.485  23.127  26.207  1.00  0.00     0.016 A 
ATOM     26  C   UNL A   1      41.044  22.054  27.713  1.00  0.00     0.016 A 
ATOM     27  C   UNL A   1      39.879  24.379  26.651  1.00  0.00     0.010 A 
ATOM     28  C   UNL A   1      41.470  23.321  28.140  1.00  0.00     0.010 A 
ATOM     29  C   UNL A   1      40.895  24.485  27.601  1.00  0.00    -0.014 A 
BRANCH  29  30
ATOM     30  C   UNL A   1      41.423  25.835  27.892  1.00  0.00     0.031 A 
ATOM     31  C   UNL A   1      42.785  26.204  27.381  1.00  0.00     0.074 A 
ATOM     32  C   UNL A   1      40.646  26.754  28.492  1.00  0.00     0.049 A 
ATOM     33  N   UNL A   1      43.446  27.324  27.512  1.00  0.00    -0.248 NA
ATOM     34  C   UNL A   1      43.488  25.173  26.603  1.00  0.00     0.031 C 
ATOM     35  C   UNL A   1      39.263  26.538  28.919  1.00  0.00     0.029 A 
ATOM     36  N   UNL A   1      40.904  28.058  28.828  1.00  0.00    -0.354 N 
ATOM     37  C   UNL A   1      44.642  27.138  26.829  1.00  0.00     0.074 A 
ATOM     38  C   UNL A   1      44.623  25.787  26.306  1.00  0.00     0.031 C 
ATOM     39  C   UNL A   1      38.798  27.672  29.472  1.00  0.00     0.029 A 
ATOM     40  C   UNL A   1      39.861  28.675  29.477  1.00  0.00     0.049 A 
ATOM     41  H   UNL A   1      41.754  28.508  28.622  1.00  0.00     0.167 HD
ATOM     42  C   UNL A   1      45.662  28.015  26.657  1.00  0.00     0.034 A 
ATOM     43  C   UNL A   1      39.791  29.897  30.040  1.00  0.00     0.034 A 
ATOM     44  C   UNL A   1      45.677  29.345  27.215  1.00  0.00     0.049 A 
ATOM     45  C   UNL A   1      40.993  30.807  29.952  1.00  0.00     0.074 A 
ATOM     46  C   UNL A   1      46.681  30.297  27.156  1.00  0.00     0.029 A 
ATOM     47  N   UNL A   1      44.641  29.911  27.950  1.00  0.00    -0.354 N 
ATOM     48  N   UNL A   1      42.145  30.604  29.353  1.00  0.00    -0.248 NA
ATOM     49  C   UNL A   1      40.881  32.114  30.613  1.00  0.00     0.031 C 
ATOM     50  C   UNL A   1      46.280  31.407  27.909  1.00  0.00     0.029 A 
ATOM     51  C   UNL A   1      44.993  31.184  28.373  1.00  0.00     0.049 A 
ATOM     52  H   UNL A   1      43.781  29.471  28.142  1.00  0.00     0.167 HD
ATOM     53  C   UNL A   1      42.883  31.772  29.544  1.00  0.00     0.074 A 
ATOM     54  C   UNL A   1      42.036  32.677  30.293  1.00  0.00     0.031 C 
ATOM     55  C   UNL A   1      44.144  32.070  29.135  1.00  0.00     0.034 A 
BRANCH  42  56
ATOM     56  C   UNL A   1      46.870  27.515  25.905  1.00  0.00     0.023 A 
ATOM     57  C   UNL A   1      47.127  27.893  24.575  1.00  0.00     0.031 A 
ATOM     58  C   UNL A   1      47.745  26.597  26.510  1.00  0.00     0.131 A 
ATOM     59  C   UNL A   1      48.189  27.301  23.873  1.00  0.00     0.055 A 
ATOM     60  C   UNL A   1      48.845  26.070  25.831  1.00  0.00     0.041 A 
ATOM     61  F   UNL A   1      47.533  26.177  27.768  1.00  0.00    -0.206 F 
ATOM     62  C   UNL A   1      49.063  26.409  24.500  1.00  0.00     0.022 A 
BRANCH  59  63
ATOM     63  S   UNL A   1      48.325  27.596  22.087  1.00  0.00     0.124 S 
ATOM     64  O   UNL A   1      49.460  28.513  22.025  1.00  0.00    -0.237 OA
ATOM     65  O   UNL A   1      48.556  26.256  21.563  1.00  0.00    -0.237 OA
ATOM     66  O   UNL A   1      47.035  28.189  21.739  1.00  0.00    -0.744 OA
ENDBRANCH  59  63
ENDBRANCH  42  56
BRANCH  43  67
ATOM     67  C   UNL A   1      38.577  30.315  30.800  1.00  0.00     0.023 A 
ATOM     68  C   UNL A   1      37.536  31.026  30.182  1.00  0.00     0.031 A 
ATOM     69  C   UNL A   1      38.484  30.078  32.183  1.00  0.00     0.131 A 
ATOM     70  C   UNL A   1      36.474  31.521  30.957  1.00  0.00     0.055 A 
ATOM     71  C   UNL A   1      37.398  30.522  32.938  1.00  0.00     0.041 A 
ATOM     72  F   UNL A   1      39.456  29.410  32.827  1.00  0.00    -0.206 F 
ATOM     73  C   UNL A   1      36.391  31.262  32.327  1.00  0.00     0.022 A 
BRANCH  70  74
ATOM     74  S   UNL A   1      35.249  32.599  30.165  1.00  0.00     0.124 S 
ATOM     75  O   UNL A   1      36.069  33.737  29.766  1.00  0.00    -0.237 OA
ATOM     76  O   UNL A   1      34.754  31.754  29.083  1.00  0.00    -0.237 OA
ATOM     77  O   UNL A   1      34.288  32.866  31.233  1.00  0.00    -0.744 OA
ENDBRANCH  70  74
ENDBRANCH  43  67
BRANCH  55  78
ATOM     78  C   UNL A   1      44.655  33.455  29.459  1.00  0.00     0.023 A 
ATOM     79  C   UNL A   1      44.461  34.541  28.586  1.00  0.00     0.031 A 
ATOM     80  C   UNL A   1      45.377  33.683  30.644  1.00  0.00     0.131 A 
ATOM     81  C   UNL A   1      45.042  35.786  28.877  1.00  0.00     0.055 A 
ATOM     82  C   UNL A   1      45.897  34.939  30.960  1.00  0.00     0.041 A 
ATOM     83  F   UNL A   1      45.594  32.684  31.515  1.00  0.00    -0.206 F 
ATOM     84  C   UNL A   1      45.745  35.995  30.066  1.00  0.00     0.022 A 
BRANCH  81  85
ATOM     85  S   UNL A   1      44.965  37.097  27.626  1.00  0.00     0.124 S 
ATOM     86  O   UNL A   1      44.950  38.303  28.448  1.00  0.00    -0.237 OA
ATOM     87  O   UNL A   1      46.182  36.865  26.856  1.00  0.00    -0.237 OA
ATOM     88  O   UNL A   1      43.718  36.819  26.914  1.00  0.00    -0.744 OA
ENDBRANCH  81  85
ENDBRANCH  55  78
ENDBRANCH  29  30
ENDBRANCH  22  24
ENDBRANCH  21  22
ENDBRANCH   1  21
TORSDOF 17
ENDMDL
MODEL 2
REMARK VINA RESULT:     -11.4      0.672      7.647
REMARK SMILES CCC[C@](C)(C(=O)OCCOC(=O)c1ccc(-c2c3nc(c(-c4cc(S(=O)(=O)[O-])ccc4F)c4ccc([nH]4)c(-c4cc(S(=O)(=O)[O-])ccc4F)c4nc(c(-c5cc(S(=O)(=O)[O-])ccc5F)c5ccc2[nH]5)C=C4)C=C3)cc1)[C@@H]1CCO[C@]2(CCSC2)C1
REMARK SMILES IDX 10 1 9 2 8 3 6 4 7 5 4 6 5 7 3 8 2 9 1 10 77 11 78 12 86 13
REMARK SMILES IDX 79 14 81 15 80 16 82 17 85 18 83 19 84 20 11 21 12 22 13 23
REMARK SMILES IDX 14 24 15 25 76 26 16 27 75 28 17 29 18 30 19 31 69 32 20 33
REMARK SMILES IDX 74 34 68 35 70 36 21 37 73 38 67 39 66 40 22 42 54 43 34 44
REMARK SMILES IDX 53 45 35 46 38 47 52 48 71 49 36 50 37 51 51 53 72 54 39 55
REMARK SMILES IDX 23 56 24 57 32 58 25 59 31 60 33 61 30 62 26 63 27 64 28 65
REMARK SMILES IDX 29 66 55 67 56 68 64 69 57 70 63 71 65 72 62 73 58 74 59 75
REMARK SMILES IDX 60 76 61 77 40 78 41 79 49 80 42 81 48 82 50 83 47 84 43 85
REMARK SMILES IDX 44 86 45 87 46 88
REMARK H PARENT 70 41 38 52
REMARK Flexibility Score: inf
ROOT
ATOM      1  C   UNL A   1      37.018  20.395  24.777  1.00  0.00     0.275 C 
ENDROOT
BRANCH   1   2
ATOM      2  C   UNL A   1      35.510  20.301  25.002  1.00  0.00     0.274 C 
BRANCH   2   3
ATOM      3  O   UNL A   1      34.989  21.522  25.571  1.00  0.00    -0.462 OA
BRANCH   3   4
ATOM      4  C   UNL A   1      33.766  21.933  25.119  1.00  0.00     0.312 C 
ATOM      5  O   UNL A   1      32.882  21.146  24.799  1.00  0.00    -0.252 OA
BRANCH   4   6
ATOM      6  C   UNL A   1      33.703  23.472  24.826  1.00  0.00     0.068 C 
ATOM      7  C   UNL A   1      35.133  23.993  24.481  1.00  0.00     0.024 C 
BRANCH   6   8
ATOM      8  C   UNL A   1      32.857  23.465  23.515  1.00  0.00     0.018 C 
BRANCH   8   9
ATOM      9  C   UNL A   1      33.312  24.135  22.225  1.00  0.00    -0.002 C 
ATOM     10  C   UNL A   1      32.822  25.529  21.892  1.00  0.00     0.004 C 
ENDBRANCH   8   9
ENDBRANCH   6   8
BRANCH   6  11
ATOM     11  C   UNL A   1      33.164  24.303  26.107  1.00  0.00     0.011 C 
ATOM     12  C   UNL A   1      32.021  23.723  26.955  1.00  0.00     0.033 C 
ATOM     13  C   UNL A   1      32.931  25.847  26.009  1.00  0.00     0.041 C 
ATOM     14  C   UNL A   1      30.688  24.160  26.400  1.00  0.00     0.161 C 
ATOM     15  C   UNL A   1      31.463  26.420  26.080  1.00  0.00     0.078 C 
ATOM     16  O   UNL A   1      30.533  25.536  26.718  1.00  0.00    -0.374 OA
ATOM     17  C   UNL A   1      30.821  26.868  24.753  1.00  0.00     0.047 C 
ATOM     18  C   UNL A   1      31.440  27.741  26.895  1.00  0.00     0.105 C 
ATOM     19  C   UNL A   1      31.508  28.134  24.257  1.00  0.00     0.072 C 
ATOM     20  S   UNL A   1      31.917  29.070  25.747  1.00  0.00    -0.159 SA
ENDBRANCH   6  11
ENDBRANCH   4   6
ENDBRANCH   3   4
ENDBRANCH   2   3
ENDBRANCH   1   2
BRANCH   1  21
ATOM     21  O   UNL A   1      37.596  21.364  25.669  1.00  0.00    -0.458 OA
BRANCH  21  22
ATOM     22  C   UNL A   1      38.872  21.099  26.032  1.00  0.00     0.338 C 
ATOM     23  O   UNL A   1      39.510  20.077  25.796  1.00  0.00    -0.246 OA
BRANCH  22  24
ATOM     24  C   UNL A   1      39.487  22.312  26.582  1.00  0.00     0.060 A 
ATOM     25  C   UNL A   1      39.032  23.530  26.079  1.00  0.00     0.016 A 
ATOM     26  C   UNL A   1      40.529  22.278  27.508  1.00  0.00     0.016 A 
ATOM     27  C   UNL A   1      39.593  24.726  26.498  1.00  0.00     0.010 A 
ATOM     28  C   UNL A   1      41.123  23.484  27.908  1.00  0.00     0.010 A 
ATOM     29  C   UNL A   1      40.661  24.709  27.396  1.00  0.00    -0.014 A 
BRANCH  29  30
ATOM     30  C   UNL A   1      41.359  25.987  27.655  1.00  0.00     0.031 A 
ATOM     31  C   UNL A   1      40.656  27.044  28.456  1.00  0.00     0.074 A 
ATOM     32  C   UNL A   1      42.643  26.146  27.290  1.00  0.00     0.049 A 
ATOM     33  N   UNL A   1      41.072  28.233  28.808  1.00  0.00    -0.248 NA
ATOM     34  C   UNL A   1      39.309  26.706  28.940  1.00  0.00     0.031 C 
ATOM     35  C   UNL A   1      43.458  25.135  26.616  1.00  0.00     0.029 A 
ATOM     36  N   UNL A   1      43.491  27.211  27.453  1.00  0.00    -0.354 N 
ATOM     37  C   UNL A   1      40.041  28.786  29.558  1.00  0.00     0.074 A 
ATOM     38  C   UNL A   1      38.971  27.809  29.589  1.00  0.00     0.031 C 
ATOM     39  C   UNL A   1      44.689  25.636  26.413  1.00  0.00     0.029 A 
ATOM     40  C   UNL A   1      44.734  27.013  26.901  1.00  0.00     0.049 A 
ATOM     41  H   UNL A   1      43.233  28.038  27.920  1.00  0.00     0.167 HD
ATOM     42  C   UNL A   1      39.992  29.998  30.162  1.00  0.00     0.034 A 
ATOM     43  C   UNL A   1      45.772  27.862  26.776  1.00  0.00     0.034 A 
ATOM     44  C   UNL A   1      41.054  30.973  30.091  1.00  0.00     0.049 A 
ATOM     45  C   UNL A   1      45.643  29.257  27.341  1.00  0.00     0.074 A 
ATOM     46  C   UNL A   1      41.090  32.254  30.614  1.00  0.00     0.029 A 
ATOM     47  N   UNL A   1      42.269  30.777  29.443  1.00  0.00    -0.354 N 
ATOM     48  N   UNL A   1      44.642  29.795  28.000  1.00  0.00    -0.248 NA
ATOM     49  C   UNL A   1      46.788  30.156  27.146  1.00  0.00     0.031 C 
ATOM     50  C   UNL A   1      42.294  32.854  30.226  1.00  0.00     0.029 A 
ATOM     51  C   UNL A   1      43.047  31.923  29.529  1.00  0.00     0.049 A 
ATOM     52  H   UNL A   1      42.538  29.946  28.990  1.00  0.00     0.167 HD
ATOM     53  C   UNL A   1      45.052  31.088  28.323  1.00  0.00     0.074 A 
ATOM     54  C   UNL A   1      46.395  31.237  27.804  1.00  0.00     0.031 C 
ATOM     55  C   UNL A   1      44.380  32.063  28.990  1.00  0.00     0.034 A 
BRANCH  42  56
ATOM     56  C   UNL A   1      38.710  30.355  30.874  1.00  0.00     0.023 A 
ATOM     57  C   UNL A   1      37.649  31.000  30.216  1.00  0.00     0.031 A 
ATOM     58  C   UNL A   1      38.576  30.099  32.250  1.00  0.00     0.131 A 
ATOM     59  C   UNL A   1      36.531  31.430  30.948  1.00  0.00     0.055 A 
ATOM     60  C   UNL A   1      37.428  30.461  32.957  1.00  0.00     0.041 A 
ATOM     61  F   UNL A   1      39.569  29.513  32.937  1.00  0.00    -0.206 F 
ATOM     62  C   UNL A   1      36.404  31.144  32.310  1.00  0.00     0.022 A 
BRANCH  59  63
ATOM     63  S   UNL A   1      35.313  32.499  30.131  1.00  0.00     0.124 S 
ATOM     64  O   UNL A   1      36.129  33.656  29.770  1.00  0.00    -0.237 OA
ATOM     65  O   UNL A   1      34.857  31.668  29.023  1.00  0.00    -0.237 OA
ATOM     66  O   UNL A   1      34.320  32.747  31.174  1.00  0.00    -0.744 OA
ENDBRANCH  59  63
ENDBRANCH  42  56
BRANCH  43  67
ATOM     67  C   UNL A   1      46.999  27.458  26.029  1.00  0.00     0.023 A 
ATOM     68  C   UNL A   1      47.183  27.804  24.681  1.00  0.00     0.031 A 
ATOM     69  C   UNL A   1      47.971  26.644  26.640  1.00  0.00     0.131 A 
ATOM     70  C   UNL A   1      48.283  27.293  23.973  1.00  0.00     0.055 A 
ATOM     71  C   UNL A   1      49.093  26.186  25.948  1.00  0.00     0.041 A 
ATOM     72  F   UNL A   1      47.841  26.276  27.925  1.00  0.00    -0.206 F 
ATOM     73  C   UNL A   1      49.246  26.498  24.601  1.00  0.00     0.022 A 
BRANCH  70  74
ATOM     74  S   UNL A   1      48.386  27.597  22.188  1.00  0.00     0.124 S 
ATOM     75  O   UNL A   1      49.531  28.497  22.106  1.00  0.00    -0.237 OA
ATOM     76  O   UNL A   1      48.589  26.251  21.662  1.00  0.00    -0.237 OA
ATOM     77  O   UNL A   1      47.093  28.200  21.869  1.00  0.00    -0.744 OA
ENDBRANCH  70  74
ENDBRANCH  43  67
BRANCH  55  78
ATOM     78  C   UNL A   1      45.120  33.359  29.228  1.00  0.00     0.023 A 
ATOM     79  C   UNL A   1      45.107  34.404  28.286  1.00  0.00     0.031 A 
ATOM     80  C   UNL A   1      45.877  33.537  30.399  1.00  0.00     0.131 A 
ATOM     81  C   UNL A   1      45.893  35.548  28.500  1.00  0.00     0.055 A 
ATOM     82  C   UNL A   1      46.605  34.703  30.636  1.00  0.00     0.041 A 
ATOM     83  F   UNL A   1      45.928  32.573  31.333  1.00  0.00    -0.206 F 
ATOM     84  C   UNL A   1      46.629  35.711  29.676  1.00  0.00     0.022 A 
BRANCH  81  85
ATOM     85  S   UNL A   1      46.031  36.772  27.167  1.00  0.00     0.124 S 
ATOM     86  O   UNL A   1      46.166  35.923  25.987  1.00  0.00    -0.237 OA
ATOM     87  O   UNL A   1      44.775  37.504  27.286  1.00  0.00    -0.237 OA
ATOM     88  O   UNL A   1      47.228  37.532  27.523  1.00  0.00    -0.744 OA
ENDBRANCH  81  85
ENDBRANCH  55  78
ENDBRANCH  29  30
ENDBRANCH  22  24
ENDBRANCH  21  22
ENDBRANCH   1  21
TORSDOF 17
ENDMDL
MODEL 3
REMARK VINA RESULT:     -11.3      1.429      1.669
REMARK SMILES CCC[C@](C)(C(=O)OCCOC(=O)c1ccc(-c2c3nc(c(-c4cc(S(=O)(=O)[O-])ccc4F)c4ccc([nH]4)c(-c4cc(S(=O)(=O)[O-])ccc4F)c4nc(c(-c5cc(S(=O)(=O)[O-])ccc5F)c5ccc2[nH]5)C=C4)C=C3)cc1)[C@@H]1CCO[C@]2(CCSC2)C1
REMARK SMILES IDX 10 1 9 2 8 3 6 4 7 5 4 6 5 7 3 8 2 9 1 10 77 11 78 12 86 13
REMARK SMILES IDX 79 14 81 15 80 16 82 17 85 18 83 19 84 20 11 21 12 22 13 23
REMARK SMILES IDX 14 24 15 25 76 26 16 27 75 28 17 29 18 30 19 31 69 32 20 33
REMARK SMILES IDX 74 34 68 35 70 36 21 37 73 38 67 39 66 40 22 42 54 43 34 44
REMARK SMILES IDX 53 45 35 46 38 47 52 48 71 49 36 50 37 51 51 53 72 54 39 55
REMARK SMILES IDX 23 56 24 57 32 58 25 59 31 60 33 61 30 62 26 63 27 64 28 65
REMARK SMILES IDX 29 66 55 67 56 68 64 69 57 70 63 71 65 72 62 73 58 74 59 75
REMARK SMILES IDX 60 76 61 77 40 78 41 79 49 80 42 81 48 82 50 83 47 84 43 85
REMARK SMILES IDX 44 86 45 87 46 88
REMARK H PARENT 70 41 38 52
REMARK Flexibility Score: inf
ROOT
ATOM      1  C   UNL A   1      37.893  19.651  24.878  1.00  0.00     0.275 C 
ENDROOT
BRANCH   1   2
ATOM      2  C   UNL A   1      36.367  19.660  24.965  1.00  0.00     0.274 C 
BRANCH   2   3
ATOM      3  O   UNL A   1      35.867  20.988  25.232  1.00  0.00    -0.462 OA
BRANCH   3   4
ATOM      4  C   UNL A   1      34.569  21.234  24.881  1.00  0.00     0.312 C 
ATOM      5  O   UNL A   1      33.741  20.339  24.744  1.00  0.00    -0.252 OA
BRANCH   4   6
ATOM      6  C   UNL A   1      34.318  22.718  24.442  1.00  0.00     0.068 C 
ATOM      7  C   UNL A   1      35.578  23.256  23.693  1.00  0.00     0.024 C 
BRANCH   6   8
ATOM      8  C   UNL A   1      33.181  22.505  23.396  1.00  0.00     0.018 C 
BRANCH   8   9
ATOM      9  C   UNL A   1      33.169  23.179  22.030  1.00  0.00    -0.002 C 
ATOM     10  C   UNL A   1      32.954  24.676  21.937  1.00  0.00     0.004 C 
ENDBRANCH   8   9
ENDBRANCH   6   8
BRANCH   6  11
ATOM     11  C   UNL A   1      34.047  23.680  25.717  1.00  0.00     0.011 C 
ATOM     12  C   UNL A   1      33.495  23.072  27.016  1.00  0.00     0.033 C 
ATOM     13  C   UNL A   1      33.355  25.071  25.526  1.00  0.00     0.041 C 
ATOM     14  C   UNL A   1      31.987  23.066  26.989  1.00  0.00     0.161 C 
ATOM     15  C   UNL A   1      31.907  25.306  26.104  1.00  0.00     0.078 C 
ATOM     16  O   UNL A   1      31.560  24.409  27.166  1.00  0.00    -0.374 OA
ATOM     17  C   UNL A   1      30.739  25.287  25.099  1.00  0.00     0.047 C 
ATOM     18  C   UNL A   1      31.787  26.741  26.687  1.00  0.00     0.105 C 
ATOM     19  C   UNL A   1      30.808  26.525  24.215  1.00  0.00     0.072 C 
ATOM     20  S   UNL A   1      31.422  27.843  25.287  1.00  0.00    -0.159 SA
ENDBRANCH   6  11
ENDBRANCH   4   6
ENDBRANCH   3   4
ENDBRANCH   2   3
ENDBRANCH   1   2
BRANCH   1  21
ATOM     21  O   UNL A   1      38.436  20.819  25.519  1.00  0.00    -0.458 OA
BRANCH  21  22
ATOM     22  C   UNL A   1      39.581  20.598  26.205  1.00  0.00     0.338 C 
ATOM     23  O   UNL A   1      40.253  19.571  26.211  1.00  0.00    -0.246 OA
BRANCH  22  24
ATOM     24  C   UNL A   1      40.046  21.857  26.799  1.00  0.00     0.060 A 
ATOM     25  C   UNL A   1      39.507  23.033  26.279  1.00  0.00     0.016 A 
ATOM     26  C   UNL A   1      41.033  21.909  27.782  1.00  0.00     0.016 A 
ATOM     27  C   UNL A   1      39.927  24.272  26.739  1.00  0.00     0.010 A 
ATOM     28  C   UNL A   1      41.485  23.161  28.225  1.00  0.00     0.010 A 
ATOM     29  C   UNL A   1      40.939  24.344  27.696  1.00  0.00    -0.014 A 
BRANCH  29  30
ATOM     30  C   UNL A   1      41.497  25.678  28.005  1.00  0.00     0.031 A 
ATOM     31  C   UNL A   1      42.878  26.013  27.523  1.00  0.00     0.074 A 
ATOM     32  C   UNL A   1      40.732  26.614  28.594  1.00  0.00     0.049 A 
ATOM     33  N   UNL A   1      43.565  27.116  27.673  1.00  0.00    -0.248 NA
ATOM     34  C   UNL A   1      43.570  24.968  26.753  1.00  0.00     0.031 C 
ATOM     35  C   UNL A   1      39.335  26.433  28.992  1.00  0.00     0.029 A 
ATOM     36  N   UNL A   1      41.017  27.909  28.941  1.00  0.00    -0.354 N 
ATOM     37  C   UNL A   1      44.769  26.902  27.013  1.00  0.00     0.074 A 
ATOM     38  C   UNL A   1      44.726  25.554  26.483  1.00  0.00     0.031 C 
ATOM     39  C   UNL A   1      38.889  27.576  29.541  1.00  0.00     0.029 A 
ATOM     40  C   UNL A   1      39.978  28.550  29.573  1.00  0.00     0.049 A 
ATOM     41  H   UNL A   1      41.883  28.338  28.755  1.00  0.00     0.167 HD
ATOM     42  C   UNL A   1      45.815  27.752  26.866  1.00  0.00     0.034 A 
ATOM     43  C   UNL A   1      39.929  29.771  30.140  1.00  0.00     0.034 A 
ATOM     44  C   UNL A   1      45.854  29.079  27.432  1.00  0.00     0.049 A 
ATOM     45  C   UNL A   1      41.156  30.650  30.081  1.00  0.00     0.074 A 
ATOM     46  C   UNL A   1      46.883  30.004  27.397  1.00  0.00     0.029 A 
ATOM     47  N   UNL A   1      44.818  29.668  28.148  1.00  0.00    -0.354 N 
ATOM     48  N   UNL A   1      42.314  30.420  29.505  1.00  0.00    -0.248 NA
ATOM     49  C   UNL A   1      41.064  31.956  30.747  1.00  0.00     0.031 C 
ATOM     50  C   UNL A   1      46.496  31.121  28.148  1.00  0.00     0.029 A 
ATOM     51  C   UNL A   1      45.195  30.930  28.584  1.00  0.00     0.049 A 
ATOM     52  H   UNL A   1      43.944  29.250  28.321  1.00  0.00     0.167 HD
ATOM     53  C   UNL A   1      43.078  31.567  29.716  1.00  0.00     0.074 A 
ATOM     54  C   UNL A   1      42.240  32.490  30.453  1.00  0.00     0.031 C 
ATOM     55  C   UNL A   1      44.354  31.834  29.334  1.00  0.00     0.034 A 
BRANCH  42  56
ATOM     56  C   UNL A   1      47.025  27.225  26.136  1.00  0.00     0.023 A 
ATOM     57  C   UNL A   1      48.036  26.503  26.795  1.00  0.00     0.031 A 
ATOM     58  C   UNL A   1      47.199  27.505  24.769  1.00  0.00     0.131 A 
ATOM     59  C   UNL A   1      49.205  26.147  26.104  1.00  0.00     0.055 A 
ATOM     60  C   UNL A   1      48.330  27.082  24.069  1.00  0.00     0.041 A 
ATOM     61  F   UNL A   1      46.282  28.216  24.095  1.00  0.00    -0.206 F 
ATOM     62  C   UNL A   1      49.348  26.412  24.739  1.00  0.00     0.022 A 
BRANCH  59  63
ATOM     63  S   UNL A   1      50.600  25.467  27.044  1.00  0.00     0.124 S 
ATOM     64  O   UNL A   1      49.979  24.325  27.711  1.00  0.00    -0.237 OA
ATOM     65  O   UNL A   1      51.562  25.150  25.996  1.00  0.00    -0.237 OA
ATOM     66  O   UNL A   1      50.983  26.563  27.931  1.00  0.00    -0.744 OA
ENDBRANCH  59  63
ENDBRANCH  42  56
BRANCH  43  67
ATOM     67  C   UNL A   1      38.711  30.218  30.878  1.00  0.00     0.023 A 
ATOM     68  C   UNL A   1      37.663  30.885  30.225  1.00  0.00     0.031 A 
ATOM     69  C   UNL A   1      38.620  30.053  32.272  1.00  0.00     0.131 A 
ATOM     70  C   UNL A   1      36.597  31.410  30.973  1.00  0.00     0.055 A 
ATOM     71  C   UNL A   1      37.531  30.526  33.003  1.00  0.00     0.041 A 
ATOM     72  F   UNL A   1      39.599  29.429  32.949  1.00  0.00    -0.206 F 
ATOM     73  C   UNL A   1      36.517  31.223  32.355  1.00  0.00     0.022 A 
BRANCH  70  74
ATOM     74  S   UNL A   1      35.361  32.434  30.126  1.00  0.00     0.124 S 
ATOM     75  O   UNL A   1      34.359  32.614  31.171  1.00  0.00    -0.237 OA
ATOM     76  O   UNL A   1      36.138  33.617  29.772  1.00  0.00    -0.237 OA
ATOM     77  O   UNL A   1      34.945  31.603  28.998  1.00  0.00    -0.744 OA
ENDBRANCH  70  74
ENDBRANCH  43  67
BRANCH  55  78
ATOM     78  C   UNL A   1      44.894  33.204  29.676  1.00  0.00     0.023 A 
ATOM     79  C   UNL A   1      44.622  34.329  28.877  1.00  0.00     0.031 A 
ATOM     80  C   UNL A   1      45.722  33.377  30.799  1.00  0.00     0.131 A 
ATOM     81  C   UNL A   1      45.229  35.560  29.173  1.00  0.00     0.055 A 
ATOM     82  C   UNL A   1      46.271  34.618  31.125  1.00  0.00     0.041 A 
ATOM     83  F   UNL A   1      46.017  32.338  31.597  1.00  0.00    -0.206 F 
ATOM     84  C   UNL A   1      46.039  35.715  30.300  1.00  0.00     0.022 A 
BRANCH  81  85
ATOM     85  S   UNL A   1      45.038  36.930  27.998  1.00  0.00     0.124 S 
ATOM     86  O   UNL A   1      44.410  37.956  28.825  1.00  0.00    -0.237 OA
ATOM     87  O   UNL A   1      46.417  37.190  27.597  1.00  0.00    -0.237 OA
ATOM     88  O   UNL A   1      44.184  36.368  26.953  1.00  0.00    -0.744 OA
ENDBRANCH  81  85
ENDBRANCH  55  78
ENDBRANCH  29  30
ENDBRANCH  22  24
ENDBRANCH  21  22
ENDBRANCH   1  21
TORSDOF 17
ENDMDL
