MODEL 1
REMARK VINA RESULT:     -12.5      0.000      0.000
REMARK SMILES O=C(OCCOC(=O)[C@@H]1CCC[N@@H+](Cc2cccc3ccccc23)C1)c1ccc(-c2c3nc(c(-c4cc(S(=O)(=O)[O-])ccc4F)c4ccc([nH]4)c(-c4cc(S(=O)(=O)[O-])ccc4F)c4nc(c(-c5cc(S(=O)(=O)[O-])ccc5F)c5ccc2[nH]5)C=C4)C=C3)cc1
REMARK SMILES IDX 4 1 3 2 2 3 1 4 26 5 27 6 88 7 28 8 87 9 29 10 30 11 31 12
REMARK SMILES IDX 81 13 32 14 86 15 80 16 82 17 33 18 85 19 79 20 78 21 34 23
REMARK SMILES IDX 66 24 46 25 65 26 47 27 50 28 64 29 83 30 48 31 49 32 63 34
REMARK SMILES IDX 84 35 51 36 35 37 36 38 44 39 37 40 43 41 45 42 42 43 38 44
REMARK SMILES IDX 39 45 40 46 41 47 67 48 68 49 76 50 69 51 75 52 77 53 74 54
REMARK SMILES IDX 70 55 71 56 72 57 73 58 52 59 53 60 61 61 54 62 60 63 62 64
REMARK SMILES IDX 59 65 55 66 56 67 57 68 58 69 5 70 6 71 7 72 8 73 9 74 10 75
REMARK SMILES IDX 25 76 11 77 13 78 12 79 14 81 15 82 16 83 24 84 17 85 19 86
REMARK SMILES IDX 23 87 18 88 20 89 22 90 21 91
REMARK H PARENT 82 22 50 33 13 80
REMARK Flexibility Score: inf
ROOT
ATOM      1  C   UNL A   1      37.314  20.943  25.389  1.00  0.00     0.275 C 
ENDROOT
BRANCH   1   2
ATOM      2  O   UNL A   1      38.538  21.666  25.288  1.00  0.00    -0.458 OA
BRANCH   2   3
ATOM      3  C   UNL A   1      39.534  21.756  26.193  1.00  0.00     0.338 C 
ATOM      4  O   UNL A   1      40.123  20.711  26.474  1.00  0.00    -0.246 OA
BRANCH   3   5
ATOM      5  C   UNL A   1      39.935  23.022  26.914  1.00  0.00     0.060 A 
ATOM      6  C   UNL A   1      40.944  23.239  27.864  1.00  0.00     0.016 A 
ATOM      7  C   UNL A   1      39.219  24.145  26.512  1.00  0.00     0.016 A 
ATOM      8  C   UNL A   1      41.289  24.539  28.308  1.00  0.00     0.010 A 
ATOM      9  C   UNL A   1      39.628  25.430  26.863  1.00  0.00     0.010 A 
ATOM     10  C   UNL A   1      40.678  25.668  27.764  1.00  0.00    -0.014 A 
BRANCH  10  11
ATOM     11  C   UNL A   1      41.074  27.088  28.057  1.00  0.00     0.031 A 
ATOM     12  C   UNL A   1      42.526  27.480  27.869  1.00  0.00     0.074 A 
ATOM     13  C   UNL A   1      40.246  27.973  28.662  1.00  0.00     0.049 A 
ATOM     14  N   UNL A   1      43.176  28.530  28.302  1.00  0.00    -0.248 NA
ATOM     15  C   UNL A   1      43.378  26.501  27.173  1.00  0.00     0.031 C 
ATOM     16  C   UNL A   1      38.835  27.762  29.001  1.00  0.00     0.029 A 
ATOM     17  N   UNL A   1      40.503  29.229  29.172  1.00  0.00    -0.354 N 
ATOM     18  C   UNL A   1      44.505  28.298  27.964  1.00  0.00     0.074 A 
ATOM     19  C   UNL A   1      44.581  26.934  27.499  1.00  0.00     0.031 C 
ATOM     20  C   UNL A   1      38.383  28.802  29.725  1.00  0.00     0.029 A 
ATOM     21  C   UNL A   1      39.451  29.780  29.873  1.00  0.00     0.049 A 
ATOM     22  H   UNL A   1      41.363  29.692  29.046  1.00  0.00     0.167 HD
ATOM     23  C   UNL A   1      45.547  29.164  27.904  1.00  0.00     0.034 A 
ATOM     24  C   UNL A   1      39.351  30.946  30.547  1.00  0.00     0.034 A 
ATOM     25  C   UNL A   1      45.437  30.551  28.261  1.00  0.00     0.049 A 
ATOM     26  C   UNL A   1      40.498  31.924  30.481  1.00  0.00     0.074 A 
ATOM     27  C   UNL A   1      46.357  31.568  28.093  1.00  0.00     0.029 A 
ATOM     28  N   UNL A   1      44.315  31.118  28.849  1.00  0.00    -0.354 N 
ATOM     29  N   UNL A   1      41.702  31.753  29.990  1.00  0.00    -0.248 NA
ATOM     30  C   UNL A   1      40.240  33.280  30.983  1.00  0.00     0.031 C 
ATOM     31  C   UNL A   1      45.803  32.746  28.608  1.00  0.00     0.029 A 
ATOM     32  C   UNL A   1      44.518  32.471  29.047  1.00  0.00     0.049 A 
ATOM     33  H   UNL A   1      43.495  30.628  29.089  1.00  0.00     0.167 HD
ATOM     34  C   UNL A   1      42.310  33.005  30.038  1.00  0.00     0.074 A 
ATOM     35  C   UNL A   1      41.349  33.912  30.630  1.00  0.00     0.031 C 
ATOM     36  C   UNL A   1      43.542  33.375  29.603  1.00  0.00     0.034 A 
BRANCH  23  37
ATOM     37  C   UNL A   1      46.843  28.632  27.336  1.00  0.00     0.023 A 
ATOM     38  C   UNL A   1      47.037  28.567  25.942  1.00  0.00     0.031 A 
ATOM     39  C   UNL A   1      47.848  28.105  28.160  1.00  0.00     0.131 A 
ATOM     40  C   UNL A   1      48.109  27.838  25.416  1.00  0.00     0.055 A 
ATOM     41  C   UNL A   1      48.988  27.495  27.624  1.00  0.00     0.041 A 
ATOM     42  F   UNL A   1      47.725  28.133  29.496  1.00  0.00    -0.206 F 
ATOM     43  C   UNL A   1      49.107  27.329  26.246  1.00  0.00     0.022 A 
BRANCH  40  44
ATOM     44  S   UNL A   1      48.044  27.376  23.663  1.00  0.00     0.124 S 
ATOM     45  O   UNL A   1      47.685  25.962  23.751  1.00  0.00    -0.237 OA
ATOM     46  O   UNL A   1      47.012  28.262  23.137  1.00  0.00    -0.237 OA
ATOM     47  O   UNL A   1      49.400  27.642  23.189  1.00  0.00    -0.744 OA
ENDBRANCH  40  44
ENDBRANCH  23  37
BRANCH  24  48
ATOM     48  C   UNL A   1      38.096  31.323  31.264  1.00  0.00     0.023 A 
ATOM     49  C   UNL A   1      37.029  31.917  30.570  1.00  0.00     0.031 A 
ATOM     50  C   UNL A   1      37.979  31.182  32.656  1.00  0.00     0.131 A 
ATOM     51  C   UNL A   1      35.922  32.417  31.275  1.00  0.00     0.055 A 
ATOM     52  C   UNL A   1      36.855  31.642  33.350  1.00  0.00     0.041 A 
ATOM     53  F   UNL A   1      38.963  30.611  33.367  1.00  0.00    -0.206 F 
ATOM     54  C   UNL A   1      35.825  32.280  32.661  1.00  0.00     0.022 A 
BRANCH  51  55
ATOM     55  S   UNL A   1      34.657  33.338  30.358  1.00  0.00     0.124 S 
ATOM     56  O   UNL A   1      34.069  32.292  29.529  1.00  0.00    -0.237 OA
ATOM     57  O   UNL A   1      33.817  33.848  31.437  1.00  0.00    -0.237 OA
ATOM     58  O   UNL A   1      35.425  34.350  29.638  1.00  0.00    -0.744 OA
ENDBRANCH  51  55
ENDBRANCH  24  48
BRANCH  36  59
ATOM     59  C   UNL A   1      43.880  34.842  29.643  1.00  0.00     0.023 A 
ATOM     60  C   UNL A   1      43.446  35.736  28.653  1.00  0.00     0.031 A 
ATOM     61  C   UNL A   1      44.654  35.349  30.703  1.00  0.00     0.131 A 
ATOM     62  C   UNL A   1      43.836  37.081  28.711  1.00  0.00     0.055 A 
ATOM     63  C   UNL A   1      44.983  36.702  30.791  1.00  0.00     0.041 A 
ATOM     64  F   UNL A   1      45.100  34.536  31.676  1.00  0.00    -0.206 F 
ATOM     65  C   UNL A   1      44.584  37.574  29.783  1.00  0.00     0.022 A 
BRANCH  62  66
ATOM     66  S   UNL A   1      43.426  38.162  27.315  1.00  0.00     0.124 S 
ATOM     67  O   UNL A   1      44.747  38.485  26.785  1.00  0.00    -0.237 OA
ATOM     68  O   UNL A   1      42.600  37.296  26.480  1.00  0.00    -0.237 OA
ATOM     69  O   UNL A   1      42.718  39.277  27.941  1.00  0.00    -0.744 OA
ENDBRANCH  62  66
ENDBRANCH  36  59
ENDBRANCH  10  11
ENDBRANCH   3   5
ENDBRANCH   2   3
ENDBRANCH   1   2
BRANCH   1  70
ATOM     70  C   UNL A   1      36.055  21.817  25.402  1.00  0.00     0.274 C 
BRANCH  70  71
ATOM     71  O   UNL A   1      34.852  21.197  24.900  1.00  0.00    -0.462 OA
BRANCH  71  72
ATOM     72  C   UNL A   1      33.783  21.227  25.745  1.00  0.00     0.314 C 
ATOM     73  O   UNL A   1      33.881  21.132  26.967  1.00  0.00    -0.252 OA
BRANCH  72  74
ATOM     74  C   UNL A   1      32.417  21.301  25.065  1.00  0.00     0.154 C 
ATOM     75  C   UNL A   1      32.398  21.288  23.537  1.00  0.00     0.027 C 
ATOM     76  C   UNL A   1      31.480  22.337  25.721  1.00  0.00     0.277 C 
ATOM     77  C   UNL A   1      32.195  22.659  22.928  1.00  0.00     0.062 C 
ATOM     78  N   UNL A   1      31.354  23.615  25.020  1.00  0.00    -0.330 N 
ATOM     79  C   UNL A   1      31.088  23.464  23.590  1.00  0.00     0.262 C 
ATOM     80  H   UNL A   1      32.280  24.038  25.057  1.00  0.00     0.348 HD
BRANCH  78  81
ATOM     81  C   UNL A   1      30.511  24.618  25.723  1.00  0.00     0.299 C 
BRANCH  81  82
ATOM     82  C   UNL A   1      30.486  26.031  25.155  1.00  0.00     0.014 A 
ATOM     83  C   UNL A   1      29.430  26.341  24.278  1.00  0.00     0.010 A 
ATOM     84  C   UNL A   1      31.506  27.009  25.413  1.00  0.00    -0.010 A 
ATOM     85  C   UNL A   1      29.427  27.525  23.557  1.00  0.00     0.001 A 
ATOM     86  C   UNL A   1      31.492  28.204  24.647  1.00  0.00    -0.018 A 
ATOM     87  C   UNL A   1      32.542  26.891  26.379  1.00  0.00     0.009 A 
ATOM     88  C   UNL A   1      30.467  28.433  23.719  1.00  0.00     0.009 A 
ATOM     89  C   UNL A   1      32.504  29.167  24.801  1.00  0.00     0.009 A 
ATOM     90  C   UNL A   1      33.519  27.882  26.552  1.00  0.00     0.001 A 
ATOM     91  C   UNL A   1      33.513  29.009  25.747  1.00  0.00     0.001 A 
ENDBRANCH  81  82
ENDBRANCH  78  81
ENDBRANCH  72  74
ENDBRANCH  71  72
ENDBRANCH  70  71
ENDBRANCH   1  70
TORSDOF 16
ENDMDL
MODEL 2
REMARK VINA RESULT:     -12.4      4.627     10.301
REMARK SMILES O=C(OCCOC(=O)[C@@H]1CCC[N@@H+](Cc2cccc3ccccc23)C1)c1ccc(-c2c3nc(c(-c4cc(S(=O)(=O)[O-])ccc4F)c4ccc([nH]4)c(-c4cc(S(=O)(=O)[O-])ccc4F)c4nc(c(-c5cc(S(=O)(=O)[O-])ccc5F)c5ccc2[nH]5)C=C4)C=C3)cc1
REMARK SMILES IDX 4 1 3 2 2 3 1 4 26 5 27 6 88 7 28 8 87 9 29 10 30 11 31 12
REMARK SMILES IDX 81 13 32 14 86 15 80 16 82 17 33 18 85 19 79 20 78 21 34 23
REMARK SMILES IDX 66 24 46 25 65 26 47 27 50 28 64 29 83 30 48 31 49 32 63 34
REMARK SMILES IDX 84 35 51 36 35 37 36 38 44 39 37 40 43 41 45 42 42 43 38 44
REMARK SMILES IDX 39 45 40 46 41 47 67 48 68 49 76 50 69 51 75 52 77 53 74 54
REMARK SMILES IDX 70 55 71 56 72 57 73 58 52 59 53 60 61 61 54 62 60 63 62 64
REMARK SMILES IDX 59 65 55 66 56 67 57 68 58 69 5 70 6 71 7 72 8 73 9 74 10 75
REMARK SMILES IDX 25 76 11 77 13 78 12 79 14 81 15 82 16 83 24 84 17 85 19 86
REMARK SMILES IDX 23 87 18 88 20 89 22 90 21 91
REMARK H PARENT 82 22 50 33 13 80
REMARK Flexibility Score: inf
ROOT
ATOM      1  C   UNL A   1      32.384  30.463  26.077  1.00  0.00     0.275 C 
ENDROOT
BRANCH   1   2
ATOM      2  O   UNL A   1      32.844  30.773  27.390  1.00  0.00    -0.458 OA
BRANCH   2   3
ATOM      3  C   UNL A   1      33.841  31.609  27.752  1.00  0.00     0.338 C 
ATOM      4  O   UNL A   1      33.576  32.812  27.771  1.00  0.00    -0.246 OA
BRANCH   3   5
ATOM      5  C   UNL A   1      35.252  31.179  28.077  1.00  0.00     0.060 A 
ATOM      6  C   UNL A   1      36.397  31.952  28.321  1.00  0.00     0.016 A 
ATOM      7  C   UNL A   1      35.401  29.802  28.212  1.00  0.00     0.016 A 
ATOM      8  C   UNL A   1      37.606  31.376  28.783  1.00  0.00     0.010 A 
ATOM      9  C   UNL A   1      36.552  29.248  28.770  1.00  0.00     0.010 A 
ATOM     10  C   UNL A   1      37.685  30.016  29.079  1.00  0.00    -0.014 A 
BRANCH  10  11
ATOM     11  C   UNL A   1      38.869  29.339  29.711  1.00  0.00     0.031 A 
ATOM     12  C   UNL A   1      39.409  29.905  31.009  1.00  0.00     0.074 A 
ATOM     13  C   UNL A   1      39.589  28.379  29.083  1.00  0.00     0.049 A 
ATOM     14  N   UNL A   1      40.555  29.695  31.605  1.00  0.00    -0.248 NA
ATOM     15  C   UNL A   1      38.572  30.918  31.674  1.00  0.00     0.031 C 
ATOM     16  C   UNL A   1      39.282  27.757  27.791  1.00  0.00     0.029 A 
ATOM     17  N   UNL A   1      40.794  27.801  29.427  1.00  0.00    -0.354 N 
ATOM     18  C   UNL A   1      40.575  30.584  32.675  1.00  0.00     0.074 A 
ATOM     19  C   UNL A   1      39.442  31.461  32.504  1.00  0.00     0.031 C 
ATOM     20  C   UNL A   1      40.299  26.959  27.420  1.00  0.00     0.029 A 
ATOM     21  C   UNL A   1      41.319  26.971  28.459  1.00  0.00     0.049 A 
ATOM     22  H   UNL A   1      41.240  27.967  30.289  1.00  0.00     0.167 HD
ATOM     23  C   UNL A   1      41.366  30.595  33.776  1.00  0.00     0.034 A 
ATOM     24  C   UNL A   1      42.482  26.286  28.415  1.00  0.00     0.034 A 
ATOM     25  C   UNL A   1      42.422  29.646  33.995  1.00  0.00     0.049 A 
ATOM     26  C   UNL A   1      43.367  26.280  29.637  1.00  0.00     0.074 A 
ATOM     27  C   UNL A   1      43.185  29.439  35.128  1.00  0.00     0.029 A 
ATOM     28  N   UNL A   1      42.851  28.725  33.048  1.00  0.00    -0.354 N 
ATOM     29  N   UNL A   1      43.272  26.999  30.730  1.00  0.00    -0.248 NA
ATOM     30  C   UNL A   1      44.467  25.307  29.652  1.00  0.00     0.031 C 
ATOM     31  C   UNL A   1      44.097  28.413  34.858  1.00  0.00     0.029 A 
ATOM     32  C   UNL A   1      43.865  27.945  33.574  1.00  0.00     0.049 A 
ATOM     33  H   UNL A   1      42.485  28.639  32.138  1.00  0.00     0.167 HD
ATOM     34  C   UNL A   1      44.239  26.498  31.597  1.00  0.00     0.074 A 
ATOM     35  C   UNL A   1      44.922  25.435  30.890  1.00  0.00     0.031 C 
ATOM     36  C   UNL A   1      44.515  26.865  32.875  1.00  0.00     0.034 A 
BRANCH  23  37
ATOM     37  C   UNL A   1      41.027  31.605  34.848  1.00  0.00     0.023 A 
ATOM     38  C   UNL A   1      39.987  31.351  35.764  1.00  0.00     0.031 A 
ATOM     39  C   UNL A   1      41.661  32.854  34.912  1.00  0.00     0.131 A 
ATOM     40  C   UNL A   1      39.498  32.381  36.576  1.00  0.00     0.055 A 
ATOM     41  C   UNL A   1      41.254  33.835  35.822  1.00  0.00     0.041 A 
ATOM     42  F   UNL A   1      42.658  33.162  34.067  1.00  0.00    -0.206 F 
ATOM     43  C   UNL A   1      40.146  33.615  36.637  1.00  0.00     0.022 A 
BRANCH  40  44
ATOM     44  S   UNL A   1      37.880  32.150  37.360  1.00  0.00     0.124 S 
ATOM     45  O   UNL A   1      37.009  32.892  36.449  1.00  0.00    -0.237 OA
ATOM     46  O   UNL A   1      37.722  30.700  37.348  1.00  0.00    -0.237 OA
ATOM     47  O   UNL A   1      38.051  32.751  38.680  1.00  0.00    -0.744 OA
ENDBRANCH  40  44
ENDBRANCH  23  37
BRANCH  24  48
ATOM     48  C   UNL A   1      42.852  25.459  27.228  1.00  0.00     0.023 A 
ATOM     49  C   UNL A   1      42.384  24.140  27.103  1.00  0.00     0.031 A 
ATOM     50  C   UNL A   1      43.746  25.935  26.255  1.00  0.00     0.131 A 
ATOM     51  C   UNL A   1      42.865  23.317  26.073  1.00  0.00     0.055 A 
ATOM     52  C   UNL A   1      44.191  25.125  25.205  1.00  0.00     0.041 A 
ATOM     53  F   UNL A   1      44.216  27.190  26.320  1.00  0.00    -0.206 F 
ATOM     54  C   UNL A   1      43.764  23.801  25.120  1.00  0.00     0.022 A 
BRANCH  51  55
ATOM     55  S   UNL A   1      42.373  21.571  26.059  1.00  0.00     0.124 S 
ATOM     56  O   UNL A   1      42.559  21.199  27.457  1.00  0.00    -0.237 OA
ATOM     57  O   UNL A   1      40.992  21.653  25.595  1.00  0.00    -0.237 OA
ATOM     58  O   UNL A   1      43.309  20.960  25.118  1.00  0.00    -0.744 OA
ENDBRANCH  51  55
ENDBRANCH  24  48
BRANCH  36  59
ATOM     59  C   UNL A   1      45.521  26.038  33.632  1.00  0.00     0.023 A 
ATOM     60  C   UNL A   1      45.153  24.898  34.361  1.00  0.00     0.031 A 
ATOM     61  C   UNL A   1      46.878  26.408  33.616  1.00  0.00     0.131 A 
ATOM     62  C   UNL A   1      46.123  24.197  35.092  1.00  0.00     0.055 A 
ATOM     63  C   UNL A   1      47.849  25.669  34.291  1.00  0.00     0.041 A 
ATOM     64  F   UNL A   1      47.285  27.495  32.938  1.00  0.00    -0.206 F 
ATOM     65  C   UNL A   1      47.471  24.562  35.046  1.00  0.00     0.022 A 
BRANCH  62  66
ATOM     66  S   UNL A   1      45.583  22.851  36.179  1.00  0.00     0.124 S 
ATOM     67  O   UNL A   1      46.795  22.046  36.288  1.00  0.00    -0.237 OA
ATOM     68  O   UNL A   1      45.183  23.566  37.387  1.00  0.00    -0.237 OA
ATOM     69  O   UNL A   1      44.488  22.230  35.437  1.00  0.00    -0.744 OA
ENDBRANCH  62  66
ENDBRANCH  36  59
ENDBRANCH  10  11
ENDBRANCH   3   5
ENDBRANCH   2   3
ENDBRANCH   1   2
BRANCH   1  70
ATOM     70  C   UNL A   1      33.031  29.224  25.450  1.00  0.00     0.274 C 
BRANCH  70  71
ATOM     71  O   UNL A   1      32.559  28.863  24.135  1.00  0.00    -0.462 OA
BRANCH  71  72
ATOM     72  C   UNL A   1      31.226  28.592  24.046  1.00  0.00     0.314 C 
ATOM     73  O   UNL A   1      30.371  29.452  23.843  1.00  0.00    -0.252 OA
BRANCH  72  74
ATOM     74  C   UNL A   1      30.837  27.138  24.305  1.00  0.00     0.154 C 
ATOM     75  C   UNL A   1      30.556  26.738  25.753  1.00  0.00     0.027 C 
ATOM     76  C   UNL A   1      31.704  26.139  23.509  1.00  0.00     0.277 C 
ATOM     77  C   UNL A   1      31.707  26.002  26.406  1.00  0.00     0.062 C 
ATOM     78  N   UNL A   1      32.769  25.477  24.263  1.00  0.00    -0.330 N 
ATOM     79  C   UNL A   1      32.311  24.915  25.533  1.00  0.00     0.262 C 
ATOM     80  H   UNL A   1      33.409  26.221  24.538  1.00  0.00     0.348 HD
BRANCH  78  81
ATOM     81  C   UNL A   1      33.635  24.587  23.447  1.00  0.00     0.299 C 
BRANCH  81  82
ATOM     82  C   UNL A   1      34.473  23.554  24.190  1.00  0.00     0.014 A 
ATOM     83  C   UNL A   1      35.688  24.005  24.739  1.00  0.00     0.010 A 
ATOM     84  C   UNL A   1      34.122  22.166  24.287  1.00  0.00    -0.010 A 
ATOM     85  C   UNL A   1      36.611  23.110  25.257  1.00  0.00     0.001 A 
ATOM     86  C   UNL A   1      35.093  21.267  24.801  1.00  0.00    -0.018 A 
ATOM     87  C   UNL A   1      32.874  21.598  23.911  1.00  0.00     0.009 A 
ATOM     88  C   UNL A   1      36.327  21.750  25.258  1.00  0.00     0.009 A 
ATOM     89  C   UNL A   1      34.836  19.886  24.855  1.00  0.00     0.009 A 
ATOM     90  C   UNL A   1      32.617  20.223  24.013  1.00  0.00     0.001 A 
ATOM     91  C   UNL A   1      33.606  19.365  24.462  1.00  0.00     0.001 A 
ENDBRANCH  81  82
ENDBRANCH  78  81
ENDBRANCH  72  74
ENDBRANCH  71  72
ENDBRANCH  70  71
ENDBRANCH   1  70
TORSDOF 16
ENDMDL
MODEL 3
REMARK VINA RESULT:     -12.4      4.935      8.375
REMARK SMILES O=C(OCCOC(=O)[C@@H]1CCC[N@@H+](Cc2cccc3ccccc23)C1)c1ccc(-c2c3nc(c(-c4cc(S(=O)(=O)[O-])ccc4F)c4ccc([nH]4)c(-c4cc(S(=O)(=O)[O-])ccc4F)c4nc(c(-c5cc(S(=O)(=O)[O-])ccc5F)c5ccc2[nH]5)C=C4)C=C3)cc1
REMARK SMILES IDX 4 1 3 2 2 3 1 4 26 5 27 6 88 7 28 8 87 9 29 10 30 11 31 12
REMARK SMILES IDX 81 13 32 14 86 15 80 16 82 17 33 18 85 19 79 20 78 21 34 23
REMARK SMILES IDX 66 24 46 25 65 26 47 27 50 28 64 29 83 30 48 31 49 32 63 34
REMARK SMILES IDX 84 35 51 36 35 37 36 38 44 39 37 40 43 41 45 42 42 43 38 44
REMARK SMILES IDX 39 45 40 46 41 47 67 48 68 49 76 50 69 51 75 52 77 53 74 54
REMARK SMILES IDX 70 55 71 56 72 57 73 58 52 59 53 60 61 61 54 62 60 63 62 64
REMARK SMILES IDX 59 65 55 66 56 67 57 68 58 69 5 70 6 71 7 72 8 73 9 74 10 75
REMARK SMILES IDX 25 76 11 77 13 78 12 79 14 81 15 82 16 83 24 84 17 85 19 86
REMARK SMILES IDX 23 87 18 88 20 89 22 90 21 91
REMARK H PARENT 82 22 50 33 13 80
REMARK Flexibility Score: inf
ROOT
ATOM      1  C   UNL A   1      31.438  32.147  26.869  1.00  0.00     0.275 C 
ENDROOT
BRANCH   1   2
ATOM      2  O   UNL A   1      32.252  33.315  26.903  1.00  0.00    -0.458 OA
BRANCH   2   3
ATOM      3  C   UNL A   1      32.996  33.787  27.926  1.00  0.00     0.338 C 
ATOM      4  O   UNL A   1      32.525  34.728  28.566  1.00  0.00    -0.246 OA
BRANCH   3   5
ATOM      5  C   UNL A   1      34.370  33.282  28.299  1.00  0.00     0.060 A 
ATOM      6  C   UNL A   1      35.634  33.836  28.050  1.00  0.00     0.016 A 
ATOM      7  C   UNL A   1      34.351  32.118  29.062  1.00  0.00     0.016 A 
ATOM      8  C   UNL A   1      36.813  33.306  28.629  1.00  0.00     0.010 A 
ATOM      9  C   UNL A   1      35.492  31.662  29.719  1.00  0.00     0.010 A 
ATOM     10  C   UNL A   1      36.754  32.244  29.530  1.00  0.00    -0.014 A 
BRANCH  10  11
ATOM     11  C   UNL A   1      37.924  31.708  30.308  1.00  0.00     0.031 A 
ATOM     12  C   UNL A   1      38.716  30.562  29.710  1.00  0.00     0.074 A 
ATOM     13  C   UNL A   1      38.180  32.063  31.589  1.00  0.00     0.049 A 
ATOM     14  N   UNL A   1      39.573  29.748  30.274  1.00  0.00    -0.248 NA
ATOM     15  C   UNL A   1      38.428  30.238  28.302  1.00  0.00     0.031 C 
ATOM     16  C   UNL A   1      37.481  33.088  32.371  1.00  0.00     0.029 A 
ATOM     17  N   UNL A   1      39.075  31.536  32.498  1.00  0.00    -0.354 N 
ATOM     18  C   UNL A   1      39.874  28.807  29.296  1.00  0.00     0.074 A 
ATOM     19  C   UNL A   1      38.953  29.031  28.207  1.00  0.00     0.031 C 
ATOM     20  C   UNL A   1      37.911  33.056  33.645  1.00  0.00     0.029 A 
ATOM     21  C   UNL A   1      38.946  32.041  33.775  1.00  0.00     0.049 A 
ATOM     22  H   UNL A   1      39.747  30.858  32.256  1.00  0.00     0.167 HD
ATOM     23  C   UNL A   1      40.905  27.926  29.231  1.00  0.00     0.034 A 
ATOM     24  C   UNL A   1      39.595  31.733  34.918  1.00  0.00     0.034 A 
ATOM     25  C   UNL A   1      41.886  27.788  30.270  1.00  0.00     0.049 A 
ATOM     26  C   UNL A   1      40.750  30.764  34.859  1.00  0.00     0.074 A 
ATOM     27  C   UNL A   1      43.063  27.063  30.263  1.00  0.00     0.029 A 
ATOM     28  N   UNL A   1      41.805  28.411  31.507  1.00  0.00    -0.354 N 
ATOM     29  N   UNL A   1      41.143  30.006  33.862  1.00  0.00    -0.248 NA
ATOM     30  C   UNL A   1      41.601  30.675  36.053  1.00  0.00     0.031 C 
ATOM     31  C   UNL A   1      43.680  27.224  31.509  1.00  0.00     0.029 A 
ATOM     32  C   UNL A   1      42.913  28.092  32.271  1.00  0.00     0.049 A 
ATOM     33  H   UNL A   1      41.068  28.996  31.797  1.00  0.00     0.167 HD
ATOM     34  C   UNL A   1      42.338  29.425  34.279  1.00  0.00     0.074 A 
ATOM     35  C   UNL A   1      42.586  29.900  35.624  1.00  0.00     0.031 C 
ATOM     36  C   UNL A   1      43.170  28.598  33.596  1.00  0.00     0.034 A 
BRANCH  23  37
ATOM     37  C   UNL A   1      41.050  27.143  27.946  1.00  0.00     0.023 A 
ATOM     38  C   UNL A   1      40.672  25.786  27.891  1.00  0.00     0.031 A 
ATOM     39  C   UNL A   1      41.646  27.700  26.805  1.00  0.00     0.131 A 
ATOM     40  C   UNL A   1      41.049  24.996  26.799  1.00  0.00     0.055 A 
ATOM     41  C   UNL A   1      41.897  26.934  25.663  1.00  0.00     0.041 A 
ATOM     42  F   UNL A   1      42.032  28.986  26.791  1.00  0.00    -0.206 F 
ATOM     43  C   UNL A   1      41.629  25.566  25.667  1.00  0.00     0.022 A 
BRANCH  40  44
ATOM     44  S   UNL A   1      40.977  23.194  26.990  1.00  0.00     0.124 S 
ATOM     45  O   UNL A   1      39.542  22.947  26.853  1.00  0.00    -0.237 OA
ATOM     46  O   UNL A   1      41.811  22.722  25.891  1.00  0.00    -0.237 OA
ATOM     47  O   UNL A   1      41.518  22.970  28.328  1.00  0.00    -0.744 OA
ENDBRANCH  40  44
ENDBRANCH  23  37
BRANCH  24  48
ATOM     48  C   UNL A   1      39.260  32.408  36.207  1.00  0.00     0.023 A 
ATOM     49  C   UNL A   1      38.411  31.787  37.138  1.00  0.00     0.031 A 
ATOM     50  C   UNL A   1      39.703  33.711  36.487  1.00  0.00     0.131 A 
ATOM     51  C   UNL A   1      37.971  32.493  38.270  1.00  0.00     0.055 A 
ATOM     52  C   UNL A   1      39.296  34.396  37.637  1.00  0.00     0.041 A 
ATOM     53  F   UNL A   1      40.524  34.347  35.637  1.00  0.00    -0.206 F 
ATOM     54  C   UNL A   1      38.410  33.792  38.529  1.00  0.00     0.022 A 
BRANCH  51  55
ATOM     55  S   UNL A   1      36.733  31.717  39.346  1.00  0.00     0.124 S 
ATOM     56  O   UNL A   1      35.554  32.532  39.078  1.00  0.00    -0.237 OA
ATOM     57  O   UNL A   1      36.701  30.353  38.830  1.00  0.00    -0.237 OA
ATOM     58  O   UNL A   1      37.305  31.862  40.682  1.00  0.00    -0.744 OA
ENDBRANCH  51  55
ENDBRANCH  24  48
BRANCH  36  59
ATOM     59  C   UNL A   1      44.482  28.243  34.245  1.00  0.00     0.023 A 
ATOM     60  C   UNL A   1      44.632  27.104  35.050  1.00  0.00     0.031 A 
ATOM     61  C   UNL A   1      45.603  29.071  34.047  1.00  0.00     0.131 A 
ATOM     62  C   UNL A   1      45.862  26.852  35.674  1.00  0.00     0.055 A 
ATOM     63  C   UNL A   1      46.842  28.778  34.617  1.00  0.00     0.041 A 
ATOM     64  F   UNL A   1      45.513  30.177  33.290  1.00  0.00    -0.206 F 
ATOM     65  C   UNL A   1      46.973  27.669  35.448  1.00  0.00     0.022 A 
BRANCH  62  66
ATOM     66  S   UNL A   1      45.966  25.487  36.862  1.00  0.00     0.124 S 
ATOM     67  O   UNL A   1      46.008  24.323  35.982  1.00  0.00    -0.237 OA
ATOM     68  O   UNL A   1      47.201  25.788  37.578  1.00  0.00    -0.237 OA
ATOM     69  O   UNL A   1      44.743  25.625  37.651  1.00  0.00    -0.744 OA
ENDBRANCH  62  66
ENDBRANCH  36  59
ENDBRANCH  10  11
ENDBRANCH   3   5
ENDBRANCH   2   3
ENDBRANCH   1   2
BRANCH   1  70
ATOM     70  C   UNL A   1      32.209  30.836  26.687  1.00  0.00     0.274 C 
BRANCH  70  71
ATOM     71  O   UNL A   1      31.597  29.858  25.819  1.00  0.00    -0.462 OA
BRANCH  71  72
ATOM     72  C   UNL A   1      32.463  29.063  25.130  1.00  0.00     0.314 C 
ATOM     73  O   UNL A   1      33.656  28.960  25.408  1.00  0.00    -0.252 OA
BRANCH  72  74
ATOM     74  C   UNL A   1      31.871  28.356  23.912  1.00  0.00     0.154 C 
ATOM     75  C   UNL A   1      30.407  27.926  24.000  1.00  0.00     0.027 C 
ATOM     76  C   UNL A   1      32.826  27.303  23.312  1.00  0.00     0.277 C 
ATOM     77  C   UNL A   1      30.231  26.451  24.290  1.00  0.00     0.062 C 
ATOM     78  N   UNL A   1      32.533  25.910  23.652  1.00  0.00    -0.330 N 
ATOM     79  C   UNL A   1      31.129  25.552  23.455  1.00  0.00     0.262 C 
ATOM     80  H   UNL A   1      32.667  25.843  24.660  1.00  0.00     0.348 HD
BRANCH  78  81
ATOM     81  C   UNL A   1      33.520  24.931  23.126  1.00  0.00     0.299 C 
BRANCH  81  82
ATOM     82  C   UNL A   1      34.126  23.947  24.119  1.00  0.00     0.014 A 
ATOM     83  C   UNL A   1      35.128  24.447  24.971  1.00  0.00     0.010 A 
ATOM     84  C   UNL A   1      33.779  22.555  24.169  1.00  0.00    -0.010 A 
ATOM     85  C   UNL A   1      35.877  23.594  25.766  1.00  0.00     0.001 A 
ATOM     86  C   UNL A   1      34.575  21.699  24.976  1.00  0.00    -0.018 A 
ATOM     87  C   UNL A   1      32.697  21.943  23.480  1.00  0.00     0.009 A 
ATOM     88  C   UNL A   1      35.622  22.228  25.743  1.00  0.00     0.009 A 
ATOM     89  C   UNL A   1      34.332  20.315  25.012  1.00  0.00     0.009 A 
ATOM     90  C   UNL A   1      32.440  20.568  23.561  1.00  0.00     0.001 A 
ATOM     91  C   UNL A   1      33.272  19.750  24.308  1.00  0.00     0.001 A 
ENDBRANCH  81  82
ENDBRANCH  78  81
ENDBRANCH  72  74
ENDBRANCH  71  72
ENDBRANCH  70  71
ENDBRANCH   1  70
TORSDOF 16
ENDMDL
