MODEL 1
REMARK VINA RESULT:     -11.1      0.000      0.000
REMARK SMILES CSc1ccc(Cl)c(C(=O)N[C@@H](CO)C(=O)OCCOC(=O)c2ccc(-c3c4nc(c(-c5cc(S(=O)(=O)[O-])ccc5F)c5ccc([nH]5)c(-c5cc(S(=O)(=O)[O-])ccc5F)c5nc(c(-c6cc(S(=O)(=O)[O-])ccc6F)c6ccc3[nH]6)C=C5)C=C4)cc2)c1
REMARK SMILES IDX 18 1 17 2 15 3 16 4 12 5 11 6 9 7 10 8 8 10 3 11 4 12 86 13
REMARK SMILES IDX 5 14 6 15 7 16 2 17 1 18 13 19 14 20 19 22 20 23 21 24 22 25
REMARK SMILES IDX 23 26 24 27 85 28 25 29 84 30 26 31 27 32 28 33 78 34 29 35
REMARK SMILES IDX 83 36 77 37 79 38 30 39 82 40 76 41 75 42 31 44 63 45 43 46
REMARK SMILES IDX 62 47 44 48 47 49 61 50 80 51 45 52 46 53 60 55 81 56 48 57
REMARK SMILES IDX 32 58 33 59 41 60 34 61 40 62 42 63 39 64 35 65 36 66 37 67
REMARK SMILES IDX 38 68 64 69 65 70 73 71 66 72 72 73 74 74 71 75 67 76 68 77
REMARK SMILES IDX 69 78 70 79 49 80 50 81 58 82 51 83 57 84 59 85 56 86 52 87
REMARK SMILES IDX 53 88 54 89 55 90
REMARK H PARENT 11 9 14 21 79 43 47 54
REMARK Flexibility Score: inf
ROOT
ATOM      1  C   UNL A   1      31.322  30.352  25.724  1.00  0.00     0.274 C 
ENDROOT
BRANCH   1   2
ATOM      2  O   UNL A   1      32.199  29.279  26.124  1.00  0.00    -0.460 OA
BRANCH   2   3
ATOM      3  C   UNL A   1      31.587  28.190  26.668  1.00  0.00     0.331 C 
ATOM      4  O   UNL A   1      31.344  28.052  27.863  1.00  0.00    -0.250 OA
BRANCH   3   5
ATOM      5  C   UNL A   1      31.315  27.076  25.646  1.00  0.00     0.218 C 
BRANCH   5   6
ATOM      6  N   UNL A   1      31.736  27.347  24.263  1.00  0.00    -0.337 N 
ATOM      7  C   UNL A   1      31.082  27.771  23.133  1.00  0.00     0.253 C 
ATOM      8  O   UNL A   1      31.691  27.673  22.067  1.00  0.00    -0.269 OA
ATOM      9  H   UNL A   1      32.697  27.188  24.115  1.00  0.00     0.164 HD
BRANCH   7  10
ATOM     10  C   UNL A   1      29.759  28.454  23.119  1.00  0.00     0.059 A 
ATOM     11  C   UNL A   1      28.620  30.547  22.505  1.00  0.00     0.008 A 
ATOM     12  C   UNL A   1      27.412  29.991  22.932  1.00  0.00     0.016 A 
ATOM     13  C   UNL A   1      29.788  29.787  22.639  1.00  0.00     0.030 A 
ATOM     14  C   UNL A   1      27.358  28.669  23.374  1.00  0.00     0.022 A 
ATOM     15  C   UNL A   1      28.517  27.883  23.413  1.00  0.00     0.053 A 
ATOM     16  Cl  UNL A   1      28.267  26.203  23.687  1.00  0.00    -0.083 Cl
BRANCH  11  17
ATOM     17  S   UNL A   1      28.535  32.190  21.823  1.00  0.00    -0.130 SA
ATOM     18  C   UNL A   1      27.873  31.934  20.153  1.00  0.00     0.091 C 
ENDBRANCH  11  17
ENDBRANCH   7  10
ENDBRANCH   5   6
BRANCH   5  19
ATOM     19  C   UNL A   1      32.073  25.843  26.174  1.00  0.00     0.193 C 
BRANCH  19  20
ATOM     20  O   UNL A   1      31.241  25.055  27.039  1.00  0.00    -0.394 OA
ATOM     21  H   UNL A   1      31.399  24.113  26.870  1.00  0.00     0.210 HD
ENDBRANCH  19  20
ENDBRANCH   5  19
ENDBRANCH   3   5
ENDBRANCH   2   3
ENDBRANCH   1   2
BRANCH   1  22
ATOM     22  C   UNL A   1      31.628  31.645  26.480  1.00  0.00     0.275 C 
BRANCH  22  23
ATOM     23  O   UNL A   1      32.633  31.436  27.486  1.00  0.00    -0.458 OA
BRANCH  23  24
ATOM     24  C   UNL A   1      33.476  32.484  27.637  1.00  0.00     0.338 C 
ATOM     25  O   UNL A   1      33.185  33.666  27.671  1.00  0.00    -0.246 OA
BRANCH  24  26
ATOM     26  C   UNL A   1      34.837  32.002  27.894  1.00  0.00     0.060 A 
ATOM     27  C   UNL A   1      35.010  30.632  28.073  1.00  0.00     0.016 A 
ATOM     28  C   UNL A   1      35.881  32.891  28.144  1.00  0.00     0.016 A 
ATOM     29  C   UNL A   1      36.208  30.146  28.582  1.00  0.00     0.010 A 
ATOM     30  C   UNL A   1      37.097  32.395  28.630  1.00  0.00     0.010 A 
ATOM     31  C   UNL A   1      37.248  31.024  28.910  1.00  0.00    -0.014 A 
BRANCH  31  32
ATOM     32  C   UNL A   1      38.405  30.508  29.692  1.00  0.00     0.031 A 
ATOM     33  C   UNL A   1      38.584  30.934  31.128  1.00  0.00     0.074 A 
ATOM     34  C   UNL A   1      39.244  29.601  29.160  1.00  0.00     0.049 A 
ATOM     35  N   UNL A   1      39.540  30.637  31.972  1.00  0.00    -0.248 NA
ATOM     36  C   UNL A   1      37.553  31.826  31.676  1.00  0.00     0.031 C 
ATOM     37  C   UNL A   1      39.169  29.080  27.795  1.00  0.00     0.029 A 
ATOM     38  N   UNL A   1      40.317  28.947  29.710  1.00  0.00    -0.354 N 
ATOM     39  C   UNL A   1      39.232  31.317  33.147  1.00  0.00     0.074 A 
ATOM     40  C   UNL A   1      38.028  32.079  32.885  1.00  0.00     0.031 C 
ATOM     41  C   UNL A   1      40.148  28.176  27.619  1.00  0.00     0.029 A 
ATOM     42  C   UNL A   1      40.944  28.088  28.840  1.00  0.00     0.049 A 
ATOM     43  H   UNL A   1      40.612  29.081  30.640  1.00  0.00     0.167 HD
ATOM     44  C   UNL A   1      39.880  31.301  34.340  1.00  0.00     0.034 A 
ATOM     45  C   UNL A   1      42.049  27.333  28.996  1.00  0.00     0.034 A 
ATOM     46  C   UNL A   1      41.073  30.535  34.601  1.00  0.00     0.049 A 
ATOM     47  C   UNL A   1      42.771  27.345  30.317  1.00  0.00     0.074 A 
ATOM     48  C   UNL A   1      41.834  30.480  35.757  1.00  0.00     0.029 A 
ATOM     49  N   UNL A   1      41.680  29.681  33.689  1.00  0.00    -0.354 N 
ATOM     50  N   UNL A   1      42.502  28.039  31.398  1.00  0.00    -0.248 NA
ATOM     51  C   UNL A   1      43.942  26.469  30.436  1.00  0.00     0.031 C 
ATOM     52  C   UNL A   1      42.925  29.630  35.526  1.00  0.00     0.029 A 
ATOM     53  C   UNL A   1      42.812  29.106  34.249  1.00  0.00     0.049 A 
ATOM     54  H   UNL A   1      41.354  29.508  32.775  1.00  0.00     0.167 HD
ATOM     55  C   UNL A   1      43.475  27.682  32.327  1.00  0.00     0.074 A 
ATOM     56  C   UNL A   1      44.316  26.690  31.688  1.00  0.00     0.031 C 
ATOM     57  C   UNL A   1      43.660  28.139  33.592  1.00  0.00     0.034 A 
BRANCH  44  58
ATOM     58  C   UNL A   1      39.328  32.201  35.421  1.00  0.00     0.023 A 
ATOM     59  C   UNL A   1      39.698  33.554  35.517  1.00  0.00     0.031 A 
ATOM     60  C   UNL A   1      38.495  31.672  36.422  1.00  0.00     0.131 A 
ATOM     61  C   UNL A   1      39.318  34.304  36.640  1.00  0.00     0.055 A 
ATOM     62  C   UNL A   1      38.048  32.449  37.494  1.00  0.00     0.041 A 
ATOM     63  F   UNL A   1      38.127  30.381  36.395  1.00  0.00    -0.206 F 
ATOM     64  C   UNL A   1      38.477  33.767  37.618  1.00  0.00     0.022 A 
BRANCH  61  65
ATOM     65  S   UNL A   1      40.092  35.925  36.903  1.00  0.00     0.124 S 
ATOM     66  O   UNL A   1      39.806  36.607  35.643  1.00  0.00    -0.237 OA
ATOM     67  O   UNL A   1      39.381  36.427  38.074  1.00  0.00    -0.237 OA
ATOM     68  O   UNL A   1      41.501  35.601  37.118  1.00  0.00    -0.744 OA
ENDBRANCH  61  65
ENDBRANCH  44  58
BRANCH  45  69
ATOM     69  C   UNL A   1      42.569  26.541  27.850  1.00  0.00     0.023 A 
ATOM     70  C   UNL A   1      42.158  25.219  27.628  1.00  0.00     0.031 A 
ATOM     71  C   UNL A   1      43.498  27.108  26.959  1.00  0.00     0.131 A 
ATOM     72  C   UNL A   1      42.696  24.495  26.552  1.00  0.00     0.055 A 
ATOM     73  C   UNL A   1      44.000  26.398  25.868  1.00  0.00     0.041 A 
ATOM     74  F   UNL A   1      43.912  28.374  27.126  1.00  0.00    -0.206 F 
ATOM     75  C   UNL A   1      43.604  25.080  25.665  1.00  0.00     0.022 A 
BRANCH  72  76
ATOM     76  S   UNL A   1      42.210  22.761  26.340  1.00  0.00     0.124 S 
ATOM     77  O   UNL A   1      42.734  22.467  25.010  1.00  0.00    -0.237 OA
ATOM     78  O   UNL A   1      42.893  22.114  27.456  1.00  0.00    -0.237 OA
ATOM     79  O   UNL A   1      40.754  22.800  26.444  1.00  0.00    -0.744 OA
ENDBRANCH  72  76
ENDBRANCH  45  69
BRANCH  57  80
ATOM     80  C   UNL A   1      44.811  27.548  34.366  1.00  0.00     0.023 A 
ATOM     81  C   UNL A   1      44.668  26.359  35.103  1.00  0.00     0.031 A 
ATOM     82  C   UNL A   1      46.058  28.198  34.390  1.00  0.00     0.131 A 
ATOM     83  C   UNL A   1      45.737  25.884  35.877  1.00  0.00     0.055 A 
ATOM     84  C   UNL A   1      47.132  27.695  35.123  1.00  0.00     0.041 A 
ATOM     85  F   UNL A   1      46.247  29.338  33.706  1.00  0.00    -0.206 F 
ATOM     86  C   UNL A   1      46.972  26.539  35.884  1.00  0.00     0.022 A 
BRANCH  83  87
ATOM     87  S   UNL A   1      45.465  24.451  36.956  1.00  0.00     0.124 S 
ATOM     88  O   UNL A   1      46.801  23.869  37.036  1.00  0.00    -0.237 OA
ATOM     89  O   UNL A   1      44.966  25.073  38.177  1.00  0.00    -0.237 OA
ATOM     90  O   UNL A   1      44.485  23.651  36.222  1.00  0.00    -0.744 OA
ENDBRANCH  83  87
ENDBRANCH  57  80
ENDBRANCH  31  32
ENDBRANCH  24  26
ENDBRANCH  23  24
ENDBRANCH  22  23
ENDBRANCH   1  22
TORSDOF 19
ENDMDL
MODEL 2
REMARK VINA RESULT:     -10.9      5.541     10.910
REMARK SMILES CSc1ccc(Cl)c(C(=O)N[C@@H](CO)C(=O)OCCOC(=O)c2ccc(-c3c4nc(c(-c5cc(S(=O)(=O)[O-])ccc5F)c5ccc([nH]5)c(-c5cc(S(=O)(=O)[O-])ccc5F)c5nc(c(-c6cc(S(=O)(=O)[O-])ccc6F)c6ccc3[nH]6)C=C5)C=C4)cc2)c1
REMARK SMILES IDX 18 1 17 2 15 3 16 4 12 5 11 6 9 7 10 8 8 10 3 11 4 12 86 13
REMARK SMILES IDX 5 14 6 15 7 16 2 17 1 18 13 19 14 20 19 22 20 23 21 24 22 25
REMARK SMILES IDX 23 26 24 27 85 28 25 29 84 30 26 31 27 32 28 33 78 34 29 35
REMARK SMILES IDX 83 36 77 37 79 38 30 39 82 40 76 41 75 42 31 44 63 45 43 46
REMARK SMILES IDX 62 47 44 48 47 49 61 50 80 51 45 52 46 53 60 55 81 56 48 57
REMARK SMILES IDX 32 58 33 59 41 60 34 61 40 62 42 63 39 64 35 65 36 66 37 67
REMARK SMILES IDX 38 68 64 69 65 70 73 71 66 72 72 73 74 74 71 75 67 76 68 77
REMARK SMILES IDX 69 78 70 79 49 80 50 81 58 82 51 83 57 84 59 85 56 86 52 87
REMARK SMILES IDX 53 88 54 89 55 90
REMARK H PARENT 11 9 14 21 79 43 47 54
REMARK Flexibility Score: inf
ROOT
ATOM      1  C   UNL A   1      36.064  20.993  25.113  1.00  0.00     0.274 C 
ENDROOT
BRANCH   1   2
ATOM      2  O   UNL A   1      36.062  22.006  24.086  1.00  0.00    -0.460 OA
BRANCH   2   3
ATOM      3  C   UNL A   1      35.337  23.125  24.364  1.00  0.00     0.331 C 
ATOM      4  O   UNL A   1      35.747  24.074  25.027  1.00  0.00    -0.250 OA
BRANCH   3   5
ATOM      5  C   UNL A   1      33.890  23.052  23.854  1.00  0.00     0.218 C 
BRANCH   5   6
ATOM      6  N   UNL A   1      32.884  22.588  24.822  1.00  0.00    -0.337 N 
ATOM      7  C   UNL A   1      32.117  21.456  24.931  1.00  0.00     0.253 C 
ATOM      8  O   UNL A   1      31.194  21.484  25.747  1.00  0.00    -0.269 OA
ATOM      9  H   UNL A   1      32.726  23.232  25.550  1.00  0.00     0.164 HD
BRANCH   7  10
ATOM     10  C   UNL A   1      32.395  20.167  24.241  1.00  0.00     0.059 A 
ATOM     11  C   UNL A   1      32.881  17.784  24.620  1.00  0.00     0.008 A 
ATOM     12  C   UNL A   1      32.917  17.592  23.236  1.00  0.00     0.016 A 
ATOM     13  C   UNL A   1      32.660  19.077  25.108  1.00  0.00     0.030 A 
ATOM     14  C   UNL A   1      32.625  18.644  22.368  1.00  0.00     0.022 A 
ATOM     15  C   UNL A   1      32.307  19.914  22.868  1.00  0.00     0.053 A 
ATOM     16  Cl  UNL A   1      31.681  21.031  21.719  1.00  0.00    -0.083 Cl
BRANCH  11  17
ATOM     17  S   UNL A   1      33.124  16.334  25.624  1.00  0.00    -0.130 SA
ATOM     18  C   UNL A   1      34.835  15.842  25.271  1.00  0.00     0.091 C 
ENDBRANCH  11  17
ENDBRANCH   7  10
ENDBRANCH   5   6
BRANCH   5  19
ATOM     19  C   UNL A   1      33.541  24.484  23.406  1.00  0.00     0.193 C 
BRANCH  19  20
ATOM     20  O   UNL A   1      33.657  24.623  21.983  1.00  0.00    -0.394 OA
ATOM     21  H   UNL A   1      34.589  24.545  21.725  1.00  0.00     0.210 HD
ENDBRANCH  19  20
ENDBRANCH   5  19
ENDBRANCH   3   5
ENDBRANCH   2   3
ENDBRANCH   1   2
BRANCH   1  22
ATOM     22  C   UNL A   1      37.428  20.314  25.235  1.00  0.00     0.275 C 
BRANCH  22  23
ATOM     23  O   UNL A   1      38.497  21.273  25.163  1.00  0.00    -0.458 OA
BRANCH  23  24
ATOM     24  C   UNL A   1      39.506  21.027  26.031  1.00  0.00     0.338 C 
ATOM     25  O   UNL A   1      40.148  19.998  26.144  1.00  0.00    -0.246 OA
BRANCH  24  26
ATOM     26  C   UNL A   1      39.842  22.248  26.772  1.00  0.00     0.060 A 
ATOM     27  C   UNL A   1      39.258  23.439  26.345  1.00  0.00     0.016 A 
ATOM     28  C   UNL A   1      40.849  22.253  27.736  1.00  0.00     0.016 A 
ATOM     29  C   UNL A   1      39.736  24.654  26.822  1.00  0.00     0.010 A 
ATOM     30  C   UNL A   1      41.308  23.478  28.235  1.00  0.00     0.010 A 
ATOM     31  C   UNL A   1      40.796  24.690  27.736  1.00  0.00    -0.014 A 
BRANCH  31  32
ATOM     32  C   UNL A   1      41.454  25.994  28.022  1.00  0.00     0.031 A 
ATOM     33  C   UNL A   1      42.850  26.253  27.512  1.00  0.00     0.074 A 
ATOM     34  C   UNL A   1      40.787  26.976  28.655  1.00  0.00     0.049 A 
ATOM     35  N   UNL A   1      43.618  27.299  27.682  1.00  0.00    -0.248 NA
ATOM     36  C   UNL A   1      43.462  25.179  26.717  1.00  0.00     0.031 C 
ATOM     37  C   UNL A   1      39.423  26.872  29.175  1.00  0.00     0.029 A 
ATOM     38  N   UNL A   1      41.164  28.260  28.959  1.00  0.00    -0.354 N 
ATOM     39  C   UNL A   1      44.811  27.003  27.028  1.00  0.00     0.074 A 
ATOM     40  C   UNL A   1      44.676  25.661  26.501  1.00  0.00     0.031 C 
ATOM     41  C   UNL A   1      39.073  28.048  29.722  1.00  0.00     0.029 A 
ATOM     42  C   UNL A   1      40.201  28.972  29.633  1.00  0.00     0.049 A 
ATOM     43  H   UNL A   1      42.042  28.635  28.719  1.00  0.00     0.167 HD
ATOM     44  C   UNL A   1      45.912  27.780  26.863  1.00  0.00     0.034 A 
ATOM     45  C   UNL A   1      40.228  30.218  30.143  1.00  0.00     0.034 A 
ATOM     46  C   UNL A   1      46.040  29.120  27.380  1.00  0.00     0.049 A 
ATOM     47  C   UNL A   1      41.466  31.058  29.975  1.00  0.00     0.074 A 
ATOM     48  C   UNL A   1      47.125  29.977  27.311  1.00  0.00     0.029 A 
ATOM     49  N   UNL A   1      45.042  29.803  28.063  1.00  0.00    -0.354 N 
ATOM     50  N   UNL A   1      42.606  30.743  29.406  1.00  0.00    -0.248 NA
ATOM     51  C   UNL A   1      41.417  32.421  30.517  1.00  0.00     0.031 C 
ATOM     52  C   UNL A   1      46.799  31.158  27.991  1.00  0.00     0.029 A 
ATOM     53  C   UNL A   1      45.489  31.064  28.432  1.00  0.00     0.049 A 
ATOM     54  H   UNL A   1      44.145  29.444  28.258  1.00  0.00     0.167 HD
ATOM     55  C   UNL A   1      43.412  31.872  29.523  1.00  0.00     0.074 A 
ATOM     56  C   UNL A   1      42.615  32.883  30.189  1.00  0.00     0.031 C 
ATOM     57  C   UNL A   1      44.696  32.054  29.121  1.00  0.00     0.034 A 
BRANCH  44  58
ATOM     58  C   UNL A   1      47.082  27.149  26.145  1.00  0.00     0.023 A 
ATOM     59  C   UNL A   1      48.055  26.400  26.832  1.00  0.00     0.031 A 
ATOM     60  C   UNL A   1      47.276  27.381  24.773  1.00  0.00     0.131 A 
ATOM     61  C   UNL A   1      49.222  25.995  26.168  1.00  0.00     0.055 A 
ATOM     62  C   UNL A   1      48.400  26.900  24.097  1.00  0.00     0.041 A 
ATOM     63  F   UNL A   1      46.393  28.109  24.070  1.00  0.00    -0.206 F 
ATOM     64  C   UNL A   1      49.391  26.221  24.799  1.00  0.00     0.022 A 
BRANCH  61  65
ATOM     65  S   UNL A   1      50.599  25.341  27.154  1.00  0.00     0.124 S 
ATOM     66  O   UNL A   1      49.942  24.301  27.941  1.00  0.00    -0.237 OA
ATOM     67  O   UNL A   1      51.526  24.874  26.129  1.00  0.00    -0.237 OA
ATOM     68  O   UNL A   1      51.048  26.499  27.924  1.00  0.00    -0.744 OA
ENDBRANCH  61  65
ENDBRANCH  44  58
BRANCH  45  69
ATOM     69  C   UNL A   1      39.059  30.728  30.908  1.00  0.00     0.023 A 
ATOM     70  C   UNL A   1      38.089  31.542  30.305  1.00  0.00     0.031 A 
ATOM     71  C   UNL A   1      38.905  30.403  32.268  1.00  0.00     0.131 A 
ATOM     72  C   UNL A   1      37.017  32.027  31.070  1.00  0.00     0.055 A 
ATOM     73  C   UNL A   1      37.817  30.856  33.014  1.00  0.00     0.041 A 
ATOM     74  F   UNL A   1      39.804  29.618  32.884  1.00  0.00    -0.206 F 
ATOM     75  C   UNL A   1      36.869  31.679  32.416  1.00  0.00     0.022 A 
BRANCH  72  76
ATOM     76  S   UNL A   1      35.824  33.146  30.287  1.00  0.00     0.124 S 
ATOM     77  O   UNL A   1      35.551  34.091  31.364  1.00  0.00    -0.237 OA
ATOM     78  O   UNL A   1      36.590  33.665  29.157  1.00  0.00    -0.237 OA
ATOM     79  O   UNL A   1      34.715  32.265  29.929  1.00  0.00    -0.744 OA
ENDBRANCH  72  76
ENDBRANCH  45  69
BRANCH  57  80
ATOM     80  C   UNL A   1      45.303  33.409  29.383  1.00  0.00     0.023 A 
ATOM     81  C   UNL A   1      45.308  34.414  28.400  1.00  0.00     0.031 A 
ATOM     82  C   UNL A   1      45.910  33.687  30.620  1.00  0.00     0.131 A 
ATOM     83  C   UNL A   1      45.956  35.633  28.650  1.00  0.00     0.055 A 
ATOM     84  C   UNL A   1      46.511  34.919  30.880  1.00  0.00     0.041 A 
ATOM     85  F   UNL A   1      45.935  32.761  31.592  1.00  0.00    -0.206 F 
ATOM     86  C   UNL A   1      46.549  35.896  29.888  1.00  0.00     0.022 A 
BRANCH  83  87
ATOM     87  S   UNL A   1      46.101  36.838  27.301  1.00  0.00     0.124 S 
ATOM     88  O   UNL A   1      47.426  37.404  27.537  1.00  0.00    -0.237 OA
ATOM     89  O   UNL A   1      45.969  35.996  26.118  1.00  0.00    -0.237 OA
ATOM     90  O   UNL A   1      44.987  37.755  27.539  1.00  0.00    -0.744 OA
ENDBRANCH  83  87
ENDBRANCH  57  80
ENDBRANCH  31  32
ENDBRANCH  24  26
ENDBRANCH  23  24
ENDBRANCH  22  23
ENDBRANCH   1  22
TORSDOF 19
ENDMDL
MODEL 3
REMARK VINA RESULT:     -10.9      4.940     10.222
REMARK SMILES CSc1ccc(Cl)c(C(=O)N[C@@H](CO)C(=O)OCCOC(=O)c2ccc(-c3c4nc(c(-c5cc(S(=O)(=O)[O-])ccc5F)c5ccc([nH]5)c(-c5cc(S(=O)(=O)[O-])ccc5F)c5nc(c(-c6cc(S(=O)(=O)[O-])ccc6F)c6ccc3[nH]6)C=C5)C=C4)cc2)c1
REMARK SMILES IDX 18 1 17 2 15 3 16 4 12 5 11 6 9 7 10 8 8 10 3 11 4 12 86 13
REMARK SMILES IDX 5 14 6 15 7 16 2 17 1 18 13 19 14 20 19 22 20 23 21 24 22 25
REMARK SMILES IDX 23 26 24 27 85 28 25 29 84 30 26 31 27 32 28 33 78 34 29 35
REMARK SMILES IDX 83 36 77 37 79 38 30 39 82 40 76 41 75 42 31 44 63 45 43 46
REMARK SMILES IDX 62 47 44 48 47 49 61 50 80 51 45 52 46 53 60 55 81 56 48 57
REMARK SMILES IDX 32 58 33 59 41 60 34 61 40 62 42 63 39 64 35 65 36 66 37 67
REMARK SMILES IDX 38 68 64 69 65 70 73 71 66 72 72 73 74 74 71 75 67 76 68 77
REMARK SMILES IDX 69 78 70 79 49 80 50 81 58 82 51 83 57 84 59 85 56 86 52 87
REMARK SMILES IDX 53 88 54 89 55 90
REMARK H PARENT 11 9 14 21 79 43 47 54
REMARK Flexibility Score: inf
ROOT
ATOM      1  C   UNL A   1      35.794  21.140  25.634  1.00  0.00     0.274 C 
ENDROOT
BRANCH   1   2
ATOM      2  O   UNL A   1      34.858  21.533  24.610  1.00  0.00    -0.460 OA
BRANCH   2   3
ATOM      3  C   UNL A   1      33.589  21.786  25.038  1.00  0.00     0.331 C 
ATOM      4  O   UNL A   1      33.116  21.377  26.094  1.00  0.00    -0.250 OA
BRANCH   3   5
ATOM      5  C   UNL A   1      32.747  22.557  24.011  1.00  0.00     0.218 C 
BRANCH   5   6
ATOM      6  N   UNL A   1      33.441  23.622  23.269  1.00  0.00    -0.337 N 
ATOM      7  C   UNL A   1      33.352  24.991  23.260  1.00  0.00     0.253 C 
ATOM      8  O   UNL A   1      33.923  25.581  22.342  1.00  0.00    -0.269 OA
ATOM      9  H   UNL A   1      34.117  23.276  22.643  1.00  0.00     0.164 HD
BRANCH   7  10
ATOM     10  C   UNL A   1      32.734  25.813  24.337  1.00  0.00     0.059 A 
ATOM     11  C   UNL A   1      33.205  27.547  26.019  1.00  0.00     0.008 A 
ATOM     12  C   UNL A   1      31.860  27.519  26.394  1.00  0.00     0.016 A 
ATOM     13  C   UNL A   1      33.637  26.665  25.021  1.00  0.00     0.030 A 
ATOM     14  C   UNL A   1      30.950  26.714  25.710  1.00  0.00     0.022 A 
ATOM     15  C   UNL A   1      31.374  25.906  24.646  1.00  0.00     0.053 A 
ATOM     16  Cl  UNL A   1      30.119  25.200  23.703  1.00  0.00    -0.083 Cl
BRANCH  11  17
ATOM     17  S   UNL A   1      34.238  28.723  26.868  1.00  0.00    -0.130 SA
ATOM     18  C   UNL A   1      33.184  30.192  27.026  1.00  0.00     0.091 C 
ENDBRANCH  11  17
ENDBRANCH   7  10
ENDBRANCH   5   6
BRANCH   5  19
ATOM     19  C   UNL A   1      32.240  21.495  23.016  1.00  0.00     0.193 C 
BRANCH  19  20
ATOM     20  O   UNL A   1      32.499  20.169  23.500  1.00  0.00    -0.394 OA
ATOM     21  H   UNL A   1      31.881  19.960  24.217  1.00  0.00     0.210 HD
ENDBRANCH  19  20
ENDBRANCH   5  19
ENDBRANCH   3   5
ENDBRANCH   2   3
ENDBRANCH   1   2
BRANCH   1  22
ATOM     22  C   UNL A   1      37.065  20.537  25.037  1.00  0.00     0.275 C 
BRANCH  22  23
ATOM     23  O   UNL A   1      38.148  21.483  25.051  1.00  0.00    -0.458 OA
BRANCH  23  24
ATOM     24  C   UNL A   1      39.137  21.164  25.919  1.00  0.00     0.338 C 
ATOM     25  O   UNL A   1      39.717  20.098  26.017  1.00  0.00    -0.246 OA
BRANCH  24  26
ATOM     26  C   UNL A   1      39.536  22.350  26.684  1.00  0.00     0.060 A 
ATOM     27  C   UNL A   1      38.918  23.557  26.367  1.00  0.00     0.016 A 
ATOM     28  C   UNL A   1      40.623  22.313  27.556  1.00  0.00     0.016 A 
ATOM     29  C   UNL A   1      39.437  24.750  26.856  1.00  0.00     0.010 A 
ATOM     30  C   UNL A   1      41.125  23.515  28.070  1.00  0.00     0.010 A 
ATOM     31  C   UNL A   1      40.572  24.747  27.675  1.00  0.00    -0.014 A 
BRANCH  31  32
ATOM     32  C   UNL A   1      41.254  26.039  27.963  1.00  0.00     0.031 A 
ATOM     33  C   UNL A   1      42.654  26.274  27.452  1.00  0.00     0.074 A 
ATOM     34  C   UNL A   1      40.605  27.031  28.600  1.00  0.00     0.049 A 
ATOM     35  N   UNL A   1      43.441  27.306  27.624  1.00  0.00    -0.248 NA
ATOM     36  C   UNL A   1      43.246  25.192  26.654  1.00  0.00     0.031 C 
ATOM     37  C   UNL A   1      39.240  26.950  29.120  1.00  0.00     0.029 A 
ATOM     38  N   UNL A   1      41.005  28.307  28.906  1.00  0.00    -0.354 N 
ATOM     39  C   UNL A   1      44.627  26.991  26.968  1.00  0.00     0.074 A 
ATOM     40  C   UNL A   1      44.468  25.652  26.439  1.00  0.00     0.031 C 
ATOM     41  C   UNL A   1      38.912  28.131  29.670  1.00  0.00     0.029 A 
ATOM     42  C   UNL A   1      40.056  29.035  29.582  1.00  0.00     0.049 A 
ATOM     43  H   UNL A   1      41.889  28.667  28.666  1.00  0.00     0.167 HD
ATOM     44  C   UNL A   1      45.742  27.748  26.804  1.00  0.00     0.034 A 
ATOM     45  C   UNL A   1      40.106  30.280  30.094  1.00  0.00     0.034 A 
ATOM     46  C   UNL A   1      45.895  29.084  27.324  1.00  0.00     0.049 A 
ATOM     47  C   UNL A   1      41.358  31.097  29.928  1.00  0.00     0.074 A 
ATOM     48  C   UNL A   1      46.995  29.922  27.256  1.00  0.00     0.029 A 
ATOM     49  N   UNL A   1      44.910  29.783  28.009  1.00  0.00    -0.354 N 
ATOM     50  N   UNL A   1      42.491  30.764  29.356  1.00  0.00    -0.248 NA
ATOM     51  C   UNL A   1      41.333  32.460  30.472  1.00  0.00     0.031 C 
ATOM     52  C   UNL A   1      46.690  31.107  27.939  1.00  0.00     0.029 A 
ATOM     53  C   UNL A   1      45.379  31.035  28.381  1.00  0.00     0.049 A 
ATOM     54  H   UNL A   1      44.006  29.440  28.204  1.00  0.00     0.167 HD
ATOM     55  C   UNL A   1      43.317  31.878  29.475  1.00  0.00     0.074 A 
ATOM     56  C   UNL A   1      42.539  32.901  30.144  1.00  0.00     0.031 C 
ATOM     57  C   UNL A   1      44.604  32.037  29.073  1.00  0.00     0.034 A 
BRANCH  44  58
ATOM     58  C   UNL A   1      46.900  27.098  26.084  1.00  0.00     0.023 A 
ATOM     59  C   UNL A   1      47.888  26.373  26.775  1.00  0.00     0.031 A 
ATOM     60  C   UNL A   1      47.067  27.288  24.702  1.00  0.00     0.131 A 
ATOM     61  C   UNL A   1      49.043  25.950  26.101  1.00  0.00     0.055 A 
ATOM     62  C   UNL A   1      48.179  26.789  24.020  1.00  0.00     0.041 A 
ATOM     63  F   UNL A   1      46.169  27.991  23.994  1.00  0.00    -0.206 F 
ATOM     64  C   UNL A   1      49.186  26.134  24.723  1.00  0.00     0.022 A 
BRANCH  61  65
ATOM     65  S   UNL A   1      50.441  25.331  27.080  1.00  0.00     0.124 S 
ATOM     66  O   UNL A   1      50.868  26.532  27.794  1.00  0.00    -0.237 OA
ATOM     67  O   UNL A   1      49.819  24.293  27.895  1.00  0.00    -0.237 OA
ATOM     68  O   UNL A   1      51.382  24.852  26.069  1.00  0.00    -0.744 OA
ENDBRANCH  61  65
ENDBRANCH  44  58
BRANCH  45  69
ATOM     69  C   UNL A   1      38.946  30.808  30.862  1.00  0.00     0.023 A 
ATOM     70  C   UNL A   1      37.979  31.623  30.256  1.00  0.00     0.031 A 
ATOM     71  C   UNL A   1      38.800  30.501  32.227  1.00  0.00     0.131 A 
ATOM     72  C   UNL A   1      36.916  32.127  31.023  1.00  0.00     0.055 A 
ATOM     73  C   UNL A   1      37.720  30.972  32.975  1.00  0.00     0.041 A 
ATOM     74  F   UNL A   1      39.696  29.716  32.846  1.00  0.00    -0.206 F 
ATOM     75  C   UNL A   1      36.775  31.796  32.374  1.00  0.00     0.022 A 
BRANCH  72  76
ATOM     76  S   UNL A   1      35.728  33.246  30.235  1.00  0.00     0.124 S 
ATOM     77  O   UNL A   1      34.665  32.325  29.846  1.00  0.00    -0.237 OA
ATOM     78  O   UNL A   1      35.410  34.168  31.321  1.00  0.00    -0.237 OA
ATOM     79  O   UNL A   1      36.487  33.828  29.131  1.00  0.00    -0.744 OA
ENDBRANCH  72  76
ENDBRANCH  45  69
BRANCH  57  80
ATOM     80  C   UNL A   1      45.236  33.381  29.337  1.00  0.00     0.023 A 
ATOM     81  C   UNL A   1      45.206  34.409  28.378  1.00  0.00     0.031 A 
ATOM     82  C   UNL A   1      45.901  33.626  30.551  1.00  0.00     0.131 A 
ATOM     83  C   UNL A   1      45.876  35.616  28.626  1.00  0.00     0.055 A 
ATOM     84  C   UNL A   1      46.525  34.846  30.812  1.00  0.00     0.041 A 
ATOM     85  F   UNL A   1      45.961  32.677  31.500  1.00  0.00    -0.206 F 
ATOM     86  C   UNL A   1      46.527  35.845  29.841  1.00  0.00     0.022 A 
BRANCH  83  87
ATOM     87  S   UNL A   1      45.972  36.850  27.299  1.00  0.00     0.124 S 
ATOM     88  O   UNL A   1      46.461  36.055  26.176  1.00  0.00    -0.237 OA
ATOM     89  O   UNL A   1      44.591  37.309  27.202  1.00  0.00    -0.237 OA
ATOM     90  O   UNL A   1      46.919  37.836  27.816  1.00  0.00    -0.744 OA
ENDBRANCH  83  87
ENDBRANCH  57  80
ENDBRANCH  31  32
ENDBRANCH  24  26
ENDBRANCH  23  24
ENDBRANCH  22  23
ENDBRANCH   1  22
TORSDOF 19
ENDMDL
