MODEL 1
REMARK VINA RESULT:     -11.6      0.000      0.000
REMARK SMILES C[C@](NC(=O)Cc1csc(N)n1)(C(=O)OCCOC(=O)c1ccc(-c2c3nc(c(-c4cc(S(=O)(=O)[O-])ccc4F)c4ccc([nH]4)c(-c4cc(S(=O)(=O)[O-])ccc4F)c4nc(c(-c5cc(S(=O)(=O)[O-])ccc5F)c5ccc2[nH]5)C=C4)C=C3)cc1)C(F)(F)F
REMARK SMILES IDX 16 1 15 2 13 3 14 4 2 5 1 6 84 7 85 8 86 9 87 10 3 11 4 12
REMARK SMILES IDX 5 14 6 15 7 16 8 17 12 18 9 19 10 20 11 21 17 24 18 25 19 26
REMARK SMILES IDX 20 27 21 28 22 29 83 30 23 31 82 32 24 33 25 34 26 35 76 36
REMARK SMILES IDX 27 37 81 38 75 39 77 40 28 41 80 42 74 43 73 44 29 46 61 47
REMARK SMILES IDX 41 48 60 49 42 50 45 51 59 52 78 53 43 54 44 55 58 57 79 58
REMARK SMILES IDX 46 59 30 60 31 61 39 62 32 63 38 64 40 65 37 66 33 67 34 68
REMARK SMILES IDX 35 69 36 70 62 71 63 72 71 73 64 74 70 75 72 76 69 77 65 78
REMARK SMILES IDX 66 79 67 80 68 81 47 82 48 83 56 84 49 85 55 86 57 87 54 88
REMARK SMILES IDX 50 89 51 90 52 91 53 92
REMARK H PARENT 3 13 11 22 11 23 77 45 45 56
REMARK Flexibility Score: inf
ROOT
ATOM      1  C   UNL A   1      34.917  20.855  24.643  1.00  0.00     0.274 C 
ENDROOT
BRANCH   1   2
ATOM      2  O   UNL A   1      34.168  21.948  24.070  1.00  0.00    -0.460 OA
BRANCH   2   3
ATOM      3  C   UNL A   1      33.131  22.401  24.840  1.00  0.00     0.341 C 
ATOM      4  O   UNL A   1      32.338  21.656  25.404  1.00  0.00    -0.249 OA
BRANCH   3   5
ATOM      5  C   UNL A   1      32.994  23.935  24.821  1.00  0.00     0.231 C 
ATOM      6  C   UNL A   1      31.552  24.204  25.257  1.00  0.00     0.058 C 
BRANCH   5   7
ATOM      7  C   UNL A   1      33.989  24.428  25.879  1.00  0.00     0.422 C 
ATOM      8  F   UNL A   1      35.228  24.572  25.357  1.00  0.00    -0.168 F 
ATOM      9  F   UNL A   1      33.628  25.638  26.368  1.00  0.00    -0.168 F 
ATOM     10  F   UNL A   1      34.075  23.607  26.946  1.00  0.00    -0.168 F 
ENDBRANCH   5   7
BRANCH   5  11
ATOM     11  N   UNL A   1      33.276  24.452  23.441  1.00  0.00    -0.333 N 
ATOM     12  C   UNL A   1      33.397  25.687  22.884  1.00  0.00     0.227 C 
ATOM     13  H   UNL A   1      33.402  23.728  22.785  1.00  0.00     0.164 HD
ATOM     14  O   UNL A   1      33.749  25.714  21.698  1.00  0.00    -0.275 OA
BRANCH  12  15
ATOM     15  C   UNL A   1      33.172  26.979  23.645  1.00  0.00     0.157 C 
BRANCH  15  16
ATOM     16  C   UNL A   1      31.894  27.668  23.305  1.00  0.00     0.063 A 
ATOM     17  C   UNL A   1      30.626  27.281  23.706  1.00  0.00     0.093 A 
ATOM     18  N   UNL A   1      31.916  28.801  22.507  1.00  0.00    -0.225 NA
ATOM     19  S   UNL A   1      29.450  28.322  23.021  1.00  0.00    -0.106 S 
ATOM     20  C   UNL A   1      30.701  29.234  22.283  1.00  0.00     0.180 A 
BRANCH  20  21
ATOM     21  N   UNL A   1      30.441  30.301  21.523  1.00  0.00    -0.375 N 
ATOM     22  H   UNL A   1      31.180  30.863  21.195  1.00  0.00     0.159 HD
ATOM     23  H   UNL A   1      29.511  30.525  21.291  1.00  0.00     0.159 HD
ENDBRANCH  20  21
ENDBRANCH  15  16
ENDBRANCH  12  15
ENDBRANCH   5  11
ENDBRANCH   3   5
ENDBRANCH   2   3
ENDBRANCH   1   2
BRANCH   1  24
ATOM     24  C   UNL A   1      35.970  21.331  25.641  1.00  0.00     0.275 C 
BRANCH  24  25
ATOM     25  O   UNL A   1      37.171  21.705  24.951  1.00  0.00    -0.458 OA
BRANCH  25  26
ATOM     26  C   UNL A   1      38.328  21.319  25.542  1.00  0.00     0.338 C 
ATOM     27  O   UNL A   1      38.831  20.209  25.498  1.00  0.00    -0.246 OA
BRANCH  26  28
ATOM     28  C   UNL A   1      38.935  22.453  26.270  1.00  0.00     0.060 A 
ATOM     29  C   UNL A   1      38.468  23.750  26.079  1.00  0.00     0.016 A 
ATOM     30  C   UNL A   1      40.070  22.238  27.049  1.00  0.00     0.016 A 
ATOM     31  C   UNL A   1      39.198  24.841  26.548  1.00  0.00     0.010 A 
ATOM     32  C   UNL A   1      40.738  23.328  27.618  1.00  0.00     0.010 A 
ATOM     33  C   UNL A   1      40.342  24.649  27.333  1.00  0.00    -0.014 A 
BRANCH  33  34
ATOM     34  C   UNL A   1      41.174  25.804  27.787  1.00  0.00     0.031 A 
ATOM     35  C   UNL A   1      40.560  26.847  28.689  1.00  0.00     0.074 A 
ATOM     36  C   UNL A   1      42.464  25.934  27.417  1.00  0.00     0.049 A 
ATOM     37  N   UNL A   1      40.975  28.056  28.965  1.00  0.00    -0.248 NA
ATOM     38  C   UNL A   1      39.295  26.483  29.344  1.00  0.00     0.031 C 
ATOM     39  C   UNL A   1      43.223  24.972  26.615  1.00  0.00     0.029 A 
ATOM     40  N   UNL A   1      43.372  26.933  27.675  1.00  0.00    -0.354 N 
ATOM     41  C   UNL A   1      39.979  28.630  29.752  1.00  0.00     0.074 A 
ATOM     42  C   UNL A   1      38.947  27.628  29.915  1.00  0.00     0.031 C 
ATOM     43  C   UNL A   1      44.484  25.408  26.480  1.00  0.00     0.029 A 
ATOM     44  C   UNL A   1      44.598  26.729  27.086  1.00  0.00     0.049 A 
ATOM     45  H   UNL A   1      43.164  27.721  28.229  1.00  0.00     0.167 HD
ATOM     46  C   UNL A   1      39.929  29.882  30.273  1.00  0.00     0.034 A 
ATOM     47  C   UNL A   1      45.674  27.536  26.984  1.00  0.00     0.034 A 
ATOM     48  C   UNL A   1      41.004  30.839  30.160  1.00  0.00     0.049 A 
ATOM     49  C   UNL A   1      45.599  28.924  27.562  1.00  0.00     0.074 A 
ATOM     50  C   UNL A   1      41.066  32.133  30.649  1.00  0.00     0.029 A 
ATOM     51  N   UNL A   1      42.220  30.596  29.534  1.00  0.00    -0.354 N 
ATOM     52  N   UNL A   1      44.602  29.504  28.189  1.00  0.00    -0.248 NA
ATOM     53  C   UNL A   1      46.784  29.774  27.393  1.00  0.00     0.031 C 
ATOM     54  C   UNL A   1      42.299  32.685  30.282  1.00  0.00     0.029 A 
ATOM     55  C   UNL A   1      43.032  31.716  29.614  1.00  0.00     0.049 A 
ATOM     56  H   UNL A   1      42.469  29.750  29.096  1.00  0.00     0.167 HD
ATOM     57  C   UNL A   1      45.041  30.790  28.485  1.00  0.00     0.074 A 
ATOM     58  C   UNL A   1      46.401  30.890  27.996  1.00  0.00     0.031 C 
ATOM     59  C   UNL A   1      44.377  31.802  29.099  1.00  0.00     0.034 A 
BRANCH  46  60
ATOM     60  C   UNL A   1      38.641  30.308  30.935  1.00  0.00     0.023 A 
ATOM     61  C   UNL A   1      37.618  30.974  30.239  1.00  0.00     0.031 A 
ATOM     62  C   UNL A   1      38.457  30.073  32.310  1.00  0.00     0.131 A 
ATOM     63  C   UNL A   1      36.490  31.442  30.934  1.00  0.00     0.055 A 
ATOM     64  C   UNL A   1      37.300  30.475  32.981  1.00  0.00     0.041 A 
ATOM     65  F   UNL A   1      39.409  29.461  33.032  1.00  0.00    -0.206 F 
ATOM     66  C   UNL A   1      36.314  31.177  32.295  1.00  0.00     0.022 A 
BRANCH  63  67
ATOM     67  S   UNL A   1      35.318  32.521  30.066  1.00  0.00     0.124 S 
ATOM     68  O   UNL A   1      36.153  33.679  29.762  1.00  0.00    -0.237 OA
ATOM     69  O   UNL A   1      34.921  31.702  28.927  1.00  0.00    -0.237 OA
ATOM     70  O   UNL A   1      34.271  32.759  31.058  1.00  0.00    -0.744 OA
ENDBRANCH  63  67
ENDBRANCH  46  60
BRANCH  47  71
ATOM     71  C   UNL A   1      46.877  27.091  26.221  1.00  0.00     0.023 A 
ATOM     72  C   UNL A   1      47.115  27.536  24.912  1.00  0.00     0.031 A 
ATOM     73  C   UNL A   1      47.797  26.191  26.792  1.00  0.00     0.131 A 
ATOM     74  C   UNL A   1      48.234  27.064  24.208  1.00  0.00     0.055 A 
ATOM     75  C   UNL A   1      48.933  25.764  26.106  1.00  0.00     0.041 A 
ATOM     76  F   UNL A   1      47.612  25.733  28.041  1.00  0.00    -0.206 F 
ATOM     77  C   UNL A   1      49.152  26.194  24.802  1.00  0.00     0.022 A 
BRANCH  74  78
ATOM     78  S   UNL A   1      48.446  27.556  22.475  1.00  0.00     0.124 S 
ATOM     79  O   UNL A   1      47.229  28.320  22.231  1.00  0.00    -0.237 OA
ATOM     80  O   UNL A   1      49.686  28.324  22.527  1.00  0.00    -0.237 OA
ATOM     81  O   UNL A   1      48.536  26.281  21.767  1.00  0.00    -0.744 OA
ENDBRANCH  74  78
ENDBRANCH  47  71
BRANCH  59  82
ATOM     82  C   UNL A   1      45.137  33.089  29.292  1.00  0.00     0.023 A 
ATOM     83  C   UNL A   1      45.111  34.107  28.323  1.00  0.00     0.031 A 
ATOM     84  C   UNL A   1      45.917  33.283  30.445  1.00  0.00     0.131 A 
ATOM     85  C   UNL A   1      45.893  35.258  28.504  1.00  0.00     0.055 A 
ATOM     86  C   UNL A   1      46.655  34.451  30.639  1.00  0.00     0.041 A 
ATOM     87  F   UNL A   1      45.976  32.338  31.396  1.00  0.00    -0.206 F 
ATOM     88  C   UNL A   1      46.655  35.441  29.661  1.00  0.00     0.022 A 
BRANCH  85  89
ATOM     89  S   UNL A   1      45.965  36.481  27.166  1.00  0.00     0.124 S 
ATOM     90  O   UNL A   1      44.825  37.338  27.474  1.00  0.00    -0.237 OA
ATOM     91  O   UNL A   1      47.283  37.079  27.359  1.00  0.00    -0.237 OA
ATOM     92  O   UNL A   1      45.824  35.674  25.955  1.00  0.00    -0.744 OA
ENDBRANCH  85  89
ENDBRANCH  59  82
ENDBRANCH  33  34
ENDBRANCH  26  28
ENDBRANCH  25  26
ENDBRANCH  24  25
ENDBRANCH   1  24
TORSDOF 19
ENDMDL
MODEL 2
REMARK VINA RESULT:     -11.4      1.973      2.461
REMARK SMILES C[C@](NC(=O)Cc1csc(N)n1)(C(=O)OCCOC(=O)c1ccc(-c2c3nc(c(-c4cc(S(=O)(=O)[O-])ccc4F)c4ccc([nH]4)c(-c4cc(S(=O)(=O)[O-])ccc4F)c4nc(c(-c5cc(S(=O)(=O)[O-])ccc5F)c5ccc2[nH]5)C=C4)C=C3)cc1)C(F)(F)F
REMARK SMILES IDX 16 1 15 2 13 3 14 4 2 5 1 6 84 7 85 8 86 9 87 10 3 11 4 12
REMARK SMILES IDX 5 14 6 15 7 16 8 17 12 18 9 19 10 20 11 21 17 24 18 25 19 26
REMARK SMILES IDX 20 27 21 28 22 29 83 30 23 31 82 32 24 33 25 34 26 35 76 36
REMARK SMILES IDX 27 37 81 38 75 39 77 40 28 41 80 42 74 43 73 44 29 46 61 47
REMARK SMILES IDX 41 48 60 49 42 50 45 51 59 52 78 53 43 54 44 55 58 57 79 58
REMARK SMILES IDX 46 59 30 60 31 61 39 62 32 63 38 64 40 65 37 66 33 67 34 68
REMARK SMILES IDX 35 69 36 70 62 71 63 72 71 73 64 74 70 75 72 76 69 77 65 78
REMARK SMILES IDX 66 79 67 80 68 81 47 82 48 83 56 84 49 85 55 86 57 87 54 88
REMARK SMILES IDX 50 89 51 90 52 91 53 92
REMARK H PARENT 3 13 11 22 11 23 77 45 45 56
REMARK Flexibility Score: inf
ROOT
ATOM      1  C   UNL A   1      35.137  21.622  25.485  1.00  0.00     0.274 C 
ENDROOT
BRANCH   1   2
ATOM      2  O   UNL A   1      34.158  21.908  24.463  1.00  0.00    -0.460 OA
BRANCH   2   3
ATOM      3  C   UNL A   1      34.295  23.130  23.861  1.00  0.00     0.341 C 
ATOM      4  O   UNL A   1      35.288  23.456  23.221  1.00  0.00    -0.249 OA
BRANCH   3   5
ATOM      5  C   UNL A   1      33.131  24.088  24.175  1.00  0.00     0.231 C 
ATOM      6  C   UNL A   1      33.709  25.489  23.959  1.00  0.00     0.058 C 
BRANCH   5   7
ATOM      7  C   UNL A   1      32.065  23.765  23.121  1.00  0.00     0.422 C 
ATOM      8  F   UNL A   1      31.364  24.869  22.779  1.00  0.00    -0.168 F 
ATOM      9  F   UNL A   1      32.625  23.289  21.984  1.00  0.00    -0.168 F 
ATOM     10  F   UNL A   1      31.191  22.820  23.526  1.00  0.00    -0.168 F 
ENDBRANCH   5   7
BRANCH   5  11
ATOM     11  N   UNL A   1      32.667  23.877  25.586  1.00  0.00    -0.333 N 
ATOM     12  C   UNL A   1      31.614  24.315  26.327  1.00  0.00     0.227 C 
ATOM     13  H   UNL A   1      33.265  23.282  26.095  1.00  0.00     0.164 HD
ATOM     14  O   UNL A   1      31.507  23.827  27.459  1.00  0.00    -0.275 OA
BRANCH  12  15
ATOM     15  C   UNL A   1      30.583  25.305  25.821  1.00  0.00     0.157 C 
BRANCH  15  16
ATOM     16  C   UNL A   1      31.041  26.724  25.846  1.00  0.00     0.063 A 
ATOM     17  C   UNL A   1      30.930  27.637  24.810  1.00  0.00     0.093 A 
ATOM     18  N   UNL A   1      31.651  27.229  26.983  1.00  0.00    -0.225 NA
ATOM     19  S   UNL A   1      31.655  29.124  25.256  1.00  0.00    -0.106 S 
ATOM     20  C   UNL A   1      32.022  28.470  26.799  1.00  0.00     0.180 A 
BRANCH  20  21
ATOM     21  N   UNL A   1      32.655  29.184  27.734  1.00  0.00    -0.375 N 
ATOM     22  H   UNL A   1      32.311  29.200  28.657  1.00  0.00     0.159 HD
ATOM     23  H   UNL A   1      33.464  29.693  27.500  1.00  0.00     0.159 HD
ENDBRANCH  20  21
ENDBRANCH  15  16
ENDBRANCH  12  15
ENDBRANCH   5  11
ENDBRANCH   3   5
ENDBRANCH   2   3
ENDBRANCH   1   2
BRANCH   1  24
ATOM     24  C   UNL A   1      36.241  20.693  24.989  1.00  0.00     0.275 C 
BRANCH  24  25
ATOM     25  O   UNL A   1      37.456  21.432  24.792  1.00  0.00    -0.458 OA
BRANCH  25  26
ATOM     26  C   UNL A   1      38.506  21.042  25.556  1.00  0.00     0.338 C 
ATOM     27  O   UNL A   1      38.945  19.910  25.663  1.00  0.00    -0.246 OA
BRANCH  26  28
ATOM     28  C   UNL A   1      39.083  22.204  26.265  1.00  0.00     0.060 A 
ATOM     29  C   UNL A   1      38.591  23.486  26.042  1.00  0.00     0.016 A 
ATOM     30  C   UNL A   1      40.215  22.028  27.059  1.00  0.00     0.016 A 
ATOM     31  C   UNL A   1      39.294  24.602  26.495  1.00  0.00     0.010 A 
ATOM     32  C   UNL A   1      40.854  23.144  27.611  1.00  0.00     0.010 A 
ATOM     33  C   UNL A   1      40.434  24.450  27.293  1.00  0.00    -0.014 A 
BRANCH  33  34
ATOM     34  C   UNL A   1      41.238  25.632  27.730  1.00  0.00     0.031 A 
ATOM     35  C   UNL A   1      40.589  26.690  28.589  1.00  0.00     0.074 A 
ATOM     36  C   UNL A   1      42.534  25.772  27.384  1.00  0.00     0.049 A 
ATOM     37  N   UNL A   1      40.978  27.913  28.838  1.00  0.00    -0.248 NA
ATOM     38  C   UNL A   1      39.316  26.324  29.228  1.00  0.00     0.031 C 
ATOM     39  C   UNL A   1      43.324  24.800  26.626  1.00  0.00     0.029 A 
ATOM     40  N   UNL A   1      43.419  26.793  27.631  1.00  0.00    -0.354 N 
ATOM     41  C   UNL A   1      39.957  28.493  29.587  1.00  0.00     0.074 A 
ATOM     42  C   UNL A   1      38.938  27.479  29.759  1.00  0.00     0.031 C 
ATOM     43  C   UNL A   1      44.581  25.252  26.505  1.00  0.00     0.029 A 
ATOM     44  C   UNL A   1      44.661  26.592  27.074  1.00  0.00     0.049 A 
ATOM     45  H   UNL A   1      43.188  27.593  28.157  1.00  0.00     0.167 HD
ATOM     46  C   UNL A   1      39.876  29.759  30.070  1.00  0.00     0.034 A 
ATOM     47  C   UNL A   1      45.726  27.413  26.971  1.00  0.00     0.034 A 
ATOM     48  C   UNL A   1      40.938  30.730  29.951  1.00  0.00     0.049 A 
ATOM     49  C   UNL A   1      45.617  28.816  27.506  1.00  0.00     0.074 A 
ATOM     50  C   UNL A   1      40.969  32.038  30.403  1.00  0.00     0.029 A 
ATOM     51  N   UNL A   1      42.170  30.488  29.357  1.00  0.00    -0.354 N 
ATOM     52  N   UNL A   1      44.598  29.397  28.095  1.00  0.00    -0.248 NA
ATOM     53  C   UNL A   1      46.792  29.680  27.337  1.00  0.00     0.031 C 
ATOM     54  C   UNL A   1      42.201  32.600  30.045  1.00  0.00     0.029 A 
ATOM     55  C   UNL A   1      42.963  31.624  29.421  1.00  0.00     0.049 A 
ATOM     56  H   UNL A   1      42.442  29.635  28.950  1.00  0.00     0.167 HD
ATOM     57  C   UNL A   1      45.009  30.699  28.362  1.00  0.00     0.074 A 
ATOM     58  C   UNL A   1      46.378  30.807  27.898  1.00  0.00     0.031 C 
ATOM     59  C   UNL A   1      44.317  31.717  28.932  1.00  0.00     0.034 A 
BRANCH  46  60
ATOM     60  C   UNL A   1      38.568  30.183  30.692  1.00  0.00     0.023 A 
ATOM     61  C   UNL A   1      37.549  30.810  29.956  1.00  0.00     0.031 A 
ATOM     62  C   UNL A   1      38.359  29.986  32.070  1.00  0.00     0.131 A 
ATOM     63  C   UNL A   1      36.399  31.279  30.614  1.00  0.00     0.055 A 
ATOM     64  C   UNL A   1      37.182  30.388  32.704  1.00  0.00     0.041 A 
ATOM     65  F   UNL A   1      39.306  29.412  32.830  1.00  0.00    -0.206 F 
ATOM     66  C   UNL A   1      36.199  31.052  31.978  1.00  0.00     0.022 A 
BRANCH  63  67
ATOM     67  S   UNL A   1      35.228  32.311  29.690  1.00  0.00     0.124 S 
ATOM     68  O   UNL A   1      36.110  33.335  29.136  1.00  0.00    -0.237 OA
ATOM     69  O   UNL A   1      34.663  31.367  28.732  1.00  0.00    -0.237 OA
ATOM     70  O   UNL A   1      34.303  32.785  30.717  1.00  0.00    -0.744 OA
ENDBRANCH  63  67
ENDBRANCH  46  60
BRANCH  47  71
ATOM     71  C   UNL A   1      46.951  26.966  26.246  1.00  0.00     0.023 A 
ATOM     72  C   UNL A   1      48.019  26.360  26.926  1.00  0.00     0.031 A 
ATOM     73  C   UNL A   1      47.076  27.160  24.858  1.00  0.00     0.131 A 
ATOM     74  C   UNL A   1      49.174  25.990  26.220  1.00  0.00     0.055 A 
ATOM     75  C   UNL A   1      48.205  26.745  24.153  1.00  0.00     0.041 A 
ATOM     76  F   UNL A   1      46.083  27.737  24.162  1.00  0.00    -0.206 F 
ATOM     77  C   UNL A   1      49.268  26.164  24.836  1.00  0.00     0.022 A 
BRANCH  74  78
ATOM     78  S   UNL A   1      50.588  25.328  27.144  1.00  0.00     0.124 S 
ATOM     79  O   UNL A   1      49.974  24.228  27.880  1.00  0.00    -0.237 OA
ATOM     80  O   UNL A   1      51.503  24.951  26.072  1.00  0.00    -0.237 OA
ATOM     81  O   UNL A   1      51.021  26.460  27.961  1.00  0.00    -0.744 OA
ENDBRANCH  74  78
ENDBRANCH  47  71
BRANCH  59  82
ATOM     82  C   UNL A   1      45.052  33.021  29.103  1.00  0.00     0.023 A 
ATOM     83  C   UNL A   1      45.040  34.005  28.099  1.00  0.00     0.031 A 
ATOM     84  C   UNL A   1      45.794  33.266  30.271  1.00  0.00     0.131 A 
ATOM     85  C   UNL A   1      45.800  35.174  28.263  1.00  0.00     0.055 A 
ATOM     86  C   UNL A   1      46.509  34.452  30.447  1.00  0.00     0.041 A 
ATOM     87  F   UNL A   1      45.838  32.356  31.256  1.00  0.00    -0.206 F 
ATOM     88  C   UNL A   1      46.525  35.407  29.435  1.00  0.00     0.022 A 
BRANCH  85  89
ATOM     89  S   UNL A   1      45.895  36.352  26.886  1.00  0.00     0.124 S 
ATOM     90  O   UNL A   1      46.072  35.466  25.740  1.00  0.00    -0.237 OA
ATOM     91  O   UNL A   1      44.609  37.036  26.971  1.00  0.00    -0.237 OA
ATOM     92  O   UNL A   1      47.057  37.174  27.219  1.00  0.00    -0.744 OA
ENDBRANCH  85  89
ENDBRANCH  59  82
ENDBRANCH  33  34
ENDBRANCH  26  28
ENDBRANCH  25  26
ENDBRANCH  24  25
ENDBRANCH   1  24
TORSDOF 19
ENDMDL
MODEL 3
REMARK VINA RESULT:     -11.2      5.247     10.047
REMARK SMILES C[C@](NC(=O)Cc1csc(N)n1)(C(=O)OCCOC(=O)c1ccc(-c2c3nc(c(-c4cc(S(=O)(=O)[O-])ccc4F)c4ccc([nH]4)c(-c4cc(S(=O)(=O)[O-])ccc4F)c4nc(c(-c5cc(S(=O)(=O)[O-])ccc5F)c5ccc2[nH]5)C=C4)C=C3)cc1)C(F)(F)F
REMARK SMILES IDX 16 1 15 2 13 3 14 4 2 5 1 6 84 7 85 8 86 9 87 10 3 11 4 12
REMARK SMILES IDX 5 14 6 15 7 16 8 17 12 18 9 19 10 20 11 21 17 24 18 25 19 26
REMARK SMILES IDX 20 27 21 28 22 29 83 30 23 31 82 32 24 33 25 34 26 35 76 36
REMARK SMILES IDX 27 37 81 38 75 39 77 40 28 41 80 42 74 43 73 44 29 46 61 47
REMARK SMILES IDX 41 48 60 49 42 50 45 51 59 52 78 53 43 54 44 55 58 57 79 58
REMARK SMILES IDX 46 59 30 60 31 61 39 62 32 63 38 64 40 65 37 66 33 67 34 68
REMARK SMILES IDX 35 69 36 70 62 71 63 72 71 73 64 74 70 75 72 76 69 77 65 78
REMARK SMILES IDX 66 79 67 80 68 81 47 82 48 83 56 84 49 85 55 86 57 87 54 88
REMARK SMILES IDX 50 89 51 90 52 91 53 92
REMARK H PARENT 3 13 11 22 11 23 77 45 45 56
REMARK Flexibility Score: inf
ROOT
ATOM      1  C   UNL A   1      32.411  29.220  25.002  1.00  0.00     0.274 C 
ENDROOT
BRANCH   1   2
ATOM      2  O   UNL A   1      31.493  28.136  24.739  1.00  0.00    -0.460 OA
BRANCH   2   3
ATOM      3  C   UNL A   1      31.517  27.125  25.661  1.00  0.00     0.341 C 
ATOM      4  O   UNL A   1      31.322  27.303  26.858  1.00  0.00    -0.249 OA
BRANCH   3   5
ATOM      5  C   UNL A   1      31.935  25.772  25.058  1.00  0.00     0.231 C 
ATOM      6  C   UNL A   1      32.819  25.123  26.126  1.00  0.00     0.058 C 
BRANCH   5   7
ATOM      7  C   UNL A   1      30.621  24.999  24.888  1.00  0.00     0.422 C 
ATOM      8  F   UNL A   1      29.699  25.396  25.793  1.00  0.00    -0.168 F 
ATOM      9  F   UNL A   1      30.083  25.207  23.663  1.00  0.00    -0.168 F 
ATOM     10  F   UNL A   1      30.776  23.664  25.002  1.00  0.00    -0.168 F 
ENDBRANCH   5   7
BRANCH   5  11
ATOM     11  N   UNL A   1      32.673  25.997  23.770  1.00  0.00    -0.333 N 
ATOM     12  C   UNL A   1      33.686  25.364  23.120  1.00  0.00     0.227 C 
ATOM     13  H   UNL A   1      32.347  26.788  23.282  1.00  0.00     0.164 HD
ATOM     14  O   UNL A   1      33.962  25.798  21.995  1.00  0.00    -0.275 OA
BRANCH  12  15
ATOM     15  C   UNL A   1      34.428  24.167  23.682  1.00  0.00     0.157 C 
BRANCH  15  16
ATOM     16  C   UNL A   1      33.678  22.882  23.573  1.00  0.00     0.063 A 
ATOM     17  C   UNL A   1      33.727  21.829  24.471  1.00  0.00     0.093 A 
ATOM     18  N   UNL A   1      32.846  22.664  22.486  1.00  0.00    -0.225 NA
ATOM     19  S   UNL A   1      32.762  20.530  23.906  1.00  0.00    -0.106 S 
ATOM     20  C   UNL A   1      32.313  21.469  22.543  1.00  0.00     0.180 A 
BRANCH  20  21
ATOM     21  N   UNL A   1      31.488  20.999  21.604  1.00  0.00    -0.375 N 
ATOM     22  H   UNL A   1      30.658  21.483  21.392  1.00  0.00     0.159 HD
ATOM     23  H   UNL A   1      31.711  20.168  21.124  1.00  0.00     0.159 HD
ENDBRANCH  20  21
ENDBRANCH  15  16
ENDBRANCH  12  15
ENDBRANCH   5  11
ENDBRANCH   3   5
ENDBRANCH   2   3
ENDBRANCH   1   2
BRANCH   1  24
ATOM     24  C   UNL A   1      31.756  30.365  25.769  1.00  0.00     0.275 C 
BRANCH  24  25
ATOM     25  O   UNL A   1      32.331  30.473  27.080  1.00  0.00    -0.458 OA
BRANCH  25  26
ATOM     26  C   UNL A   1      33.040  31.604  27.314  1.00  0.00     0.338 C 
ATOM     27  O   UNL A   1      32.635  32.749  27.209  1.00  0.00    -0.246 OA
BRANCH  26  28
ATOM     28  C   UNL A   1      34.416  31.269  27.738  1.00  0.00     0.060 A 
ATOM     29  C   UNL A   1      34.771  29.953  28.017  1.00  0.00     0.016 A 
ATOM     30  C   UNL A   1      35.324  32.295  27.989  1.00  0.00     0.016 A 
ATOM     31  C   UNL A   1      35.972  29.667  28.665  1.00  0.00     0.010 A 
ATOM     32  C   UNL A   1      36.578  31.994  28.534  1.00  0.00     0.010 A 
ATOM     33  C   UNL A   1      36.899  30.682  28.928  1.00  0.00    -0.014 A 
BRANCH  33  34
ATOM     34  C   UNL A   1      38.159  30.404  29.682  1.00  0.00     0.031 A 
ATOM     35  C   UNL A   1      39.210  29.515  29.064  1.00  0.00     0.074 A 
ATOM     36  C   UNL A   1      38.385  30.937  30.901  1.00  0.00     0.049 A 
ATOM     37  N   UNL A   1      40.222  28.907  29.626  1.00  0.00    -0.248 NA
ATOM     38  C   UNL A   1      39.084  29.259  27.621  1.00  0.00     0.031 C 
ATOM     39  C   UNL A   1      37.505  31.876  31.598  1.00  0.00     0.029 A 
ATOM     40  N   UNL A   1      39.436  30.765  31.770  1.00  0.00    -0.354 N 
ATOM     41  C   UNL A   1      40.798  28.124  28.629  1.00  0.00     0.074 A 
ATOM     42  C   UNL A   1      40.027  28.349  27.424  1.00  0.00     0.031 C 
ATOM     43  C   UNL A   1      38.067  32.226  32.764  1.00  0.00     0.029 A 
ATOM     44  C   UNL A   1      39.290  31.454  32.953  1.00  0.00     0.049 A 
ATOM     45  H   UNL A   1      40.219  30.204  31.566  1.00  0.00     0.167 HD
ATOM     46  C   UNL A   1      41.862  27.287  28.720  1.00  0.00     0.034 A 
ATOM     47  C   UNL A   1      40.017  31.422  34.088  1.00  0.00     0.034 A 
ATOM     48  C   UNL A   1      42.663  27.136  29.911  1.00  0.00     0.049 A 
ATOM     49  C   UNL A   1      41.190  30.483  34.174  1.00  0.00     0.074 A 
ATOM     50  C   UNL A   1      43.763  26.322  30.119  1.00  0.00     0.029 A 
ATOM     51  N   UNL A   1      42.463  27.838  31.094  1.00  0.00    -0.354 N 
ATOM     52  N   UNL A   1      41.648  29.649  33.269  1.00  0.00    -0.248 NA
ATOM     53  C   UNL A   1      41.927  30.461  35.444  1.00  0.00     0.031 C 
ATOM     54  C   UNL A   1      44.201  26.498  31.437  1.00  0.00     0.029 A 
ATOM     55  C   UNL A   1      43.411  27.467  32.035  1.00  0.00     0.049 A 
ATOM     56  H   UNL A   1      41.752  28.502  31.242  1.00  0.00     0.167 HD
ATOM     57  C   UNL A   1      42.724  29.000  33.865  1.00  0.00     0.074 A 
ATOM     58  C   UNL A   1      42.866  29.561  35.193  1.00  0.00     0.031 C 
ATOM     59  C   UNL A   1      43.520  28.023  33.363  1.00  0.00     0.034 A 
BRANCH  46  60
ATOM     60  C   UNL A   1      42.164  26.414  27.525  1.00  0.00     0.023 A 
ATOM     61  C   UNL A   1      41.727  25.083  27.432  1.00  0.00     0.031 A 
ATOM     62  C   UNL A   1      42.946  26.926  26.472  1.00  0.00     0.131 A 
ATOM     63  C   UNL A   1      42.132  24.288  26.347  1.00  0.00     0.055 A 
ATOM     64  C   UNL A   1      43.283  26.153  25.359  1.00  0.00     0.041 A 
ATOM     65  F   UNL A   1      43.411  28.184  26.515  1.00  0.00    -0.206 F 
ATOM     66  C   UNL A   1      42.887  24.821  25.298  1.00  0.00     0.022 A 
BRANCH  63  67
ATOM     67  S   UNL A   1      41.773  22.511  26.387  1.00  0.00     0.124 S 
ATOM     68  O   UNL A   1      42.350  22.122  27.670  1.00  0.00    -0.237 OA
ATOM     69  O   UNL A   1      40.317  22.482  26.305  1.00  0.00    -0.237 OA
ATOM     70  O   UNL A   1      42.472  21.992  25.213  1.00  0.00    -0.744 OA
ENDBRANCH  63  67
ENDBRANCH  46  60
BRANCH  47  71
ATOM     71  C   UNL A   1      39.599  32.231  35.270  1.00  0.00     0.023 A 
ATOM     72  C   UNL A   1      38.816  31.675  36.293  1.00  0.00     0.031 A 
ATOM     73  C   UNL A   1      39.964  33.586  35.379  1.00  0.00     0.131 A 
ATOM     74  C   UNL A   1      38.404  32.476  37.370  1.00  0.00     0.055 A 
ATOM     75  C   UNL A   1      39.594  34.364  36.475  1.00  0.00     0.041 A 
ATOM     76  F   UNL A   1      40.711  34.166  34.425  1.00  0.00    -0.206 F 
ATOM     77  C   UNL A   1      38.801  33.812  37.475  1.00  0.00     0.022 A 
BRANCH  74  78
ATOM     78  S   UNL A   1      37.286  31.766  38.609  1.00  0.00     0.124 S 
ATOM     79  O   UNL A   1      37.106  30.409  38.106  1.00  0.00    -0.237 OA
ATOM     80  O   UNL A   1      38.068  31.896  39.834  1.00  0.00    -0.237 OA
ATOM     81  O   UNL A   1      36.104  32.622  38.534  1.00  0.00    -0.744 OA
ENDBRANCH  74  78
ENDBRANCH  47  71
BRANCH  59  82
ATOM     82  C   UNL A   1      44.627  27.527  34.257  1.00  0.00     0.023 A 
ATOM     83  C   UNL A   1      44.462  26.389  35.065  1.00  0.00     0.031 A 
ATOM     84  C   UNL A   1      45.848  28.221  34.321  1.00  0.00     0.131 A 
ATOM     85  C   UNL A   1      45.488  26.005  35.942  1.00  0.00     0.055 A 
ATOM     86  C   UNL A   1      46.882  27.805  35.160  1.00  0.00     0.041 A 
ATOM     87  F   UNL A   1      46.051  29.315  33.571  1.00  0.00    -0.206 F 
ATOM     88  C   UNL A   1      46.700  26.699  35.986  1.00  0.00     0.022 A 
BRANCH  85  89
ATOM     89  S   UNL A   1      45.187  24.630  37.087  1.00  0.00     0.124 S 
ATOM     90  O   UNL A   1      44.638  23.609  36.199  1.00  0.00    -0.237 OA
ATOM     91  O   UNL A   1      46.521  24.365  37.616  1.00  0.00    -0.237 OA
ATOM     92  O   UNL A   1      44.239  25.188  38.050  1.00  0.00    -0.744 OA
ENDBRANCH  85  89
ENDBRANCH  59  82
ENDBRANCH  33  34
ENDBRANCH  26  28
ENDBRANCH  25  26
ENDBRANCH  24  25
ENDBRANCH   1  24
TORSDOF 19
ENDMDL
