MODEL 1
REMARK VINA RESULT:     -12.3      0.000      0.000
REMARK SMILES C=C(C(=O)OCCOC(=O)c1ccc(-c2c3nc(c(-c4cc(S(=O)(=O)[O-])ccc4F)c4ccc([nH]4)c(-c4cc(S(=O)(=O)[O-])ccc4F)c4nc(c(-c5cc(S(=O)(=O)[O-])ccc5F)c5ccc2[nH]5)C=C4)C=C3)cc1)[C@@H]1CC[C@]2(C)C[C@@H](O)CC(=C)[C@H]2C1
REMARK SMILES IDX 7 1 6 2 5 3 3 4 4 5 2 6 1 7 74 8 75 9 86 10 76 11 85 12
REMARK SMILES IDX 77 13 83 14 78 15 79 16 82 17 84 18 80 19 81 20 8 22 9 23
REMARK SMILES IDX 10 24 11 25 12 26 73 27 13 28 72 29 14 30 15 31 16 32 66 33
REMARK SMILES IDX 17 34 71 35 65 36 67 37 18 38 70 39 64 40 63 41 19 43 51 44
REMARK SMILES IDX 31 45 50 46 32 47 35 48 49 49 68 50 33 51 34 52 48 54 69 55
REMARK SMILES IDX 36 56 20 57 21 58 29 59 22 60 28 61 30 62 27 63 23 64 24 65
REMARK SMILES IDX 25 66 26 67 52 68 53 69 61 70 54 71 60 72 62 73 59 74 55 75
REMARK SMILES IDX 56 76 57 77 58 78 37 79 38 80 46 81 39 82 45 83 47 84 44 85
REMARK SMILES IDX 40 86 41 87 42 88 43 89
REMARK H PARENT 81 21 67 42 35 53
REMARK Flexibility Score: inf
ROOT
ATOM      1  C   UNL A   1      36.457  20.514  24.993  1.00  0.00     0.275 C 
ENDROOT
BRANCH   1   2
ATOM      2  C   UNL A   1      34.962  20.765  25.196  1.00  0.00     0.275 C 
BRANCH   2   3
ATOM      3  O   UNL A   1      34.471  21.724  24.244  1.00  0.00    -0.459 OA
BRANCH   3   4
ATOM      4  C   UNL A   1      33.121  21.778  24.103  1.00  0.00     0.333 C 
ATOM      5  O   UNL A   1      32.368  20.817  24.121  1.00  0.00    -0.247 OA
BRANCH   4   6
ATOM      6  C   UNL A   1      32.653  23.200  24.021  1.00  0.00     0.033 C 
ATOM      7  C   UNL A   1      31.448  23.417  23.468  1.00  0.00     0.020 C 
BRANCH   6   8
ATOM      8  C   UNL A   1      33.657  24.239  24.512  1.00  0.00     0.026 C 
ATOM      9  C   UNL A   1      33.459  24.619  25.993  1.00  0.00     0.009 C 
ATOM     10  C   UNL A   1      33.866  25.512  23.663  1.00  0.00     0.017 C 
ATOM     11  C   UNL A   1      32.371  25.670  26.202  1.00  0.00     0.008 C 
ATOM     12  C   UNL A   1      32.811  26.603  23.899  1.00  0.00     0.021 C 
ATOM     13  C   UNL A   1      32.619  26.971  25.396  1.00  0.00    -0.024 C 
ATOM     14  C   UNL A   1      32.972  27.876  23.083  1.00  0.00    -0.071 C 
ATOM     15  C   UNL A   1      33.850  27.691  25.999  1.00  0.00     0.012 C 
ATOM     16  C   UNL A   1      31.356  27.877  25.521  1.00  0.00     0.039 C 
ATOM     17  C   UNL A   1      31.725  28.732  23.104  1.00  0.00     0.062 C 
ATOM     18  C   UNL A   1      34.081  28.252  22.424  1.00  0.00     0.008 C 
ATOM     19  C   UNL A   1      31.276  29.061  24.538  1.00  0.00     0.119 C 
BRANCH  19  20
ATOM     20  O   UNL A   1      31.997  30.180  25.048  1.00  0.00    -0.393 OA
ATOM     21  H   UNL A   1      31.785  30.968  24.524  1.00  0.00     0.210 HD
ENDBRANCH  19  20
ENDBRANCH   6   8
ENDBRANCH   4   6
ENDBRANCH   3   4
ENDBRANCH   2   3
ENDBRANCH   1   2
BRANCH   1  22
ATOM     22  O   UNL A   1      37.236  21.587  25.552  1.00  0.00    -0.458 OA
BRANCH  22  23
ATOM     23  C   UNL A   1      38.522  21.283  25.839  1.00  0.00     0.338 C 
ATOM     24  O   UNL A   1      39.105  20.237  25.612  1.00  0.00    -0.246 OA
BRANCH  23  25
ATOM     25  C   UNL A   1      39.176  22.438  26.473  1.00  0.00     0.060 A 
ATOM     26  C   UNL A   1      38.745  23.720  26.149  1.00  0.00     0.016 A 
ATOM     27  C   UNL A   1      40.307  22.259  27.267  1.00  0.00     0.016 A 
ATOM     28  C   UNL A   1      39.508  24.826  26.511  1.00  0.00     0.010 A 
ATOM     29  C   UNL A   1      40.994  23.382  27.746  1.00  0.00     0.010 A 
ATOM     30  C   UNL A   1      40.620  24.681  27.351  1.00  0.00    -0.014 A 
BRANCH  30  31
ATOM     31  C   UNL A   1      41.371  25.877  27.831  1.00  0.00     0.031 A 
ATOM     32  C   UNL A   1      40.678  26.936  28.651  1.00  0.00     0.074 A 
ATOM     33  C   UNL A   1      42.674  26.031  27.511  1.00  0.00     0.049 A 
ATOM     34  N   UNL A   1      41.080  28.143  28.956  1.00  0.00    -0.248 NA
ATOM     35  C   UNL A   1      39.349  26.596  29.183  1.00  0.00     0.031 C 
ATOM     36  C   UNL A   1      43.484  25.064  26.765  1.00  0.00     0.029 A 
ATOM     37  N   UNL A   1      43.549  27.062  27.761  1.00  0.00    -0.354 N 
ATOM     38  C   UNL A   1      40.031  28.731  29.659  1.00  0.00     0.074 A 
ATOM     39  C   UNL A   1      38.976  27.742  29.737  1.00  0.00     0.031 C 
ATOM     40  C   UNL A   1      44.733  25.533  26.640  1.00  0.00     0.029 A 
ATOM     41  C   UNL A   1      44.788  26.880  27.188  1.00  0.00     0.049 A 
ATOM     42  H   UNL A   1      43.312  27.853  28.296  1.00  0.00     0.167 HD
ATOM     43  C   UNL A   1      39.958  29.982  30.178  1.00  0.00     0.034 A 
ATOM     44  C   UNL A   1      45.832  27.722  27.048  1.00  0.00     0.034 A 
ATOM     45  C   UNL A   1      41.044  30.934  30.133  1.00  0.00     0.049 A 
ATOM     46  C   UNL A   1      45.706  29.124  27.580  1.00  0.00     0.074 A 
ATOM     47  C   UNL A   1      41.098  32.205  30.678  1.00  0.00     0.029 A 
ATOM     48  N   UNL A   1      42.266  30.720  29.508  1.00  0.00    -0.354 N 
ATOM     49  N   UNL A   1      44.694  29.679  28.206  1.00  0.00    -0.248 NA
ATOM     50  C   UNL A   1      46.851  30.018  27.370  1.00  0.00     0.031 C 
ATOM     51  C   UNL A   1      42.321  32.785  30.323  1.00  0.00     0.029 A 
ATOM     52  C   UNL A   1      43.062  31.851  29.617  1.00  0.00     0.049 A 
ATOM     53  H   UNL A   1      42.528  29.888  29.052  1.00  0.00     0.167 HD
ATOM     54  C   UNL A   1      45.086  30.986  28.472  1.00  0.00     0.074 A 
ATOM     55  C   UNL A   1      46.435  31.129  27.960  1.00  0.00     0.031 C 
ATOM     56  C   UNL A   1      44.396  31.981  29.082  1.00  0.00     0.034 A 
BRANCH  43  57
ATOM     57  C   UNL A   1      38.645  30.423  30.778  1.00  0.00     0.023 A 
ATOM     58  C   UNL A   1      37.641  31.050  30.022  1.00  0.00     0.031 A 
ATOM     59  C   UNL A   1      38.399  30.204  32.147  1.00  0.00     0.131 A 
ATOM     60  C   UNL A   1      36.461  31.484  30.651  1.00  0.00     0.055 A 
ATOM     61  C   UNL A   1      37.196  30.576  32.751  1.00  0.00     0.041 A 
ATOM     62  F   UNL A   1      39.329  29.628  32.924  1.00  0.00    -0.206 F 
ATOM     63  C   UNL A   1      36.223  31.231  32.004  1.00  0.00     0.022 A 
BRANCH  60  64
ATOM     64  S   UNL A   1      35.288  32.491  29.701  1.00  0.00     0.124 S 
ATOM     65  O   UNL A   1      34.883  31.562  28.649  1.00  0.00    -0.237 OA
ATOM     66  O   UNL A   1      34.271  32.812  30.695  1.00  0.00    -0.237 OA
ATOM     67  O   UNL A   1      36.095  33.622  29.247  1.00  0.00    -0.744 OA
ENDBRANCH  60  64
ENDBRANCH  43  57
BRANCH  44  68
ATOM     68  C   UNL A   1      47.041  27.300  26.282  1.00  0.00     0.023 A 
ATOM     69  C   UNL A   1      47.236  27.698  24.952  1.00  0.00     0.031 A 
ATOM     70  C   UNL A   1      48.006  26.457  26.866  1.00  0.00     0.131 A 
ATOM     71  C   UNL A   1      48.350  27.228  24.239  1.00  0.00     0.055 A 
ATOM     72  C   UNL A   1      49.143  26.042  26.172  1.00  0.00     0.041 A 
ATOM     73  F   UNL A   1      47.867  26.039  28.135  1.00  0.00    -0.206 F 
ATOM     74  C   UNL A   1      49.314  26.418  24.845  1.00  0.00     0.022 A 
BRANCH  71  75
ATOM     75  S   UNL A   1      48.477  27.615  22.471  1.00  0.00     0.124 S 
ATOM     76  O   UNL A   1      49.660  28.467  22.438  1.00  0.00    -0.237 OA
ATOM     77  O   UNL A   1      48.625  26.289  21.881  1.00  0.00    -0.237 OA
ATOM     78  O   UNL A   1      47.215  28.289  22.178  1.00  0.00    -0.744 OA
ENDBRANCH  71  75
ENDBRANCH  44  68
BRANCH  56  79
ATOM     79  C   UNL A   1      45.109  33.297  29.251  1.00  0.00     0.023 A 
ATOM     80  C   UNL A   1      45.099  34.272  28.238  1.00  0.00     0.031 A 
ATOM     81  C   UNL A   1      45.817  33.572  30.433  1.00  0.00     0.131 A 
ATOM     82  C   UNL A   1      45.824  35.461  28.408  1.00  0.00     0.055 A 
ATOM     83  C   UNL A   1      46.494  34.778  30.618  1.00  0.00     0.041 A 
ATOM     84  F   UNL A   1      45.860  32.672  31.427  1.00  0.00    -0.206 F 
ATOM     85  C   UNL A   1      46.508  35.726  29.598  1.00  0.00     0.022 A 
BRANCH  82  86
ATOM     86  S   UNL A   1      45.920  36.631  27.026  1.00  0.00     0.124 S 
ATOM     87  O   UNL A   1      47.138  37.371  27.341  1.00  0.00    -0.237 OA
ATOM     88  O   UNL A   1      45.993  35.744  25.869  1.00  0.00    -0.237 OA
ATOM     89  O   UNL A   1      44.681  37.398  27.139  1.00  0.00    -0.744 OA
ENDBRANCH  82  86
ENDBRANCH  56  79
ENDBRANCH  30  31
ENDBRANCH  23  25
ENDBRANCH  22  23
ENDBRANCH   1  22
TORSDOF 16
ENDMDL
MODEL 2
REMARK VINA RESULT:     -12.2      1.581      1.916
REMARK SMILES C=C(C(=O)OCCOC(=O)c1ccc(-c2c3nc(c(-c4cc(S(=O)(=O)[O-])ccc4F)c4ccc([nH]4)c(-c4cc(S(=O)(=O)[O-])ccc4F)c4nc(c(-c5cc(S(=O)(=O)[O-])ccc5F)c5ccc2[nH]5)C=C4)C=C3)cc1)[C@@H]1CC[C@]2(C)C[C@@H](O)CC(=C)[C@H]2C1
REMARK SMILES IDX 7 1 6 2 5 3 3 4 4 5 2 6 1 7 74 8 75 9 86 10 76 11 85 12
REMARK SMILES IDX 77 13 83 14 78 15 79 16 82 17 84 18 80 19 81 20 8 22 9 23
REMARK SMILES IDX 10 24 11 25 12 26 73 27 13 28 72 29 14 30 15 31 16 32 66 33
REMARK SMILES IDX 17 34 71 35 65 36 67 37 18 38 70 39 64 40 63 41 19 43 51 44
REMARK SMILES IDX 31 45 50 46 32 47 35 48 49 49 68 50 33 51 34 52 48 54 69 55
REMARK SMILES IDX 36 56 20 57 21 58 29 59 22 60 28 61 30 62 27 63 23 64 24 65
REMARK SMILES IDX 25 66 26 67 52 68 53 69 61 70 54 71 60 72 62 73 59 74 55 75
REMARK SMILES IDX 56 76 57 77 58 78 37 79 38 80 46 81 39 82 45 83 47 84 44 85
REMARK SMILES IDX 40 86 41 87 42 88 43 89
REMARK H PARENT 81 21 67 42 35 53
REMARK Flexibility Score: inf
ROOT
ATOM      1  C   UNL A   1      36.060  20.742  24.962  1.00  0.00     0.275 C 
ENDROOT
BRANCH   1   2
ATOM      2  C   UNL A   1      34.779  21.121  25.705  1.00  0.00     0.275 C 
BRANCH   2   3
ATOM      3  O   UNL A   1      34.830  22.488  26.150  1.00  0.00    -0.459 OA
BRANCH   3   4
ATOM      4  C   UNL A   1      33.779  22.903  26.904  1.00  0.00     0.333 C 
ATOM      5  O   UNL A   1      33.487  22.475  28.009  1.00  0.00    -0.247 OA
BRANCH   4   6
ATOM      6  C   UNL A   1      33.067  24.042  26.238  1.00  0.00     0.033 C 
ATOM      7  C   UNL A   1      31.775  24.226  26.555  1.00  0.00     0.020 C 
BRANCH   6   8
ATOM      8  C   UNL A   1      33.895  24.809  25.211  1.00  0.00     0.026 C 
ATOM      9  C   UNL A   1      34.451  26.141  25.755  1.00  0.00     0.009 C 
ATOM     10  C   UNL A   1      33.299  25.020  23.802  1.00  0.00     0.017 C 
ATOM     11  C   UNL A   1      33.439  27.283  25.692  1.00  0.00     0.008 C 
ATOM     12  C   UNL A   1      32.319  26.199  23.706  1.00  0.00     0.021 C 
ATOM     13  C   UNL A   1      32.891  27.532  24.262  1.00  0.00    -0.024 C 
ATOM     14  C   UNL A   1      31.703  26.446  22.338  1.00  0.00    -0.071 C 
ATOM     15  C   UNL A   1      34.039  28.101  23.392  1.00  0.00     0.012 C 
ATOM     16  C   UNL A   1      31.727  28.565  24.354  1.00  0.00     0.039 C 
ATOM     17  C   UNL A   1      30.507  27.369  22.406  1.00  0.00     0.062 C 
ATOM     18  C   UNL A   1      32.149  25.945  21.174  1.00  0.00     0.008 C 
ATOM     19  C   UNL A   1      30.847  28.701  23.096  1.00  0.00     0.119 C 
BRANCH  19  20
ATOM     20  O   UNL A   1      31.439  29.612  22.171  1.00  0.00    -0.393 OA
ATOM     21  H   UNL A   1      30.766  29.920  21.545  1.00  0.00     0.210 HD
ENDBRANCH  19  20
ENDBRANCH   6   8
ENDBRANCH   4   6
ENDBRANCH   3   4
ENDBRANCH   2   3
ENDBRANCH   1   2
BRANCH   1  22
ATOM     22  O   UNL A   1      37.070  21.753  25.137  1.00  0.00    -0.458 OA
BRANCH  22  23
ATOM     23  C   UNL A   1      38.245  21.320  25.647  1.00  0.00     0.338 C 
ATOM     24  O   UNL A   1      38.711  20.196  25.581  1.00  0.00    -0.246 OA
BRANCH  23  25
ATOM     25  C   UNL A   1      38.941  22.434  26.308  1.00  0.00     0.060 A 
ATOM     26  C   UNL A   1      38.485  23.732  26.103  1.00  0.00     0.016 A 
ATOM     27  C   UNL A   1      40.127  22.209  27.004  1.00  0.00     0.016 A 
ATOM     28  C   UNL A   1      39.271  24.816  26.482  1.00  0.00     0.010 A 
ATOM     29  C   UNL A   1      40.845  23.303  27.507  1.00  0.00     0.010 A 
ATOM     30  C   UNL A   1      40.441  24.622  27.228  1.00  0.00    -0.014 A 
BRANCH  30  31
ATOM     31  C   UNL A   1      41.224  25.789  27.732  1.00  0.00     0.031 A 
ATOM     32  C   UNL A   1      40.558  26.849  28.573  1.00  0.00     0.074 A 
ATOM     33  C   UNL A   1      42.530  25.915  27.414  1.00  0.00     0.049 A 
ATOM     34  N   UNL A   1      40.991  28.039  28.902  1.00  0.00    -0.248 NA
ATOM     35  C   UNL A   1      39.221  26.533  29.098  1.00  0.00     0.031 C 
ATOM     36  C   UNL A   1      43.315  24.942  26.649  1.00  0.00     0.029 A 
ATOM     37  N   UNL A   1      43.431  26.917  27.685  1.00  0.00    -0.354 N 
ATOM     38  C   UNL A   1      39.958  28.639  29.617  1.00  0.00     0.074 A 
ATOM     39  C   UNL A   1      38.878  27.677  29.675  1.00  0.00     0.031 C 
ATOM     40  C   UNL A   1      44.576  25.380  26.534  1.00  0.00     0.029 A 
ATOM     41  C   UNL A   1      44.666  26.715  27.109  1.00  0.00     0.049 A 
ATOM     42  H   UNL A   1      43.215  27.703  28.236  1.00  0.00     0.167 HD
ATOM     43  C   UNL A   1      39.918  29.881  30.161  1.00  0.00     0.034 A 
ATOM     44  C   UNL A   1      45.731  27.531  26.985  1.00  0.00     0.034 A 
ATOM     45  C   UNL A   1      41.028  30.805  30.135  1.00  0.00     0.049 A 
ATOM     46  C   UNL A   1      45.642  28.925  27.545  1.00  0.00     0.074 A 
ATOM     47  C   UNL A   1      41.115  32.063  30.705  1.00  0.00     0.029 A 
ATOM     48  N   UNL A   1      42.244  30.572  29.505  1.00  0.00    -0.354 N 
ATOM     49  N   UNL A   1      44.645  29.493  28.182  1.00  0.00    -0.248 NA
ATOM     50  C   UNL A   1      46.810  29.792  27.353  1.00  0.00     0.031 C 
ATOM     51  C   UNL A   1      42.353  32.618  30.362  1.00  0.00     0.029 A 
ATOM     52  C   UNL A   1      43.069  31.679  29.637  1.00  0.00     0.049 A 
ATOM     53  H   UNL A   1      42.485  29.743  29.033  1.00  0.00     0.167 HD
ATOM     54  C   UNL A   1      45.071  30.784  28.474  1.00  0.00     0.074 A 
ATOM     55  C   UNL A   1      46.423  30.902  27.965  1.00  0.00     0.031 C 
ATOM     56  C   UNL A   1      44.406  31.785  29.105  1.00  0.00     0.034 A 
BRANCH  43  57
ATOM     57  C   UNL A   1      38.616  30.344  30.770  1.00  0.00     0.023 A 
ATOM     58  C   UNL A   1      37.616  30.985  30.020  1.00  0.00     0.031 A 
ATOM     59  C   UNL A   1      38.377  30.133  32.142  1.00  0.00     0.131 A 
ATOM     60  C   UNL A   1      36.449  31.439  30.657  1.00  0.00     0.055 A 
ATOM     61  C   UNL A   1      37.185  30.525  32.754  1.00  0.00     0.041 A 
ATOM     62  F   UNL A   1      39.304  29.543  32.913  1.00  0.00    -0.206 F 
ATOM     63  C   UNL A   1      36.217  31.193  32.013  1.00  0.00     0.022 A 
BRANCH  60  64
ATOM     64  S   UNL A   1      35.285  32.463  29.714  1.00  0.00     0.124 S 
ATOM     65  O   UNL A   1      34.313  32.829  30.741  1.00  0.00    -0.237 OA
ATOM     66  O   UNL A   1      36.136  33.542  29.227  1.00  0.00    -0.237 OA
ATOM     67  O   UNL A   1      34.782  31.554  28.685  1.00  0.00    -0.744 OA
ENDBRANCH  60  64
ENDBRANCH  43  57
BRANCH  44  68
ATOM     68  C   UNL A   1      46.929  27.093  26.211  1.00  0.00     0.023 A 
ATOM     69  C   UNL A   1      48.011  26.459  26.839  1.00  0.00     0.031 A 
ATOM     70  C   UNL A   1      47.021  27.337  24.827  1.00  0.00     0.131 A 
ATOM     71  C   UNL A   1      49.151  26.122  26.093  1.00  0.00     0.055 A 
ATOM     72  C   UNL A   1      48.132  26.944  24.079  1.00  0.00     0.041 A 
ATOM     73  F   UNL A   1      46.018  27.947  24.175  1.00  0.00    -0.206 F 
ATOM     74  C   UNL A   1      49.212  26.343  24.715  1.00  0.00     0.022 A 
BRANCH  71  75
ATOM     75  S   UNL A   1      50.600  25.469  26.967  1.00  0.00     0.124 S 
ATOM     76  O   UNL A   1      50.036  24.316  27.659  1.00  0.00    -0.237 OA
ATOM     77  O   UNL A   1      51.511  25.176  25.867  1.00  0.00    -0.237 OA
ATOM     78  O   UNL A   1      51.005  26.577  27.831  1.00  0.00    -0.744 OA
ENDBRANCH  71  75
ENDBRANCH  44  68
BRANCH  56  79
ATOM     79  C   UNL A   1      45.154  33.078  29.299  1.00  0.00     0.023 A 
ATOM     80  C   UNL A   1      45.152  34.083  28.316  1.00  0.00     0.031 A 
ATOM     81  C   UNL A   1      45.887  33.301  30.477  1.00  0.00     0.131 A 
ATOM     82  C   UNL A   1      45.908  35.248  28.508  1.00  0.00     0.055 A 
ATOM     83  C   UNL A   1      46.596  34.485  30.686  1.00  0.00     0.041 A 
ATOM     84  F   UNL A   1      45.925  32.371  31.444  1.00  0.00    -0.206 F 
ATOM     85  C   UNL A   1      46.617  35.462  29.694  1.00  0.00     0.022 A 
BRANCH  82  86
ATOM     86  S   UNL A   1      46.010  36.455  27.159  1.00  0.00     0.124 S 
ATOM     87  O   UNL A   1      47.171  37.248  27.550  1.00  0.00    -0.237 OA
ATOM     88  O   UNL A   1      46.185  35.603  25.987  1.00  0.00    -0.237 OA
ATOM     89  O   UNL A   1      44.729  37.156  27.228  1.00  0.00    -0.744 OA
ENDBRANCH  82  86
ENDBRANCH  56  79
ENDBRANCH  30  31
ENDBRANCH  23  25
ENDBRANCH  22  23
ENDBRANCH   1  22
TORSDOF 16
ENDMDL
MODEL 3
REMARK VINA RESULT:     -12.2      5.172     10.180
REMARK SMILES C=C(C(=O)OCCOC(=O)c1ccc(-c2c3nc(c(-c4cc(S(=O)(=O)[O-])ccc4F)c4ccc([nH]4)c(-c4cc(S(=O)(=O)[O-])ccc4F)c4nc(c(-c5cc(S(=O)(=O)[O-])ccc5F)c5ccc2[nH]5)C=C4)C=C3)cc1)[C@@H]1CC[C@]2(C)C[C@@H](O)CC(=C)[C@H]2C1
REMARK SMILES IDX 7 1 6 2 5 3 3 4 4 5 2 6 1 7 74 8 75 9 86 10 76 11 85 12
REMARK SMILES IDX 77 13 83 14 78 15 79 16 82 17 84 18 80 19 81 20 8 22 9 23
REMARK SMILES IDX 10 24 11 25 12 26 73 27 13 28 72 29 14 30 15 31 16 32 66 33
REMARK SMILES IDX 17 34 71 35 65 36 67 37 18 38 70 39 64 40 63 41 19 43 51 44
REMARK SMILES IDX 31 45 50 46 32 47 35 48 49 49 68 50 33 51 34 52 48 54 69 55
REMARK SMILES IDX 36 56 20 57 21 58 29 59 22 60 28 61 30 62 27 63 23 64 24 65
REMARK SMILES IDX 25 66 26 67 52 68 53 69 61 70 54 71 60 72 62 73 59 74 55 75
REMARK SMILES IDX 56 76 57 77 58 78 37 79 38 80 46 81 39 82 45 83 47 84 44 85
REMARK SMILES IDX 40 86 41 87 42 88 43 89
REMARK H PARENT 81 21 67 42 35 53
REMARK Flexibility Score: inf
ROOT
ATOM      1  C   UNL A   1      31.781  29.379  25.779  1.00  0.00     0.275 C 
ENDROOT
BRANCH   1   2
ATOM      2  C   UNL A   1      31.038  29.480  24.447  1.00  0.00     0.275 C 
BRANCH   2   3
ATOM      3  O   UNL A   1      31.791  28.853  23.392  1.00  0.00    -0.459 OA
BRANCH   3   4
ATOM      4  C   UNL A   1      31.199  27.784  22.800  1.00  0.00     0.333 C 
ATOM      5  O   UNL A   1      30.278  27.836  22.001  1.00  0.00    -0.247 OA
BRANCH   4   6
ATOM      6  C   UNL A   1      31.896  26.513  23.183  1.00  0.00     0.033 C 
ATOM      7  C   UNL A   1      33.228  26.469  23.010  1.00  0.00     0.020 C 
BRANCH   6   8
ATOM      8  C   UNL A   1      30.978  25.389  23.653  1.00  0.00     0.026 C 
ATOM      9  C   UNL A   1      30.614  25.491  25.148  1.00  0.00     0.009 C 
ATOM     10  C   UNL A   1      31.361  23.935  23.299  1.00  0.00     0.017 C 
ATOM     11  C   UNL A   1      31.686  24.908  26.067  1.00  0.00     0.008 C 
ATOM     12  C   UNL A   1      32.399  23.313  24.245  1.00  0.00     0.021 C 
ATOM     13  C   UNL A   1      32.021  23.428  25.747  1.00  0.00    -0.024 C 
ATOM     14  C   UNL A   1      32.810  21.882  23.936  1.00  0.00    -0.071 C 
ATOM     15  C   UNL A   1      30.797  22.557  26.126  1.00  0.00     0.012 C 
ATOM     16  C   UNL A   1      33.259  23.008  26.598  1.00  0.00     0.039 C 
ATOM     17  C   UNL A   1      34.068  21.476  24.672  1.00  0.00     0.062 C 
ATOM     18  C   UNL A   1      32.153  21.032  23.130  1.00  0.00     0.008 C 
ATOM     19  C   UNL A   1      33.939  21.687  26.191  1.00  0.00     0.119 C 
BRANCH  19  20
ATOM     20  O   UNL A   1      33.279  20.579  26.800  1.00  0.00    -0.393 OA
ATOM     21  H   UNL A   1      33.901  19.840  26.886  1.00  0.00     0.210 HD
ENDBRANCH  19  20
ENDBRANCH   6   8
ENDBRANCH   4   6
ENDBRANCH   3   4
ENDBRANCH   2   3
ENDBRANCH   1   2
BRANCH   1  22
ATOM     22  O   UNL A   1      32.973  30.184  25.762  1.00  0.00    -0.458 OA
BRANCH  22  23
ATOM     23  C   UNL A   1      33.141  30.998  26.829  1.00  0.00     0.338 C 
ATOM     24  O   UNL A   1      32.336  31.788  27.291  1.00  0.00    -0.246 OA
BRANCH  23  25
ATOM     25  C   UNL A   1      34.476  30.788  27.409  1.00  0.00     0.060 A 
ATOM     26  C   UNL A   1      34.847  29.507  27.803  1.00  0.00     0.016 A 
ATOM     27  C   UNL A   1      35.296  31.876  27.701  1.00  0.00     0.016 A 
ATOM     28  C   UNL A   1      35.975  29.319  28.596  1.00  0.00     0.010 A 
ATOM     29  C   UNL A   1      36.503  31.663  28.380  1.00  0.00     0.010 A 
ATOM     30  C   UNL A   1      36.845  30.385  28.861  1.00  0.00    -0.014 A 
BRANCH  30  31
ATOM     31  C   UNL A   1      38.114  30.161  29.615  1.00  0.00     0.031 A 
ATOM     32  C   UNL A   1      39.179  29.247  29.064  1.00  0.00     0.074 A 
ATOM     33  C   UNL A   1      38.302  30.757  30.812  1.00  0.00     0.049 A 
ATOM     34  N   UNL A   1      40.226  28.740  29.662  1.00  0.00    -0.248 NA
ATOM     35  C   UNL A   1      39.035  28.836  27.659  1.00  0.00     0.031 C 
ATOM     36  C   UNL A   1      37.379  31.703  31.444  1.00  0.00     0.029 A 
ATOM     37  N   UNL A   1      39.330  30.653  31.720  1.00  0.00    -0.354 N 
ATOM     38  C   UNL A   1      40.832  27.902  28.730  1.00  0.00     0.074 A 
ATOM     39  C   UNL A   1      40.033  27.973  27.525  1.00  0.00     0.031 C 
ATOM     40  C   UNL A   1      37.888  32.108  32.615  1.00  0.00     0.029 A 
ATOM     41  C   UNL A   1      39.113  31.365  32.878  1.00  0.00     0.049 A 
ATOM     42  H   UNL A   1      40.141  30.119  31.558  1.00  0.00     0.167 HD
ATOM     43  C   UNL A   1      41.944  27.139  28.877  1.00  0.00     0.034 A 
ATOM     44  C   UNL A   1      39.775  31.372  34.052  1.00  0.00     0.034 A 
ATOM     45  C   UNL A   1      42.755  27.124  30.073  1.00  0.00     0.049 A 
ATOM     46  C   UNL A   1      40.971  30.473  34.212  1.00  0.00     0.074 A 
ATOM     47  C   UNL A   1      43.932  26.434  30.307  1.00  0.00     0.029 A 
ATOM     48  N   UNL A   1      42.474  27.831  31.235  1.00  0.00    -0.354 N 
ATOM     49  N   UNL A   1      41.508  29.655  33.337  1.00  0.00    -0.248 NA
ATOM     50  C   UNL A   1      41.637  30.482  35.519  1.00  0.00     0.031 C 
ATOM     51  C   UNL A   1      44.323  26.667  31.630  1.00  0.00     0.029 A 
ATOM     52  C   UNL A   1      43.431  27.560  32.201  1.00  0.00     0.049 A 
ATOM     53  H   UNL A   1      41.706  28.435  31.356  1.00  0.00     0.167 HD
ATOM     54  C   UNL A   1      42.582  29.058  33.988  1.00  0.00     0.074 A 
ATOM     55  C   UNL A   1      42.630  29.628  35.320  1.00  0.00     0.031 C 
ATOM     56  C   UNL A   1      43.450  28.122  33.530  1.00  0.00     0.034 A 
BRANCH  43  57
ATOM     57  C   UNL A   1      42.315  26.205  27.750  1.00  0.00     0.023 A 
ATOM     58  C   UNL A   1      41.789  24.907  27.639  1.00  0.00     0.031 A 
ATOM     59  C   UNL A   1      43.221  26.635  26.762  1.00  0.00     0.131 A 
ATOM     60  C   UNL A   1      42.214  24.068  26.595  1.00  0.00     0.055 A 
ATOM     61  C   UNL A   1      43.586  25.821  25.688  1.00  0.00     0.041 A 
ATOM     62  F   UNL A   1      43.771  27.858  26.826  1.00  0.00    -0.206 F 
ATOM     63  C   UNL A   1      43.091  24.524  25.607  1.00  0.00     0.022 A 
BRANCH  60  64
ATOM     64  S   UNL A   1      41.697  22.329  26.611  1.00  0.00     0.124 S 
ATOM     65  O   UNL A   1      42.297  21.831  25.375  1.00  0.00    -0.237 OA
ATOM     66  O   UNL A   1      42.286  21.835  27.850  1.00  0.00    -0.237 OA
ATOM     67  O   UNL A   1      40.237  22.404  26.601  1.00  0.00    -0.744 OA
ENDBRANCH  60  64
ENDBRANCH  43  57
BRANCH  44  68
ATOM     68  C   UNL A   1      39.261  32.172  35.202  1.00  0.00     0.023 A 
ATOM     69  C   UNL A   1      38.644  31.556  36.300  1.00  0.00     0.031 A 
ATOM     70  C   UNL A   1      39.350  33.578  35.198  1.00  0.00     0.131 A 
ATOM     71  C   UNL A   1      38.110  32.344  37.333  1.00  0.00     0.055 A 
ATOM     72  C   UNL A   1      38.872  34.352  36.256  1.00  0.00     0.041 A 
ATOM     73  F   UNL A   1      39.924  34.221  34.169  1.00  0.00    -0.206 F 
ATOM     74  C   UNL A   1      38.236  33.736  37.327  1.00  0.00     0.022 A 
BRANCH  71  75
ATOM     75  S   UNL A   1      37.162  31.528  38.647  1.00  0.00     0.124 S 
ATOM     76  O   UNL A   1      35.944  32.329  38.676  1.00  0.00    -0.237 OA
ATOM     77  O   UNL A   1      37.027  30.173  38.125  1.00  0.00    -0.237 OA
ATOM     78  O   UNL A   1      38.023  31.660  39.820  1.00  0.00    -0.744 OA
ENDBRANCH  71  75
ENDBRANCH  44  68
BRANCH  56  79
ATOM     79  C   UNL A   1      44.540  27.687  34.476  1.00  0.00     0.023 A 
ATOM     80  C   UNL A   1      44.387  26.563  35.305  1.00  0.00     0.031 A 
ATOM     81  C   UNL A   1      45.739  28.415  34.556  1.00  0.00     0.131 A 
ATOM     82  C   UNL A   1      45.399  26.225  36.215  1.00  0.00     0.055 A 
ATOM     83  C   UNL A   1      46.765  28.043  35.425  1.00  0.00     0.041 A 
ATOM     84  F   UNL A   1      45.933  29.498  33.788  1.00  0.00    -0.206 F 
ATOM     85  C   UNL A   1      46.594  26.948  36.268  1.00  0.00     0.022 A 
BRANCH  82  86
ATOM     86  S   UNL A   1      45.109  24.864  37.379  1.00  0.00     0.124 S 
ATOM     87  O   UNL A   1      44.410  25.541  38.466  1.00  0.00    -0.237 OA
ATOM     88  O   UNL A   1      44.308  23.937  36.585  1.00  0.00    -0.237 OA
ATOM     89  O   UNL A   1      46.455  24.397  37.703  1.00  0.00    -0.744 OA
ENDBRANCH  82  86
ENDBRANCH  56  79
ENDBRANCH  30  31
ENDBRANCH  23  25
ENDBRANCH  22  23
ENDBRANCH   1  22
TORSDOF 16
ENDMDL
