MODEL 1
REMARK VINA RESULT:     -11.7      0.000      0.000
REMARK SMILES C[C@@H](Oc1ccccc1Cl)C(=O)N1CC[C@H](C(=O)OCCOC(=O)c2ccc(-c3c4nc(c(-c5cc(S(=O)(=O)[O-])ccc5F)c5ccc([nH]5)c(-c5cc(S(=O)(=O)[O-])ccc5F)c5nc(c(-c6cc(S(=O)(=O)[O-])ccc6F)c6ccc3[nH]6)C=C5)C=C4)cc2)[C@@H]1C
REMARK SMILES IDX 20 1 19 2 17 3 18 4 16 5 13 6 14 7 88 8 15 9 89 10 11 11
REMARK SMILES IDX 12 12 2 13 1 14 3 15 4 16 5 17 9 18 6 19 8 20 10 21 7 22
REMARK SMILES IDX 21 23 22 24 23 25 24 26 25 27 26 28 87 29 27 30 86 31 28 32
REMARK SMILES IDX 29 33 30 34 80 35 31 36 85 37 79 38 81 39 32 40 84 41 78 42
REMARK SMILES IDX 77 43 33 45 65 46 45 47 64 48 46 49 49 50 63 51 82 52 47 53
REMARK SMILES IDX 48 54 62 56 83 57 50 58 34 59 35 60 43 61 36 62 42 63 44 64
REMARK SMILES IDX 41 65 37 66 38 67 39 68 40 69 66 70 67 71 75 72 68 73 74 74
REMARK SMILES IDX 76 75 73 76 69 77 70 78 71 79 72 80 51 81 52 82 60 83 53 84
REMARK SMILES IDX 59 85 61 86 58 87 54 88 55 89 56 90 57 91
REMARK H PARENT 81 44 49 55
REMARK Flexibility Score: inf
ROOT
ATOM      1  C   UNL A   1      36.009  20.117  24.981  1.00  0.00     0.274 C 
ENDROOT
BRANCH   1   2
ATOM      2  O   UNL A   1      35.613  21.461  25.319  1.00  0.00    -0.462 OA
BRANCH   2   3
ATOM      3  C   UNL A   1      34.344  21.801  24.973  1.00  0.00     0.311 C 
ATOM      4  O   UNL A   1      33.378  21.644  25.712  1.00  0.00    -0.252 OA
BRANCH   3   5
ATOM      5  C   UNL A   1      34.234  22.463  23.608  1.00  0.00     0.123 C 
ATOM      6  N   UNL A   1      33.509  24.658  23.013  1.00  0.00    -0.336 N 
ATOM      7  C   UNL A   1      32.322  23.837  23.131  1.00  0.00     0.121 C 
ATOM      8  C   UNL A   1      34.666  23.956  23.583  1.00  0.00     0.096 C 
ATOM      9  C   UNL A   1      32.855  22.433  22.940  1.00  0.00     0.039 C 
ATOM     10  C   UNL A   1      35.012  24.541  24.957  1.00  0.00     0.032 C 
BRANCH   6  11
ATOM     11  C   UNL A   1      33.456  25.866  22.347  1.00  0.00     0.263 C 
ATOM     12  O   UNL A   1      33.371  25.890  21.111  1.00  0.00    -0.271 OA
BRANCH  11  13
ATOM     13  C   UNL A   1      33.541  27.209  23.110  1.00  0.00     0.259 C 
ATOM     14  C   UNL A   1      34.063  28.367  22.271  1.00  0.00     0.064 C 
BRANCH  13  15
ATOM     15  O   UNL A   1      32.277  27.528  23.710  1.00  0.00    -0.479 OA
BRANCH  15  16
ATOM     16  C   UNL A   1      32.427  28.226  24.884  1.00  0.00     0.139 A 
ATOM     17  C   UNL A   1      33.374  27.803  25.821  1.00  0.00     0.048 A 
ATOM     18  C   UNL A   1      31.607  29.325  25.165  1.00  0.00     0.083 A 
ATOM     19  C   UNL A   1      33.554  28.523  27.003  1.00  0.00     0.004 A 
ATOM     20  C   UNL A   1      31.796  30.047  26.345  1.00  0.00     0.024 A 
ATOM     21  Cl  UNL A   1      30.369  29.828  24.075  1.00  0.00    -0.080 Cl
ATOM     22  C   UNL A   1      32.776  29.653  27.258  1.00  0.00     0.002 A 
ENDBRANCH  15  16
ENDBRANCH  13  15
ENDBRANCH  11  13
ENDBRANCH   6  11
ENDBRANCH   3   5
ENDBRANCH   2   3
ENDBRANCH   1   2
BRANCH   1  23
ATOM     23  C   UNL A   1      37.534  19.940  24.943  1.00  0.00     0.275 C 
BRANCH  23  24
ATOM     24  O   UNL A   1      38.252  21.153  25.239  1.00  0.00    -0.458 OA
BRANCH  24  25
ATOM     25  C   UNL A   1      39.330  20.999  26.047  1.00  0.00     0.338 C 
ATOM     26  O   UNL A   1      39.938  19.961  26.255  1.00  0.00    -0.246 OA
BRANCH  25  27
ATOM     27  C   UNL A   1      39.788  22.307  26.552  1.00  0.00     0.060 A 
ATOM     28  C   UNL A   1      39.122  23.453  26.104  1.00  0.00     0.016 A 
ATOM     29  C   UNL A   1      40.902  22.423  27.381  1.00  0.00     0.016 A 
ATOM     30  C   UNL A   1      39.573  24.719  26.457  1.00  0.00     0.010 A 
ATOM     31  C   UNL A   1      41.359  23.697  27.737  1.00  0.00     0.010 A 
ATOM     32  C   UNL A   1      40.706  24.851  27.262  1.00  0.00    -0.014 A 
BRANCH  32  33
ATOM     33  C   UNL A   1      41.264  26.197  27.526  1.00  0.00     0.031 A 
ATOM     34  C   UNL A   1      42.631  26.535  27.008  1.00  0.00     0.074 A 
ATOM     35  C   UNL A   1      40.541  27.112  28.199  1.00  0.00     0.049 A 
ATOM     36  N   UNL A   1      43.375  27.583  27.246  1.00  0.00    -0.248 NA
ATOM     37  C   UNL A   1      43.243  25.553  26.099  1.00  0.00     0.031 C 
ATOM     38  C   UNL A   1      39.169  26.921  28.670  1.00  0.00     0.029 A 
ATOM     39  N   UNL A   1      40.866  28.379  28.612  1.00  0.00    -0.354 N 
ATOM     40  C   UNL A   1      44.556  27.376  26.542  1.00  0.00     0.074 A 
ATOM     41  C   UNL A   1      44.431  26.094  25.880  1.00  0.00     0.031 C 
ATOM     42  C   UNL A   1      38.774  28.028  29.321  1.00  0.00     0.029 A 
ATOM     43  C   UNL A   1      39.885  28.975  29.369  1.00  0.00     0.049 A 
ATOM     44  H   UNL A   1      41.718  28.818  28.389  1.00  0.00     0.167 HD
ATOM     45  C   UNL A   1      45.641  28.186  26.462  1.00  0.00     0.034 A 
ATOM     46  C   UNL A   1      39.902  30.131  30.063  1.00  0.00     0.034 A 
ATOM     47  C   UNL A   1      45.733  29.461  27.130  1.00  0.00     0.049 A 
ATOM     48  C   UNL A   1      41.154  30.971  30.040  1.00  0.00     0.074 A 
ATOM     49  C   UNL A   1      46.783  30.364  27.127  1.00  0.00     0.029 A 
ATOM     50  N   UNL A   1      44.737  30.016  27.924  1.00  0.00    -0.354 N 
ATOM     51  N   UNL A   1      42.288  30.747  29.414  1.00  0.00    -0.248 NA
ATOM     52  C   UNL A   1      41.135  32.215  30.821  1.00  0.00     0.031 C 
ATOM     53  C   UNL A   1      46.447  31.429  27.970  1.00  0.00     0.029 A 
ATOM     54  C   UNL A   1      45.158  31.230  28.440  1.00  0.00     0.049 A 
ATOM     55  H   UNL A   1      43.859  29.604  28.096  1.00  0.00     0.167 HD
ATOM     56  C   UNL A   1      43.104  31.838  29.700  1.00  0.00     0.074 A 
ATOM     57  C   UNL A   1      42.331  32.719  30.553  1.00  0.00     0.031 C 
ATOM     58  C   UNL A   1      44.372  32.093  29.291  1.00  0.00     0.034 A 
BRANCH  45  59
ATOM     59  C   UNL A   1      46.830  27.673  25.689  1.00  0.00     0.023 A 
ATOM     60  C   UNL A   1      47.073  28.050  24.356  1.00  0.00     0.031 A 
ATOM     61  C   UNL A   1      47.715  26.757  26.286  1.00  0.00     0.131 A 
ATOM     62  C   UNL A   1      48.131  27.460  23.645  1.00  0.00     0.055 A 
ATOM     63  C   UNL A   1      48.810  26.232  25.597  1.00  0.00     0.041 A 
ATOM     64  F   UNL A   1      47.519  26.341  27.547  1.00  0.00    -0.206 F 
ATOM     65  C   UNL A   1      49.014  26.572  24.262  1.00  0.00     0.022 A 
BRANCH  62  66
ATOM     66  S   UNL A   1      48.251  27.761  21.860  1.00  0.00     0.124 S 
ATOM     67  O   UNL A   1      46.944  28.347  21.570  1.00  0.00    -0.237 OA
ATOM     68  O   UNL A   1      49.392  28.664  21.767  1.00  0.00    -0.237 OA
ATOM     69  O   UNL A   1      48.464  26.427  21.301  1.00  0.00    -0.744 OA
ENDBRANCH  62  66
ENDBRANCH  45  59
BRANCH  46  70
ATOM     70  C   UNL A   1      38.730  30.527  30.894  1.00  0.00     0.023 A 
ATOM     71  C   UNL A   1      37.635  31.202  30.335  1.00  0.00     0.031 A 
ATOM     72  C   UNL A   1      38.710  30.269  32.278  1.00  0.00     0.131 A 
ATOM     73  C   UNL A   1      36.582  31.628  31.160  1.00  0.00     0.055 A 
ATOM     74  C   UNL A   1      37.637  30.647  33.085  1.00  0.00     0.041 A 
ATOM     75  F   UNL A   1      39.734  29.628  32.865  1.00  0.00    -0.206 F 
ATOM     76  C   UNL A   1      36.568  31.344  32.529  1.00  0.00     0.022 A 
BRANCH  73  77
ATOM     77  S   UNL A   1      35.260  32.635  30.433  1.00  0.00     0.124 S 
ATOM     78  O   UNL A   1      34.276  32.657  31.510  1.00  0.00    -0.237 OA
ATOM     79  O   UNL A   1      35.948  33.894  30.167  1.00  0.00    -0.237 OA
ATOM     80  O   UNL A   1      34.868  31.878  29.246  1.00  0.00    -0.744 OA
ENDBRANCH  73  77
ENDBRANCH  46  70
BRANCH  58  81
ATOM     81  C   UNL A   1      44.976  33.407  29.713  1.00  0.00     0.023 A 
ATOM     82  C   UNL A   1      44.832  34.574  28.944  1.00  0.00     0.031 A 
ATOM     83  C   UNL A   1      45.701  33.489  30.916  1.00  0.00     0.131 A 
ATOM     84  C   UNL A   1      45.438  35.766  29.365  1.00  0.00     0.055 A 
ATOM     85  C   UNL A   1      46.259  34.689  31.356  1.00  0.00     0.041 A 
ATOM     86  F   UNL A   1      45.868  32.403  31.688  1.00  0.00    -0.206 F 
ATOM     87  C   UNL A   1      46.137  35.835  30.575  1.00  0.00     0.022 A 
BRANCH  84  88
ATOM     88  S   UNL A   1      45.356  37.220  28.285  1.00  0.00     0.124 S 
ATOM     89  O   UNL A   1      46.189  36.810  27.159  1.00  0.00    -0.237 OA
ATOM     90  O   UNL A   1      43.925  37.327  28.012  1.00  0.00    -0.237 OA
ATOM     91  O   UNL A   1      45.909  38.293  29.108  1.00  0.00    -0.744 OA
ENDBRANCH  84  88
ENDBRANCH  58  81
ENDBRANCH  32  33
ENDBRANCH  25  27
ENDBRANCH  24  25
ENDBRANCH  23  24
ENDBRANCH   1  23
TORSDOF 18
ENDMDL
MODEL 2
REMARK VINA RESULT:     -11.6      1.718      7.718
REMARK SMILES C[C@@H](Oc1ccccc1Cl)C(=O)N1CC[C@H](C(=O)OCCOC(=O)c2ccc(-c3c4nc(c(-c5cc(S(=O)(=O)[O-])ccc5F)c5ccc([nH]5)c(-c5cc(S(=O)(=O)[O-])ccc5F)c5nc(c(-c6cc(S(=O)(=O)[O-])ccc6F)c6ccc3[nH]6)C=C5)C=C4)cc2)[C@@H]1C
REMARK SMILES IDX 20 1 19 2 17 3 18 4 16 5 13 6 14 7 88 8 15 9 89 10 11 11
REMARK SMILES IDX 12 12 2 13 1 14 3 15 4 16 5 17 9 18 6 19 8 20 10 21 7 22
REMARK SMILES IDX 21 23 22 24 23 25 24 26 25 27 26 28 87 29 27 30 86 31 28 32
REMARK SMILES IDX 29 33 30 34 80 35 31 36 85 37 79 38 81 39 32 40 84 41 78 42
REMARK SMILES IDX 77 43 33 45 65 46 45 47 64 48 46 49 49 50 63 51 82 52 47 53
REMARK SMILES IDX 48 54 62 56 83 57 50 58 34 59 35 60 43 61 36 62 42 63 44 64
REMARK SMILES IDX 41 65 37 66 38 67 39 68 40 69 66 70 67 71 75 72 68 73 74 74
REMARK SMILES IDX 76 75 73 76 69 77 70 78 71 79 72 80 51 81 52 82 60 83 53 84
REMARK SMILES IDX 59 85 61 86 58 87 54 88 55 89 56 90 57 91
REMARK H PARENT 81 44 49 55
REMARK Flexibility Score: inf
ROOT
ATOM      1  C   UNL A   1      34.929  21.173  24.632  1.00  0.00     0.274 C 
ENDROOT
BRANCH   1   2
ATOM      2  O   UNL A   1      34.045  21.719  25.631  1.00  0.00    -0.462 OA
BRANCH   2   3
ATOM      3  C   UNL A   1      32.772  21.957  25.219  1.00  0.00     0.311 C 
ATOM      4  O   UNL A   1      31.932  21.074  25.078  1.00  0.00    -0.252 OA
BRANCH   3   5
ATOM      5  C   UNL A   1      32.457  23.430  25.013  1.00  0.00     0.123 C 
ATOM      6  N   UNL A   1      33.406  25.014  23.499  1.00  0.00    -0.336 N 
ATOM      7  C   UNL A   1      34.267  24.971  24.664  1.00  0.00     0.121 C 
ATOM      8  C   UNL A   1      32.467  23.885  23.526  1.00  0.00     0.096 C 
ATOM      9  C   UNL A   1      33.354  24.434  25.746  1.00  0.00     0.039 C 
ATOM     10  C   UNL A   1      32.911  22.806  22.533  1.00  0.00     0.032 C 
BRANCH   6  11
ATOM     11  C   UNL A   1      33.485  26.070  22.615  1.00  0.00     0.263 C 
ATOM     12  O   UNL A   1      33.474  25.859  21.394  1.00  0.00    -0.271 OA
BRANCH  11  13
ATOM     13  C   UNL A   1      33.633  27.527  23.113  1.00  0.00     0.259 C 
ATOM     14  C   UNL A   1      34.310  28.458  22.117  1.00  0.00     0.064 C 
BRANCH  13  15
ATOM     15  O   UNL A   1      32.361  28.047  23.531  1.00  0.00    -0.479 OA
BRANCH  15  16
ATOM     16  C   UNL A   1      32.230  28.047  24.898  1.00  0.00     0.139 A 
ATOM     17  C   UNL A   1      33.160  28.741  25.679  1.00  0.00     0.048 A 
ATOM     18  C   UNL A   1      31.203  27.323  25.513  1.00  0.00     0.083 A 
ATOM     19  C   UNL A   1      33.018  28.773  27.067  1.00  0.00     0.004 A 
ATOM     20  C   UNL A   1      31.060  27.364  26.901  1.00  0.00     0.024 A 
ATOM     21  Cl  UNL A   1      30.086  26.385  24.592  1.00  0.00    -0.080 Cl
ATOM     22  C   UNL A   1      31.960  28.097  27.676  1.00  0.00     0.002 A 
ENDBRANCH  15  16
ENDBRANCH  13  15
ENDBRANCH  11  13
ENDBRANCH   6  11
ENDBRANCH   3   5
ENDBRANCH   2   3
ENDBRANCH   1   2
BRANCH   1  23
ATOM     23  C   UNL A   1      36.257  20.679  25.221  1.00  0.00     0.275 C 
BRANCH  23  24
ATOM     24  O   UNL A   1      37.281  21.691  25.234  1.00  0.00    -0.458 OA
BRANCH  24  25
ATOM     25  C   UNL A   1      38.469  21.300  25.760  1.00  0.00     0.338 C 
ATOM     26  O   UNL A   1      38.985  20.199  25.646  1.00  0.00    -0.246 OA
BRANCH  25  27
ATOM     27  C   UNL A   1      39.157  22.444  26.388  1.00  0.00     0.060 A 
ATOM     28  C   UNL A   1      38.690  23.730  26.098  1.00  0.00     0.016 A 
ATOM     29  C   UNL A   1      40.293  22.271  27.177  1.00  0.00     0.016 A 
ATOM     30  C   UNL A   1      39.361  24.852  26.570  1.00  0.00     0.010 A 
ATOM     31  C   UNL A   1      40.972  23.400  27.653  1.00  0.00     0.010 A 
ATOM     32  C   UNL A   1      40.517  24.694  27.337  1.00  0.00    -0.014 A 
BRANCH  32  33
ATOM     33  C   UNL A   1      41.306  25.887  27.725  1.00  0.00     0.031 A 
ATOM     34  C   UNL A   1      40.633  26.987  28.493  1.00  0.00     0.074 A 
ATOM     35  C   UNL A   1      42.613  25.968  27.414  1.00  0.00     0.049 A 
ATOM     36  N   UNL A   1      41.078  28.177  28.802  1.00  0.00    -0.248 NA
ATOM     37  C   UNL A   1      39.272  26.706  28.975  1.00  0.00     0.031 C 
ATOM     38  C   UNL A   1      43.388  24.920  26.749  1.00  0.00     0.029 A 
ATOM     39  N   UNL A   1      43.515  26.983  27.607  1.00  0.00    -0.354 N 
ATOM     40  C   UNL A   1      40.042  28.800  29.490  1.00  0.00     0.074 A 
ATOM     41  C   UNL A   1      38.943  27.858  29.538  1.00  0.00     0.031 C 
ATOM     42  C   UNL A   1      44.647  25.353  26.576  1.00  0.00     0.029 A 
ATOM     43  C   UNL A   1      44.750  26.729  27.058  1.00  0.00     0.049 A 
ATOM     44  H   UNL A   1      43.300  27.812  28.092  1.00  0.00     0.167 HD
ATOM     45  C   UNL A   1      40.017  30.045  30.026  1.00  0.00     0.034 A 
ATOM     46  C   UNL A   1      45.822  27.533  26.916  1.00  0.00     0.034 A 
ATOM     47  C   UNL A   1      41.131  30.960  29.965  1.00  0.00     0.049 A 
ATOM     48  C   UNL A   1      45.741  28.947  27.434  1.00  0.00     0.074 A 
ATOM     49  C   UNL A   1      41.220  32.247  30.467  1.00  0.00     0.029 A 
ATOM     50  N   UNL A   1      42.353  30.685  29.363  1.00  0.00    -0.354 N 
ATOM     51  N   UNL A   1      44.741  29.549  28.038  1.00  0.00    -0.248 NA
ATOM     52  C   UNL A   1      46.927  29.793  27.246  1.00  0.00     0.031 C 
ATOM     53  C   UNL A   1      42.468  32.770  30.111  1.00  0.00     0.029 A 
ATOM     54  C   UNL A   1      43.189  31.785  29.454  1.00  0.00     0.049 A 
ATOM     55  H   UNL A   1      42.590  29.831  28.934  1.00  0.00     0.167 HD
ATOM     56  C   UNL A   1      45.191  30.834  28.329  1.00  0.00     0.074 A 
ATOM     57  C   UNL A   1      46.551  30.918  27.838  1.00  0.00     0.031 C 
ATOM     58  C   UNL A   1      44.542  31.849  28.954  1.00  0.00     0.034 A 
BRANCH  45  59
ATOM     59  C   UNL A   1      38.722  30.504  30.649  1.00  0.00     0.023 A 
ATOM     60  C   UNL A   1      37.766  31.240  29.928  1.00  0.00     0.031 A 
ATOM     61  C   UNL A   1      38.460  30.232  32.004  1.00  0.00     0.131 A 
ATOM     62  C   UNL A   1      36.628  31.739  30.583  1.00  0.00     0.055 A 
ATOM     63  C   UNL A   1      37.290  30.665  32.630  1.00  0.00     0.041 A 
ATOM     64  F   UNL A   1      39.348  29.555  32.749  1.00  0.00    -0.206 F 
ATOM     65  C   UNL A   1      36.372  31.436  31.922  1.00  0.00     0.022 A 
BRANCH  62  66
ATOM     66  S   UNL A   1      35.558  32.906  29.698  1.00  0.00     0.124 S 
ATOM     67  O   UNL A   1      36.467  33.426  28.679  1.00  0.00    -0.237 OA
ATOM     68  O   UNL A   1      34.482  32.047  29.218  1.00  0.00    -0.237 OA
ATOM     69  O   UNL A   1      35.175  33.868  30.729  1.00  0.00    -0.744 OA
ENDBRANCH  62  66
ENDBRANCH  45  59
BRANCH  46  70
ATOM     70  C   UNL A   1      47.034  27.050  26.194  1.00  0.00     0.023 A 
ATOM     71  C   UNL A   1      48.083  26.415  26.875  1.00  0.00     0.031 A 
ATOM     72  C   UNL A   1      47.176  27.258  24.809  1.00  0.00     0.131 A 
ATOM     73  C   UNL A   1      49.243  26.041  26.177  1.00  0.00     0.055 A 
ATOM     74  C   UNL A   1      48.308  26.838  24.110  1.00  0.00     0.041 A 
ATOM     75  F   UNL A   1      46.203  27.864  24.109  1.00  0.00    -0.206 F 
ATOM     76  C   UNL A   1      49.357  26.236  24.798  1.00  0.00     0.022 A 
BRANCH  73  77
ATOM     77  S   UNL A   1      50.642  25.367  27.114  1.00  0.00     0.124 S 
ATOM     78  O   UNL A   1      51.555  24.975  26.045  1.00  0.00    -0.237 OA
ATOM     79  O   UNL A   1      51.051  26.514  27.917  1.00  0.00    -0.237 OA
ATOM     80  O   UNL A   1      50.049  24.262  27.864  1.00  0.00    -0.744 OA
ENDBRANCH  73  77
ENDBRANCH  46  70
BRANCH  58  81
ATOM     81  C   UNL A   1      45.322  33.116  29.191  1.00  0.00     0.023 A 
ATOM     82  C   UNL A   1      45.310  34.180  28.273  1.00  0.00     0.031 A 
ATOM     83  C   UNL A   1      46.083  33.260  30.366  1.00  0.00     0.131 A 
ATOM     84  C   UNL A   1      46.076  35.327  28.526  1.00  0.00     0.055 A 
ATOM     85  C   UNL A   1      46.802  34.424  30.636  1.00  0.00     0.041 A 
ATOM     86  F   UNL A   1      46.128  32.273  31.275  1.00  0.00    -0.206 F 
ATOM     87  C   UNL A   1      46.809  35.463  29.710  1.00  0.00     0.022 A 
BRANCH  84  88
ATOM     88  S   UNL A   1      46.155  36.624  27.261  1.00  0.00     0.124 S 
ATOM     89  O   UNL A   1      46.879  37.683  27.956  1.00  0.00    -0.237 OA
ATOM     90  O   UNL A   1      46.877  35.963  26.178  1.00  0.00    -0.237 OA
ATOM     91  O   UNL A   1      44.751  36.916  26.979  1.00  0.00    -0.744 OA
ENDBRANCH  84  88
ENDBRANCH  58  81
ENDBRANCH  32  33
ENDBRANCH  25  27
ENDBRANCH  24  25
ENDBRANCH  23  24
ENDBRANCH   1  23
TORSDOF 18
ENDMDL
MODEL 3
REMARK VINA RESULT:     -11.4      1.268      1.945
REMARK SMILES C[C@@H](Oc1ccccc1Cl)C(=O)N1CC[C@H](C(=O)OCCOC(=O)c2ccc(-c3c4nc(c(-c5cc(S(=O)(=O)[O-])ccc5F)c5ccc([nH]5)c(-c5cc(S(=O)(=O)[O-])ccc5F)c5nc(c(-c6cc(S(=O)(=O)[O-])ccc6F)c6ccc3[nH]6)C=C5)C=C4)cc2)[C@@H]1C
REMARK SMILES IDX 20 1 19 2 17 3 18 4 16 5 13 6 14 7 88 8 15 9 89 10 11 11
REMARK SMILES IDX 12 12 2 13 1 14 3 15 4 16 5 17 9 18 6 19 8 20 10 21 7 22
REMARK SMILES IDX 21 23 22 24 23 25 24 26 25 27 26 28 87 29 27 30 86 31 28 32
REMARK SMILES IDX 29 33 30 34 80 35 31 36 85 37 79 38 81 39 32 40 84 41 78 42
REMARK SMILES IDX 77 43 33 45 65 46 45 47 64 48 46 49 49 50 63 51 82 52 47 53
REMARK SMILES IDX 48 54 62 56 83 57 50 58 34 59 35 60 43 61 36 62 42 63 44 64
REMARK SMILES IDX 41 65 37 66 38 67 39 68 40 69 66 70 67 71 75 72 68 73 74 74
REMARK SMILES IDX 76 75 73 76 69 77 70 78 71 79 72 80 51 81 52 82 60 83 53 84
REMARK SMILES IDX 59 85 61 86 58 87 54 88 55 89 56 90 57 91
REMARK H PARENT 81 44 49 55
REMARK Flexibility Score: inf
ROOT
ATOM      1  C   UNL A   1      37.719  21.009  24.982  1.00  0.00     0.274 C 
ENDROOT
BRANCH   1   2
ATOM      2  O   UNL A   1      36.548  21.271  25.782  1.00  0.00    -0.462 OA
BRANCH   2   3
ATOM      3  C   UNL A   1      35.360  20.973  25.194  1.00  0.00     0.311 C 
ATOM      4  O   UNL A   1      34.980  19.826  24.984  1.00  0.00    -0.252 OA
BRANCH   3   5
ATOM      5  C   UNL A   1      34.505  22.191  24.880  1.00  0.00     0.123 C 
ATOM      6  N   UNL A   1      32.416  22.888  25.801  1.00  0.00    -0.336 N 
ATOM      7  C   UNL A   1      32.120  21.937  24.748  1.00  0.00     0.121 C 
ATOM      8  C   UNL A   1      33.848  22.850  26.125  1.00  0.00     0.096 C 
ATOM      9  C   UNL A   1      33.360  21.988  23.881  1.00  0.00     0.039 C 
ATOM     10  C   UNL A   1      34.071  22.093  27.438  1.00  0.00     0.032 C 
BRANCH   6  11
ATOM     11  C   UNL A   1      31.428  23.725  26.279  1.00  0.00     0.263 C 
ATOM     12  O   UNL A   1      30.738  23.380  27.248  1.00  0.00    -0.271 OA
BRANCH  11  13
ATOM     13  C   UNL A   1      31.128  25.083  25.602  1.00  0.00     0.259 C 
ATOM     14  C   UNL A   1      29.779  25.679  25.980  1.00  0.00     0.064 C 
BRANCH  13  15
ATOM     15  O   UNL A   1      32.195  26.012  25.842  1.00  0.00    -0.479 OA
BRANCH  15  16
ATOM     16  C   UNL A   1      32.627  26.610  24.684  1.00  0.00     0.139 A 
ATOM     17  C   UNL A   1      33.236  25.833  23.694  1.00  0.00     0.048 A 
ATOM     18  C   UNL A   1      32.505  27.993  24.511  1.00  0.00     0.083 A 
ATOM     19  C   UNL A   1      33.652  26.426  22.500  1.00  0.00     0.004 A 
ATOM     20  C   UNL A   1      32.915  28.582  23.313  1.00  0.00     0.024 A 
ATOM     21  Cl  UNL A   1      31.838  29.000  25.742  1.00  0.00    -0.080 Cl
ATOM     22  C   UNL A   1      33.478  27.797  22.304  1.00  0.00     0.002 A 
ENDBRANCH  15  16
ENDBRANCH  13  15
ENDBRANCH  11  13
ENDBRANCH   6  11
ENDBRANCH   3   5
ENDBRANCH   2   3
ENDBRANCH   1   2
BRANCH   1  23
ATOM     23  C   UNL A   1      38.660  19.982  25.628  1.00  0.00     0.275 C 
BRANCH  23  24
ATOM     24  O   UNL A   1      40.022  20.442  25.719  1.00  0.00    -0.458 OA
BRANCH  24  25
ATOM     25  C   UNL A   1      40.506  20.555  26.981  1.00  0.00     0.338 C 
ATOM     26  O   UNL A   1      40.823  19.638  27.721  1.00  0.00    -0.246 OA
BRANCH  25  27
ATOM     27  C   UNL A   1      40.748  21.972  27.315  1.00  0.00     0.060 A 
ATOM     28  C   UNL A   1      40.140  22.947  26.518  1.00  0.00     0.016 A 
ATOM     29  C   UNL A   1      41.623  22.344  28.335  1.00  0.00     0.016 A 
ATOM     30  C   UNL A   1      40.416  24.296  26.713  1.00  0.00     0.010 A 
ATOM     31  C   UNL A   1      41.903  23.701  28.532  1.00  0.00     0.010 A 
ATOM     32  C   UNL A   1      41.313  24.681  27.711  1.00  0.00    -0.014 A 
BRANCH  32  33
ATOM     33  C   UNL A   1      41.708  26.104  27.829  1.00  0.00     0.031 A 
ATOM     34  C   UNL A   1      43.033  26.541  27.277  1.00  0.00     0.074 A 
ATOM     35  C   UNL A   1      40.877  26.994  28.401  1.00  0.00     0.049 A 
ATOM     36  N   UNL A   1      43.648  27.688  27.402  1.00  0.00    -0.248 NA
ATOM     37  C   UNL A   1      43.766  25.546  26.479  1.00  0.00     0.031 C 
ATOM     38  C   UNL A   1      39.530  26.696  28.890  1.00  0.00     0.029 A 
ATOM     39  N   UNL A   1      41.048  28.327  28.677  1.00  0.00    -0.354 N 
ATOM     40  C   UNL A   1      44.853  27.546  26.723  1.00  0.00     0.074 A 
ATOM     41  C   UNL A   1      44.885  26.196  26.202  1.00  0.00     0.031 C 
ATOM     42  C   UNL A   1      39.002  27.812  29.421  1.00  0.00     0.029 A 
ATOM     43  C   UNL A   1      39.996  28.882  29.367  1.00  0.00     0.049 A 
ATOM     44  H   UNL A   1      41.846  28.836  28.408  1.00  0.00     0.167 HD
ATOM     45  C   UNL A   1      45.838  28.463  26.558  1.00  0.00     0.034 A 
ATOM     46  C   UNL A   1      39.871  30.099  29.933  1.00  0.00     0.034 A 
ATOM     47  C   UNL A   1      45.775  29.804  27.086  1.00  0.00     0.049 A 
ATOM     48  C   UNL A   1      41.018  31.072  29.820  1.00  0.00     0.074 A 
ATOM     49  C   UNL A   1      46.713  30.817  26.986  1.00  0.00     0.029 A 
ATOM     50  N   UNL A   1      44.712  30.320  27.817  1.00  0.00    -0.354 N 
ATOM     51  N   UNL A   1      42.177  30.915  29.221  1.00  0.00    -0.248 NA
ATOM     52  C   UNL A   1      40.845  32.380  30.464  1.00  0.00     0.031 C 
ATOM     53  C   UNL A   1      46.246  31.920  27.711  1.00  0.00     0.029 A 
ATOM     54  C   UNL A   1      44.983  31.623  28.200  1.00  0.00     0.049 A 
ATOM     55  H   UNL A   1      43.885  29.830  28.032  1.00  0.00     0.167 HD
ATOM     56  C   UNL A   1      42.857  32.118  29.390  1.00  0.00     0.074 A 
ATOM     57  C   UNL A   1      41.978  32.989  30.143  1.00  0.00     0.031 C 
ATOM     58  C   UNL A   1      44.093  32.474  28.955  1.00  0.00     0.034 A 
BRANCH  45  59
ATOM     59  C   UNL A   1      47.088  28.013  25.843  1.00  0.00     0.023 A 
ATOM     60  C   UNL A   1      47.267  28.203  24.461  1.00  0.00     0.031 A 
ATOM     61  C   UNL A   1      48.102  27.346  26.553  1.00  0.00     0.131 A 
ATOM     62  C   UNL A   1      48.398  27.668  23.823  1.00  0.00     0.055 A 
ATOM     63  C   UNL A   1      49.260  26.883  25.926  1.00  0.00     0.041 A 
ATOM     64  F   UNL A   1      47.975  27.113  27.869  1.00  0.00    -0.206 F 
ATOM     65  C   UNL A   1      49.407  27.031  24.549  1.00  0.00     0.022 A 
BRANCH  62  66
ATOM     66  S   UNL A   1      48.466  27.692  22.011  1.00  0.00     0.124 S 
ATOM     67  O   UNL A   1      47.151  28.232  21.673  1.00  0.00    -0.237 OA
ATOM     68  O   UNL A   1      49.603  28.567  21.748  1.00  0.00    -0.237 OA
ATOM     69  O   UNL A   1      48.664  26.288  21.656  1.00  0.00    -0.744 OA
ENDBRANCH  62  66
ENDBRANCH  45  59
BRANCH  46  70
ATOM     70  C   UNL A   1      38.651  30.442  30.718  1.00  0.00     0.023 A 
ATOM     71  C   UNL A   1      37.590  31.156  30.142  1.00  0.00     0.031 A 
ATOM     72  C   UNL A   1      38.548  30.091  32.078  1.00  0.00     0.131 A 
ATOM     73  C   UNL A   1      36.490  31.530  30.930  1.00  0.00     0.055 A 
ATOM     74  C   UNL A   1      37.429  30.418  32.843  1.00  0.00     0.041 A 
ATOM     75  F   UNL A   1      39.536  29.409  32.680  1.00  0.00    -0.206 F 
ATOM     76  C   UNL A   1      36.395  31.154  32.273  1.00  0.00     0.022 A 
BRANCH  73  77
ATOM     77  S   UNL A   1      35.213  32.587  30.195  1.00  0.00     0.124 S 
ATOM     78  O   UNL A   1      34.583  31.677  29.245  1.00  0.00    -0.237 OA
ATOM     79  O   UNL A   1      34.413  32.952  31.360  1.00  0.00    -0.237 OA
ATOM     80  O   UNL A   1      35.978  33.681  29.599  1.00  0.00    -0.744 OA
ENDBRANCH  73  77
ENDBRANCH  46  70
BRANCH  58  81
ATOM     81  C   UNL A   1      44.536  33.886  29.234  1.00  0.00     0.023 A 
ATOM     82  C   UNL A   1      44.221  34.950  28.371  1.00  0.00     0.031 A 
ATOM     83  C   UNL A   1      45.279  34.170  30.395  1.00  0.00     0.131 A 
ATOM     84  C   UNL A   1      44.683  36.242  28.660  1.00  0.00     0.055 A 
ATOM     85  C   UNL A   1      45.691  35.466  30.704  1.00  0.00     0.041 A 
ATOM     86  F   UNL A   1      45.605  33.190  31.253  1.00  0.00    -0.206 F 
ATOM     87  C   UNL A   1      45.401  36.510  29.830  1.00  0.00     0.022 A 
BRANCH  84  88
ATOM     88  S   UNL A   1      44.384  37.568  27.460  1.00  0.00     0.124 S 
ATOM     89  O   UNL A   1      45.463  37.358  26.500  1.00  0.00    -0.237 OA
ATOM     90  O   UNL A   1      43.039  37.261  26.982  1.00  0.00    -0.237 OA
ATOM     91  O   UNL A   1      44.492  38.787  28.258  1.00  0.00    -0.744 OA
ENDBRANCH  84  88
ENDBRANCH  58  81
ENDBRANCH  32  33
ENDBRANCH  25  27
ENDBRANCH  24  25
ENDBRANCH  23  24
ENDBRANCH   1  23
TORSDOF 18
ENDMDL
