MODEL 1
REMARK VINA RESULT:     -12.0      0.000      0.000
REMARK SMILES C/C=C(\C)[C@@H]1C(C)=C[C@@H]2[C@H]([C@@H]1/C=C/C=C/C(=O)OCCOC(=O)c1ccc(-c3c4nc(c(-c5cc(S(=O)(=O)[O-])ccc5F)c5ccc([nH]5)c(-c5cc(S(=O)(=O)[O-])ccc5F)c5nc(c(-c6cc(S(=O)(=O)[O-])ccc6F)c6ccc3[nH]6)C=C5)C=C4)cc1)[C@@H](C)CC[C@@H]2O
REMARK SMILES IDX 19 1 18 2 16 3 17 4 15 5 14 6 13 7 12 8 11 9 5 10 6 11 7 12
REMARK SMILES IDX 8 13 10 14 9 15 87 16 91 17 88 18 89 19 90 20 3 21 1 22 2 23
REMARK SMILES IDX 4 24 92 25 20 27 21 28 22 29 23 30 24 31 25 32 86 33 26 34
REMARK SMILES IDX 85 35 27 36 28 37 29 38 79 39 30 40 84 41 78 42 80 43 31 44
REMARK SMILES IDX 83 45 77 46 76 47 32 49 64 50 44 51 63 52 45 53 48 54 62 55
REMARK SMILES IDX 81 56 46 57 47 58 61 60 82 61 49 62 33 63 34 64 42 65 35 66
REMARK SMILES IDX 41 67 43 68 40 69 36 70 37 71 38 72 39 73 65 74 66 75 74 76
REMARK SMILES IDX 67 77 73 78 75 79 72 80 68 81 69 82 70 83 71 84 50 85 51 86
REMARK SMILES IDX 59 87 52 88 58 89 60 90 57 91 53 92 54 93 55 94 56 95
REMARK H PARENT 92 26 80 48 48 59
REMARK Flexibility Score: inf
ROOT
ATOM      1  C   UNL A   1      37.228  20.522  24.781  1.00  0.00     0.275 C 
ENDROOT
BRANCH   1   2
ATOM      2  O   UNL A   1      37.447  21.940  24.689  1.00  0.00    -0.459 OA
BRANCH   2   3
ATOM      3  C   UNL A   1      36.654  22.602  23.814  1.00  0.00     0.330 C 
ATOM      4  O   UNL A   1      36.711  22.533  22.595  1.00  0.00    -0.247 OA
BRANCH   3   5
ATOM      5  C   UNL A   1      35.645  23.442  24.487  1.00  0.00     0.093 C 
ATOM      6  C   UNL A   1      35.892  24.272  25.512  1.00  0.00     0.007 C 
BRANCH   6   7
ATOM      7  C   UNL A   1      34.853  25.096  26.084  1.00  0.00    -0.004 C 
ATOM      8  C   UNL A   1      33.937  25.726  25.331  1.00  0.00    -0.022 C 
BRANCH   8   9
ATOM      9  C   UNL A   1      32.687  26.367  25.921  1.00  0.00     0.027 C 
ATOM     10  C   UNL A   1      31.485  25.339  26.109  1.00  0.00     0.047 C 
ATOM     11  C   UNL A   1      30.154  25.797  25.534  1.00  0.00    -0.069 C 
ATOM     12  C   UNL A   1      28.910  25.198  26.129  1.00  0.00     0.040 C 
ATOM     13  C   UNL A   1      30.093  26.696  24.537  1.00  0.00    -0.021 C 
ATOM     14  C   UNL A   1      32.325  27.664  25.121  1.00  0.00     0.009 C 
ATOM     15  C   UNL A   1      31.344  27.329  23.965  1.00  0.00     0.044 C 
ATOM     16  C   UNL A   1      31.763  28.834  25.999  1.00  0.00    -0.010 C 
ATOM     17  C   UNL A   1      31.078  28.594  23.121  1.00  0.00     0.121 C 
ATOM     18  C   UNL A   1      32.748  29.296  27.080  1.00  0.00     0.008 C 
ATOM     19  C   UNL A   1      31.406  30.058  25.127  1.00  0.00     0.006 C 
ATOM     20  C   UNL A   1      30.492  29.726  23.954  1.00  0.00     0.033 C 
BRANCH  10  21
ATOM     21  C   UNL A   1      31.784  23.883  25.674  1.00  0.00    -0.070 C 
ATOM     22  C   UNL A   1      32.210  22.222  23.757  1.00  0.00     0.035 C 
ATOM     23  C   UNL A   1      31.809  23.525  24.371  1.00  0.00    -0.031 C 
ATOM     24  C   UNL A   1      32.106  22.951  26.813  1.00  0.00     0.040 C 
ENDBRANCH  10  21
BRANCH  17  25
ATOM     25  O   UNL A   1      30.239  28.314  22.000  1.00  0.00    -0.393 OA
ATOM     26  H   UNL A   1      30.208  27.357  21.849  1.00  0.00     0.210 HD
ENDBRANCH  17  25
ENDBRANCH   8   9
ENDBRANCH   6   7
ENDBRANCH   3   5
ENDBRANCH   2   3
ENDBRANCH   1   2
BRANCH   1  27
ATOM     27  C   UNL A   1      38.507  19.795  25.201  1.00  0.00     0.275 C 
BRANCH  27  28
ATOM     28  O   UNL A   1      38.999  20.261  26.472  1.00  0.00    -0.458 OA
BRANCH  28  29
ATOM     29  C   UNL A   1      40.347  20.391  26.555  1.00  0.00     0.338 C 
ATOM     30  O   UNL A   1      41.180  19.546  26.278  1.00  0.00    -0.246 OA
BRANCH  29  31
ATOM     31  C   UNL A   1      40.691  21.776  26.925  1.00  0.00     0.060 A 
ATOM     32  C   UNL A   1      39.916  22.815  26.400  1.00  0.00     0.016 A 
ATOM     33  C   UNL A   1      41.802  22.055  27.724  1.00  0.00     0.016 A 
ATOM     34  C   UNL A   1      40.251  24.141  26.671  1.00  0.00     0.010 A 
ATOM     35  C   UNL A   1      42.140  23.387  27.990  1.00  0.00     0.010 A 
ATOM     36  C   UNL A   1      41.373  24.438  27.456  1.00  0.00    -0.014 A 
BRANCH  36  37
ATOM     37  C   UNL A   1      41.788  25.849  27.659  1.00  0.00     0.031 A 
ATOM     38  C   UNL A   1      43.118  26.313  27.134  1.00  0.00     0.074 A 
ATOM     39  C   UNL A   1      40.976  26.707  28.302  1.00  0.00     0.049 A 
ATOM     40  N   UNL A   1      43.709  27.471  27.274  1.00  0.00    -0.248 NA
ATOM     41  C   UNL A   1      43.884  25.335  26.347  1.00  0.00     0.031 C 
ATOM     42  C   UNL A   1      39.645  26.382  28.815  1.00  0.00     0.029 A 
ATOM     43  N   UNL A   1      41.154  28.025  28.641  1.00  0.00    -0.354 N 
ATOM     44  C   UNL A   1      44.922  27.362  26.603  1.00  0.00     0.074 A 
ATOM     45  C   UNL A   1      44.993  26.012  26.084  1.00  0.00     0.031 C 
ATOM     46  C   UNL A   1      39.128  27.472  29.406  1.00  0.00     0.029 A 
ATOM     47  C   UNL A   1      40.108  28.554  29.361  1.00  0.00     0.049 A 
ATOM     48  H   UNL A   1      41.953  28.543  28.393  1.00  0.00     0.167 HD
ATOM     49  C   UNL A   1      45.883  28.305  26.434  1.00  0.00     0.034 A 
ATOM     50  C   UNL A   1      39.971  29.763  29.944  1.00  0.00     0.034 A 
ATOM     51  C   UNL A   1      45.798  29.644  26.968  1.00  0.00     0.049 A 
ATOM     52  C   UNL A   1      41.090  30.766  29.815  1.00  0.00     0.074 A 
ATOM     53  C   UNL A   1      46.711  30.679  26.854  1.00  0.00     0.029 A 
ATOM     54  N   UNL A   1      44.742  30.132  27.728  1.00  0.00    -0.354 N 
ATOM     55  N   UNL A   1      42.239  30.649  29.190  1.00  0.00    -0.248 NA
ATOM     56  C   UNL A   1      40.894  32.066  30.472  1.00  0.00     0.031 C 
ATOM     57  C   UNL A   1      46.239  31.766  27.597  1.00  0.00     0.029 A 
ATOM     58  C   UNL A   1      44.994  31.441  28.112  1.00  0.00     0.049 A 
ATOM     59  H   UNL A   1      43.932  29.624  27.958  1.00  0.00     0.167 HD
ATOM     60  C   UNL A   1      42.885  31.872  29.350  1.00  0.00     0.074 A 
ATOM     61  C   UNL A   1      41.997  32.713  30.124  1.00  0.00     0.031 C 
ATOM     62  C   UNL A   1      44.102  32.267  28.891  1.00  0.00     0.034 A 
BRANCH  49  63
ATOM     63  C   UNL A   1      47.130  27.894  25.689  1.00  0.00     0.023 A 
ATOM     64  C   UNL A   1      47.274  28.111  24.307  1.00  0.00     0.031 A 
ATOM     65  C   UNL A   1      48.179  27.245  26.366  1.00  0.00     0.131 A 
ATOM     66  C   UNL A   1      48.405  27.619  23.636  1.00  0.00     0.055 A 
ATOM     67  C   UNL A   1      49.336  26.828  25.705  1.00  0.00     0.041 A 
ATOM     68  F   UNL A   1      48.089  26.992  27.681  1.00  0.00    -0.206 F 
ATOM     69  C   UNL A   1      49.448  27.000  24.330  1.00  0.00     0.022 A 
BRANCH  66  70
ATOM     70  S   UNL A   1      48.428  27.671  21.822  1.00  0.00     0.124 S 
ATOM     71  O   UNL A   1      49.545  28.578  21.566  1.00  0.00    -0.237 OA
ATOM     72  O   UNL A   1      48.648  26.272  21.469  1.00  0.00    -0.237 OA
ATOM     73  O   UNL A   1      47.112  28.203  21.477  1.00  0.00    -0.744 OA
ENDBRANCH  66  70
ENDBRANCH  49  63
BRANCH  50  74
ATOM     74  C   UNL A   1      38.752  30.081  30.742  1.00  0.00     0.023 A 
ATOM     75  C   UNL A   1      37.719  30.871  30.210  1.00  0.00     0.031 A 
ATOM     76  C   UNL A   1      38.626  29.639  32.072  1.00  0.00     0.131 A 
ATOM     77  C   UNL A   1      36.628  31.228  31.017  1.00  0.00     0.055 A 
ATOM     78  C   UNL A   1      37.512  29.953  32.852  1.00  0.00     0.041 A 
ATOM     79  F   UNL A   1      39.586  28.884  32.629  1.00  0.00    -0.206 F 
ATOM     80  C   UNL A   1      36.511  30.764  32.328  1.00  0.00     0.022 A 
BRANCH  77  81
ATOM     81  S   UNL A   1      35.398  32.384  30.352  1.00  0.00     0.124 S 
ATOM     82  O   UNL A   1      36.195  33.591  30.164  1.00  0.00    -0.237 OA
ATOM     83  O   UNL A   1      34.967  31.702  29.136  1.00  0.00    -0.237 OA
ATOM     84  O   UNL A   1      34.394  32.459  31.411  1.00  0.00    -0.744 OA
ENDBRANCH  77  81
ENDBRANCH  50  74
BRANCH  62  85
ATOM     85  C   UNL A   1      44.511  33.691  29.172  1.00  0.00     0.023 A 
ATOM     86  C   UNL A   1      44.064  34.765  28.382  1.00  0.00     0.031 A 
ATOM     87  C   UNL A   1      45.369  33.976  30.250  1.00  0.00     0.131 A 
ATOM     88  C   UNL A   1      44.515  36.066  28.652  1.00  0.00     0.055 A 
ATOM     89  C   UNL A   1      45.771  35.278  30.547  1.00  0.00     0.041 A 
ATOM     90  F   UNL A   1      45.828  32.989  31.036  1.00  0.00    -0.206 F 
ATOM     91  C   UNL A   1      45.353  36.332  29.738  1.00  0.00     0.022 A 
BRANCH  88  92
ATOM     92  S   UNL A   1      44.058  37.403  27.514  1.00  0.00     0.124 S 
ATOM     93  O   UNL A   1      43.507  38.402  28.424  1.00  0.00    -0.237 OA
ATOM     94  O   UNL A   1      45.337  37.740  26.897  1.00  0.00    -0.237 OA
ATOM     95  O   UNL A   1      43.086  36.777  26.619  1.00  0.00    -0.744 OA
ENDBRANCH  88  92
ENDBRANCH  62  85
ENDBRANCH  36  37
ENDBRANCH  29  31
ENDBRANCH  28  29
ENDBRANCH  27  28
ENDBRANCH   1  27
TORSDOF 18
ENDMDL
MODEL 2
REMARK VINA RESULT:     -12.0      5.484      8.996
REMARK SMILES C/C=C(\C)[C@@H]1C(C)=C[C@@H]2[C@H]([C@@H]1/C=C/C=C/C(=O)OCCOC(=O)c1ccc(-c3c4nc(c(-c5cc(S(=O)(=O)[O-])ccc5F)c5ccc([nH]5)c(-c5cc(S(=O)(=O)[O-])ccc5F)c5nc(c(-c6cc(S(=O)(=O)[O-])ccc6F)c6ccc3[nH]6)C=C5)C=C4)cc1)[C@@H](C)CC[C@@H]2O
REMARK SMILES IDX 19 1 18 2 16 3 17 4 15 5 14 6 13 7 12 8 11 9 5 10 6 11 7 12
REMARK SMILES IDX 8 13 10 14 9 15 87 16 91 17 88 18 89 19 90 20 3 21 1 22 2 23
REMARK SMILES IDX 4 24 92 25 20 27 21 28 22 29 23 30 24 31 25 32 86 33 26 34
REMARK SMILES IDX 85 35 27 36 28 37 29 38 79 39 30 40 84 41 78 42 80 43 31 44
REMARK SMILES IDX 83 45 77 46 76 47 32 49 64 50 44 51 63 52 45 53 48 54 62 55
REMARK SMILES IDX 81 56 46 57 47 58 61 60 82 61 49 62 33 63 34 64 42 65 35 66
REMARK SMILES IDX 41 67 43 68 40 69 36 70 37 71 38 72 39 73 65 74 66 75 74 76
REMARK SMILES IDX 67 77 73 78 75 79 72 80 68 81 69 82 70 83 71 84 50 85 51 86
REMARK SMILES IDX 59 87 52 88 58 89 60 90 57 91 53 92 54 93 55 94 56 95
REMARK H PARENT 92 26 80 48 48 59
REMARK Flexibility Score: inf
ROOT
ATOM      1  C   UNL A   1      32.750  31.891  26.770  1.00  0.00     0.275 C 
ENDROOT
BRANCH   1   2
ATOM      2  O   UNL A   1      33.242  30.948  27.737  1.00  0.00    -0.459 OA
BRANCH   2   3
ATOM      3  C   UNL A   1      34.470  30.437  27.488  1.00  0.00     0.330 C 
ATOM      4  O   UNL A   1      35.529  31.045  27.542  1.00  0.00    -0.247 OA
BRANCH   3   5
ATOM      5  C   UNL A   1      34.427  29.002  27.148  1.00  0.00     0.093 C 
ATOM      6  C   UNL A   1      33.472  28.411  26.414  1.00  0.00     0.007 C 
BRANCH   6   7
ATOM      7  C   UNL A   1      33.531  27.005  26.087  1.00  0.00    -0.004 C 
ATOM      8  C   UNL A   1      33.890  26.563  24.871  1.00  0.00    -0.022 C 
BRANCH   8   9
ATOM      9  C   UNL A   1      34.219  25.101  24.591  1.00  0.00     0.027 C 
ATOM     10  C   UNL A   1      33.389  24.495  23.375  1.00  0.00     0.047 C 
ATOM     11  C   UNL A   1      32.694  23.175  23.668  1.00  0.00    -0.069 C 
ATOM     12  C   UNL A   1      32.385  22.288  22.494  1.00  0.00     0.040 C 
ATOM     13  C   UNL A   1      32.367  22.818  24.923  1.00  0.00    -0.021 C 
ATOM     14  C   UNL A   1      34.140  24.276  25.920  1.00  0.00     0.009 C 
ATOM     15  C   UNL A   1      32.714  23.693  26.110  1.00  0.00     0.044 C 
ATOM     16  C   UNL A   1      35.218  23.145  26.046  1.00  0.00    -0.010 C 
ATOM     17  C   UNL A   1      32.620  22.970  27.470  1.00  0.00     0.121 C 
ATOM     18  C   UNL A   1      36.654  23.681  25.995  1.00  0.00     0.008 C 
ATOM     19  C   UNL A   1      35.049  22.363  27.368  1.00  0.00     0.006 C 
ATOM     20  C   UNL A   1      33.635  21.841  27.591  1.00  0.00     0.033 C 
BRANCH  10  21
ATOM     21  C   UNL A   1      32.408  25.476  22.686  1.00  0.00    -0.070 C 
ATOM     22  C   UNL A   1      30.320  26.965  22.876  1.00  0.00     0.035 C 
ATOM     23  C   UNL A   1      31.298  25.923  23.314  1.00  0.00    -0.031 C 
ATOM     24  C   UNL A   1      32.841  25.923  21.315  1.00  0.00     0.040 C 
ENDBRANCH  10  21
BRANCH  17  25
ATOM     25  O   UNL A   1      31.301  22.483  27.720  1.00  0.00    -0.393 OA
ATOM     26  H   UNL A   1      30.653  23.077  27.311  1.00  0.00     0.210 HD
ENDBRANCH  17  25
ENDBRANCH   8   9
ENDBRANCH   6   7
ENDBRANCH   3   5
ENDBRANCH   2   3
ENDBRANCH   1   2
BRANCH   1  27
ATOM     27  C   UNL A   1      32.149  33.120  27.457  1.00  0.00     0.275 C 
BRANCH  27  28
ATOM     28  O   UNL A   1      33.141  34.131  27.715  1.00  0.00    -0.458 OA
BRANCH  28  29
ATOM     29  C   UNL A   1      33.312  34.448  29.023  1.00  0.00     0.338 C 
ATOM     30  O   UNL A   1      32.553  35.099  29.722  1.00  0.00    -0.246 OA
BRANCH  29  31
ATOM     31  C   UNL A   1      34.520  33.784  29.543  1.00  0.00     0.060 A 
ATOM     32  C   UNL A   1      34.365  32.790  30.515  1.00  0.00     0.016 A 
ATOM     33  C   UNL A   1      35.795  34.177  29.131  1.00  0.00     0.016 A 
ATOM     34  C   UNL A   1      35.486  32.186  31.082  1.00  0.00     0.010 A 
ATOM     35  C   UNL A   1      36.920  33.573  29.705  1.00  0.00     0.010 A 
ATOM     36  C   UNL A   1      36.772  32.582  30.691  1.00  0.00    -0.014 A 
BRANCH  36  37
ATOM     37  C   UNL A   1      37.965  32.012  31.367  1.00  0.00     0.031 A 
ATOM     38  C   UNL A   1      38.722  30.891  30.711  1.00  0.00     0.074 A 
ATOM     39  C   UNL A   1      38.369  32.500  32.554  1.00  0.00     0.049 A 
ATOM     40  N   UNL A   1      39.733  30.195  31.163  1.00  0.00    -0.248 NA
ATOM     41  C   UNL A   1      38.274  30.501  29.367  1.00  0.00     0.031 C 
ATOM     42  C   UNL A   1      37.741  33.616  33.262  1.00  0.00     0.029 A 
ATOM     43  N   UNL A   1      39.399  32.118  33.376  1.00  0.00    -0.354 N 
ATOM     44  C   UNL A   1      40.039  29.277  30.165  1.00  0.00     0.074 A 
ATOM     45  C   UNL A   1      39.082  29.487  29.097  1.00  0.00     0.031 C 
ATOM     46  C   UNL A   1      38.397  33.825  34.415  1.00  0.00     0.029 A 
ATOM     47  C   UNL A   1      39.457  32.829  34.552  1.00  0.00     0.049 A 
ATOM     48  H   UNL A   1      40.035  31.402  33.147  1.00  0.00     0.167 HD
ATOM     49  C   UNL A   1      41.029  28.350  30.142  1.00  0.00     0.034 A 
ATOM     50  C   UNL A   1      40.253  32.672  35.629  1.00  0.00     0.034 A 
ATOM     51  C   UNL A   1      41.967  28.150  31.221  1.00  0.00     0.049 A 
ATOM     52  C   UNL A   1      41.292  31.578  35.617  1.00  0.00     0.074 A 
ATOM     53  C   UNL A   1      43.010  27.242  31.301  1.00  0.00     0.029 A 
ATOM     54  N   UNL A   1      41.970  28.860  32.415  1.00  0.00    -0.354 N 
ATOM     55  N   UNL A   1      41.564  30.706  34.673  1.00  0.00    -0.248 NA
ATOM     56  C   UNL A   1      42.131  31.446  36.816  1.00  0.00     0.031 C 
ATOM     57  C   UNL A   1      43.600  27.359  32.565  1.00  0.00     0.029 A 
ATOM     58  C   UNL A   1      42.977  28.393  33.247  1.00  0.00     0.049 A 
ATOM     59  H   UNL A   1      41.350  29.591  32.637  1.00  0.00     0.167 HD
ATOM     60  C   UNL A   1      42.628  29.947  35.152  1.00  0.00     0.074 A 
ATOM     61  C   UNL A   1      42.951  30.466  36.465  1.00  0.00     0.031 C 
ATOM     62  C   UNL A   1      43.284  28.916  34.558  1.00  0.00     0.034 A 
BRANCH  49  63
ATOM     63  C   UNL A   1      41.103  27.448  28.933  1.00  0.00     0.023 A 
ATOM     64  C   UNL A   1      42.077  27.624  27.934  1.00  0.00     0.031 A 
ATOM     65  C   UNL A   1      40.163  26.415  28.761  1.00  0.00     0.131 A 
ATOM     66  C   UNL A   1      42.044  26.829  26.777  1.00  0.00     0.055 A 
ATOM     67  C   UNL A   1      40.185  25.578  27.645  1.00  0.00     0.041 A 
ATOM     68  F   UNL A   1      39.196  26.212  29.671  1.00  0.00    -0.206 F 
ATOM     69  C   UNL A   1      41.119  25.792  26.637  1.00  0.00     0.022 A 
BRANCH  66  70
ATOM     70  S   UNL A   1      43.136  27.264  25.395  1.00  0.00     0.124 S 
ATOM     71  O   UNL A   1      43.289  25.976  24.722  1.00  0.00    -0.237 OA
ATOM     72  O   UNL A   1      42.356  28.269  24.680  1.00  0.00    -0.237 OA
ATOM     73  O   UNL A   1      44.341  27.762  26.053  1.00  0.00    -0.744 OA
ENDBRANCH  66  70
ENDBRANCH  49  63
BRANCH  50  74
ATOM     74  C   UNL A   1      40.075  33.538  36.830  1.00  0.00     0.023 A 
ATOM     75  C   UNL A   1      40.910  34.643  37.062  1.00  0.00     0.031 A 
ATOM     76  C   UNL A   1      39.094  33.239  37.794  1.00  0.00     0.131 A 
ATOM     77  C   UNL A   1      40.776  35.384  38.246  1.00  0.00     0.055 A 
ATOM     78  C   UNL A   1      38.930  34.012  38.945  1.00  0.00     0.041 A 
ATOM     79  F   UNL A   1      38.272  32.192  37.623  1.00  0.00    -0.206 F 
ATOM     80  C   UNL A   1      39.784  35.084  39.182  1.00  0.00     0.022 A 
BRANCH  77  81
ATOM     81  S   UNL A   1      41.978  36.699  38.590  1.00  0.00     0.124 S 
ATOM     82  O   UNL A   1      42.873  36.043  39.536  1.00  0.00    -0.237 OA
ATOM     83  O   UNL A   1      42.527  36.961  37.263  1.00  0.00    -0.237 OA
ATOM     84  O   UNL A   1      41.158  37.772  39.147  1.00  0.00    -0.744 OA
ENDBRANCH  77  81
ENDBRANCH  50  74
BRANCH  62  85
ATOM     85  C   UNL A   1      44.453  28.325  35.306  1.00  0.00     0.023 A 
ATOM     86  C   UNL A   1      44.307  27.224  36.168  1.00  0.00     0.031 A 
ATOM     87  C   UNL A   1      45.737  28.879  35.153  1.00  0.00     0.131 A 
ATOM     88  C   UNL A   1      45.415  26.743  36.881  1.00  0.00     0.055 A 
ATOM     89  C   UNL A   1      46.846  28.362  35.822  1.00  0.00     0.041 A 
ATOM     90  F   UNL A   1      45.935  29.932  34.343  1.00  0.00    -0.206 F 
ATOM     91  C   UNL A   1      46.687  27.295  36.703  1.00  0.00     0.022 A 
BRANCH  88  92
ATOM     92  S   UNL A   1      45.163  25.435  38.112  1.00  0.00     0.124 S 
ATOM     93  O   UNL A   1      45.209  26.182  39.365  1.00  0.00    -0.237 OA
ATOM     94  O   UNL A   1      43.856  24.901  37.738  1.00  0.00    -0.237 OA
ATOM     95  O   UNL A   1      46.288  24.529  37.888  1.00  0.00    -0.744 OA
ENDBRANCH  88  92
ENDBRANCH  62  85
ENDBRANCH  36  37
ENDBRANCH  29  31
ENDBRANCH  28  29
ENDBRANCH  27  28
ENDBRANCH   1  27
TORSDOF 18
ENDMDL
MODEL 3
REMARK VINA RESULT:     -11.9      5.089     10.795
REMARK SMILES C/C=C(\C)[C@@H]1C(C)=C[C@@H]2[C@H]([C@@H]1/C=C/C=C/C(=O)OCCOC(=O)c1ccc(-c3c4nc(c(-c5cc(S(=O)(=O)[O-])ccc5F)c5ccc([nH]5)c(-c5cc(S(=O)(=O)[O-])ccc5F)c5nc(c(-c6cc(S(=O)(=O)[O-])ccc6F)c6ccc3[nH]6)C=C5)C=C4)cc1)[C@@H](C)CC[C@@H]2O
REMARK SMILES IDX 19 1 18 2 16 3 17 4 15 5 14 6 13 7 12 8 11 9 5 10 6 11 7 12
REMARK SMILES IDX 8 13 10 14 9 15 87 16 91 17 88 18 89 19 90 20 3 21 1 22 2 23
REMARK SMILES IDX 4 24 92 25 20 27 21 28 22 29 23 30 24 31 25 32 86 33 26 34
REMARK SMILES IDX 85 35 27 36 28 37 29 38 79 39 30 40 84 41 78 42 80 43 31 44
REMARK SMILES IDX 83 45 77 46 76 47 32 49 64 50 44 51 63 52 45 53 48 54 62 55
REMARK SMILES IDX 81 56 46 57 47 58 61 60 82 61 49 62 33 63 34 64 42 65 35 66
REMARK SMILES IDX 41 67 43 68 40 69 36 70 37 71 38 72 39 73 65 74 66 75 74 76
REMARK SMILES IDX 67 77 73 78 75 79 72 80 68 81 69 82 70 83 71 84 50 85 51 86
REMARK SMILES IDX 59 87 52 88 58 89 60 90 57 91 53 92 54 93 55 94 56 95
REMARK H PARENT 92 26 80 48 48 59
REMARK Flexibility Score: inf
ROOT
ATOM      1  C   UNL A   1      32.408  31.553  26.622  1.00  0.00     0.275 C 
ENDROOT
BRANCH   1   2
ATOM      2  O   UNL A   1      32.826  30.626  27.638  1.00  0.00    -0.459 OA
BRANCH   2   3
ATOM      3  C   UNL A   1      34.044  30.063  27.454  1.00  0.00     0.330 C 
ATOM      4  O   UNL A   1      35.123  30.620  27.589  1.00  0.00    -0.247 OA
BRANCH   3   5
ATOM      5  C   UNL A   1      33.958  28.638  27.081  1.00  0.00     0.093 C 
ATOM      6  C   UNL A   1      34.015  28.164  25.827  1.00  0.00     0.007 C 
BRANCH   6   7
ATOM      7  C   UNL A   1      33.970  26.747  25.552  1.00  0.00    -0.004 C 
ATOM      8  C   UNL A   1      33.825  26.260  24.309  1.00  0.00    -0.022 C 
BRANCH   8   9
ATOM      9  C   UNL A   1      34.048  24.790  23.971  1.00  0.00     0.027 C 
ATOM     10  C   UNL A   1      32.853  24.152  23.133  1.00  0.00     0.047 C 
ATOM     11  C   UNL A   1      32.312  22.843  23.684  1.00  0.00    -0.069 C 
ATOM     12  C   UNL A   1      31.624  21.925  22.712  1.00  0.00     0.040 C 
ATOM     13  C   UNL A   1      32.442  22.520  24.982  1.00  0.00    -0.021 C 
ATOM     14  C   UNL A   1      34.440  24.001  25.266  1.00  0.00     0.009 C 
ATOM     15  C   UNL A   1      33.171  23.426  25.953  1.00  0.00     0.044 C 
ATOM     16  C   UNL A   1      35.503  22.871  25.041  1.00  0.00    -0.010 C 
ATOM     17  C   UNL A   1      33.559  22.740  27.280  1.00  0.00     0.121 C 
ATOM     18  C   UNL A   1      36.829  23.403  24.483  1.00  0.00     0.008 C 
ATOM     19  C   UNL A   1      35.808  22.127  26.360  1.00  0.00     0.006 C 
ATOM     20  C   UNL A   1      34.562  21.614  27.072  1.00  0.00     0.033 C 
BRANCH  10  21
ATOM     21  C   UNL A   1      31.687  25.116  22.801  1.00  0.00    -0.070 C 
ATOM     22  C   UNL A   1      29.542  26.297  23.586  1.00  0.00     0.035 C 
ATOM     23  C   UNL A   1      30.667  25.316  23.665  1.00  0.00    -0.031 C 
ATOM     24  C   UNL A   1      31.839  25.841  21.489  1.00  0.00     0.040 C 
ENDBRANCH  10  21
BRANCH  17  25
ATOM     25  O   UNL A   1      32.412  22.264  27.983  1.00  0.00    -0.393 OA
ATOM     26  H   UNL A   1      32.568  21.353  28.278  1.00  0.00     0.210 HD
ENDBRANCH  17  25
ENDBRANCH   8   9
ENDBRANCH   6   7
ENDBRANCH   3   5
ENDBRANCH   2   3
ENDBRANCH   1   2
BRANCH   1  27
ATOM     27  C   UNL A   1      32.075  32.919  27.228  1.00  0.00     0.275 C 
BRANCH  27  28
ATOM     28  O   UNL A   1      33.240  33.759  27.333  1.00  0.00    -0.458 OA
BRANCH  28  29
ATOM     29  C   UNL A   1      33.421  34.344  28.543  1.00  0.00     0.338 C 
ATOM     30  O   UNL A   1      32.733  35.219  29.041  1.00  0.00    -0.246 OA
BRANCH  29  31
ATOM     31  C   UNL A   1      34.527  33.682  29.257  1.00  0.00     0.060 A 
ATOM     32  C   UNL A   1      35.836  33.938  28.835  1.00  0.00     0.016 A 
ATOM     33  C   UNL A   1      34.281  32.768  30.284  1.00  0.00     0.016 A 
ATOM     34  C   UNL A   1      36.906  33.278  29.439  1.00  0.00     0.010 A 
ATOM     35  C   UNL A   1      35.356  32.103  30.885  1.00  0.00     0.010 A 
ATOM     36  C   UNL A   1      36.674  32.346  30.458  1.00  0.00    -0.014 A 
BRANCH  36  37
ATOM     37  C   UNL A   1      37.803  31.570  31.030  1.00  0.00     0.031 A 
ATOM     38  C   UNL A   1      38.273  31.867  32.426  1.00  0.00     0.074 A 
ATOM     39  C   UNL A   1      38.396  30.604  30.305  1.00  0.00     0.049 A 
ATOM     40  N   UNL A   1      39.289  31.371  33.084  1.00  0.00    -0.248 NA
ATOM     41  C   UNL A   1      37.492  32.858  33.179  1.00  0.00     0.031 C 
ATOM     42  C   UNL A   1      37.996  30.197  28.958  1.00  0.00     0.029 A 
ATOM     43  N   UNL A   1      39.464  29.793  30.597  1.00  0.00    -0.354 N 
ATOM     44  C   UNL A   1      39.280  31.996  34.326  1.00  0.00     0.074 A 
ATOM     45  C   UNL A   1      38.173  32.931  34.314  1.00  0.00     0.031 C 
ATOM     46  C   UNL A   1      38.811  29.216  28.538  1.00  0.00     0.029 A 
ATOM     47  C   UNL A   1      39.821  28.960  29.563  1.00  0.00     0.049 A 
ATOM     48  H   UNL A   1      39.931  29.808  31.463  1.00  0.00     0.167 HD
ATOM     49  C   UNL A   1      40.115  31.803  35.377  1.00  0.00     0.034 A 
ATOM     50  C   UNL A   1      40.862  28.111  29.444  1.00  0.00     0.034 A 
ATOM     51  C   UNL A   1      41.219  30.873  35.366  1.00  0.00     0.049 A 
ATOM     52  C   UNL A   1      41.829  27.975  30.594  1.00  0.00     0.074 A 
ATOM     53  C   UNL A   1      42.125  30.595  36.375  1.00  0.00     0.029 A 
ATOM     54  N   UNL A   1      41.576  30.074  34.286  1.00  0.00    -0.354 N 
ATOM     55  N   UNL A   1      41.818  28.581  31.760  1.00  0.00    -0.248 NA
ATOM     56  C   UNL A   1      42.949  27.041  30.414  1.00  0.00     0.031 C 
ATOM     57  C   UNL A   1      43.065  29.682  35.886  1.00  0.00     0.029 A 
ATOM     58  C   UNL A   1      42.703  29.328  34.595  1.00  0.00     0.049 A 
ATOM     59  H   UNL A   1      41.097  30.042  33.427  1.00  0.00     0.167 HD
ATOM     60  C   UNL A   1      42.909  28.075  32.461  1.00  0.00     0.074 A 
ATOM     61  C   UNL A   1      43.551  27.110  31.593  1.00  0.00     0.031 C 
ATOM     62  C   UNL A   1      43.338  28.374  33.715  1.00  0.00     0.034 A 
BRANCH  49  63
ATOM     63  C   UNL A   1      39.894  32.659  36.601  1.00  0.00     0.023 A 
ATOM     64  C   UNL A   1      39.030  32.264  37.638  1.00  0.00     0.031 A 
ATOM     65  C   UNL A   1      40.534  33.907  36.718  1.00  0.00     0.131 A 
ATOM     66  C   UNL A   1      38.774  33.138  38.707  1.00  0.00     0.055 A 
ATOM     67  C   UNL A   1      40.335  34.737  37.822  1.00  0.00     0.041 A 
ATOM     68  F   UNL A   1      41.354  34.348  35.750  1.00  0.00    -0.206 F 
ATOM     69  C   UNL A   1      39.439  34.361  38.818  1.00  0.00     0.022 A 
BRANCH  66  70
ATOM     70  S   UNL A   1      37.452  32.715  39.875  1.00  0.00     0.124 S 
ATOM     71  O   UNL A   1      37.910  31.425  40.386  1.00  0.00    -0.237 OA
ATOM     72  O   UNL A   1      37.495  33.828  40.817  1.00  0.00    -0.237 OA
ATOM     73  O   UNL A   1      36.258  32.655  39.035  1.00  0.00    -0.744 OA
ENDBRANCH  66  70
ENDBRANCH  49  63
BRANCH  50  74
ATOM     74  C   UNL A   1      41.079  27.356  28.177  1.00  0.00     0.023 A 
ATOM     75  C   UNL A   1      40.839  25.974  28.102  1.00  0.00     0.031 A 
ATOM     76  C   UNL A   1      41.579  28.001  27.030  1.00  0.00     0.131 A 
ATOM     77  C   UNL A   1      41.138  25.276  26.922  1.00  0.00     0.055 A 
ATOM     78  C   UNL A   1      41.824  27.311  25.842  1.00  0.00     0.041 A 
ATOM     79  F   UNL A   1      41.828  29.320  27.048  1.00  0.00    -0.206 F 
ATOM     80  C   UNL A   1      41.616  25.936  25.788  1.00  0.00     0.022 A 
BRANCH  77  81
ATOM     81  S   UNL A   1      40.975  23.469  26.916  1.00  0.00     0.124 S 
ATOM     82  O   UNL A   1      41.379  23.129  28.276  1.00  0.00    -0.237 OA
ATOM     83  O   UNL A   1      39.560  23.294  26.604  1.00  0.00    -0.237 OA
ATOM     84  O   UNL A   1      41.899  23.047  25.866  1.00  0.00    -0.744 OA
ENDBRANCH  77  81
ENDBRANCH  50  74
BRANCH  62  85
ATOM     85  C   UNL A   1      44.526  27.605  34.236  1.00  0.00     0.023 A 
ATOM     86  C   UNL A   1      44.387  26.363  34.881  1.00  0.00     0.031 A 
ATOM     87  C   UNL A   1      45.823  28.130  34.085  1.00  0.00     0.131 A 
ATOM     88  C   UNL A   1      45.519  25.712  35.394  1.00  0.00     0.055 A 
ATOM     89  C   UNL A   1      46.950  27.451  34.548  1.00  0.00     0.041 A 
ATOM     90  F   UNL A   1      46.015  29.312  33.478  1.00  0.00    -0.206 F 
ATOM     91  C   UNL A   1      46.801  26.240  35.219  1.00  0.00     0.022 A 
BRANCH  88  92
ATOM     92  S   UNL A   1      45.289  24.199  36.369  1.00  0.00     0.124 S 
ATOM     93  O   UNL A   1      46.623  23.608  36.332  1.00  0.00    -0.237 OA
ATOM     94  O   UNL A   1      44.860  24.722  37.663  1.00  0.00    -0.237 OA
ATOM     95  O   UNL A   1      44.265  23.464  35.629  1.00  0.00    -0.744 OA
ENDBRANCH  88  92
ENDBRANCH  62  85
ENDBRANCH  36  37
ENDBRANCH  29  31
ENDBRANCH  28  29
ENDBRANCH  27  28
ENDBRANCH   1  27
TORSDOF 18
ENDMDL
