MODEL 1
REMARK VINA RESULT:     -12.4      0.000      0.000
REMARK SMILES CC(=O)[NH+]1CCC2(CC1)C[C@H](C(=O)OCCOC(=O)c1ccc(-c3c4nc(c(-c5cc(S(=O)(=O)[O-])ccc5F)c5ccc([nH]5)c(-c5cc(S(=O)(=O)[O-])ccc5F)c5nc(c(-c6cc(S(=O)(=O)[O-])ccc6F)c6ccc3[nH]6)C=C5)C=C4)cc1)[N@H+](Cc1ncc[nH]1)C2
REMARK SMILES IDX 16 1 15 2 14 3 12 4 13 5 11 6 4 7 5 8 9 9 6 11 8 12 7 13
REMARK SMILES IDX 10 14 90 15 83 16 2 18 1 19 3 20 84 21 85 22 86 23 89 24
REMARK SMILES IDX 87 25 88 26 17 28 18 29 19 30 20 31 21 32 82 33 22 34 81 35
REMARK SMILES IDX 23 36 24 37 25 38 75 39 26 40 80 41 74 42 76 43 27 44 79 45
REMARK SMILES IDX 73 46 72 47 28 49 60 50 40 51 59 52 41 53 44 54 58 55 77 56
REMARK SMILES IDX 42 57 43 58 57 60 78 61 45 62 29 63 30 64 38 65 31 66 37 67
REMARK SMILES IDX 39 68 36 69 32 70 33 71 34 72 35 73 61 74 62 75 70 76 63 77
REMARK SMILES IDX 69 78 71 79 68 80 64 81 65 82 66 83 67 84 46 85 47 86 55 87
REMARK SMILES IDX 48 88 54 89 56 90 53 91 49 92 50 93 51 94 52 95
REMARK H PARENT 4 10 83 17 89 27 76 48 44 59
REMARK Flexibility Score: inf
ROOT
ATOM      1  C   UNL A   1      38.621  19.563  25.120  1.00  0.00     0.275 C 
ENDROOT
BRANCH   1   2
ATOM      2  C   UNL A   1      37.158  19.891  24.781  1.00  0.00     0.274 C 
BRANCH   2   3
ATOM      3  O   UNL A   1      36.637  20.989  25.553  1.00  0.00    -0.458 OA
BRANCH   3   4
ATOM      4  C   UNL A   1      36.210  22.046  24.801  1.00  0.00     0.365 C 
ATOM      5  O   UNL A   1      36.702  22.335  23.712  1.00  0.00    -0.245 OA
BRANCH   4   6
ATOM      6  C   UNL A   1      34.925  22.675  25.366  1.00  0.00     0.296 C 
ATOM      7  N   UNL A   1      30.261  25.278  24.694  1.00  0.00    -0.272 N 
ATOM      8  C   UNL A   1      30.563  24.105  23.900  1.00  0.00     0.270 C 
ATOM      9  C   UNL A   1      30.864  25.276  26.028  1.00  0.00     0.270 C 
ATOM     10  H   UNL A   1      30.415  26.248  24.773  1.00  0.00     0.356 HD
ATOM     11  C   UNL A   1      32.075  24.060  23.699  1.00  0.00     0.075 C 
ATOM     12  C   UNL A   1      32.391  25.145  25.932  1.00  0.00     0.075 C 
ATOM     13  C   UNL A   1      32.848  23.957  25.037  1.00  0.00     0.036 C 
ATOM     14  C   UNL A   1      34.385  23.988  24.797  1.00  0.00     0.091 C 
ATOM     15  C   UNL A   1      32.614  22.600  25.733  1.00  0.00     0.270 C 
ATOM     16  N   UNL A   1      33.763  21.753  25.428  1.00  0.00    -0.316 N 
ATOM     17  H   UNL A   1      33.922  21.062  26.161  1.00  0.00     0.349 HD
BRANCH   7  18
ATOM     18  C   UNL A   1      29.621  26.336  24.070  1.00  0.00     0.308 C 
ATOM     19  C   UNL A   1      30.479  27.463  23.568  1.00  0.00     0.164 C 
ATOM     20  O   UNL A   1      28.406  26.355  23.862  1.00  0.00    -0.231 OA
ENDBRANCH   7  18
BRANCH  16  21
ATOM     21  C   UNL A   1      33.586  20.779  24.335  1.00  0.00     0.339 C 
BRANCH  21  22
ATOM     22  C   UNL A   1      33.374  19.332  24.689  1.00  0.00     0.161 A 
ATOM     23  N   UNL A   1      33.618  18.262  23.954  1.00  0.00    -0.236 NA
ATOM     24  N   UNL A   1      32.857  18.951  25.909  1.00  0.00    -0.344 N 
ATOM     25  C   UNL A   1      33.174  17.187  24.674  1.00  0.00     0.131 A 
ATOM     26  C   UNL A   1      32.679  17.593  25.888  1.00  0.00     0.104 A 
ATOM     27  H   UNL A   1      32.651  19.549  26.663  1.00  0.00     0.167 HD
ENDBRANCH  21  22
ENDBRANCH  16  21
ENDBRANCH   4   6
ENDBRANCH   3   4
ENDBRANCH   2   3
ENDBRANCH   1   2
BRANCH   1  28
ATOM     28  O   UNL A   1      39.418  20.723  25.436  1.00  0.00    -0.458 OA
BRANCH  28  29
ATOM     29  C   UNL A   1      40.116  20.630  26.597  1.00  0.00     0.338 C 
ATOM     30  O   UNL A   1      40.536  19.603  27.105  1.00  0.00    -0.246 OA
BRANCH  29  31
ATOM     31  C   UNL A   1      40.426  21.966  27.144  1.00  0.00     0.060 A 
ATOM     32  C   UNL A   1      39.773  23.065  26.577  1.00  0.00     0.016 A 
ATOM     33  C   UNL A   1      41.426  22.165  28.098  1.00  0.00     0.016 A 
ATOM     34  C   UNL A   1      40.132  24.361  26.925  1.00  0.00     0.010 A 
ATOM     35  C   UNL A   1      41.788  23.473  28.452  1.00  0.00     0.010 A 
ATOM     36  C   UNL A   1      41.160  24.578  27.845  1.00  0.00    -0.014 A 
BRANCH  36  37
ATOM     37  C   UNL A   1      41.632  25.966  28.068  1.00  0.00     0.031 A 
ATOM     38  C   UNL A   1      42.968  26.386  27.520  1.00  0.00     0.074 A 
ATOM     39  C   UNL A   1      40.834  26.863  28.676  1.00  0.00     0.049 A 
ATOM     40  N   UNL A   1      43.583  27.536  27.622  1.00  0.00    -0.248 NA
ATOM     41  C   UNL A   1      43.707  25.372  26.754  1.00  0.00     0.031 C 
ATOM     42  C   UNL A   1      39.487  26.587  29.178  1.00  0.00     0.029 A 
ATOM     43  N   UNL A   1      41.034  28.188  28.966  1.00  0.00    -0.354 N 
ATOM     44  C   UNL A   1      44.789  27.382  26.948  1.00  0.00     0.074 A 
ATOM     45  C   UNL A   1      44.827  26.017  26.463  1.00  0.00     0.031 C 
ATOM     46  C   UNL A   1      38.981  27.711  29.711  1.00  0.00     0.029 A 
ATOM     47  C   UNL A   1      39.983  28.771  29.633  1.00  0.00     0.049 A 
ATOM     48  H   UNL A   1      41.853  28.676  28.719  1.00  0.00     0.167 HD
ATOM     49  C   UNL A   1      45.773  28.296  26.750  1.00  0.00     0.034 A 
ATOM     50  C   UNL A   1      39.856  30.010  30.148  1.00  0.00     0.034 A 
ATOM     51  C   UNL A   1      45.715  29.653  27.239  1.00  0.00     0.049 A 
ATOM     52  C   UNL A   1      40.994  30.986  29.984  1.00  0.00     0.074 A 
ATOM     53  C   UNL A   1      46.656  30.659  27.107  1.00  0.00     0.029 A 
ATOM     54  N   UNL A   1      44.658  30.193  27.961  1.00  0.00    -0.354 N 
ATOM     55  N   UNL A   1      42.146  30.818  29.375  1.00  0.00    -0.248 NA
ATOM     56  C   UNL A   1      40.814  32.317  30.575  1.00  0.00     0.031 C 
ATOM     57  C   UNL A   1      46.196  31.786  27.799  1.00  0.00     0.029 A 
ATOM     58  C   UNL A   1      44.935  31.508  28.304  1.00  0.00     0.049 A 
ATOM     59  H   UNL A   1      43.832  29.712  28.197  1.00  0.00     0.167 HD
ATOM     60  C   UNL A   1      42.815  32.033  29.489  1.00  0.00     0.074 A 
ATOM     61  C   UNL A   1      41.932  32.927  30.210  1.00  0.00     0.031 C 
ATOM     62  C   UNL A   1      44.047  32.382  29.036  1.00  0.00     0.034 A 
BRANCH  49  63
ATOM     63  C   UNL A   1      47.015  27.827  26.032  1.00  0.00     0.023 A 
ATOM     64  C   UNL A   1      47.220  28.068  24.661  1.00  0.00     0.031 A 
ATOM     65  C   UNL A   1      47.990  27.086  26.723  1.00  0.00     0.131 A 
ATOM     66  C   UNL A   1      48.333  27.511  24.012  1.00  0.00     0.055 A 
ATOM     67  C   UNL A   1      49.134  26.600  26.089  1.00  0.00     0.041 A 
ATOM     68  F   UNL A   1      47.838  26.805  28.027  1.00  0.00    -0.206 F 
ATOM     69  C   UNL A   1      49.304  26.798  24.722  1.00  0.00     0.022 A 
BRANCH  66  70
ATOM     70  S   UNL A   1      48.426  27.611  22.203  1.00  0.00     0.124 S 
ATOM     71  O   UNL A   1      48.635  26.211  21.841  1.00  0.00    -0.237 OA
ATOM     72  O   UNL A   1      47.129  28.176  21.851  1.00  0.00    -0.237 OA
ATOM     73  O   UNL A   1      49.573  28.486  21.966  1.00  0.00    -0.744 OA
ENDBRANCH  66  70
ENDBRANCH  49  63
BRANCH  50  74
ATOM     74  C   UNL A   1      38.633  30.389  30.912  1.00  0.00     0.023 A 
ATOM     75  C   UNL A   1      37.582  31.094  30.306  1.00  0.00     0.031 A 
ATOM     76  C   UNL A   1      38.523  30.089  32.282  1.00  0.00     0.131 A 
ATOM     77  C   UNL A   1      36.485  31.513  31.077  1.00  0.00     0.055 A 
ATOM     78  C   UNL A   1      37.408  30.463  33.034  1.00  0.00     0.041 A 
ATOM     79  F   UNL A   1      39.500  29.416  32.911  1.00  0.00    -0.206 F 
ATOM     80  C   UNL A   1      36.386  31.191  32.433  1.00  0.00     0.022 A 
BRANCH  77  81
ATOM     81  S   UNL A   1      35.220  32.553  30.297  1.00  0.00     0.124 S 
ATOM     82  O   UNL A   1      34.274  32.742  31.391  1.00  0.00    -0.237 OA
ATOM     83  O   UNL A   1      35.993  33.728  29.907  1.00  0.00    -0.237 OA
ATOM     84  O   UNL A   1      34.738  31.731  29.189  1.00  0.00    -0.744 OA
ENDBRANCH  77  81
ENDBRANCH  50  74
BRANCH  62  85
ATOM     85  C   UNL A   1      44.481  33.807  29.273  1.00  0.00     0.023 A 
ATOM     86  C   UNL A   1      44.097  34.850  28.412  1.00  0.00     0.031 A 
ATOM     87  C   UNL A   1      45.309  34.120  30.365  1.00  0.00     0.131 A 
ATOM     88  C   UNL A   1      44.588  36.147  28.624  1.00  0.00     0.055 A 
ATOM     89  C   UNL A   1      45.750  35.423  30.604  1.00  0.00     0.041 A 
ATOM     90  F   UNL A   1      45.707  33.163  31.218  1.00  0.00    -0.206 F 
ATOM     91  C   UNL A   1      45.401  36.442  29.722  1.00  0.00     0.022 A 
BRANCH  88  92
ATOM     92  S   UNL A   1      44.232  37.428  27.389  1.00  0.00     0.124 S 
ATOM     93  O   UNL A   1      45.495  37.509  26.662  1.00  0.00    -0.237 OA
ATOM     94  O   UNL A   1      43.110  36.850  26.656  1.00  0.00    -0.237 OA
ATOM     95  O   UNL A   1      43.905  38.602  28.196  1.00  0.00    -0.744 OA
ENDBRANCH  88  92
ENDBRANCH  62  85
ENDBRANCH  36  37
ENDBRANCH  29  31
ENDBRANCH  28  29
ENDBRANCH   1  28
TORSDOF 17
ENDMDL
MODEL 2
REMARK VINA RESULT:     -12.3      4.869     10.696
REMARK SMILES CC(=O)[NH+]1CCC2(CC1)C[C@H](C(=O)OCCOC(=O)c1ccc(-c3c4nc(c(-c5cc(S(=O)(=O)[O-])ccc5F)c5ccc([nH]5)c(-c5cc(S(=O)(=O)[O-])ccc5F)c5nc(c(-c6cc(S(=O)(=O)[O-])ccc6F)c6ccc3[nH]6)C=C5)C=C4)cc1)[N@H+](Cc1ncc[nH]1)C2
REMARK SMILES IDX 16 1 15 2 14 3 12 4 13 5 11 6 4 7 5 8 9 9 6 11 8 12 7 13
REMARK SMILES IDX 10 14 90 15 83 16 2 18 1 19 3 20 84 21 85 22 86 23 89 24
REMARK SMILES IDX 87 25 88 26 17 28 18 29 19 30 20 31 21 32 82 33 22 34 81 35
REMARK SMILES IDX 23 36 24 37 25 38 75 39 26 40 80 41 74 42 76 43 27 44 79 45
REMARK SMILES IDX 73 46 72 47 28 49 60 50 40 51 59 52 41 53 44 54 58 55 77 56
REMARK SMILES IDX 42 57 43 58 57 60 78 61 45 62 29 63 30 64 38 65 31 66 37 67
REMARK SMILES IDX 39 68 36 69 32 70 33 71 34 72 35 73 61 74 62 75 70 76 63 77
REMARK SMILES IDX 69 78 71 79 68 80 64 81 65 82 66 83 67 84 46 85 47 86 55 87
REMARK SMILES IDX 48 88 54 89 56 90 53 91 49 92 50 93 51 94 52 95
REMARK H PARENT 4 10 83 17 89 27 76 48 44 59
REMARK Flexibility Score: inf
ROOT
ATOM      1  C   UNL A   1      31.482  32.569  26.393  1.00  0.00     0.275 C 
ENDROOT
BRANCH   1   2
ATOM      2  C   UNL A   1      31.043  31.240  25.757  1.00  0.00     0.274 C 
BRANCH   2   3
ATOM      3  O   UNL A   1      32.145  30.349  25.502  1.00  0.00    -0.458 OA
BRANCH   3   4
ATOM      4  C   UNL A   1      32.154  29.234  26.290  1.00  0.00     0.365 C 
ATOM      5  O   UNL A   1      31.506  29.144  27.331  1.00  0.00    -0.245 OA
BRANCH   4   6
ATOM      6  C   UNL A   1      32.879  28.056  25.615  1.00  0.00     0.296 C 
ATOM      7  N   UNL A   1      33.685  22.775  24.950  1.00  0.00    -0.272 N 
ATOM      8  C   UNL A   1      32.346  23.323  24.890  1.00  0.00     0.270 C 
ATOM      9  C   UNL A   1      34.734  23.695  24.504  1.00  0.00     0.270 C 
ATOM     10  H   UNL A   1      34.396  22.476  25.562  1.00  0.00     0.356 HD
ATOM     11  C   UNL A   1      32.298  24.530  25.822  1.00  0.00     0.075 C 
ATOM     12  C   UNL A   1      34.709  24.988  25.332  1.00  0.00     0.075 C 
ATOM     13  C   UNL A   1      33.297  25.638  25.409  1.00  0.00     0.036 C 
ATOM     14  C   UNL A   1      33.272  26.818  26.423  1.00  0.00     0.091 C 
ATOM     15  C   UNL A   1      32.902  26.298  24.071  1.00  0.00     0.270 C 
ATOM     16  N   UNL A   1      32.217  27.547  24.389  1.00  0.00    -0.316 N 
ATOM     17  H   UNL A   1      32.323  28.231  23.640  1.00  0.00     0.349 HD
BRANCH   7  18
ATOM     18  C   UNL A   1      33.861  21.557  25.583  1.00  0.00     0.308 C 
ATOM     19  C   UNL A   1      34.138  20.361  24.717  1.00  0.00     0.164 C 
ATOM     20  O   UNL A   1      33.861  21.434  26.810  1.00  0.00    -0.231 OA
ENDBRANCH   7  18
BRANCH  16  21
ATOM     21  C   UNL A   1      30.743  27.510  24.355  1.00  0.00     0.339 C 
BRANCH  21  22
ATOM     22  C   UNL A   1      30.022  28.462  23.439  1.00  0.00     0.161 A 
ATOM     23  N   UNL A   1      28.734  28.505  23.148  1.00  0.00    -0.236 NA
ATOM     24  N   UNL A   1      30.688  29.455  22.753  1.00  0.00    -0.344 N 
ATOM     25  C   UNL A   1      28.582  29.480  22.201  1.00  0.00     0.131 A 
ATOM     26  C   UNL A   1      29.789  30.073  21.926  1.00  0.00     0.104 A 
ATOM     27  H   UNL A   1      31.641  29.679  22.842  1.00  0.00     0.167 HD
ENDBRANCH  21  22
ENDBRANCH  16  21
ENDBRANCH   4   6
ENDBRANCH   3   4
ENDBRANCH   2   3
ENDBRANCH   1   2
BRANCH   1  28
ATOM     28  O   UNL A   1      32.324  32.406  27.554  1.00  0.00    -0.458 OA
BRANCH  28  29
ATOM     29  C   UNL A   1      33.301  33.339  27.678  1.00  0.00     0.338 C 
ATOM     30  O   UNL A   1      33.159  34.549  27.595  1.00  0.00    -0.246 OA
BRANCH  29  31
ATOM     31  C   UNL A   1      34.589  32.720  28.054  1.00  0.00     0.060 A 
ATOM     32  C   UNL A   1      34.568  31.383  28.462  1.00  0.00     0.016 A 
ATOM     33  C   UNL A   1      35.772  33.456  28.135  1.00  0.00     0.016 A 
ATOM     34  C   UNL A   1      35.707  30.782  28.983  1.00  0.00     0.010 A 
ATOM     35  C   UNL A   1      36.923  32.851  28.660  1.00  0.00     0.010 A 
ATOM     36  C   UNL A   1      36.887  31.518  29.112  1.00  0.00    -0.014 A 
BRANCH  36  37
ATOM     37  C   UNL A   1      38.032  30.902  29.827  1.00  0.00     0.031 A 
ATOM     38  C   UNL A   1      38.283  31.263  31.264  1.00  0.00     0.074 A 
ATOM     39  C   UNL A   1      38.783  29.965  29.219  1.00  0.00     0.049 A 
ATOM     40  N   UNL A   1      39.238  30.867  32.066  1.00  0.00    -0.248 NA
ATOM     41  C   UNL A   1      37.327  32.196  31.879  1.00  0.00     0.031 C 
ATOM     42  C   UNL A   1      38.582  29.480  27.853  1.00  0.00     0.029 A 
ATOM     43  N   UNL A   1      39.858  29.246  29.675  1.00  0.00    -0.354 N 
ATOM     44  C   UNL A   1      39.010  31.513  33.276  1.00  0.00     0.074 A 
ATOM     45  C   UNL A   1      37.839  32.346  33.092  1.00  0.00     0.031 C 
ATOM     46  C   UNL A   1      39.502  28.540  27.584  1.00  0.00     0.029 A 
ATOM     47  C   UNL A   1      40.386  28.391  28.737  1.00  0.00     0.049 A 
ATOM     48  H   UNL A   1      40.217  29.332  30.588  1.00  0.00     0.167 HD
ATOM     49  C   UNL A   1      39.712  31.417  34.433  1.00  0.00     0.034 A 
ATOM     50  C   UNL A   1      41.477  27.601  28.792  1.00  0.00     0.034 A 
ATOM     51  C   UNL A   1      40.875  30.578  34.597  1.00  0.00     0.049 A 
ATOM     52  C   UNL A   1      42.288  27.570  30.064  1.00  0.00     0.074 A 
ATOM     53  C   UNL A   1      41.668  30.411  35.719  1.00  0.00     0.029 A 
ATOM     54  N   UNL A   1      41.417  29.769  33.606  1.00  0.00    -0.354 N 
ATOM     55  N   UNL A   1      42.083  28.212  31.191  1.00  0.00    -0.248 NA
ATOM     56  C   UNL A   1      43.474  26.705  30.070  1.00  0.00     0.031 C 
ATOM     57  C   UNL A   1      42.723  29.550  35.389  1.00  0.00     0.029 A 
ATOM     58  C   UNL A   1      42.548  29.121  34.082  1.00  0.00     0.049 A 
ATOM     59  H   UNL A   1      41.052  29.668  32.697  1.00  0.00     0.167 HD
ATOM     60  C   UNL A   1      43.102  27.808  32.048  1.00  0.00     0.074 A 
ATOM     61  C   UNL A   1      43.909  26.856  31.312  1.00  0.00     0.031 C 
ATOM     62  C   UNL A   1      43.349  28.185  33.329  1.00  0.00     0.034 A 
BRANCH  49  63
ATOM     63  C   UNL A   1      39.272  32.293  35.581  1.00  0.00     0.023 A 
ATOM     64  C   UNL A   1      39.664  33.640  35.683  1.00  0.00     0.031 A 
ATOM     65  C   UNL A   1      38.486  31.756  36.615  1.00  0.00     0.131 A 
ATOM     66  C   UNL A   1      39.328  34.381  36.827  1.00  0.00     0.055 A 
ATOM     67  C   UNL A   1      38.091  32.520  37.715  1.00  0.00     0.041 A 
ATOM     68  F   UNL A   1      38.101  30.470  36.584  1.00  0.00    -0.206 F 
ATOM     69  C   UNL A   1      38.525  33.837  37.833  1.00  0.00     0.022 A 
BRANCH  66  70
ATOM     70  S   UNL A   1      40.072  36.021  37.051  1.00  0.00     0.124 S 
ATOM     71  O   UNL A   1      39.828  36.636  35.749  1.00  0.00    -0.237 OA
ATOM     72  O   UNL A   1      39.309  36.564  38.168  1.00  0.00    -0.237 OA
ATOM     73  O   UNL A   1      41.475  35.725  37.339  1.00  0.00    -0.744 OA
ENDBRANCH  66  70
ENDBRANCH  49  63
BRANCH  50  74
ATOM     74  C   UNL A   1      41.902  26.815  27.599  1.00  0.00     0.023 A 
ATOM     75  C   UNL A   1      41.644  25.439  27.500  1.00  0.00     0.031 A 
ATOM     76  C   UNL A   1      42.621  27.429  26.556  1.00  0.00     0.131 A 
ATOM     77  C   UNL A   1      42.137  24.713  26.404  1.00  0.00     0.055 A 
ATOM     78  C   UNL A   1      43.065  26.713  25.444  1.00  0.00     0.041 A 
ATOM     79  F   UNL A   1      42.895  28.743  26.601  1.00  0.00    -0.206 F 
ATOM     80  C   UNL A   1      42.835  25.342  25.370  1.00  0.00     0.022 A 
BRANCH  77  81
ATOM     81  S   UNL A   1      41.919  22.912  26.385  1.00  0.00     0.124 S 
ATOM     82  O   UNL A   1      42.643  22.511  27.585  1.00  0.00    -0.237 OA
ATOM     83  O   UNL A   1      40.466  22.783  26.438  1.00  0.00    -0.237 OA
ATOM     84  O   UNL A   1      42.532  22.508  25.121  1.00  0.00    -0.744 OA
ENDBRANCH  77  81
ENDBRANCH  50  74
BRANCH  62  85
ATOM     85  C   UNL A   1      44.516  27.523  34.021  1.00  0.00     0.023 A 
ATOM     86  C   UNL A   1      44.377  26.300  34.701  1.00  0.00     0.031 A 
ATOM     87  C   UNL A   1      45.780  28.140  34.017  1.00  0.00     0.131 A 
ATOM     88  C   UNL A   1      45.469  25.761  35.397  1.00  0.00     0.055 A 
ATOM     89  C   UNL A   1      46.877  27.570  34.665  1.00  0.00     0.041 A 
ATOM     90  F   UNL A   1      45.968  29.309  33.385  1.00  0.00    -0.206 F 
ATOM     91  C   UNL A   1      46.721  26.381  35.372  1.00  0.00     0.022 A 
BRANCH  88  92
ATOM     92  S   UNL A   1      45.208  24.286  36.421  1.00  0.00     0.124 S 
ATOM     93  O   UNL A   1      46.468  23.570  36.249  1.00  0.00    -0.237 OA
ATOM     94  O   UNL A   1      44.976  24.861  37.742  1.00  0.00    -0.237 OA
ATOM     95  O   UNL A   1      44.043  23.647  35.812  1.00  0.00    -0.744 OA
ENDBRANCH  88  92
ENDBRANCH  62  85
ENDBRANCH  36  37
ENDBRANCH  29  31
ENDBRANCH  28  29
ENDBRANCH   1  28
TORSDOF 17
ENDMDL
MODEL 3
REMARK VINA RESULT:     -12.2      1.387      7.733
REMARK SMILES CC(=O)[NH+]1CCC2(CC1)C[C@H](C(=O)OCCOC(=O)c1ccc(-c3c4nc(c(-c5cc(S(=O)(=O)[O-])ccc5F)c5ccc([nH]5)c(-c5cc(S(=O)(=O)[O-])ccc5F)c5nc(c(-c6cc(S(=O)(=O)[O-])ccc6F)c6ccc3[nH]6)C=C5)C=C4)cc1)[N@H+](Cc1ncc[nH]1)C2
REMARK SMILES IDX 16 1 15 2 14 3 12 4 13 5 11 6 4 7 5 8 9 9 6 11 8 12 7 13
REMARK SMILES IDX 10 14 90 15 83 16 2 18 1 19 3 20 84 21 85 22 86 23 89 24
REMARK SMILES IDX 87 25 88 26 17 28 18 29 19 30 20 31 21 32 82 33 22 34 81 35
REMARK SMILES IDX 23 36 24 37 25 38 75 39 26 40 80 41 74 42 76 43 27 44 79 45
REMARK SMILES IDX 73 46 72 47 28 49 60 50 40 51 59 52 41 53 44 54 58 55 77 56
REMARK SMILES IDX 42 57 43 58 57 60 78 61 45 62 29 63 30 64 38 65 31 66 37 67
REMARK SMILES IDX 39 68 36 69 32 70 33 71 34 72 35 73 61 74 62 75 70 76 63 77
REMARK SMILES IDX 69 78 71 79 68 80 64 81 65 82 66 83 67 84 46 85 47 86 55 87
REMARK SMILES IDX 48 88 54 89 56 90 53 91 49 92 50 93 51 94 52 95
REMARK H PARENT 4 10 83 17 89 27 76 48 44 59
REMARK Flexibility Score: inf
ROOT
ATOM      1  C   UNL A   1      36.775  21.376  24.310  1.00  0.00     0.275 C 
ENDROOT
BRANCH   1   2
ATOM      2  C   UNL A   1      36.555  22.679  23.525  1.00  0.00     0.274 C 
BRANCH   2   3
ATOM      3  O   UNL A   1      35.527  23.510  24.095  1.00  0.00    -0.458 OA
BRANCH   3   4
ATOM      4  C   UNL A   1      34.614  23.968  23.188  1.00  0.00     0.365 C 
ATOM      5  O   UNL A   1      34.281  23.328  22.193  1.00  0.00    -0.245 OA
BRANCH   4   6
ATOM      6  C   UNL A   1      33.908  25.246  23.675  1.00  0.00     0.296 C 
ATOM      7  N   UNL A   1      29.903  28.829  23.359  1.00  0.00    -0.272 N 
ATOM      8  C   UNL A   1      29.611  27.412  23.421  1.00  0.00     0.270 C 
ATOM      9  C   UNL A   1      31.129  29.224  24.056  1.00  0.00     0.270 C 
ATOM     10  H   UNL A   1      30.169  29.562  22.758  1.00  0.00     0.356 HD
ATOM     11  C   UNL A   1      30.761  26.674  22.741  1.00  0.00     0.075 C 
ATOM     12  C   UNL A   1      32.340  28.462  23.496  1.00  0.00     0.075 C 
ATOM     13  C   UNL A   1      32.120  26.923  23.438  1.00  0.00     0.036 C 
ATOM     14  C   UNL A   1      33.277  26.215  22.674  1.00  0.00     0.091 C 
ATOM     15  C   UNL A   1      32.170  26.290  24.844  1.00  0.00     0.270 C 
ATOM     16  N   UNL A   1      32.882  25.021  24.724  1.00  0.00    -0.316 N 
ATOM     17  H   UNL A   1      33.344  24.769  25.597  1.00  0.00     0.349 HD
BRANCH   7  18
ATOM     18  C   UNL A   1      29.135  29.614  22.517  1.00  0.00     0.308 C 
ATOM     19  C   UNL A   1      27.983  30.362  23.127  1.00  0.00     0.164 C 
ATOM     20  O   UNL A   1      29.395  29.767  21.321  1.00  0.00    -0.231 OA
ENDBRANCH   7  18
BRANCH  16  21
ATOM     21  C   UNL A   1      32.047  23.809  24.636  1.00  0.00     0.339 C 
BRANCH  21  22
ATOM     22  C   UNL A   1      32.555  22.540  25.265  1.00  0.00     0.161 A 
ATOM     23  N   UNL A   1      33.256  22.398  26.377  1.00  0.00    -0.236 NA
ATOM     24  N   UNL A   1      32.328  21.305  24.697  1.00  0.00    -0.344 N 
ATOM     25  C   UNL A   1      33.556  21.067  26.478  1.00  0.00     0.131 A 
ATOM     26  C   UNL A   1      33.003  20.369  25.433  1.00  0.00     0.104 A 
ATOM     27  H   UNL A   1      31.777  21.128  23.901  1.00  0.00     0.167 HD
ENDBRANCH  21  22
ENDBRANCH  16  21
ENDBRANCH   4   6
ENDBRANCH   3   4
ENDBRANCH   2   3
ENDBRANCH   1   2
BRANCH   1  28
ATOM     28  O   UNL A   1      37.183  21.584  25.678  1.00  0.00    -0.458 OA
BRANCH  28  29
ATOM     29  C   UNL A   1      38.499  21.356  25.915  1.00  0.00     0.338 C 
ATOM     30  O   UNL A   1      39.124  20.353  25.611  1.00  0.00    -0.246 OA
BRANCH  29  31
ATOM     31  C   UNL A   1      39.152  22.544  26.502  1.00  0.00     0.060 A 
ATOM     32  C   UNL A   1      38.634  23.799  26.164  1.00  0.00     0.016 A 
ATOM     33  C   UNL A   1      40.321  22.453  27.258  1.00  0.00     0.016 A 
ATOM     34  C   UNL A   1      39.291  24.963  26.543  1.00  0.00     0.010 A 
ATOM     35  C   UNL A   1      40.984  23.628  27.642  1.00  0.00     0.010 A 
ATOM     36  C   UNL A   1      40.486  24.888  27.262  1.00  0.00    -0.014 A 
BRANCH  36  37
ATOM     37  C   UNL A   1      41.247  26.137  27.504  1.00  0.00     0.031 A 
ATOM     38  C   UNL A   1      40.644  27.214  28.362  1.00  0.00     0.074 A 
ATOM     39  C   UNL A   1      42.501  26.267  27.032  1.00  0.00     0.049 A 
ATOM     40  N   UNL A   1      41.121  28.390  28.679  1.00  0.00    -0.248 NA
ATOM     41  C   UNL A   1      39.325  26.922  28.943  1.00  0.00     0.031 C 
ATOM     42  C   UNL A   1      43.217  25.256  26.253  1.00  0.00     0.029 A 
ATOM     43  N   UNL A   1      43.399  27.298  27.146  1.00  0.00    -0.354 N 
ATOM     44  C   UNL A   1      40.155  28.987  29.482  1.00  0.00     0.074 A 
ATOM     45  C   UNL A   1      39.055  28.051  29.581  1.00  0.00     0.031 C 
ATOM     46  C   UNL A   1      44.444  25.715  25.963  1.00  0.00     0.029 A 
ATOM     47  C   UNL A   1      44.585  27.070  26.491  1.00  0.00     0.049 A 
ATOM     48  H   UNL A   1      43.211  28.123  27.650  1.00  0.00     0.167 HD
ATOM     49  C   UNL A   1      40.187  30.204  30.081  1.00  0.00     0.034 A 
ATOM     50  C   UNL A   1      45.652  27.874  26.313  1.00  0.00     0.034 A 
ATOM     51  C   UNL A   1      41.295  31.123  29.971  1.00  0.00     0.049 A 
ATOM     52  C   UNL A   1      45.633  29.254  26.924  1.00  0.00     0.074 A 
ATOM     53  C   UNL A   1      41.430  32.383  30.527  1.00  0.00     0.029 A 
ATOM     54  N   UNL A   1      42.459  30.882  29.252  1.00  0.00    -0.354 N 
ATOM     55  N   UNL A   1      44.699  29.822  27.652  1.00  0.00    -0.248 NA
ATOM     56  C   UNL A   1      46.811  30.097  26.690  1.00  0.00     0.031 C 
ATOM     57  C   UNL A   1      42.645  32.928  30.094  1.00  0.00     0.029 A 
ATOM     58  C   UNL A   1      43.304  31.979  29.326  1.00  0.00     0.049 A 
ATOM     59  H   UNL A   1      42.656  30.052  28.759  1.00  0.00     0.167 HD
ATOM     60  C   UNL A   1      45.191  31.081  27.983  1.00  0.00     0.074 A 
ATOM     61  C   UNL A   1      46.509  31.181  27.389  1.00  0.00     0.031 C 
ATOM     62  C   UNL A   1      44.610  32.066  28.716  1.00  0.00     0.034 A 
BRANCH  49  63
ATOM     63  C   UNL A   1      38.957  30.627  30.847  1.00  0.00     0.023 A 
ATOM     64  C   UNL A   1      37.827  31.165  30.206  1.00  0.00     0.031 A 
ATOM     65  C   UNL A   1      38.936  30.533  32.250  1.00  0.00     0.131 A 
ATOM     66  C   UNL A   1      36.755  31.653  30.970  1.00  0.00     0.055 A 
ATOM     67  C   UNL A   1      37.835  30.950  33.001  1.00  0.00     0.041 A 
ATOM     68  F   UNL A   1      39.995  30.050  32.919  1.00  0.00    -0.206 F 
ATOM     69  C   UNL A   1      36.742  31.528  32.362  1.00  0.00     0.022 A 
BRANCH  66  70
ATOM     70  S   UNL A   1      35.440  32.580  30.132  1.00  0.00     0.124 S 
ATOM     71  O   UNL A   1      36.126  33.826  29.795  1.00  0.00    -0.237 OA
ATOM     72  O   UNL A   1      35.105  31.711  29.011  1.00  0.00    -0.237 OA
ATOM     73  O   UNL A   1      34.404  32.707  31.156  1.00  0.00    -0.744 OA
ENDBRANCH  66  70
ENDBRANCH  49  63
BRANCH  50  74
ATOM     74  C   UNL A   1      46.806  27.426  25.483  1.00  0.00     0.023 A 
ATOM     75  C   UNL A   1      46.971  27.868  24.161  1.00  0.00     0.031 A 
ATOM     76  C   UNL A   1      47.740  26.504  25.992  1.00  0.00     0.131 A 
ATOM     77  C   UNL A   1      48.019  27.356  23.379  1.00  0.00     0.055 A 
ATOM     78  C   UNL A   1      48.809  26.037  25.227  1.00  0.00     0.041 A 
ATOM     79  F   UNL A   1      47.628  26.050  27.251  1.00  0.00    -0.206 F 
ATOM     80  C   UNL A   1      48.946  26.454  23.907  1.00  0.00     0.022 A 
BRANCH  77  81
ATOM     81  S   UNL A   1      48.111  27.830  21.630  1.00  0.00     0.124 S 
ATOM     82  O   UNL A   1      49.274  28.710  21.621  1.00  0.00    -0.237 OA
ATOM     83  O   UNL A   1      48.279  26.537  20.974  1.00  0.00    -0.237 OA
ATOM     84  O   UNL A   1      46.829  28.487  21.387  1.00  0.00    -0.744 OA
ENDBRANCH  77  81
ENDBRANCH  50  74
BRANCH  62  85
ATOM     85  C   UNL A   1      45.426  33.314  28.947  1.00  0.00     0.023 A 
ATOM     86  C   UNL A   1      45.351  34.419  28.081  1.00  0.00     0.031 A 
ATOM     87  C   UNL A   1      46.310  33.387  30.038  1.00  0.00     0.131 A 
ATOM     88  C   UNL A   1      46.186  35.527  28.287  1.00  0.00     0.055 A 
ATOM     89  C   UNL A   1      47.099  34.514  30.271  1.00  0.00     0.041 A 
ATOM     90  F   UNL A   1      46.424  32.360  30.895  1.00  0.00    -0.206 F 
ATOM     91  C   UNL A   1      47.050  35.587  29.385  1.00  0.00     0.022 A 
BRANCH  88  92
ATOM     92  S   UNL A   1      46.203  36.851  27.047  1.00  0.00     0.124 S 
ATOM     93  O   UNL A   1      44.780  37.128  26.879  1.00  0.00    -0.237 OA
ATOM     94  O   UNL A   1      46.982  37.891  27.712  1.00  0.00    -0.237 OA
ATOM     95  O   UNL A   1      46.855  36.232  25.894  1.00  0.00    -0.744 OA
ENDBRANCH  88  92
ENDBRANCH  62  85
ENDBRANCH  36  37
ENDBRANCH  29  31
ENDBRANCH  28  29
ENDBRANCH   1  28
TORSDOF 17
ENDMDL
