MODEL 1
REMARK VINA RESULT:     -11.8      0.000      0.000
REMARK SMILES C[C@@H](C(=O)OCCOC(=O)c1ccc(-c2c3nc(c(-c4cc(S(=O)(=O)[O-])ccc4F)c4ccc([nH]4)c(-c4cc(S(=O)(=O)[O-])ccc4F)c4nc(c(-c5cc(S(=O)(=O)[O-])ccc5F)c5ccc2[nH]5)C=C4)C=C3)cc1)[C@H](C)[N@H+]1C[C@H]2C[NH2+]C[C@@H]2[C@@H]1C
REMARK SMILES IDX 7 1 6 2 5 3 3 4 4 5 2 6 1 7 74 8 75 9 76 10 77 11 83 12
REMARK SMILES IDX 78 14 82 15 84 16 79 17 81 18 80 19 8 22 9 23 10 24 11 25
REMARK SMILES IDX 12 26 73 27 13 28 72 29 14 30 15 31 16 32 66 33 17 34 71 35
REMARK SMILES IDX 65 36 67 37 18 38 70 39 64 40 63 41 19 43 51 44 31 45 50 46
REMARK SMILES IDX 32 47 35 48 49 49 68 50 33 51 34 52 48 54 69 55 36 56 20 57
REMARK SMILES IDX 21 58 29 59 22 60 28 61 30 62 27 63 23 64 24 65 25 66 26 67
REMARK SMILES IDX 52 68 53 69 61 70 54 71 60 72 62 73 59 74 55 75 56 76 57 77
REMARK SMILES IDX 58 78 37 79 38 80 46 81 39 82 45 83 47 84 44 85 40 86 41 87
REMARK SMILES IDX 42 88 43 89
REMARK H PARENT 76 13 80 20 80 21 67 42 35 53
REMARK Flexibility Score: inf
ROOT
ATOM      1  C   UNL A   1      31.654  29.323  25.831  1.00  0.00     0.275 C 
ENDROOT
BRANCH   1   2
ATOM      2  C   UNL A   1      31.804  28.539  24.525  1.00  0.00     0.274 C 
BRANCH   2   3
ATOM      3  O   UNL A   1      30.504  28.196  24.043  1.00  0.00    -0.462 OA
BRANCH   3   4
ATOM      4  C   UNL A   1      30.241  26.886  23.813  1.00  0.00     0.314 C 
ATOM      5  O   UNL A   1      29.118  26.403  23.711  1.00  0.00    -0.252 OA
BRANCH   4   6
ATOM      6  C   UNL A   1      31.510  26.081  23.641  1.00  0.00     0.154 C 
ATOM      7  C   UNL A   1      31.851  25.766  22.176  1.00  0.00     0.026 C 
BRANCH   6   8
ATOM      8  C   UNL A   1      31.481  24.868  24.608  1.00  0.00     0.195 C 
ATOM      9  C   UNL A   1      30.886  25.330  25.965  1.00  0.00     0.076 C 
BRANCH   8  10
ATOM     10  N   UNL A   1      32.757  24.187  24.809  1.00  0.00    -0.329 N 
ATOM     11  C   UNL A   1      34.215  25.071  25.742  1.00  0.00     0.272 C 
ATOM     12  C   UNL A   1      33.263  22.363  24.305  1.00  0.00     0.190 C 
ATOM     13  H   UNL A   1      31.894  24.246  24.269  1.00  0.00     0.348 HD
ATOM     14  C   UNL A   1      35.865  23.982  25.394  1.00  0.00     0.114 C 
ATOM     15  C   UNL A   1      35.303  22.212  24.595  1.00  0.00     0.116 C 
ATOM     16  C   UNL A   1      32.526  21.647  23.165  1.00  0.00     0.076 C 
ATOM     17  C   UNL A   1      37.281  23.745  25.848  1.00  0.00     0.270 C 
ATOM     18  C   UNL A   1      36.683  22.206  23.876  1.00  0.00     0.271 C 
ATOM     19  N   UNL A   1      37.726  22.629  24.917  1.00  0.00    -0.345 N 
ATOM     20  H   UNL A   1      37.955  21.814  25.487  1.00  0.00     0.346 HD
ATOM     21  H   UNL A   1      38.524  22.992  24.396  1.00  0.00     0.346 HD
ENDBRANCH   8  10
ENDBRANCH   6   8
ENDBRANCH   4   6
ENDBRANCH   3   4
ENDBRANCH   2   3
ENDBRANCH   1   2
BRANCH   1  22
ATOM     22  O   UNL A   1      31.601  30.766  25.631  1.00  0.00    -0.458 OA
BRANCH  22  23
ATOM     23  C   UNL A   1      32.224  31.723  26.606  1.00  0.00     0.338 C 
ATOM     24  O   UNL A   1      31.403  32.677  26.605  1.00  0.00    -0.246 OA
BRANCH  23  25
ATOM     25  C   UNL A   1      34.053  31.346  27.685  1.00  0.00     0.060 A 
ATOM     26  C   UNL A   1      34.535  30.013  28.285  1.00  0.00     0.016 A 
ATOM     27  C   UNL A   1      35.233  32.196  28.054  1.00  0.00     0.016 A 
ATOM     28  C   UNL A   1      35.635  29.666  29.063  1.00  0.00     0.010 A 
ATOM     29  C   UNL A   1      36.453  31.836  28.704  1.00  0.00     0.010 A 
ATOM     30  C   UNL A   1      36.639  30.572  29.225  1.00  0.00    -0.014 A 
BRANCH  30  31
ATOM     31  C   UNL A   1      37.801  30.154  30.010  1.00  0.00     0.031 A 
ATOM     32  C   UNL A   1      38.831  29.323  29.322  1.00  0.00     0.074 A 
ATOM     33  C   UNL A   1      37.966  30.668  31.245  1.00  0.00     0.049 A 
ATOM     34  N   UNL A   1      39.924  28.808  29.803  1.00  0.00    -0.248 NA
ATOM     35  C   UNL A   1      38.588  29.017  27.902  1.00  0.00     0.031 C 
ATOM     36  C   UNL A   1      37.024  31.577  31.915  1.00  0.00     0.029 A 
ATOM     37  N   UNL A   1      38.994  30.554  32.136  1.00  0.00    -0.354 N 
ATOM     38  C   UNL A   1      40.479  28.084  28.756  1.00  0.00     0.074 A 
ATOM     39  C   UNL A   1      39.579  28.187  27.632  1.00  0.00     0.031 C 
ATOM     40  C   UNL A   1      37.549  31.983  33.079  1.00  0.00     0.029 A 
ATOM     41  C   UNL A   1      38.804  31.279  33.291  1.00  0.00     0.049 A 
ATOM     42  H   UNL A   1      39.796  30.008  31.969  1.00  0.00     0.167 HD
ATOM     43  C   UNL A   1      41.648  27.407  28.753  1.00  0.00     0.034 A 
ATOM     44  C   UNL A   1      39.548  31.320  34.411  1.00  0.00     0.034 A 
ATOM     45  C   UNL A   1      42.502  27.362  29.911  1.00  0.00     0.049 A 
ATOM     46  C   UNL A   1      40.797  30.480  34.415  1.00  0.00     0.074 A 
ATOM     47  C   UNL A   1      43.690  26.684  30.085  1.00  0.00     0.029 A 
ATOM     48  N   UNL A   1      42.244  28.037  31.104  1.00  0.00    -0.354 N 
ATOM     49  N   UNL A   1      41.284  29.731  33.449  1.00  0.00    -0.248 NA
ATOM     50  C   UNL A   1      41.590  30.478  35.645  1.00  0.00     0.031 C 
ATOM     51  C   UNL A   1      44.106  26.881  31.405  1.00  0.00     0.029 A 
ATOM     52  C   UNL A   1      43.236  27.766  32.028  1.00  0.00     0.049 A 
ATOM     53  H   UNL A   1      41.468  28.622  31.264  1.00  0.00     0.167 HD
ATOM     54  C   UNL A   1      42.458  29.182  33.947  1.00  0.00     0.074 A 
ATOM     55  C   UNL A   1      42.611  29.710  35.291  1.00  0.00     0.031 C 
ATOM     56  C   UNL A   1      43.330  28.320  33.360  1.00  0.00     0.034 A 
BRANCH  43  57
ATOM     57  C   UNL A   1      41.983  26.618  27.512  1.00  0.00     0.023 A 
ATOM     58  C   UNL A   1      41.646  25.261  27.375  1.00  0.00     0.031 A 
ATOM     59  C   UNL A   1      42.746  27.211  26.492  1.00  0.00     0.131 A 
ATOM     60  C   UNL A   1      42.149  24.519  26.295  1.00  0.00     0.055 A 
ATOM     61  C   UNL A   1      43.161  26.492  25.370  1.00  0.00     0.041 A 
ATOM     62  F   UNL A   1      43.138  28.491  26.586  1.00  0.00    -0.206 F 
ATOM     63  C   UNL A   1      42.878  25.133  25.274  1.00  0.00     0.022 A 
BRANCH  60  64
ATOM     64  S   UNL A   1      41.998  22.711  26.339  1.00  0.00     0.124 S 
ATOM     65  O   UNL A   1      42.723  22.387  27.567  1.00  0.00    -0.237 OA
ATOM     66  O   UNL A   1      40.554  22.515  26.380  1.00  0.00    -0.237 OA
ATOM     67  O   UNL A   1      42.653  22.282  25.106  1.00  0.00    -0.744 OA
ENDBRANCH  60  64
ENDBRANCH  43  57
BRANCH  44  68
ATOM     68  C   UNL A   1      39.100  32.099  35.604  1.00  0.00     0.023 A 
ATOM     69  C   UNL A   1      38.438  31.484  36.678  1.00  0.00     0.031 A 
ATOM     70  C   UNL A   1      39.305  33.491  35.676  1.00  0.00     0.131 A 
ATOM     71  C   UNL A   1      37.968  32.261  37.750  1.00  0.00     0.055 A 
ATOM     72  C   UNL A   1      38.897  34.248  36.776  1.00  0.00     0.041 A 
ATOM     73  F   UNL A   1      39.924  34.142  34.678  1.00  0.00    -0.206 F 
ATOM     74  C   UNL A   1      38.210  33.635  37.816  1.00  0.00     0.022 A 
BRANCH  71  75
ATOM     75  S   UNL A   1      36.935  31.466  39.011  1.00  0.00     0.124 S 
ATOM     76  O   UNL A   1      37.778  31.577  40.196  1.00  0.00    -0.237 OA
ATOM     77  O   UNL A   1      35.738  32.302  38.994  1.00  0.00    -0.237 OA
ATOM     78  O   UNL A   1      36.753  30.110  38.498  1.00  0.00    -0.744 OA
ENDBRANCH  71  75
ENDBRANCH  44  68
BRANCH  56  79
ATOM     79  C   UNL A   1      44.543  27.952  34.168  1.00  0.00     0.023 A 
ATOM     80  C   UNL A   1      44.545  26.843  35.028  1.00  0.00     0.031 A 
ATOM     81  C   UNL A   1      45.711  28.729  34.073  1.00  0.00     0.131 A 
ATOM     82  C   UNL A   1      45.672  26.582  35.816  1.00  0.00     0.055 A 
ATOM     83  C   UNL A   1      46.859  28.412  34.794  1.00  0.00     0.041 A 
ATOM     84  F   UNL A   1      45.755  29.803  33.268  1.00  0.00    -0.206 F 
ATOM     85  C   UNL A   1      46.838  27.343  35.685  1.00  0.00     0.022 A 
BRANCH  82  86
ATOM     86  S   UNL A   1      45.544  25.319  37.106  1.00  0.00     0.124 S 
ATOM     87  O   UNL A   1      46.415  25.861  38.145  1.00  0.00    -0.237 OA
ATOM     88  O   UNL A   1      44.116  25.323  37.408  1.00  0.00    -0.237 OA
ATOM     89  O   UNL A   1      46.036  24.110  36.450  1.00  0.00    -0.744 OA
ENDBRANCH  82  86
ENDBRANCH  56  79
ENDBRANCH  30  31
ENDBRANCH  23  25
ENDBRANCH  22  23
ENDBRANCH   1  22
TORSDOF 16
ENDMDL
MODEL 2
REMARK VINA RESULT:     -11.7      5.268     10.378
REMARK SMILES C[C@@H](C(=O)OCCOC(=O)c1ccc(-c2c3nc(c(-c4cc(S(=O)(=O)[O-])ccc4F)c4ccc([nH]4)c(-c4cc(S(=O)(=O)[O-])ccc4F)c4nc(c(-c5cc(S(=O)(=O)[O-])ccc5F)c5ccc2[nH]5)C=C4)C=C3)cc1)[C@H](C)[N@H+]1C[C@H]2C[NH2+]C[C@@H]2[C@@H]1C
REMARK SMILES IDX 7 1 6 2 5 3 3 4 4 5 2 6 1 7 74 8 75 9 76 10 77 11 83 12
REMARK SMILES IDX 78 14 82 15 84 16 79 17 81 18 80 19 8 22 9 23 10 24 11 25
REMARK SMILES IDX 12 26 73 27 13 28 72 29 14 30 15 31 16 32 66 33 17 34 71 35
REMARK SMILES IDX 65 36 67 37 18 38 70 39 64 40 63 41 19 43 51 44 31 45 50 46
REMARK SMILES IDX 32 47 35 48 49 49 68 50 33 51 34 52 48 54 69 55 36 56 20 57
REMARK SMILES IDX 21 58 29 59 22 60 28 61 30 62 27 63 23 64 24 65 25 66 26 67
REMARK SMILES IDX 52 68 53 69 61 70 54 71 60 72 62 73 59 74 55 75 56 76 57 77
REMARK SMILES IDX 58 78 37 79 38 80 46 81 39 82 45 83 47 84 44 85 40 86 41 87
REMARK SMILES IDX 42 88 43 89
REMARK H PARENT 76 13 80 20 80 21 67 42 35 53
REMARK Flexibility Score: inf
ROOT
ATOM      1  C   UNL A   1      35.295  21.470  25.739  1.00  0.00     0.275 C 
ENDROOT
BRANCH   1   2
ATOM      2  C   UNL A   1      35.166  22.890  25.180  1.00  0.00     0.274 C 
BRANCH   2   3
ATOM      3  O   UNL A   1      33.955  22.979  24.428  1.00  0.00    -0.462 OA
BRANCH   3   4
ATOM      4  C   UNL A   1      34.043  23.381  23.137  1.00  0.00     0.314 C 
ATOM      5  O   UNL A   1      35.029  23.234  22.421  1.00  0.00    -0.252 OA
BRANCH   4   6
ATOM      6  C   UNL A   1      32.748  23.994  22.650  1.00  0.00     0.154 C 
ATOM      7  C   UNL A   1      32.923  24.951  21.462  1.00  0.00     0.026 C 
BRANCH   6   8
ATOM      8  C   UNL A   1      31.960  24.554  23.864  1.00  0.00     0.195 C 
ATOM      9  C   UNL A   1      30.443  24.476  23.549  1.00  0.00     0.076 C 
BRANCH   8  10
ATOM     10  N   UNL A   1      32.329  25.900  24.294  1.00  0.00    -0.329 N 
ATOM     11  C   UNL A   1      33.594  26.163  25.746  1.00  0.00     0.272 C 
ATOM     12  C   UNL A   1      31.760  27.621  23.552  1.00  0.00     0.190 C 
ATOM     13  H   UNL A   1      31.646  25.310  23.818  1.00  0.00     0.348 HD
ATOM     14  C   UNL A   1      33.458  28.092  26.285  1.00  0.00     0.114 C 
ATOM     15  C   UNL A   1      32.407  29.077  24.866  1.00  0.00     0.116 C 
ATOM     16  C   UNL A   1      30.441  27.725  22.773  1.00  0.00     0.076 C 
ATOM     17  C   UNL A   1      34.142  29.187  27.059  1.00  0.00     0.270 C 
ATOM     18  C   UNL A   1      31.958  30.042  26.002  1.00  0.00     0.271 C 
ATOM     19  N   UNL A   1      33.210  30.365  26.827  1.00  0.00    -0.345 N 
ATOM     20  H   UNL A   1      33.734  31.091  26.339  1.00  0.00     0.346 HD
ATOM     21  H   UNL A   1      32.881  30.656  27.748  1.00  0.00     0.346 HD
ENDBRANCH   8  10
ENDBRANCH   6   8
ENDBRANCH   4   6
ENDBRANCH   3   4
ENDBRANCH   2   3
ENDBRANCH   1   2
BRANCH   1  22
ATOM     22  O   UNL A   1      36.250  20.649  25.004  1.00  0.00    -0.458 OA
BRANCH  22  23
ATOM     23  C   UNL A   1      37.694  20.567  25.406  1.00  0.00     0.338 C 
ATOM     24  O   UNL A   1      37.948  19.345  25.241  1.00  0.00    -0.246 OA
BRANCH  23  25
ATOM     25  C   UNL A   1      38.884  22.253  26.032  1.00  0.00     0.060 A 
ATOM     26  C   UNL A   1      38.636  23.742  25.736  1.00  0.00     0.016 A 
ATOM     27  C   UNL A   1      40.119  22.396  26.874  1.00  0.00     0.016 A 
ATOM     28  C   UNL A   1      39.363  24.897  26.006  1.00  0.00     0.010 A 
ATOM     29  C   UNL A   1      40.796  23.574  27.312  1.00  0.00     0.010 A 
ATOM     30  C   UNL A   1      40.425  24.822  26.856  1.00  0.00    -0.014 A 
BRANCH  30  31
ATOM     31  C   UNL A   1      41.137  26.067  27.153  1.00  0.00     0.031 A 
ATOM     32  C   UNL A   1      40.484  27.023  28.094  1.00  0.00     0.074 A 
ATOM     33  C   UNL A   1      42.398  26.213  26.704  1.00  0.00     0.049 A 
ATOM     34  N   UNL A   1      40.892  28.192  28.489  1.00  0.00    -0.248 NA
ATOM     35  C   UNL A   1      39.184  26.611  28.653  1.00  0.00     0.031 C 
ATOM     36  C   UNL A   1      43.115  25.242  25.863  1.00  0.00     0.029 A 
ATOM     37  N   UNL A   1      43.324  27.192  26.927  1.00  0.00    -0.354 N 
ATOM     38  C   UNL A   1      39.882  28.674  29.312  1.00  0.00     0.074 A 
ATOM     39  C   UNL A   1      38.823  27.692  29.319  1.00  0.00     0.031 C 
ATOM     40  C   UNL A   1      44.381  25.647  25.697  1.00  0.00     0.029 A 
ATOM     41  C   UNL A   1      44.535  26.953  26.316  1.00  0.00     0.049 A 
ATOM     42  H   UNL A   1      43.144  27.991  27.472  1.00  0.00     0.167 HD
ATOM     43  C   UNL A   1      39.867  29.836  30.000  1.00  0.00     0.034 A 
ATOM     44  C   UNL A   1      45.625  27.738  26.235  1.00  0.00     0.034 A 
ATOM     45  C   UNL A   1      40.970  30.759  29.955  1.00  0.00     0.049 A 
ATOM     46  C   UNL A   1      45.544  29.069  26.933  1.00  0.00     0.074 A 
ATOM     47  C   UNL A   1      41.089  31.996  30.555  1.00  0.00     0.029 A 
ATOM     48  N   UNL A   1      42.156  30.534  29.257  1.00  0.00    -0.354 N 
ATOM     49  N   UNL A   1      44.555  29.559  27.650  1.00  0.00    -0.248 NA
ATOM     50  C   UNL A   1      46.704  29.952  26.812  1.00  0.00     0.031 C 
ATOM     51  C   UNL A   1      42.308  32.551  30.153  1.00  0.00     0.029 A 
ATOM     52  C   UNL A   1      42.999  31.621  29.386  1.00  0.00     0.049 A 
ATOM     53  H   UNL A   1      42.362  29.717  28.747  1.00  0.00     0.167 HD
ATOM     54  C   UNL A   1      44.983  30.807  28.085  1.00  0.00     0.074 A 
ATOM     55  C   UNL A   1      46.329  30.974  27.568  1.00  0.00     0.031 C 
ATOM     56  C   UNL A   1      44.332  31.733  28.839  1.00  0.00     0.034 A 
BRANCH  43  57
ATOM     57  C   UNL A   1      38.603  30.173  30.752  1.00  0.00     0.023 A 
ATOM     58  C   UNL A   1      37.547  30.886  30.157  1.00  0.00     0.031 A 
ATOM     59  C   UNL A   1      38.500  29.867  32.119  1.00  0.00     0.131 A 
ATOM     60  C   UNL A   1      36.483  31.348  30.946  1.00  0.00     0.055 A 
ATOM     61  C   UNL A   1      37.390  30.244  32.877  1.00  0.00     0.041 A 
ATOM     62  F   UNL A   1      39.494  29.227  32.754  1.00  0.00    -0.206 F 
ATOM     63  C   UNL A   1      36.381  31.006  32.296  1.00  0.00     0.022 A 
BRANCH  60  64
ATOM     64  S   UNL A   1      35.335  32.558  30.230  1.00  0.00     0.124 S 
ATOM     65  O   UNL A   1      34.795  31.813  29.094  1.00  0.00    -0.237 OA
ATOM     66  O   UNL A   1      34.410  32.806  31.328  1.00  0.00    -0.237 OA
ATOM     67  O   UNL A   1      36.198  33.682  29.874  1.00  0.00    -0.744 OA
ENDBRANCH  60  64
ENDBRANCH  43  57
BRANCH  44  68
ATOM     68  C   UNL A   1      46.809  27.327  25.424  1.00  0.00     0.023 A 
ATOM     69  C   UNL A   1      47.021  27.822  24.128  1.00  0.00     0.031 A 
ATOM     70  C   UNL A   1      47.744  26.400  25.928  1.00  0.00     0.131 A 
ATOM     71  C   UNL A   1      48.107  27.357  23.368  1.00  0.00     0.055 A 
ATOM     72  C   UNL A   1      48.860  25.994  25.194  1.00  0.00     0.041 A 
ATOM     73  F   UNL A   1      47.594  25.881  27.158  1.00  0.00    -0.206 F 
ATOM     74  C   UNL A   1      49.040  26.463  23.899  1.00  0.00     0.022 A 
BRANCH  71  75
ATOM     75  S   UNL A   1      48.227  27.857  21.628  1.00  0.00     0.124 S 
ATOM     76  O   UNL A   1      48.387  26.569  20.962  1.00  0.00    -0.237 OA
ATOM     77  O   UNL A   1      46.952  28.535  21.419  1.00  0.00    -0.237 OA
ATOM     78  O   UNL A   1      49.404  28.723  21.603  1.00  0.00    -0.744 OA
ENDBRANCH  71  75
ENDBRANCH  44  68
BRANCH  56  79
ATOM     79  C   UNL A   1      45.107  32.976  29.176  1.00  0.00     0.023 A 
ATOM     80  C   UNL A   1      45.079  34.107  28.346  1.00  0.00     0.031 A 
ATOM     81  C   UNL A   1      45.886  33.021  30.345  1.00  0.00     0.131 A 
ATOM     82  C   UNL A   1      45.874  35.215  28.661  1.00  0.00     0.055 A 
ATOM     83  C   UNL A   1      46.606  34.159  30.699  1.00  0.00     0.041 A 
ATOM     84  F   UNL A   1      45.949  31.961  31.167  1.00  0.00    -0.206 F 
ATOM     85  C   UNL A   1      46.617  35.259  29.845  1.00  0.00     0.022 A 
BRANCH  82  86
ATOM     86  S   UNL A   1      46.027  36.539  27.437  1.00  0.00     0.124 S 
ATOM     87  O   UNL A   1      46.510  35.812  26.267  1.00  0.00    -0.237 OA
ATOM     88  O   UNL A   1      44.661  37.046  27.352  1.00  0.00    -0.237 OA
ATOM     89  O   UNL A   1      46.992  37.455  28.042  1.00  0.00    -0.744 OA
ENDBRANCH  82  86
ENDBRANCH  56  79
ENDBRANCH  30  31
ENDBRANCH  23  25
ENDBRANCH  22  23
ENDBRANCH   1  22
TORSDOF 16
ENDMDL
MODEL 3
REMARK VINA RESULT:     -11.7      4.979      7.399
REMARK SMILES C[C@@H](C(=O)OCCOC(=O)c1ccc(-c2c3nc(c(-c4cc(S(=O)(=O)[O-])ccc4F)c4ccc([nH]4)c(-c4cc(S(=O)(=O)[O-])ccc4F)c4nc(c(-c5cc(S(=O)(=O)[O-])ccc5F)c5ccc2[nH]5)C=C4)C=C3)cc1)[C@H](C)[N@H+]1C[C@H]2C[NH2+]C[C@@H]2[C@@H]1C
REMARK SMILES IDX 7 1 6 2 5 3 3 4 4 5 2 6 1 7 74 8 75 9 76 10 77 11 83 12
REMARK SMILES IDX 78 14 82 15 84 16 79 17 81 18 80 19 8 22 9 23 10 24 11 25
REMARK SMILES IDX 12 26 73 27 13 28 72 29 14 30 15 31 16 32 66 33 17 34 71 35
REMARK SMILES IDX 65 36 67 37 18 38 70 39 64 40 63 41 19 43 51 44 31 45 50 46
REMARK SMILES IDX 32 47 35 48 49 49 68 50 33 51 34 52 48 54 69 55 36 56 20 57
REMARK SMILES IDX 21 58 29 59 22 60 28 61 30 62 27 63 23 64 24 65 25 66 26 67
REMARK SMILES IDX 52 68 53 69 61 70 54 71 60 72 62 73 59 74 55 75 56 76 57 77
REMARK SMILES IDX 58 78 37 79 38 80 46 81 39 82 45 83 47 84 44 85 40 86 41 87
REMARK SMILES IDX 42 88 43 89
REMARK H PARENT 76 13 80 20 80 21 67 42 35 53
REMARK Flexibility Score: inf
ROOT
ATOM      1  C   UNL A   1      36.654  21.392  25.213  1.00  0.00     0.275 C 
ENDROOT
BRANCH   1   2
ATOM      2  C   UNL A   1      36.556  22.359  24.030  1.00  0.00     0.274 C 
BRANCH   2   3
ATOM      3  O   UNL A   1      35.763  23.481  24.418  1.00  0.00    -0.462 OA
BRANCH   3   4
ATOM      4  C   UNL A   1      34.732  23.834  23.612  1.00  0.00     0.314 C 
ATOM      5  O   UNL A   1      34.679  23.621  22.405  1.00  0.00    -0.252 OA
BRANCH   4   6
ATOM      6  C   UNL A   1      33.609  24.486  24.390  1.00  0.00     0.154 C 
ATOM      7  C   UNL A   1      34.041  25.041  25.755  1.00  0.00     0.026 C 
BRANCH   6   8
ATOM      8  C   UNL A   1      32.378  23.542  24.398  1.00  0.00     0.195 C 
ATOM      9  C   UNL A   1      31.493  23.891  25.624  1.00  0.00     0.076 C 
BRANCH   8  10
ATOM     10  N   UNL A   1      32.675  22.112  24.366  1.00  0.00    -0.329 N 
ATOM     11  C   UNL A   1      32.264  21.052  22.789  1.00  0.00     0.272 C 
ATOM     12  C   UNL A   1      33.539  21.011  25.735  1.00  0.00     0.190 C 
ATOM     13  H   UNL A   1      32.504  22.939  24.939  1.00  0.00     0.348 HD
ATOM     14  C   UNL A   1      32.408  19.126  23.339  1.00  0.00     0.114 C 
ATOM     15  C   UNL A   1      33.316  19.045  25.144  1.00  0.00     0.116 C 
ATOM     16  C   UNL A   1      33.511  21.449  27.206  1.00  0.00     0.076 C 
ATOM     17  C   UNL A   1      32.510  17.718  22.814  1.00  0.00     0.270 C 
ATOM     18  C   UNL A   1      32.506  17.737  25.386  1.00  0.00     0.271 C 
ATOM     19  N   UNL A   1      32.605  16.911  24.098  1.00  0.00    -0.345 N 
ATOM     20  H   UNL A   1      33.501  16.424  24.100  1.00  0.00     0.346 HD
ATOM     21  H   UNL A   1      31.804  16.279  24.099  1.00  0.00     0.346 HD
ENDBRANCH   8  10
ENDBRANCH   6   8
ENDBRANCH   4   6
ENDBRANCH   3   4
ENDBRANCH   2   3
ENDBRANCH   1   2
BRANCH   1  22
ATOM     22  O   UNL A   1      37.658  20.352  25.022  1.00  0.00    -0.458 OA
BRANCH  22  23
ATOM     23  C   UNL A   1      38.986  20.398  25.721  1.00  0.00     0.338 C 
ATOM     24  O   UNL A   1      39.357  19.196  25.667  1.00  0.00    -0.246 OA
BRANCH  23  25
ATOM     25  C   UNL A   1      39.888  22.192  26.507  1.00  0.00     0.060 A 
ATOM     26  C   UNL A   1      39.573  23.649  26.128  1.00  0.00     0.016 A 
ATOM     27  C   UNL A   1      40.928  22.455  27.558  1.00  0.00     0.016 A 
ATOM     28  C   UNL A   1      40.136  24.868  26.493  1.00  0.00     0.010 A 
ATOM     29  C   UNL A   1      41.408  23.695  28.080  1.00  0.00     0.010 A 
ATOM     30  C   UNL A   1      41.022  24.899  27.527  1.00  0.00    -0.014 A 
BRANCH  30  31
ATOM     31  C   UNL A   1      41.557  26.206  27.915  1.00  0.00     0.031 A 
ATOM     32  C   UNL A   1      42.920  26.562  27.425  1.00  0.00     0.074 A 
ATOM     33  C   UNL A   1      40.744  27.076  28.543  1.00  0.00     0.049 A 
ATOM     34  N   UNL A   1      43.619  27.634  27.653  1.00  0.00    -0.248 NA
ATOM     35  C   UNL A   1      43.595  25.566  26.575  1.00  0.00     0.031 C 
ATOM     36  C   UNL A   1      39.356  26.798  28.947  1.00  0.00     0.029 A 
ATOM     37  N   UNL A   1      40.930  28.380  28.906  1.00  0.00    -0.354 N 
ATOM     38  C   UNL A   1      44.831  27.425  27.008  1.00  0.00     0.074 A 
ATOM     39  C   UNL A   1      44.790  26.107  26.423  1.00  0.00     0.031 C 
ATOM     40  C   UNL A   1      38.805  27.914  29.441  1.00  0.00     0.029 A 
ATOM     41  C   UNL A   1      39.825  28.949  29.499  1.00  0.00     0.049 A 
ATOM     42  H   UNL A   1      41.772  28.866  28.758  1.00  0.00     0.167 HD
ATOM     43  C   UNL A   1      45.872  28.282  26.918  1.00  0.00     0.034 A 
ATOM     44  C   UNL A   1      39.683  30.161  30.065  1.00  0.00     0.034 A 
ATOM     45  C   UNL A   1      45.833  29.590  27.517  1.00  0.00     0.049 A 
ATOM     46  C   UNL A   1      40.891  31.059  30.033  1.00  0.00     0.074 A 
ATOM     47  C   UNL A   1      46.819  30.554  27.555  1.00  0.00     0.029 A 
ATOM     48  N   UNL A   1      44.729  30.114  28.188  1.00  0.00    -0.354 N 
ATOM     49  N   UNL A   1      42.068  30.831  29.489  1.00  0.00    -0.248 NA
ATOM     50  C   UNL A   1      40.766  32.361  30.688  1.00  0.00     0.031 C 
ATOM     51  C   UNL A   1      46.342  31.624  28.319  1.00  0.00     0.029 A 
ATOM     52  C   UNL A   1      45.021  31.376  28.672  1.00  0.00     0.049 A 
ATOM     53  H   UNL A   1      43.867  29.652  28.301  1.00  0.00     0.167 HD
ATOM     54  C   UNL A   1      42.821  31.974  29.718  1.00  0.00     0.074 A 
ATOM     55  C   UNL A   1      41.951  32.895  30.428  1.00  0.00     0.031 C 
ATOM     56  C   UNL A   1      44.110  32.246  29.381  1.00  0.00     0.034 A 
BRANCH  43  57
ATOM     57  C   UNL A   1      47.120  27.777  26.238  1.00  0.00     0.023 A 
ATOM     58  C   UNL A   1      47.403  28.057  24.890  1.00  0.00     0.031 A 
ATOM     59  C   UNL A   1      47.989  26.912  26.925  1.00  0.00     0.131 A 
ATOM     60  C   UNL A   1      48.467  27.406  24.248  1.00  0.00     0.055 A 
ATOM     61  C   UNL A   1      49.104  26.344  26.306  1.00  0.00     0.041 A 
ATOM     62  F   UNL A   1      47.748  26.570  28.200  1.00  0.00    -0.206 F 
ATOM     63  C   UNL A   1      49.339  26.575  24.954  1.00  0.00     0.022 A 
BRANCH  60  64
ATOM     64  S   UNL A   1      48.583  27.511  22.440  1.00  0.00     0.124 S 
ATOM     65  O   UNL A   1      47.337  28.198  22.106  1.00  0.00    -0.237 OA
ATOM     66  O   UNL A   1      49.807  28.278  22.245  1.00  0.00    -0.237 OA
ATOM     67  O   UNL A   1      48.647  26.114  22.018  1.00  0.00    -0.744 OA
ENDBRANCH  60  64
ENDBRANCH  43  57
BRANCH  44  68
ATOM     68  C   UNL A   1      38.416  30.545  30.754  1.00  0.00     0.023 A 
ATOM     69  C   UNL A   1      37.414  31.275  30.097  1.00  0.00     0.031 A 
ATOM     70  C   UNL A   1      38.197  30.208  32.105  1.00  0.00     0.131 A 
ATOM     71  C   UNL A   1      36.266  31.681  30.800  1.00  0.00     0.055 A 
ATOM     72  C   UNL A   1      37.024  30.553  32.779  1.00  0.00     0.041 A 
ATOM     73  F   UNL A   1      39.120  29.517  32.794  1.00  0.00    -0.206 F 
ATOM     74  C   UNL A   1      36.055  31.308  32.129  1.00  0.00     0.022 A 
BRANCH  71  75
ATOM     75  S   UNL A   1      35.097  32.800  29.981  1.00  0.00     0.124 S 
ATOM     76  O   UNL A   1      34.244  33.201  31.094  1.00  0.00    -0.237 OA
ATOM     77  O   UNL A   1      35.984  33.829  29.449  1.00  0.00    -0.237 OA
ATOM     78  O   UNL A   1      34.457  31.950  28.978  1.00  0.00    -0.744 OA
ENDBRANCH  71  75
ENDBRANCH  44  68
BRANCH  56  79
ATOM     79  C   UNL A   1      44.615  33.615  29.741  1.00  0.00     0.023 A 
ATOM     80  C   UNL A   1      45.292  33.855  30.947  1.00  0.00     0.031 A 
ATOM     81  C   UNL A   1      44.409  34.692  28.862  1.00  0.00     0.131 A 
ATOM     82  C   UNL A   1      45.678  35.160  31.274  1.00  0.00     0.055 A 
ATOM     83  C   UNL A   1      44.874  35.972  29.154  1.00  0.00     0.041 A 
ATOM     84  F   UNL A   1      43.761  34.512  27.700  1.00  0.00    -0.206 F 
ATOM     85  C   UNL A   1      45.498  36.215  30.375  1.00  0.00     0.022 A 
BRANCH  82  86
ATOM     86  S   UNL A   1      46.298  35.479  32.945  1.00  0.00     0.124 S 
ATOM     87  O   UNL A   1      45.939  36.881  33.136  1.00  0.00    -0.237 OA
ATOM     88  O   UNL A   1      45.550  34.515  33.746  1.00  0.00    -0.237 OA
ATOM     89  O   UNL A   1      47.731  35.215  32.833  1.00  0.00    -0.744 OA
ENDBRANCH  82  86
ENDBRANCH  56  79
ENDBRANCH  30  31
ENDBRANCH  23  25
ENDBRANCH  22  23
ENDBRANCH   1  22
TORSDOF 16
ENDMDL
