MODEL 1
REMARK VINA RESULT:     -10.9      0.000      0.000
REMARK SMILES Cc1cc(C)c2c(=O)n(CCCC(=O)OCCOC(=O)c3ccc(-c4c5nc(c(-c6cc(S(=O)(=O)[O-])ccc6F)c6ccc([nH]6)c(-c6cc(S(=O)(=O)[O-])ccc6F)c6nc(c(-c7cc(S(=O)(=O)[O-])ccc7F)c7ccc4[nH]7)C=C6)C=C5)cc3)sc2n1
REMARK SMILES IDX 16 1 15 2 13 3 14 4 12 5 11 6 10 7 9 8 1 9 2 10 3 11 86 12
REMARK SMILES IDX 4 13 85 14 5 15 6 16 84 17 7 18 8 19 17 20 18 21 19 22 20 23
REMARK SMILES IDX 21 24 22 25 83 26 23 27 82 28 24 29 25 30 26 31 76 32 27 33
REMARK SMILES IDX 81 34 75 35 77 36 28 37 80 38 74 39 73 40 29 42 61 43 41 44
REMARK SMILES IDX 60 45 42 46 45 47 59 48 78 49 43 50 44 51 58 53 79 54 46 55
REMARK SMILES IDX 30 56 31 57 39 58 32 59 38 60 40 61 37 62 33 63 34 64 35 65
REMARK SMILES IDX 36 66 62 67 63 68 71 69 64 70 70 71 72 72 69 73 65 74 66 75
REMARK SMILES IDX 67 76 68 77 47 78 48 79 56 80 49 81 55 82 57 83 54 84 50 85
REMARK SMILES IDX 51 86 52 87 53 88
REMARK H PARENT 77 41 45 52
REMARK Flexibility Score: inf
ROOT
ATOM      1  C   UNL A   1      34.393  34.940  28.008  1.00  0.00     0.274 C 
ENDROOT
BRANCH   1   2
ATOM      2  O   UNL A   1      34.283  35.716  29.212  1.00  0.00    -0.462 OA
BRANCH   2   3
ATOM      3  C   UNL A   1      33.107  36.311  29.517  1.00  0.00     0.305 C 
ATOM      4  O   UNL A   1      32.148  36.374  28.754  1.00  0.00    -0.252 OA
BRANCH   3   5
ATOM      5  C   UNL A   1      33.108  36.972  30.888  1.00  0.00     0.124 C 
BRANCH   5   6
ATOM      6  C   UNL A   1      33.758  36.284  32.101  1.00  0.00     0.035 C 
BRANCH   6   7
ATOM      7  C   UNL A   1      33.645  34.760  32.272  1.00  0.00     0.139 C 
BRANCH   7   8
ATOM      8  N   UNL A   1      34.876  34.102  32.684  1.00  0.00    -0.262 N 
ATOM      9  C   UNL A   1      39.271  31.907  36.224  1.00  0.00     0.067 C 
ATOM     10  C   UNL A   1      38.332  32.058  35.069  1.00  0.00     0.039 A 
ATOM     11  C   UNL A   1      37.985  30.974  34.248  1.00  0.00     0.027 A 
ATOM     12  N   UNL A   1      37.800  33.285  34.918  1.00  0.00    -0.241 NA
ATOM     13  C   UNL A   1      37.004  31.129  33.253  1.00  0.00    -0.033 A 
ATOM     14  C   UNL A   1      36.852  33.392  33.976  1.00  0.00     0.146 A 
ATOM     15  C   UNL A   1      36.646  30.015  32.323  1.00  0.00     0.045 C 
ATOM     16  C   UNL A   1      36.386  32.368  33.178  1.00  0.00     0.081 A 
ATOM     17  S   UNL A   1      36.048  34.908  33.635  1.00  0.00    -0.035 S 
ATOM     18  C   UNL A   1      35.188  32.775  32.399  1.00  0.00     0.270 A 
ATOM     19  O   UNL A   1      34.576  32.012  31.687  1.00  0.00    -0.268 OA
ENDBRANCH   7   8
ENDBRANCH   6   7
ENDBRANCH   5   6
ENDBRANCH   3   5
ENDBRANCH   2   3
ENDBRANCH   1   2
BRANCH   1  20
ATOM     20  C   UNL A   1      34.325  33.463  28.350  1.00  0.00     0.275 C 
BRANCH  20  21
ATOM     21  O   UNL A   1      35.529  32.829  27.934  1.00  0.00    -0.458 OA
BRANCH  21  22
ATOM     22  C   UNL A   1      35.443  31.483  27.843  1.00  0.00     0.338 C 
ATOM     23  O   UNL A   1      34.608  30.830  27.242  1.00  0.00    -0.246 OA
BRANCH  22  24
ATOM     24  C   UNL A   1      36.435  30.879  28.719  1.00  0.00     0.060 A 
ATOM     25  C   UNL A   1      37.428  31.713  29.242  1.00  0.00     0.016 A 
ATOM     26  C   UNL A   1      36.547  29.485  28.685  1.00  0.00     0.016 A 
ATOM     27  C   UNL A   1      38.644  31.149  29.543  1.00  0.00     0.010 A 
ATOM     28  C   UNL A   1      37.766  28.933  28.956  1.00  0.00     0.010 A 
ATOM     29  C   UNL A   1      38.813  29.785  29.296  1.00  0.00    -0.014 A 
BRANCH  29  30
ATOM     30  C   UNL A   1      40.119  29.205  29.472  1.00  0.00     0.031 A 
ATOM     31  C   UNL A   1      40.455  28.992  30.893  1.00  0.00     0.074 A 
ATOM     32  C   UNL A   1      40.834  28.759  28.425  1.00  0.00     0.049 A 
ATOM     33  N   UNL A   1      41.351  29.609  31.584  1.00  0.00    -0.248 NA
ATOM     34  C   UNL A   1      39.555  28.146  31.697  1.00  0.00     0.031 C 
ATOM     35  C   UNL A   1      40.437  28.672  27.018  1.00  0.00     0.029 A 
ATOM     36  N   UNL A   1      42.045  28.154  28.433  1.00  0.00    -0.354 N 
ATOM     37  C   UNL A   1      41.290  29.046  32.850  1.00  0.00     0.074 A 
ATOM     38  C   UNL A   1      40.037  28.349  32.922  1.00  0.00     0.031 C 
ATOM     39  C   UNL A   1      41.274  27.823  26.377  1.00  0.00     0.029 A 
ATOM     40  C   UNL A   1      42.318  27.400  27.299  1.00  0.00     0.049 A 
ATOM     41  H   UNL A   1      42.679  28.239  29.181  1.00  0.00     0.167 HD
ATOM     42  C   UNL A   1      42.398  28.968  33.632  1.00  0.00     0.034 A 
ATOM     43  C   UNL A   1      43.261  26.424  27.197  1.00  0.00     0.034 A 
ATOM     44  C   UNL A   1      43.442  29.842  33.149  1.00  0.00     0.049 A 
ATOM     45  C   UNL A   1      44.256  26.703  28.277  1.00  0.00     0.074 A 
ATOM     46  C   UNL A   1      43.519  31.202  32.909  1.00  0.00     0.029 A 
ATOM     47  N   UNL A   1      44.477  29.279  32.432  1.00  0.00    -0.354 N 
ATOM     48  N   UNL A   1      44.979  27.795  28.319  1.00  0.00    -0.248 NA
ATOM     49  C   UNL A   1      44.062  26.049  29.568  1.00  0.00     0.031 C 
ATOM     50  C   UNL A   1      44.242  31.315  31.686  1.00  0.00     0.029 A 
ATOM     51  C   UNL A   1      44.639  30.034  31.295  1.00  0.00     0.049 A 
ATOM     52  H   UNL A   1      45.002  28.487  32.688  1.00  0.00     0.167 HD
ATOM     53  C   UNL A   1      44.968  28.191  29.651  1.00  0.00     0.074 A 
ATOM     54  C   UNL A   1      44.454  27.034  30.385  1.00  0.00     0.031 C 
ATOM     55  C   UNL A   1      45.077  29.505  30.014  1.00  0.00     0.034 A 
BRANCH  42  56
ATOM     56  C   UNL A   1      42.673  27.844  34.596  1.00  0.00     0.023 A 
ATOM     57  C   UNL A   1      43.406  26.750  34.107  1.00  0.00     0.031 A 
ATOM     58  C   UNL A   1      42.030  27.656  35.842  1.00  0.00     0.131 A 
ATOM     59  C   UNL A   1      43.407  25.525  34.793  1.00  0.00     0.055 A 
ATOM     60  C   UNL A   1      42.095  26.458  36.555  1.00  0.00     0.041 A 
ATOM     61  F   UNL A   1      41.225  28.573  36.391  1.00  0.00    -0.206 F 
ATOM     62  C   UNL A   1      42.761  25.372  36.016  1.00  0.00     0.022 A 
BRANCH  59  63
ATOM     63  S   UNL A   1      44.135  24.090  33.969  1.00  0.00     0.124 S 
ATOM     64  O   UNL A   1      43.139  23.058  34.239  1.00  0.00    -0.237 OA
ATOM     65  O   UNL A   1      44.227  24.550  32.588  1.00  0.00    -0.237 OA
ATOM     66  O   UNL A   1      45.413  23.919  34.655  1.00  0.00    -0.744 OA
ENDBRANCH  59  63
ENDBRANCH  42  56
BRANCH  43  67
ATOM     67  C   UNL A   1      43.098  25.109  26.497  1.00  0.00     0.023 A 
ATOM     68  C   UNL A   1      44.113  24.524  25.707  1.00  0.00     0.031 A 
ATOM     69  C   UNL A   1      41.976  24.288  26.769  1.00  0.00     0.131 A 
ATOM     70  C   UNL A   1      43.968  23.198  25.218  1.00  0.00     0.055 A 
ATOM     71  C   UNL A   1      41.832  22.990  26.271  1.00  0.00     0.041 A 
ATOM     72  F   UNL A   1      41.003  24.680  27.605  1.00  0.00    -0.206 F 
ATOM     73  C   UNL A   1      42.833  22.436  25.496  1.00  0.00     0.022 A 
BRANCH  70  74
ATOM     74  S   UNL A   1      45.315  22.395  24.285  1.00  0.00     0.124 S 
ATOM     75  O   UNL A   1      44.581  21.601  23.306  1.00  0.00    -0.237 OA
ATOM     76  O   UNL A   1      46.065  23.533  23.768  1.00  0.00    -0.237 OA
ATOM     77  O   UNL A   1      46.019  21.615  25.306  1.00  0.00    -0.744 OA
ENDBRANCH  70  74
ENDBRANCH  43  67
BRANCH  55  78
ATOM     78  C   UNL A   1      45.466  30.540  28.977  1.00  0.00     0.023 A 
ATOM     79  C   UNL A   1      46.795  30.865  28.621  1.00  0.00     0.031 A 
ATOM     80  C   UNL A   1      44.430  31.052  28.175  1.00  0.00     0.131 A 
ATOM     81  C   UNL A   1      47.042  31.671  27.489  1.00  0.00     0.055 A 
ATOM     82  C   UNL A   1      44.681  31.829  27.045  1.00  0.00     0.041 A 
ATOM     83  F   UNL A   1      43.150  30.744  28.442  1.00  0.00    -0.206 F 
ATOM     84  C   UNL A   1      45.988  32.141  26.697  1.00  0.00     0.022 A 
BRANCH  81  85
ATOM     85  S   UNL A   1      48.748  32.088  26.995  1.00  0.00     0.124 S 
ATOM     86  O   UNL A   1      49.368  32.489  28.253  1.00  0.00    -0.237 OA
ATOM     87  O   UNL A   1      49.228  30.838  26.410  1.00  0.00    -0.237 OA
ATOM     88  O   UNL A   1      48.571  33.176  26.031  1.00  0.00    -0.744 OA
ENDBRANCH  81  85
ENDBRANCH  55  78
ENDBRANCH  29  30
ENDBRANCH  22  24
ENDBRANCH  21  22
ENDBRANCH  20  21
ENDBRANCH   1  20
TORSDOF 17
ENDMDL
MODEL 2
REMARK VINA RESULT:     -10.8      3.969      8.637
REMARK SMILES Cc1cc(C)c2c(=O)n(CCCC(=O)OCCOC(=O)c3ccc(-c4c5nc(c(-c6cc(S(=O)(=O)[O-])ccc6F)c6ccc([nH]6)c(-c6cc(S(=O)(=O)[O-])ccc6F)c6nc(c(-c7cc(S(=O)(=O)[O-])ccc7F)c7ccc4[nH]7)C=C6)C=C5)cc3)sc2n1
REMARK SMILES IDX 16 1 15 2 13 3 14 4 12 5 11 6 10 7 9 8 1 9 2 10 3 11 86 12
REMARK SMILES IDX 4 13 85 14 5 15 6 16 84 17 7 18 8 19 17 20 18 21 19 22 20 23
REMARK SMILES IDX 21 24 22 25 83 26 23 27 82 28 24 29 25 30 26 31 76 32 27 33
REMARK SMILES IDX 81 34 75 35 77 36 28 37 80 38 74 39 73 40 29 42 61 43 41 44
REMARK SMILES IDX 60 45 42 46 45 47 59 48 78 49 43 50 44 51 58 53 79 54 46 55
REMARK SMILES IDX 30 56 31 57 39 58 32 59 38 60 40 61 37 62 33 63 34 64 35 65
REMARK SMILES IDX 36 66 62 67 63 68 71 69 64 70 70 71 72 72 69 73 65 74 66 75
REMARK SMILES IDX 67 76 68 77 47 78 48 79 56 80 49 81 55 82 57 83 54 84 50 85
REMARK SMILES IDX 51 86 52 87 53 88
REMARK H PARENT 77 41 45 52
REMARK Flexibility Score: inf
ROOT
ATOM      1  C   UNL A   1      34.155  31.676  27.867  1.00  0.00     0.274 C 
ENDROOT
BRANCH   1   2
ATOM      2  O   UNL A   1      33.557  30.387  27.654  1.00  0.00    -0.462 OA
BRANCH   2   3
ATOM      3  C   UNL A   1      32.387  30.299  26.981  1.00  0.00     0.305 C 
ATOM      4  O   UNL A   1      31.798  31.257  26.493  1.00  0.00    -0.252 OA
BRANCH   3   5
ATOM      5  C   UNL A   1      31.821  28.886  26.948  1.00  0.00     0.124 C 
BRANCH   5   6
ATOM      6  C   UNL A   1      31.432  28.216  25.619  1.00  0.00     0.035 C 
BRANCH   6   7
ATOM      7  C   UNL A   1      30.950  26.755  25.608  1.00  0.00     0.139 C 
BRANCH   7   8
ATOM      8  N   UNL A   1      32.014  25.765  25.555  1.00  0.00    -0.262 N 
ATOM      9  C   UNL A   1      37.558  23.330  25.574  1.00  0.00     0.067 C 
ATOM     10  C   UNL A   1      36.083  23.481  25.769  1.00  0.00     0.039 A 
ATOM     11  C   UNL A   1      35.378  22.727  26.718  1.00  0.00     0.027 A 
ATOM     12  N   UNL A   1      35.499  24.433  25.016  1.00  0.00    -0.241 NA
ATOM     13  C   UNL A   1      34.017  22.987  26.958  1.00  0.00    -0.033 A 
ATOM     14  C   UNL A   1      34.208  24.672  25.287  1.00  0.00     0.146 A 
ATOM     15  C   UNL A   1      33.218  22.170  27.921  1.00  0.00     0.045 C 
ATOM     16  C   UNL A   1      33.454  24.042  26.255  1.00  0.00     0.081 A 
ATOM     17  S   UNL A   1      33.282  25.871  24.412  1.00  0.00    -0.035 S 
ATOM     18  C   UNL A   1      32.132  24.693  26.438  1.00  0.00     0.270 A 
ATOM     19  O   UNL A   1      31.339  24.347  27.283  1.00  0.00    -0.268 OA
ENDBRANCH   7   8
ENDBRANCH   6   7
ENDBRANCH   5   6
ENDBRANCH   3   5
ENDBRANCH   2   3
ENDBRANCH   1   2
BRANCH   1  20
ATOM     20  C   UNL A   1      35.269  31.555  28.891  1.00  0.00     0.275 C 
BRANCH  20  21
ATOM     21  O   UNL A   1      36.075  30.427  28.577  1.00  0.00    -0.458 OA
BRANCH  21  22
ATOM     22  C   UNL A   1      36.615  29.815  29.654  1.00  0.00     0.338 C 
ATOM     23  O   UNL A   1      36.398  30.051  30.830  1.00  0.00    -0.246 OA
BRANCH  22  24
ATOM     24  C   UNL A   1      37.652  28.895  29.213  1.00  0.00     0.060 A 
ATOM     25  C   UNL A   1      38.207  28.041  30.171  1.00  0.00     0.016 A 
ATOM     26  C   UNL A   1      38.266  29.170  27.987  1.00  0.00     0.016 A 
ATOM     27  C   UNL A   1      39.502  27.622  29.982  1.00  0.00     0.010 A 
ATOM     28  C   UNL A   1      39.562  28.778  27.816  1.00  0.00     0.010 A 
ATOM     29  C   UNL A   1      40.182  28.086  28.853  1.00  0.00    -0.014 A 
BRANCH  29  30
ATOM     30  C   UNL A   1      41.580  27.774  28.709  1.00  0.00     0.031 A 
ATOM     31  C   UNL A   1      41.804  26.514  27.974  1.00  0.00     0.074 A 
ATOM     32  C   UNL A   1      42.534  28.653  29.061  1.00  0.00     0.049 A 
ATOM     33  N   UNL A   1      42.273  25.409  28.443  1.00  0.00    -0.248 NA
ATOM     34  C   UNL A   1      41.249  26.400  26.613  1.00  0.00     0.031 C 
ATOM     35  C   UNL A   1      42.378  30.033  29.524  1.00  0.00     0.029 A 
ATOM     36  N   UNL A   1      43.876  28.525  28.945  1.00  0.00    -0.354 N 
ATOM     37  C   UNL A   1      42.304  24.537  27.366  1.00  0.00     0.074 A 
ATOM     38  C   UNL A   1      41.455  25.109  26.358  1.00  0.00     0.031 C 
ATOM     39  C   UNL A   1      43.562  30.677  29.392  1.00  0.00     0.029 A 
ATOM     40  C   UNL A   1      44.570  29.729  28.943  1.00  0.00     0.049 A 
ATOM     41  H   UNL A   1      44.324  27.652  28.866  1.00  0.00     0.167 HD
ATOM     42  C   UNL A   1      43.243  23.558  27.288  1.00  0.00     0.034 A 
ATOM     43  C   UNL A   1      45.839  29.918  28.488  1.00  0.00     0.034 A 
ATOM     44  C   UNL A   1      43.878  23.339  28.567  1.00  0.00     0.049 A 
ATOM     45  C   UNL A   1      46.492  28.574  28.528  1.00  0.00     0.074 A 
ATOM     46  C   UNL A   1      43.409  23.001  29.823  1.00  0.00     0.029 A 
ATOM     47  N   UNL A   1      45.129  23.880  28.769  1.00  0.00    -0.354 N 
ATOM     48  N   UNL A   1      46.685  27.906  29.637  1.00  0.00    -0.248 NA
ATOM     49  C   UNL A   1      46.437  27.754  27.322  1.00  0.00     0.031 C 
ATOM     50  C   UNL A   1      44.159  23.817  30.722  1.00  0.00     0.029 A 
ATOM     51  C   UNL A   1      45.095  24.537  29.976  1.00  0.00     0.049 A 
ATOM     52  H   UNL A   1      45.902  23.808  28.164  1.00  0.00     0.167 HD
ATOM     53  C   UNL A   1      46.352  26.590  29.335  1.00  0.00     0.074 A 
ATOM     54  C   UNL A   1      46.284  26.544  27.874  1.00  0.00     0.031 C 
ATOM     55  C   UNL A   1      45.861  25.733  30.281  1.00  0.00     0.034 A 
BRANCH  42  56
ATOM     56  C   UNL A   1      43.845  23.068  25.997  1.00  0.00     0.023 A 
ATOM     57  C   UNL A   1      43.714  21.699  25.712  1.00  0.00     0.031 A 
ATOM     58  C   UNL A   1      44.762  23.786  25.194  1.00  0.00     0.131 A 
ATOM     59  C   UNL A   1      44.526  21.088  24.743  1.00  0.00     0.055 A 
ATOM     60  C   UNL A   1      45.514  23.187  24.182  1.00  0.00     0.041 A 
ATOM     61  F   UNL A   1      45.060  25.074  25.404  1.00  0.00    -0.206 F 
ATOM     62  C   UNL A   1      45.422  21.823  23.973  1.00  0.00     0.022 A 
BRANCH  59  63
ATOM     63  S   UNL A   1      44.502  19.284  24.627  1.00  0.00     0.124 S 
ATOM     64  O   UNL A   1      43.112  18.985  24.956  1.00  0.00    -0.237 OA
ATOM     65  O   UNL A   1      44.896  19.067  23.240  1.00  0.00    -0.237 OA
ATOM     66  O   UNL A   1      45.483  18.868  25.626  1.00  0.00    -0.744 OA
ENDBRANCH  59  63
ENDBRANCH  42  56
BRANCH  43  67
ATOM     67  C   UNL A   1      46.321  31.086  27.682  1.00  0.00     0.023 A 
ATOM     68  C   UNL A   1      45.456  31.920  26.938  1.00  0.00     0.031 A 
ATOM     69  C   UNL A   1      47.660  31.533  27.800  1.00  0.00     0.131 A 
ATOM     70  C   UNL A   1      45.945  33.113  26.342  1.00  0.00     0.055 A 
ATOM     71  C   UNL A   1      48.139  32.700  27.198  1.00  0.00     0.041 A 
ATOM     72  F   UNL A   1      48.547  30.898  28.580  1.00  0.00    -0.206 F 
ATOM     73  C   UNL A   1      47.279  33.500  26.469  1.00  0.00     0.022 A 
BRANCH  70  74
ATOM     74  S   UNL A   1      44.818  34.249  25.467  1.00  0.00     0.124 S 
ATOM     75  O   UNL A   1      44.918  35.462  26.271  1.00  0.00    -0.237 OA
ATOM     76  O   UNL A   1      45.400  34.306  24.131  1.00  0.00    -0.237 OA
ATOM     77  O   UNL A   1      43.524  33.568  25.538  1.00  0.00    -0.744 OA
ENDBRANCH  70  74
ENDBRANCH  43  67
BRANCH  55  78
ATOM     78  C   UNL A   1      45.904  26.128  31.744  1.00  0.00     0.023 A 
ATOM     79  C   UNL A   1      44.806  26.641  32.474  1.00  0.00     0.031 A 
ATOM     80  C   UNL A   1      47.053  25.761  32.466  1.00  0.00     0.131 A 
ATOM     81  C   UNL A   1      44.889  26.760  33.877  1.00  0.00     0.055 A 
ATOM     82  C   UNL A   1      47.122  25.860  33.855  1.00  0.00     0.041 A 
ATOM     83  F   UNL A   1      48.112  25.231  31.830  1.00  0.00    -0.206 F 
ATOM     84  C   UNL A   1      46.039  26.359  34.567  1.00  0.00     0.022 A 
BRANCH  81  85
ATOM     85  S   UNL A   1      43.480  27.398  34.845  1.00  0.00     0.124 S 
ATOM     86  O   UNL A   1      44.059  27.624  36.164  1.00  0.00    -0.237 OA
ATOM     87  O   UNL A   1      43.093  28.593  34.099  1.00  0.00    -0.237 OA
ATOM     88  O   UNL A   1      42.502  26.309  34.788  1.00  0.00    -0.744 OA
ENDBRANCH  81  85
ENDBRANCH  55  78
ENDBRANCH  29  30
ENDBRANCH  22  24
ENDBRANCH  21  22
ENDBRANCH  20  21
ENDBRANCH   1  20
TORSDOF 17
ENDMDL
MODEL 3
REMARK VINA RESULT:     -10.7      3.727      5.653
REMARK SMILES Cc1cc(C)c2c(=O)n(CCCC(=O)OCCOC(=O)c3ccc(-c4c5nc(c(-c6cc(S(=O)(=O)[O-])ccc6F)c6ccc([nH]6)c(-c6cc(S(=O)(=O)[O-])ccc6F)c6nc(c(-c7cc(S(=O)(=O)[O-])ccc7F)c7ccc4[nH]7)C=C6)C=C5)cc3)sc2n1
REMARK SMILES IDX 16 1 15 2 13 3 14 4 12 5 11 6 10 7 9 8 1 9 2 10 3 11 86 12
REMARK SMILES IDX 4 13 85 14 5 15 6 16 84 17 7 18 8 19 17 20 18 21 19 22 20 23
REMARK SMILES IDX 21 24 22 25 83 26 23 27 82 28 24 29 25 30 26 31 76 32 27 33
REMARK SMILES IDX 81 34 75 35 77 36 28 37 80 38 74 39 73 40 29 42 61 43 41 44
REMARK SMILES IDX 60 45 42 46 45 47 59 48 78 49 43 50 44 51 58 53 79 54 46 55
REMARK SMILES IDX 30 56 31 57 39 58 32 59 38 60 40 61 37 62 33 63 34 64 35 65
REMARK SMILES IDX 36 66 62 67 63 68 71 69 64 70 70 71 72 72 69 73 65 74 66 75
REMARK SMILES IDX 67 76 68 77 47 78 48 79 56 80 49 81 55 82 57 83 54 84 50 85
REMARK SMILES IDX 51 86 52 87 53 88
REMARK H PARENT 77 41 45 52
REMARK Flexibility Score: inf
ROOT
ATOM      1  C   UNL A   1      33.003  29.919  26.963  1.00  0.00     0.274 C 
ENDROOT
BRANCH   1   2
ATOM      2  O   UNL A   1      33.614  29.350  25.793  1.00  0.00    -0.462 OA
BRANCH   2   3
ATOM      3  C   UNL A   1      32.850  29.070  24.712  1.00  0.00     0.305 C 
ATOM      4  O   UNL A   1      33.256  29.093  23.555  1.00  0.00    -0.252 OA
BRANCH   3   5
ATOM      5  C   UNL A   1      31.395  28.793  25.064  1.00  0.00     0.124 C 
BRANCH   5   6
ATOM      6  C   UNL A   1      30.643  27.599  24.451  1.00  0.00     0.035 C 
BRANCH   6   7
ATOM      7  C   UNL A   1      30.425  26.321  25.280  1.00  0.00     0.139 C 
BRANCH   7   8
ATOM      8  N   UNL A   1      31.459  25.310  25.121  1.00  0.00    -0.262 N 
ATOM      9  C   UNL A   1      36.809  22.756  23.891  1.00  0.00     0.067 C 
ATOM     10  C   UNL A   1      35.476  23.004  24.522  1.00  0.00     0.039 A 
ATOM     11  C   UNL A   1      35.163  22.534  25.806  1.00  0.00     0.027 A 
ATOM     12  N   UNL A   1      34.630  23.761  23.797  1.00  0.00    -0.241 NA
ATOM     13  C   UNL A   1      33.946  22.895  26.412  1.00  0.00    -0.033 A 
ATOM     14  C   UNL A   1      33.491  24.106  24.414  1.00  0.00     0.146 A 
ATOM     15  C   UNL A   1      33.552  22.371  27.756  1.00  0.00     0.045 C 
ATOM     16  C   UNL A   1      33.131  23.763  25.701  1.00  0.00     0.081 A 
ATOM     17  S   UNL A   1      32.270  25.085  23.632  1.00  0.00    -0.035 S 
ATOM     18  C   UNL A   1      31.914  24.487  26.148  1.00  0.00     0.270 A 
ATOM     19  O   UNL A   1      31.464  24.389  27.266  1.00  0.00    -0.268 OA
ENDBRANCH   7   8
ENDBRANCH   6   7
ENDBRANCH   5   6
ENDBRANCH   3   5
ENDBRANCH   2   3
ENDBRANCH   1   2
BRANCH   1  20
ATOM     20  C   UNL A   1      33.817  31.110  27.432  1.00  0.00     0.275 C 
BRANCH  20  21
ATOM     21  O   UNL A   1      35.198  30.771  27.416  1.00  0.00    -0.458 OA
BRANCH  21  22
ATOM     22  C   UNL A   1      36.001  31.693  27.991  1.00  0.00     0.338 C 
ATOM     23  O   UNL A   1      36.069  32.883  27.736  1.00  0.00    -0.246 OA
BRANCH  22  24
ATOM     24  C   UNL A   1      36.926  31.026  28.894  1.00  0.00     0.060 A 
ATOM     25  C   UNL A   1      38.023  31.762  29.354  1.00  0.00     0.016 A 
ATOM     26  C   UNL A   1      36.866  29.630  28.948  1.00  0.00     0.016 A 
ATOM     27  C   UNL A   1      39.166  31.072  29.679  1.00  0.00     0.010 A 
ATOM     28  C   UNL A   1      38.011  28.949  29.242  1.00  0.00     0.010 A 
ATOM     29  C   UNL A   1      39.161  29.684  29.518  1.00  0.00    -0.014 A 
BRANCH  29  30
ATOM     30  C   UNL A   1      40.389  28.959  29.718  1.00  0.00     0.031 A 
ATOM     31  C   UNL A   1      40.714  28.784  31.147  1.00  0.00     0.074 A 
ATOM     32  C   UNL A   1      41.031  28.372  28.693  1.00  0.00     0.049 A 
ATOM     33  N   UNL A   1      41.687  29.323  31.797  1.00  0.00    -0.248 NA
ATOM     34  C   UNL A   1      39.728  28.099  32.001  1.00  0.00     0.031 C 
ATOM     35  C   UNL A   1      40.609  28.259  27.296  1.00  0.00     0.029 A 
ATOM     36  N   UNL A   1      42.159  27.625  28.728  1.00  0.00    -0.354 N 
ATOM     37  C   UNL A   1      41.574  28.841  33.093  1.00  0.00     0.074 A 
ATOM     38  C   UNL A   1      40.246  28.307  33.211  1.00  0.00     0.031 C 
ATOM     39  C   UNL A   1      41.328  27.280  26.698  1.00  0.00     0.029 A 
ATOM     40  C   UNL A   1      42.324  26.783  27.635  1.00  0.00     0.049 A 
ATOM     41  H   UNL A   1      42.808  27.673  29.466  1.00  0.00     0.167 HD
ATOM     42  C   UNL A   1      42.674  28.671  33.871  1.00  0.00     0.034 A 
ATOM     43  C   UNL A   1      43.140  25.695  27.582  1.00  0.00     0.034 A 
ATOM     44  C   UNL A   1      43.811  29.383  33.334  1.00  0.00     0.049 A 
ATOM     45  C   UNL A   1      44.175  25.908  28.640  1.00  0.00     0.074 A 
ATOM     46  C   UNL A   1      44.050  30.708  33.020  1.00  0.00     0.029 A 
ATOM     47  N   UNL A   1      44.760  28.659  32.644  1.00  0.00    -0.354 N 
ATOM     48  N   UNL A   1      45.026  26.903  28.616  1.00  0.00    -0.248 NA
ATOM     49  C   UNL A   1      43.918  25.354  29.966  1.00  0.00     0.031 C 
ATOM     50  C   UNL A   1      44.766  30.665  31.788  1.00  0.00     0.029 A 
ATOM     51  C   UNL A   1      44.999  29.326  31.466  1.00  0.00     0.049 A 
ATOM     52  H   UNL A   1      45.187  27.823  32.941  1.00  0.00     0.167 HD
ATOM     53  C   UNL A   1      45.080  27.370  29.925  1.00  0.00     0.074 A 
ATOM     54  C   UNL A   1      44.438  26.326  30.725  1.00  0.00     0.031 C 
ATOM     55  C   UNL A   1      45.353  28.679  30.214  1.00  0.00     0.034 A 
BRANCH  42  56
ATOM     56  C   UNL A   1      42.822  27.575  34.894  1.00  0.00     0.023 A 
ATOM     57  C   UNL A   1      43.558  26.441  34.513  1.00  0.00     0.031 A 
ATOM     58  C   UNL A   1      42.063  27.454  36.082  1.00  0.00     0.131 A 
ATOM     59  C   UNL A   1      43.455  25.243  35.237  1.00  0.00     0.055 A 
ATOM     60  C   UNL A   1      42.022  26.282  36.839  1.00  0.00     0.041 A 
ATOM     61  F   UNL A   1      41.244  28.416  36.523  1.00  0.00    -0.206 F 
ATOM     62  C   UNL A   1      42.695  25.156  36.400  1.00  0.00     0.022 A 
BRANCH  59  63
ATOM     63  S   UNL A   1      44.204  23.756  34.533  1.00  0.00     0.124 S 
ATOM     64  O   UNL A   1      43.040  23.074  33.977  1.00  0.00    -0.237 OA
ATOM     65  O   UNL A   1      45.142  24.319  33.569  1.00  0.00    -0.237 OA
ATOM     66  O   UNL A   1      44.814  23.106  35.690  1.00  0.00    -0.744 OA
ENDBRANCH  59  63
ENDBRANCH  42  56
BRANCH  43  67
ATOM     67  C   UNL A   1      42.809  24.374  26.957  1.00  0.00     0.023 A 
ATOM     68  C   UNL A   1      43.696  23.680  26.103  1.00  0.00     0.031 A 
ATOM     69  C   UNL A   1      41.657  23.657  27.366  1.00  0.00     0.131 A 
ATOM     70  C   UNL A   1      43.402  22.354  25.686  1.00  0.00     0.055 A 
ATOM     71  C   UNL A   1      41.365  22.358  26.939  1.00  0.00     0.041 A 
ATOM     72  F   UNL A   1      40.801  24.157  28.270  1.00  0.00    -0.206 F 
ATOM     73  C   UNL A   1      42.242  21.697  26.100  1.00  0.00     0.022 A 
BRANCH  70  74
ATOM     74  S   UNL A   1      44.587  21.411  24.670  1.00  0.00     0.124 S 
ATOM     75  O   UNL A   1      43.968  20.092  24.619  1.00  0.00    -0.237 OA
ATOM     76  O   UNL A   1      44.607  22.167  23.423  1.00  0.00    -0.237 OA
ATOM     77  O   UNL A   1      45.829  21.478  25.443  1.00  0.00    -0.744 OA
ENDBRANCH  70  74
ENDBRANCH  43  67
BRANCH  55  78
ATOM     78  C   UNL A   1      45.852  29.600  29.119  1.00  0.00     0.023 A 
ATOM     79  C   UNL A   1      45.030  30.451  28.343  1.00  0.00     0.031 A 
ATOM     80  C   UNL A   1      47.244  29.767  29.019  1.00  0.00     0.131 A 
ATOM     81  C   UNL A   1      45.618  31.430  27.514  1.00  0.00     0.055 A 
ATOM     82  C   UNL A   1      47.819  30.750  28.214  1.00  0.00     0.041 A 
ATOM     83  F   UNL A   1      48.073  29.014  29.761  1.00  0.00    -0.206 F 
ATOM     84  C   UNL A   1      47.007  31.587  27.459  1.00  0.00     0.022 A 
BRANCH  81  85
ATOM     85  S   UNL A   1      44.580  32.554  26.520  1.00  0.00     0.124 S 
ATOM     86  O   UNL A   1      45.554  33.265  25.699  1.00  0.00    -0.237 OA
ATOM     87  O   UNL A   1      43.694  31.632  25.813  1.00  0.00    -0.237 OA
ATOM     88  O   UNL A   1      43.911  33.384  27.525  1.00  0.00    -0.744 OA
ENDBRANCH  81  85
ENDBRANCH  55  78
ENDBRANCH  29  30
ENDBRANCH  22  24
ENDBRANCH  21  22
ENDBRANCH  20  21
ENDBRANCH   1  20
TORSDOF 17
ENDMDL
