MODEL 1
REMARK VINA RESULT:     -12.9      0.000      0.000
REMARK SMILES Cc1nn2c(nnc3c(=O)n(CCCC(=O)OCCOC(=O)c4ccc(-c5c6nc(c(-c7cc(S(=O)(=O)[O-])ccc7F)c7ccc([nH]7)c(-c7cc(S(=O)(=O)[O-])ccc7F)c7nc(c(-c8cc(S(=O)(=O)[O-])ccc8F)c8ccc5[nH]8)C=C7)C=C6)cc4)ccc32)c1-c1ccc(F)cc1
REMARK SMILES IDX 18 1 17 2 15 3 16 4 14 5 13 6 12 7 11 8 1 9 2 10 3 11 89 12
REMARK SMILES IDX 4 13 5 14 88 15 6 16 8 17 87 18 7 19 9 20 86 21 10 22 90 23
REMARK SMILES IDX 91 24 96 25 92 26 95 27 93 28 94 29 19 30 20 31 21 32 22 33
REMARK SMILES IDX 23 34 24 35 85 36 25 37 84 38 26 39 27 40 28 41 78 42 29 43
REMARK SMILES IDX 83 44 77 45 79 46 30 47 82 48 76 49 75 50 31 52 63 53 43 54
REMARK SMILES IDX 62 55 44 56 47 57 61 58 80 59 45 60 46 61 60 63 81 64 48 65
REMARK SMILES IDX 32 66 33 67 41 68 34 69 40 70 42 71 39 72 35 73 36 74 37 75
REMARK SMILES IDX 38 76 64 77 65 78 73 79 66 80 72 81 74 82 71 83 67 84 68 85
REMARK SMILES IDX 69 86 70 87 49 88 50 89 58 90 51 91 57 92 59 93 56 94 52 95
REMARK SMILES IDX 53 96 54 97 55 98
REMARK H PARENT 79 51 47 62
REMARK Flexibility Score: inf
ROOT
ATOM      1  C   UNL A   1      31.806  30.324  25.673  1.00  0.00     0.274 C 
ENDROOT
BRANCH   1   2
ATOM      2  O   UNL A   1      30.628  30.734  24.958  1.00  0.00    -0.462 OA
BRANCH   2   3
ATOM      3  C   UNL A   1      30.200  29.996  23.909  1.00  0.00     0.305 C 
ATOM      4  O   UNL A   1      29.210  30.250  23.232  1.00  0.00    -0.252 OA
BRANCH   3   5
ATOM      5  C   UNL A   1      31.053  28.759  23.670  1.00  0.00     0.124 C 
BRANCH   5   6
ATOM      6  C   UNL A   1      30.427  27.502  23.050  1.00  0.00     0.034 C 
BRANCH   6   7
ATOM      7  C   UNL A   1      31.223  26.706  21.999  1.00  0.00     0.126 C 
BRANCH   7   8
ATOM      8  N   UNL A   1      32.007  25.596  22.553  1.00  0.00    -0.313 N 
ATOM      9  C   UNL A   1      36.817  20.415  25.356  1.00  0.00     0.069 C 
ATOM     10  C   UNL A   1      35.563  20.906  24.740  1.00  0.00     0.070 A 
ATOM     11  N   UNL A   1      35.461  22.186  24.354  1.00  0.00    -0.170 NA
ATOM     12  C   UNL A   1      34.379  20.177  24.489  1.00  0.00     0.051 A 
ATOM     13  N   UNL A   1      34.171  22.320  23.942  1.00  0.00    -0.210 N 
ATOM     14  C   UNL A   1      33.482  21.117  24.048  1.00  0.00     0.186 A 
ATOM     15  C   UNL A   1      33.493  23.455  23.509  1.00  0.00     0.102 A 
ATOM     16  N   UNL A   1      32.156  21.038  23.753  1.00  0.00    -0.129 NA
ATOM     17  C   UNL A   1      32.174  23.287  23.333  1.00  0.00     0.177 A 
ATOM     18  C   UNL A   1      34.113  24.737  23.241  1.00  0.00     0.049 A 
ATOM     19  N   UNL A   1      31.523  22.079  23.466  1.00  0.00    -0.141 NA
ATOM     20  C   UNL A   1      31.344  24.473  23.041  1.00  0.00     0.280 A 
ATOM     21  C   UNL A   1      33.379  25.730  22.714  1.00  0.00     0.091 A 
ATOM     22  O   UNL A   1      30.138  24.377  23.249  1.00  0.00    -0.267 OA
BRANCH  12  23
ATOM     23  C   UNL A   1      34.000  18.796  24.682  1.00  0.00    -0.012 A 
ATOM     24  C   UNL A   1      34.732  17.765  24.086  1.00  0.00     0.012 A 
ATOM     25  C   UNL A   1      32.928  18.489  25.538  1.00  0.00     0.012 A 
ATOM     26  C   UNL A   1      34.389  16.435  24.340  1.00  0.00     0.040 A 
ATOM     27  C   UNL A   1      32.587  17.160  25.787  1.00  0.00     0.040 A 
ATOM     28  C   UNL A   1      33.319  16.147  25.184  1.00  0.00     0.123 A 
ATOM     29  F   UNL A   1      32.996  14.869  25.423  1.00  0.00    -0.207 F 
ENDBRANCH  12  23
ENDBRANCH   7   8
ENDBRANCH   6   7
ENDBRANCH   5   6
ENDBRANCH   3   5
ENDBRANCH   2   3
ENDBRANCH   1   2
BRANCH   1  30
ATOM     30  C   UNL A   1      31.799  30.957  27.053  1.00  0.00     0.275 C 
BRANCH  30  31
ATOM     31  O   UNL A   1      33.034  31.633  27.251  1.00  0.00    -0.458 OA
BRANCH  31  32
ATOM     32  C   UNL A   1      32.883  32.904  27.684  1.00  0.00     0.338 C 
ATOM     33  O   UNL A   1      32.001  33.698  27.398  1.00  0.00    -0.246 OA
BRANCH  32  34
ATOM     34  C   UNL A   1      34.029  33.281  28.495  1.00  0.00     0.060 A 
ATOM     35  C   UNL A   1      35.061  33.960  27.837  1.00  0.00     0.016 A 
ATOM     36  C   UNL A   1      34.216  32.543  29.665  1.00  0.00     0.016 A 
ATOM     37  C   UNL A   1      36.348  33.675  28.214  1.00  0.00     0.010 A 
ATOM     38  C   UNL A   1      35.499  32.223  30.006  1.00  0.00     0.010 A 
ATOM     39  C   UNL A   1      36.535  32.725  29.220  1.00  0.00    -0.014 A 
BRANCH  39  40
ATOM     40  C   UNL A   1      37.875  32.258  29.465  1.00  0.00     0.031 A 
ATOM     41  C   UNL A   1      38.065  30.840  29.112  1.00  0.00     0.074 A 
ATOM     42  C   UNL A   1      38.859  33.104  29.809  1.00  0.00     0.049 A 
ATOM     43  N   UNL A   1      38.256  29.833  29.898  1.00  0.00    -0.248 NA
ATOM     44  C   UNL A   1      37.803  30.479  27.708  1.00  0.00     0.031 C 
ATOM     45  C   UNL A   1      38.839  34.570  29.805  1.00  0.00     0.029 A 
ATOM     46  N   UNL A   1      40.145  32.809  30.112  1.00  0.00    -0.354 N 
ATOM     47  C   UNL A   1      38.352  28.736  29.048  1.00  0.00     0.074 A 
ATOM     48  C   UNL A   1      37.813  29.153  27.780  1.00  0.00     0.031 C 
ATOM     49  C   UNL A   1      40.113  35.023  29.861  1.00  0.00     0.029 A 
ATOM     50  C   UNL A   1      41.005  33.889  30.038  1.00  0.00     0.049 A 
ATOM     51  H   UNL A   1      40.441  31.905  30.361  1.00  0.00     0.167 HD
ATOM     52  C   UNL A   1      39.139  27.665  29.341  1.00  0.00     0.034 A 
ATOM     53  C   UNL A   1      42.357  33.813  30.008  1.00  0.00     0.034 A 
ATOM     54  C   UNL A   1      39.500  27.636  30.730  1.00  0.00     0.049 A 
ATOM     55  C   UNL A   1      42.748  32.454  30.468  1.00  0.00     0.074 A 
ATOM     56  C   UNL A   1      38.795  27.549  31.913  1.00  0.00     0.029 A 
ATOM     57  N   UNL A   1      40.754  28.087  31.063  1.00  0.00    -0.354 N 
ATOM     58  N   UNL A   1      42.591  32.011  31.686  1.00  0.00    -0.248 NA
ATOM     59  C   UNL A   1      42.928  31.424  29.453  1.00  0.00     0.031 C 
ATOM     60  C   UNL A   1      39.516  28.356  32.837  1.00  0.00     0.029 A 
ATOM     61  C   UNL A   1      40.638  28.871  32.181  1.00  0.00     0.049 A 
ATOM     62  H   UNL A   1      41.589  27.884  30.583  1.00  0.00     0.167 HD
ATOM     63  C   UNL A   1      42.241  30.675  31.539  1.00  0.00     0.074 A 
ATOM     64  C   UNL A   1      42.576  30.346  30.156  1.00  0.00     0.031 C 
ATOM     65  C   UNL A   1      41.455  30.038  32.457  1.00  0.00     0.034 A 
BRANCH  52  66
ATOM     66  C   UNL A   1      39.881  26.891  28.278  1.00  0.00     0.023 A 
ATOM     67  C   UNL A   1      40.966  27.433  27.561  1.00  0.00     0.031 A 
ATOM     68  C   UNL A   1      39.666  25.513  28.112  1.00  0.00     0.131 A 
ATOM     69  C   UNL A   1      41.750  26.661  26.701  1.00  0.00     0.055 A 
ATOM     70  C   UNL A   1      40.498  24.719  27.310  1.00  0.00     0.041 A 
ATOM     71  F   UNL A   1      38.680  24.885  28.770  1.00  0.00    -0.206 F 
ATOM     72  C   UNL A   1      41.543  25.293  26.593  1.00  0.00     0.022 A 
BRANCH  69  73
ATOM     73  S   UNL A   1      43.061  27.446  25.721  1.00  0.00     0.124 S 
ATOM     74  O   UNL A   1      43.811  26.288  25.249  1.00  0.00    -0.237 OA
ATOM     75  O   UNL A   1      42.286  28.159  24.709  1.00  0.00    -0.237 OA
ATOM     76  O   UNL A   1      43.745  28.300  26.688  1.00  0.00    -0.744 OA
ENDBRANCH  69  73
ENDBRANCH  52  66
BRANCH  53  77
ATOM     77  C   UNL A   1      43.262  34.665  29.202  1.00  0.00     0.023 A 
ATOM     78  C   UNL A   1      43.682  34.250  27.923  1.00  0.00     0.031 A 
ATOM     79  C   UNL A   1      43.940  35.750  29.782  1.00  0.00     0.131 A 
ATOM     80  C   UNL A   1      44.758  34.879  27.284  1.00  0.00     0.055 A 
ATOM     81  C   UNL A   1      45.011  36.381  29.141  1.00  0.00     0.041 A 
ATOM     82  F   UNL A   1      43.611  36.178  31.010  1.00  0.00    -0.206 F 
ATOM     83  C   UNL A   1      45.432  35.939  27.888  1.00  0.00     0.022 A 
BRANCH  80  84
ATOM     84  S   UNL A   1      45.326  34.296  25.662  1.00  0.00     0.124 S 
ATOM     85  O   UNL A   1      45.789  32.942  25.960  1.00  0.00    -0.237 OA
ATOM     86  O   UNL A   1      44.105  34.381  24.869  1.00  0.00    -0.237 OA
ATOM     87  O   UNL A   1      46.381  35.241  25.312  1.00  0.00    -0.744 OA
ENDBRANCH  80  84
ENDBRANCH  53  77
BRANCH  65  88
ATOM     88  C   UNL A   1      41.186  30.721  33.779  1.00  0.00     0.023 A 
ATOM     89  C   UNL A   1      40.217  31.738  33.795  1.00  0.00     0.031 A 
ATOM     90  C   UNL A   1      42.008  30.582  34.912  1.00  0.00     0.131 A 
ATOM     91  C   UNL A   1      40.121  32.601  34.893  1.00  0.00     0.055 A 
ATOM     92  C   UNL A   1      41.864  31.404  36.035  1.00  0.00     0.041 A 
ATOM     93  F   UNL A   1      43.028  29.717  34.932  1.00  0.00    -0.206 F 
ATOM     94  C   UNL A   1      40.926  32.431  36.022  1.00  0.00     0.022 A 
BRANCH  91  95
ATOM     95  S   UNL A   1      39.042  34.054  34.823  1.00  0.00     0.124 S 
ATOM     96  O   UNL A   1      39.466  34.814  35.996  1.00  0.00    -0.237 OA
ATOM     97  O   UNL A   1      39.403  34.641  33.535  1.00  0.00    -0.237 OA
ATOM     98  O   UNL A   1      37.694  33.499  34.896  1.00  0.00    -0.744 OA
ENDBRANCH  91  95
ENDBRANCH  65  88
ENDBRANCH  39  40
ENDBRANCH  32  34
ENDBRANCH  31  32
ENDBRANCH  30  31
ENDBRANCH   1  30
TORSDOF 18
ENDMDL
MODEL 2
REMARK VINA RESULT:     -12.1      1.779      2.415
REMARK SMILES Cc1nn2c(nnc3c(=O)n(CCCC(=O)OCCOC(=O)c4ccc(-c5c6nc(c(-c7cc(S(=O)(=O)[O-])ccc7F)c7ccc([nH]7)c(-c7cc(S(=O)(=O)[O-])ccc7F)c7nc(c(-c8cc(S(=O)(=O)[O-])ccc8F)c8ccc5[nH]8)C=C7)C=C6)cc4)ccc32)c1-c1ccc(F)cc1
REMARK SMILES IDX 18 1 17 2 15 3 16 4 14 5 13 6 12 7 11 8 1 9 2 10 3 11 89 12
REMARK SMILES IDX 4 13 5 14 88 15 6 16 8 17 87 18 7 19 9 20 86 21 10 22 90 23
REMARK SMILES IDX 91 24 96 25 92 26 95 27 93 28 94 29 19 30 20 31 21 32 22 33
REMARK SMILES IDX 23 34 24 35 85 36 25 37 84 38 26 39 27 40 28 41 78 42 29 43
REMARK SMILES IDX 83 44 77 45 79 46 30 47 82 48 76 49 75 50 31 52 63 53 43 54
REMARK SMILES IDX 62 55 44 56 47 57 61 58 80 59 45 60 46 61 60 63 81 64 48 65
REMARK SMILES IDX 32 66 33 67 41 68 34 69 40 70 42 71 39 72 35 73 36 74 37 75
REMARK SMILES IDX 38 76 64 77 65 78 73 79 66 80 72 81 74 82 71 83 67 84 68 85
REMARK SMILES IDX 69 86 70 87 49 88 50 89 58 90 51 91 57 92 59 93 56 94 52 95
REMARK SMILES IDX 53 96 54 97 55 98
REMARK H PARENT 79 51 47 62
REMARK Flexibility Score: inf
ROOT
ATOM      1  C   UNL A   1      31.674  30.828  25.793  1.00  0.00     0.274 C 
ENDROOT
BRANCH   1   2
ATOM      2  O   UNL A   1      30.658  31.733  25.330  1.00  0.00    -0.462 OA
BRANCH   2   3
ATOM      3  C   UNL A   1      29.791  31.325  24.377  1.00  0.00     0.305 C 
ATOM      4  O   UNL A   1      28.898  32.016  23.900  1.00  0.00    -0.252 OA
BRANCH   3   5
ATOM      5  C   UNL A   1      30.000  29.873  23.972  1.00  0.00     0.124 C 
BRANCH   5   6
ATOM      6  C   UNL A   1      29.212  29.284  22.794  1.00  0.00     0.034 C 
BRANCH   6   7
ATOM      7  C   UNL A   1      29.789  28.075  22.033  1.00  0.00     0.126 C 
BRANCH   7   8
ATOM      8  N   UNL A   1      30.479  27.102  22.886  1.00  0.00    -0.313 N 
ATOM      9  C   UNL A   1      33.366  22.203  27.937  1.00  0.00     0.069 C 
ATOM     10  C   UNL A   1      33.381  23.100  26.759  1.00  0.00     0.070 A 
ATOM     11  N   UNL A   1      32.323  23.881  26.497  1.00  0.00    -0.170 NA
ATOM     12  C   UNL A   1      34.411  23.259  25.806  1.00  0.00     0.051 A 
ATOM     13  N   UNL A   1      32.620  24.478  25.311  1.00  0.00    -0.210 N 
ATOM     14  C   UNL A   1      33.874  24.088  24.853  1.00  0.00     0.186 A 
ATOM     15  C   UNL A   1      31.848  25.332  24.531  1.00  0.00     0.102 A 
ATOM     16  N   UNL A   1      34.346  24.513  23.650  1.00  0.00    -0.129 NA
ATOM     17  C   UNL A   1      32.368  25.617  23.327  1.00  0.00     0.177 A 
ATOM     18  C   UNL A   1      30.583  25.909  24.939  1.00  0.00     0.049 A 
ATOM     19  N   UNL A   1      33.610  25.194  22.901  1.00  0.00    -0.141 NA
ATOM     20  C   UNL A   1      31.545  26.373  22.363  1.00  0.00     0.280 A 
ATOM     21  C   UNL A   1      29.983  26.814  24.151  1.00  0.00     0.091 A 
ATOM     22  O   UNL A   1      31.863  26.305  21.180  1.00  0.00    -0.267 OA
BRANCH  12  23
ATOM     23  C   UNL A   1      35.731  22.690  25.662  1.00  0.00    -0.012 A 
ATOM     24  C   UNL A   1      36.862  23.398  26.079  1.00  0.00     0.012 A 
ATOM     25  C   UNL A   1      35.868  21.383  25.164  1.00  0.00     0.012 A 
ATOM     26  C   UNL A   1      38.123  22.803  25.992  1.00  0.00     0.040 A 
ATOM     27  C   UNL A   1      37.128  20.793  25.077  1.00  0.00     0.040 A 
ATOM     28  C   UNL A   1      38.244  21.510  25.490  1.00  0.00     0.123 A 
ATOM     29  F   UNL A   1      39.456  20.945  25.410  1.00  0.00    -0.207 F 
ENDBRANCH  12  23
ENDBRANCH   7   8
ENDBRANCH   6   7
ENDBRANCH   5   6
ENDBRANCH   3   5
ENDBRANCH   2   3
ENDBRANCH   1   2
BRANCH   1  30
ATOM     30  C   UNL A   1      31.944  31.089  27.264  1.00  0.00     0.275 C 
BRANCH  30  31
ATOM     31  O   UNL A   1      33.181  31.779  27.385  1.00  0.00    -0.458 OA
BRANCH  31  32
ATOM     32  C   UNL A   1      33.045  33.040  27.849  1.00  0.00     0.338 C 
ATOM     33  O   UNL A   1      32.160  33.843  27.602  1.00  0.00    -0.246 OA
BRANCH  32  34
ATOM     34  C   UNL A   1      34.212  33.396  28.640  1.00  0.00     0.060 A 
ATOM     35  C   UNL A   1      35.243  34.058  27.966  1.00  0.00     0.016 A 
ATOM     36  C   UNL A   1      34.406  32.653  29.806  1.00  0.00     0.016 A 
ATOM     37  C   UNL A   1      36.532  33.751  28.320  1.00  0.00     0.010 A 
ATOM     38  C   UNL A   1      35.688  32.310  30.124  1.00  0.00     0.010 A 
ATOM     39  C   UNL A   1      36.720  32.796  29.321  1.00  0.00    -0.014 A 
BRANCH  39  40
ATOM     40  C   UNL A   1      38.055  32.305  29.543  1.00  0.00     0.031 A 
ATOM     41  C   UNL A   1      38.214  30.884  29.185  1.00  0.00     0.074 A 
ATOM     42  C   UNL A   1      39.060  33.133  29.870  1.00  0.00     0.049 A 
ATOM     43  N   UNL A   1      38.401  29.874  29.967  1.00  0.00    -0.248 NA
ATOM     44  C   UNL A   1      37.922  30.530  27.786  1.00  0.00     0.031 C 
ATOM     45  C   UNL A   1      39.065  34.599  29.867  1.00  0.00     0.029 A 
ATOM     46  N   UNL A   1      40.345  32.817  30.149  1.00  0.00    -0.354 N 
ATOM     47  C   UNL A   1      38.464  28.776  29.115  1.00  0.00     0.074 A 
ATOM     48  C   UNL A   1      37.910  29.204  27.857  1.00  0.00     0.031 C 
ATOM     49  C   UNL A   1      40.347  35.031  29.901  1.00  0.00     0.029 A 
ATOM     50  C   UNL A   1      41.223  33.881  30.061  1.00  0.00     0.049 A 
ATOM     51  H   UNL A   1      40.631  31.907  30.393  1.00  0.00     0.167 HD
ATOM     52  C   UNL A   1      39.237  27.691  29.393  1.00  0.00     0.034 A 
ATOM     53  C   UNL A   1      42.573  33.782  30.007  1.00  0.00     0.034 A 
ATOM     54  C   UNL A   1      39.622  27.655  30.776  1.00  0.00     0.049 A 
ATOM     55  C   UNL A   1      42.948  32.416  30.460  1.00  0.00     0.074 A 
ATOM     56  C   UNL A   1      38.936  27.578  31.970  1.00  0.00     0.029 A 
ATOM     57  N   UNL A   1      40.889  28.084  31.086  1.00  0.00    -0.354 N 
ATOM     58  N   UNL A   1      42.805  31.975  31.680  1.00  0.00    -0.248 NA
ATOM     59  C   UNL A   1      43.093  31.384  29.441  1.00  0.00     0.031 C 
ATOM     60  C   UNL A   1      39.688  28.372  32.883  1.00  0.00     0.029 A 
ATOM     61  C   UNL A   1      40.806  28.868  32.207  1.00  0.00     0.049 A 
ATOM     62  H   UNL A   1      41.712  27.867  30.591  1.00  0.00     0.167 HD
ATOM     63  C   UNL A   1      42.429  30.644  31.538  1.00  0.00     0.074 A 
ATOM     64  C   UNL A   1      42.734  30.311  30.149  1.00  0.00     0.031 C 
ATOM     65  C   UNL A   1      41.649  30.020  32.469  1.00  0.00     0.034 A 
BRANCH  52  66
ATOM     66  C   UNL A   1      39.946  26.906  28.317  1.00  0.00     0.023 A 
ATOM     67  C   UNL A   1      41.030  27.429  27.582  1.00  0.00     0.031 A 
ATOM     68  C   UNL A   1      39.704  25.532  28.152  1.00  0.00     0.131 A 
ATOM     69  C   UNL A   1      41.784  26.644  26.707  1.00  0.00     0.055 A 
ATOM     70  C   UNL A   1      40.508  24.724  27.335  1.00  0.00     0.041 A 
ATOM     71  F   UNL A   1      38.718  24.921  28.826  1.00  0.00    -0.206 F 
ATOM     72  C   UNL A   1      41.551  25.281  26.601  1.00  0.00     0.022 A 
BRANCH  69  73
ATOM     73  S   UNL A   1      43.092  27.407  25.707  1.00  0.00     0.124 S 
ATOM     74  O   UNL A   1      43.687  28.339  26.657  1.00  0.00    -0.237 OA
ATOM     75  O   UNL A   1      43.909  26.247  25.354  1.00  0.00    -0.237 OA
ATOM     76  O   UNL A   1      42.363  28.008  24.593  1.00  0.00    -0.744 OA
ENDBRANCH  69  73
ENDBRANCH  52  66
BRANCH  53  77
ATOM     77  C   UNL A   1      43.478  34.619  29.187  1.00  0.00     0.023 A 
ATOM     78  C   UNL A   1      44.009  34.124  27.980  1.00  0.00     0.031 A 
ATOM     79  C   UNL A   1      44.048  35.792  29.708  1.00  0.00     0.131 A 
ATOM     80  C   UNL A   1      45.086  34.765  27.355  1.00  0.00     0.055 A 
ATOM     81  C   UNL A   1      45.121  36.435  29.080  1.00  0.00     0.041 A 
ATOM     82  F   UNL A   1      43.610  36.303  30.868  1.00  0.00    -0.206 F 
ATOM     83  C   UNL A   1      45.652  35.916  27.902  1.00  0.00     0.022 A 
BRANCH  80  84
ATOM     84  S   UNL A   1      45.798  34.082  25.831  1.00  0.00     0.124 S 
ATOM     85  O   UNL A   1      46.473  35.242  25.253  1.00  0.00    -0.237 OA
ATOM     86  O   UNL A   1      46.676  33.041  26.352  1.00  0.00    -0.237 OA
ATOM     87  O   UNL A   1      44.630  33.619  25.089  1.00  0.00    -0.744 OA
ENDBRANCH  80  84
ENDBRANCH  53  77
BRANCH  65  88
ATOM     88  C   UNL A   1      41.414  30.706  33.796  1.00  0.00     0.023 A 
ATOM     89  C   UNL A   1      40.450  31.728  33.835  1.00  0.00     0.031 A 
ATOM     90  C   UNL A   1      42.263  30.566  34.910  1.00  0.00     0.131 A 
ATOM     91  C   UNL A   1      40.384  32.593  34.933  1.00  0.00     0.055 A 
ATOM     92  C   UNL A   1      42.150  31.391  36.034  1.00  0.00     0.041 A 
ATOM     93  F   UNL A   1      43.281  29.697  34.906  1.00  0.00    -0.206 F 
ATOM     94  C   UNL A   1      41.217  32.421  36.042  1.00  0.00     0.022 A 
BRANCH  91  95
ATOM     95  S   UNL A   1      39.310  34.050  34.887  1.00  0.00     0.124 S 
ATOM     96  O   UNL A   1      39.564  34.583  33.550  1.00  0.00    -0.237 OA
ATOM     97  O   UNL A   1      37.988  33.461  35.083  1.00  0.00    -0.237 OA
ATOM     98  O   UNL A   1      39.790  34.880  35.988  1.00  0.00    -0.744 OA
ENDBRANCH  91  95
ENDBRANCH  65  88
ENDBRANCH  39  40
ENDBRANCH  32  34
ENDBRANCH  31  32
ENDBRANCH  30  31
ENDBRANCH   1  30
TORSDOF 18
ENDMDL
MODEL 3
REMARK VINA RESULT:     -12.0      5.690     11.294
REMARK SMILES Cc1nn2c(nnc3c(=O)n(CCCC(=O)OCCOC(=O)c4ccc(-c5c6nc(c(-c7cc(S(=O)(=O)[O-])ccc7F)c7ccc([nH]7)c(-c7cc(S(=O)(=O)[O-])ccc7F)c7nc(c(-c8cc(S(=O)(=O)[O-])ccc8F)c8ccc5[nH]8)C=C7)C=C6)cc4)ccc32)c1-c1ccc(F)cc1
REMARK SMILES IDX 18 1 17 2 15 3 16 4 14 5 13 6 12 7 11 8 1 9 2 10 3 11 89 12
REMARK SMILES IDX 4 13 5 14 88 15 6 16 8 17 87 18 7 19 9 20 86 21 10 22 90 23
REMARK SMILES IDX 91 24 96 25 92 26 95 27 93 28 94 29 19 30 20 31 21 32 22 33
REMARK SMILES IDX 23 34 24 35 85 36 25 37 84 38 26 39 27 40 28 41 78 42 29 43
REMARK SMILES IDX 83 44 77 45 79 46 30 47 82 48 76 49 75 50 31 52 63 53 43 54
REMARK SMILES IDX 62 55 44 56 47 57 61 58 80 59 45 60 46 61 60 63 81 64 48 65
REMARK SMILES IDX 32 66 33 67 41 68 34 69 40 70 42 71 39 72 35 73 36 74 37 75
REMARK SMILES IDX 38 76 64 77 65 78 73 79 66 80 72 81 74 82 71 83 67 84 68 85
REMARK SMILES IDX 69 86 70 87 49 88 50 89 58 90 51 91 57 92 59 93 56 94 52 95
REMARK SMILES IDX 53 96 54 97 55 98
REMARK H PARENT 79 51 47 62
REMARK Flexibility Score: inf
ROOT
ATOM      1  C   UNL A   1      41.058  19.778  26.468  1.00  0.00     0.274 C 
ENDROOT
BRANCH   1   2
ATOM      2  O   UNL A   1      42.259  19.305  27.102  1.00  0.00    -0.462 OA
BRANCH   2   3
ATOM      3  C   UNL A   1      43.076  18.465  26.428  1.00  0.00     0.305 C 
ATOM      4  O   UNL A   1      43.435  17.364  26.831  1.00  0.00    -0.252 OA
BRANCH   3   5
ATOM      5  C   UNL A   1      43.563  19.046  25.109  1.00  0.00     0.124 C 
BRANCH   5   6
ATOM      6  C   UNL A   1      44.777  19.985  25.086  1.00  0.00     0.034 C 
BRANCH   6   7
ATOM      7  C   UNL A   1      44.586  21.452  24.658  1.00  0.00     0.126 C 
BRANCH   7   8
ATOM      8  N   UNL A   1      45.104  22.432  25.619  1.00  0.00    -0.313 N 
ATOM      9  C   UNL A   1      47.232  27.088  31.243  1.00  0.00     0.069 C 
ATOM     10  C   UNL A   1      47.062  26.649  29.839  1.00  0.00     0.070 A 
ATOM     11  N   UNL A   1      46.349  25.548  29.562  1.00  0.00    -0.170 NA
ATOM     12  C   UNL A   1      47.578  27.258  28.673  1.00  0.00     0.051 A 
ATOM     13  N   UNL A   1      46.485  25.378  28.219  1.00  0.00    -0.210 N 
ATOM     14  C   UNL A   1      47.259  26.389  27.660  1.00  0.00     0.186 A 
ATOM     15  C   UNL A   1      46.018  24.352  27.404  1.00  0.00     0.102 A 
ATOM     16  N   UNL A   1      47.580  26.380  26.338  1.00  0.00    -0.129 NA
ATOM     17  C   UNL A   1      46.466  24.391  26.140  1.00  0.00     0.177 A 
ATOM     18  C   UNL A   1      45.109  23.306  27.829  1.00  0.00     0.049 A 
ATOM     19  N   UNL A   1      47.250  25.404  25.627  1.00  0.00    -0.141 NA
ATOM     20  C   UNL A   1      46.165  23.253  25.248  1.00  0.00     0.280 A 
ATOM     21  C   UNL A   1      44.632  22.436  26.925  1.00  0.00     0.091 A 
ATOM     22  O   UNL A   1      46.869  23.121  24.252  1.00  0.00    -0.267 OA
BRANCH  12  23
ATOM     23  C   UNL A   1      48.359  28.450  28.435  1.00  0.00    -0.012 A 
ATOM     24  C   UNL A   1      47.831  29.511  27.692  1.00  0.00     0.012 A 
ATOM     25  C   UNL A   1      49.631  28.570  29.018  1.00  0.00     0.012 A 
ATOM     26  C   UNL A   1      48.576  30.681  27.530  1.00  0.00     0.040 A 
ATOM     27  C   UNL A   1      50.373  29.738  28.852  1.00  0.00     0.040 A 
ATOM     28  C   UNL A   1      49.840  30.781  28.107  1.00  0.00     0.123 A 
ATOM     29  F   UNL A   1      50.548  31.907  27.948  1.00  0.00    -0.207 F 
ENDBRANCH  12  23
ENDBRANCH   7   8
ENDBRANCH   6   7
ENDBRANCH   5   6
ENDBRANCH   3   5
ENDBRANCH   2   3
ENDBRANCH   1   2
BRANCH   1  30
ATOM     30  C   UNL A   1      41.173  21.274  26.234  1.00  0.00     0.275 C 
BRANCH  30  31
ATOM     31  O   UNL A   1      40.642  21.954  27.365  1.00  0.00    -0.458 OA
BRANCH  31  32
ATOM     32  C   UNL A   1      39.884  23.024  27.036  1.00  0.00     0.338 C 
ATOM     33  O   UNL A   1      38.728  23.038  26.644  1.00  0.00    -0.246 OA
BRANCH  32  34
ATOM     34  C   UNL A   1      40.694  24.230  27.097  1.00  0.00     0.060 A 
ATOM     35  C   UNL A   1      41.539  24.357  28.204  1.00  0.00     0.016 A 
ATOM     36  C   UNL A   1      40.222  25.317  26.358  1.00  0.00     0.016 A 
ATOM     37  C   UNL A   1      41.701  25.610  28.738  1.00  0.00     0.010 A 
ATOM     38  C   UNL A   1      40.343  26.555  26.919  1.00  0.00     0.010 A 
ATOM     39  C   UNL A   1      41.005  26.664  28.142  1.00  0.00    -0.014 A 
BRANCH  39  40
ATOM     40  C   UNL A   1      40.989  27.932  28.823  1.00  0.00     0.031 A 
ATOM     41  C   UNL A   1      41.996  28.877  28.307  1.00  0.00     0.074 A 
ATOM     42  C   UNL A   1      40.025  28.241  29.705  1.00  0.00     0.049 A 
ATOM     43  N   UNL A   1      43.069  29.304  28.885  1.00  0.00    -0.248 NA
ATOM     44  C   UNL A   1      41.888  29.226  26.881  1.00  0.00     0.031 C 
ATOM     45  C   UNL A   1      38.782  27.515  29.983  1.00  0.00     0.029 A 
ATOM     46  N   UNL A   1      39.903  29.365  30.449  1.00  0.00    -0.354 N 
ATOM     47  C   UNL A   1      43.656  30.154  27.954  1.00  0.00     0.074 A 
ATOM     48  C   UNL A   1      43.040  29.858  26.687  1.00  0.00     0.031 C 
ATOM     49  C   UNL A   1      37.938  28.334  30.651  1.00  0.00     0.029 A 
ATOM     50  C   UNL A   1      38.633  29.575  30.954  1.00  0.00     0.049 A 
ATOM     51  H   UNL A   1      40.653  29.980  30.615  1.00  0.00     0.167 HD
ATOM     52  C   UNL A   1      44.380  31.244  28.328  1.00  0.00     0.034 A 
ATOM     53  C   UNL A   1      38.179  30.740  31.474  1.00  0.00     0.034 A 
ATOM     54  C   UNL A   1      44.777  31.169  29.706  1.00  0.00     0.049 A 
ATOM     55  C   UNL A   1      39.358  31.595  31.776  1.00  0.00     0.074 A 
ATOM     56  C   UNL A   1      45.548  30.297  30.446  1.00  0.00     0.029 A 
ATOM     57  N   UNL A   1      44.043  31.896  30.611  1.00  0.00    -0.354 N 
ATOM     58  N   UNL A   1      40.239  31.340  32.704  1.00  0.00    -0.248 NA
ATOM     59  C   UNL A   1      39.796  32.528  30.745  1.00  0.00     0.031 C 
ATOM     60  C   UNL A   1      44.928  30.245  31.726  1.00  0.00     0.029 A 
ATOM     61  C   UNL A   1      43.828  31.108  31.711  1.00  0.00     0.049 A 
ATOM     62  H   UNL A   1      43.726  32.821  30.491  1.00  0.00     0.167 HD
ATOM     63  C   UNL A   1      41.455  31.740  32.163  1.00  0.00     0.074 A 
ATOM     64  C   UNL A   1      41.103  32.564  31.009  1.00  0.00     0.031 C 
ATOM     65  C   UNL A   1      42.628  31.142  32.526  1.00  0.00     0.034 A 
BRANCH  52  66
ATOM     66  C   UNL A   1      44.371  32.530  27.539  1.00  0.00     0.023 A 
ATOM     67  C   UNL A   1      43.647  33.668  27.947  1.00  0.00     0.031 A 
ATOM     68  C   UNL A   1      45.269  32.727  26.476  1.00  0.00     0.131 A 
ATOM     69  C   UNL A   1      43.774  34.902  27.304  1.00  0.00     0.055 A 
ATOM     70  C   UNL A   1      45.457  33.981  25.879  1.00  0.00     0.041 A 
ATOM     71  F   UNL A   1      46.033  31.720  26.025  1.00  0.00    -0.206 F 
ATOM     72  C   UNL A   1      44.702  35.077  26.288  1.00  0.00     0.022 A 
BRANCH  69  73
ATOM     73  S   UNL A   1      42.727  36.296  27.807  1.00  0.00     0.124 S 
ATOM     74  O   UNL A   1      41.513  35.614  28.238  1.00  0.00    -0.237 OA
ATOM     75  O   UNL A   1      43.529  36.901  28.868  1.00  0.00    -0.237 OA
ATOM     76  O   UNL A   1      42.613  37.094  26.589  1.00  0.00    -0.744 OA
ENDBRANCH  69  73
ENDBRANCH  52  66
BRANCH  53  77
ATOM     77  C   UNL A   1      36.819  31.301  31.303  1.00  0.00     0.023 A 
ATOM     78  C   UNL A   1      36.302  31.539  30.014  1.00  0.00     0.031 A 
ATOM     79  C   UNL A   1      36.128  31.864  32.388  1.00  0.00     0.131 A 
ATOM     80  C   UNL A   1      35.166  32.338  29.835  1.00  0.00     0.055 A 
ATOM     81  C   UNL A   1      34.989  32.658  32.209  1.00  0.00     0.041 A 
ATOM     82  F   UNL A   1      36.581  31.701  33.640  1.00  0.00    -0.206 F 
ATOM     83  C   UNL A   1      34.508  32.907  30.925  1.00  0.00     0.022 A 
BRANCH  80  84
ATOM     84  S   UNL A   1      34.545  32.685  28.165  1.00  0.00     0.124 S 
ATOM     85  O   UNL A   1      35.708  33.289  27.518  1.00  0.00    -0.237 OA
ATOM     86  O   UNL A   1      34.188  31.351  27.696  1.00  0.00    -0.237 OA
ATOM     87  O   UNL A   1      33.431  33.598  28.400  1.00  0.00    -0.744 OA
ENDBRANCH  80  84
ENDBRANCH  53  77
BRANCH  65  88
ATOM     88  C   UNL A   1      42.631  30.218  33.723  1.00  0.00     0.023 A 
ATOM     89  C   UNL A   1      42.983  30.771  34.966  1.00  0.00     0.031 A 
ATOM     90  C   UNL A   1      42.555  28.816  33.629  1.00  0.00     0.131 A 
ATOM     91  C   UNL A   1      43.289  29.936  36.047  1.00  0.00     0.055 A 
ATOM     92  C   UNL A   1      42.796  27.987  34.730  1.00  0.00     0.041 A 
ATOM     93  F   UNL A   1      42.340  28.207  32.458  1.00  0.00    -0.206 F 
ATOM     94  C   UNL A   1      43.181  28.546  35.943  1.00  0.00     0.022 A 
BRANCH  91  95
ATOM     95  S   UNL A   1      43.970  30.629  37.575  1.00  0.00     0.124 S 
ATOM     96  O   UNL A   1      44.852  31.680  37.075  1.00  0.00    -0.237 OA
ATOM     97  O   UNL A   1      42.767  31.097  38.260  1.00  0.00    -0.237 OA
ATOM     98  O   UNL A   1      44.645  29.500  38.208  1.00  0.00    -0.744 OA
ENDBRANCH  91  95
ENDBRANCH  65  88
ENDBRANCH  39  40
ENDBRANCH  32  34
ENDBRANCH  31  32
ENDBRANCH  30  31
ENDBRANCH   1  30
TORSDOF 18
ENDMDL
