MODEL 1
REMARK VINA RESULT:     -12.3      0.000      0.000
REMARK SMILES Cc1ccc(S(=O)(=O)Nc2cc3c(cc2C(=O)OCCOC(=O)c2ccc(-c4c5nc(c(-c6cc(S(=O)(=O)[O-])ccc6F)c6ccc([nH]6)c(-c6cc(S(=O)(=O)[O-])ccc6F)c6nc(c(-c7cc(S(=O)(=O)[O-])ccc7F)c7ccc4[nH]7)C=C6)C=C5)cc2)OCCO3)s1
REMARK SMILES IDX 19 1 18 2 16 3 17 4 15 5 10 6 11 7 12 8 14 9 13 10 90 11
REMARK SMILES IDX 87 12 89 13 88 14 9 15 6 17 7 18 8 19 5 20 1 21 2 22 3 23
REMARK SMILES IDX 91 24 4 25 20 26 21 27 22 28 23 29 24 30 25 31 86 32 26 33
REMARK SMILES IDX 85 34 27 35 28 36 29 37 79 38 30 39 84 40 78 41 80 42 31 43
REMARK SMILES IDX 83 44 77 45 76 46 32 48 64 49 44 50 63 51 45 52 48 53 62 54
REMARK SMILES IDX 81 55 46 56 47 57 61 59 82 60 49 61 33 62 34 63 42 64 35 65
REMARK SMILES IDX 41 66 43 67 40 68 36 69 37 70 38 71 39 72 65 73 66 74 74 75
REMARK SMILES IDX 67 76 73 77 75 78 72 79 68 80 69 81 70 82 71 83 50 84 51 85
REMARK SMILES IDX 59 86 52 87 58 88 60 89 57 90 53 91 54 92 55 93 56 94
REMARK H PARENT 9 16 80 47 48 58
REMARK Flexibility Score: inf
ROOT
ATOM      1  C   UNL A   1      35.458  21.506  26.233  1.00  0.00     0.275 C 
ENDROOT
BRANCH   1   2
ATOM      2  O   UNL A   1      35.432  22.930  25.977  1.00  0.00    -0.458 OA
BRANCH   2   3
ATOM      3  C   UNL A   1      34.235  23.528  26.196  1.00  0.00     0.340 C 
ATOM      4  O   UNL A   1      33.479  23.314  27.131  1.00  0.00    -0.246 OA
BRANCH   3   5
ATOM      5  C   UNL A   1      33.816  24.368  25.060  1.00  0.00     0.088 A 
ATOM      6  C   UNL A   1      33.980  23.950  23.727  1.00  0.00     0.067 A 
ATOM      7  C   UNL A   1      34.001  24.897  22.703  1.00  0.00     0.078 A 
ATOM      8  C   UNL A   1      33.699  26.221  22.981  1.00  0.00     0.163 A 
ATOM      9  C   UNL A   1      33.491  25.703  25.337  1.00  0.00     0.068 A 
ATOM     10  C   UNL A   1      33.369  26.607  24.284  1.00  0.00     0.162 A 
ATOM     11  O   UNL A   1      33.690  27.075  21.910  1.00  0.00    -0.486 OA
ATOM     12  O   UNL A   1      32.920  27.867  24.588  1.00  0.00    -0.486 OA
ATOM     13  C   UNL A   1      33.509  28.435  22.311  1.00  0.00     0.271 C 
ATOM     14  C   UNL A   1      32.451  28.523  23.398  1.00  0.00     0.271 C 
BRANCH   6  15
ATOM     15  N   UNL A   1      33.967  22.565  23.357  1.00  0.00    -0.278 N 
ATOM     16  H   UNL A   1      34.797  22.063  23.187  1.00  0.00     0.180 HD
BRANCH  15  17
ATOM     17  S   UNL A   1      32.405  21.831  23.228  1.00  0.00     0.271 S 
ATOM     18  O   UNL A   1      32.170  21.644  21.809  1.00  0.00    -0.200 OA
ATOM     19  O   UNL A   1      31.492  22.588  24.046  1.00  0.00    -0.200 OA
BRANCH  17  20
ATOM     20  C   UNL A   1      32.472  20.230  23.993  1.00  0.00     0.140 A 
ATOM     21  C   UNL A   1      33.381  16.450  23.931  1.00  0.00     0.056 C 
ATOM     22  C   UNL A   1      32.915  17.827  24.242  1.00  0.00     0.003 A 
ATOM     23  C   UNL A   1      32.843  18.462  25.463  1.00  0.00     0.016 A 
ATOM     24  S   UNL A   1      32.396  18.858  22.977  1.00  0.00    -0.127 S 
ATOM     25  C   UNL A   1      32.531  19.844  25.321  1.00  0.00     0.034 A 
ENDBRANCH  17  20
ENDBRANCH  15  17
ENDBRANCH   6  15
ENDBRANCH   3   5
ENDBRANCH   2   3
ENDBRANCH   1   2
BRANCH   1  26
ATOM     26  C   UNL A   1      36.413  20.753  25.307  1.00  0.00     0.275 C 
BRANCH  26  27
ATOM     27  O   UNL A   1      37.539  21.580  24.956  1.00  0.00    -0.458 OA
BRANCH  27  28
ATOM     28  C   UNL A   1      38.641  21.317  25.693  1.00  0.00     0.338 C 
ATOM     29  O   UNL A   1      39.232  20.252  25.723  1.00  0.00    -0.246 OA
BRANCH  28  30
ATOM     30  C   UNL A   1      39.124  22.472  26.457  1.00  0.00     0.060 A 
ATOM     31  C   UNL A   1      38.695  23.744  26.104  1.00  0.00     0.016 A 
ATOM     32  C   UNL A   1      40.227  22.315  27.302  1.00  0.00     0.016 A 
ATOM     33  C   UNL A   1      39.461  24.847  26.468  1.00  0.00     0.010 A 
ATOM     34  C   UNL A   1      40.913  23.440  27.778  1.00  0.00     0.010 A 
ATOM     35  C   UNL A   1      40.562  24.722  27.335  1.00  0.00    -0.014 A 
BRANCH  35  36
ATOM     36  C   UNL A   1      41.282  25.947  27.797  1.00  0.00     0.031 A 
ATOM     37  C   UNL A   1      40.606  27.020  28.618  1.00  0.00     0.074 A 
ATOM     38  C   UNL A   1      42.590  26.073  27.491  1.00  0.00     0.049 A 
ATOM     39  N   UNL A   1      41.063  28.198  28.966  1.00  0.00    -0.248 NA
ATOM     40  C   UNL A   1      39.252  26.738  29.120  1.00  0.00     0.031 C 
ATOM     41  C   UNL A   1      43.381  25.085  26.749  1.00  0.00     0.029 A 
ATOM     42  N   UNL A   1      43.496  27.066  27.774  1.00  0.00    -0.354 N 
ATOM     43  C   UNL A   1      40.048  28.812  29.697  1.00  0.00     0.074 A 
ATOM     44  C   UNL A   1      38.949  27.870  29.748  1.00  0.00     0.031 C 
ATOM     45  C   UNL A   1      44.655  25.483  26.698  1.00  0.00     0.029 A 
ATOM     46  C   UNL A   1      44.743  26.827  27.246  1.00  0.00     0.049 A 
ATOM     47  H   UNL A   1      43.275  27.866  28.303  1.00  0.00     0.167 HD
ATOM     48  C   UNL A   1      40.036  30.050  30.256  1.00  0.00     0.034 A 
ATOM     49  C   UNL A   1      45.821  27.622  27.115  1.00  0.00     0.034 A 
ATOM     50  C   UNL A   1      41.152  30.971  30.194  1.00  0.00     0.049 A 
ATOM     51  C   UNL A   1      45.739  29.028  27.622  1.00  0.00     0.074 A 
ATOM     52  C   UNL A   1      41.253  32.241  30.741  1.00  0.00     0.029 A 
ATOM     53  N   UNL A   1      42.352  30.734  29.536  1.00  0.00    -0.354 N 
ATOM     54  N   UNL A   1      44.745  29.621  28.241  1.00  0.00    -0.248 NA
ATOM     55  C   UNL A   1      46.908  29.879  27.389  1.00  0.00     0.031 C 
ATOM     56  C   UNL A   1      42.475  32.798  30.345  1.00  0.00     0.029 A 
ATOM     57  C   UNL A   1      43.178  31.849  29.622  1.00  0.00     0.049 A 
ATOM     58  H   UNL A   1      42.586  29.896  29.075  1.00  0.00     0.167 HD
ATOM     59  C   UNL A   1      45.171  30.923  28.469  1.00  0.00     0.074 A 
ATOM     60  C   UNL A   1      46.521  31.016  27.948  1.00  0.00     0.031 C 
ATOM     61  C   UNL A   1      44.502  31.949  29.055  1.00  0.00     0.034 A 
BRANCH  48  62
ATOM     62  C   UNL A   1      38.759  30.531  30.912  1.00  0.00     0.023 A 
ATOM     63  C   UNL A   1      37.726  31.166  30.200  1.00  0.00     0.031 A 
ATOM     64  C   UNL A   1      38.558  30.294  32.287  1.00  0.00     0.131 A 
ATOM     65  C   UNL A   1      36.552  31.560  30.870  1.00  0.00     0.055 A 
ATOM     66  C   UNL A   1      37.370  30.639  32.933  1.00  0.00     0.041 A 
ATOM     67  F   UNL A   1      39.514  29.708  33.024  1.00  0.00    -0.206 F 
ATOM     68  C   UNL A   1      36.360  31.281  32.226  1.00  0.00     0.022 A 
BRANCH  65  69
ATOM     69  S   UNL A   1      35.298  32.518  29.971  1.00  0.00     0.124 S 
ATOM     70  O   UNL A   1      34.316  32.787  31.018  1.00  0.00    -0.237 OA
ATOM     71  O   UNL A   1      36.060  33.666  29.496  1.00  0.00    -0.237 OA
ATOM     72  O   UNL A   1      34.846  31.598  28.927  1.00  0.00    -0.744 OA
ENDBRANCH  65  69
ENDBRANCH  48  62
BRANCH  49  73
ATOM     73  C   UNL A   1      47.005  27.131  26.355  1.00  0.00     0.023 A 
ATOM     74  C   UNL A   1      48.077  26.499  26.999  1.00  0.00     0.031 A 
ATOM     75  C   UNL A   1      47.061  27.270  24.954  1.00  0.00     0.131 A 
ATOM     76  C   UNL A   1      49.163  26.032  26.241  1.00  0.00     0.055 A 
ATOM     77  C   UNL A   1      48.111  26.749  24.200  1.00  0.00     0.041 A 
ATOM     78  F   UNL A   1      46.063  27.875  24.289  1.00  0.00    -0.206 F 
ATOM     79  C   UNL A   1      49.175  26.130  24.846  1.00  0.00     0.022 A 
BRANCH  76  80
ATOM     80  S   UNL A   1      50.596  25.343  27.110  1.00  0.00     0.124 S 
ATOM     81  O   UNL A   1      51.039  26.484  27.904  1.00  0.00    -0.237 OA
ATOM     82  O   UNL A   1      49.999  24.238  27.852  1.00  0.00    -0.237 OA
ATOM     83  O   UNL A   1      51.494  24.951  26.027  1.00  0.00    -0.744 OA
ENDBRANCH  76  80
ENDBRANCH  49  73
BRANCH  61  84
ATOM     84  C   UNL A   1      45.252  33.252  29.166  1.00  0.00     0.023 A 
ATOM     85  C   UNL A   1      45.247  34.190  28.118  1.00  0.00     0.031 A 
ATOM     86  C   UNL A   1      46.038  33.526  30.298  1.00  0.00     0.131 A 
ATOM     87  C   UNL A   1      46.069  35.324  28.193  1.00  0.00     0.055 A 
ATOM     88  C   UNL A   1      46.804  34.689  30.395  1.00  0.00     0.041 A 
ATOM     89  F   UNL A   1      46.086  32.659  31.323  1.00  0.00    -0.206 F 
ATOM     90  C   UNL A   1      46.836  35.587  29.332  1.00  0.00     0.022 A 
BRANCH  87  91
ATOM     91  S   UNL A   1      46.216  36.390  26.732  1.00  0.00     0.124 S 
ATOM     92  O   UNL A   1      46.131  35.422  25.643  1.00  0.00    -0.237 OA
ATOM     93  O   UNL A   1      45.074  37.285  26.881  1.00  0.00    -0.237 OA
ATOM     94  O   UNL A   1      47.525  37.021  26.899  1.00  0.00    -0.744 OA
ENDBRANCH  87  91
ENDBRANCH  61  84
ENDBRANCH  35  36
ENDBRANCH  28  30
ENDBRANCH  27  28
ENDBRANCH  26  27
ENDBRANCH   1  26
TORSDOF 17
ENDMDL
MODEL 2
REMARK VINA RESULT:     -12.2      5.125     10.119
REMARK SMILES Cc1ccc(S(=O)(=O)Nc2cc3c(cc2C(=O)OCCOC(=O)c2ccc(-c4c5nc(c(-c6cc(S(=O)(=O)[O-])ccc6F)c6ccc([nH]6)c(-c6cc(S(=O)(=O)[O-])ccc6F)c6nc(c(-c7cc(S(=O)(=O)[O-])ccc7F)c7ccc4[nH]7)C=C6)C=C5)cc2)OCCO3)s1
REMARK SMILES IDX 19 1 18 2 16 3 17 4 15 5 10 6 11 7 12 8 14 9 13 10 90 11
REMARK SMILES IDX 87 12 89 13 88 14 9 15 6 17 7 18 8 19 5 20 1 21 2 22 3 23
REMARK SMILES IDX 91 24 4 25 20 26 21 27 22 28 23 29 24 30 25 31 86 32 26 33
REMARK SMILES IDX 85 34 27 35 28 36 29 37 79 38 30 39 84 40 78 41 80 42 31 43
REMARK SMILES IDX 83 44 77 45 76 46 32 48 64 49 44 50 63 51 45 52 48 53 62 54
REMARK SMILES IDX 81 55 46 56 47 57 61 59 82 60 49 61 33 62 34 63 42 64 35 65
REMARK SMILES IDX 41 66 43 67 40 68 36 69 37 70 38 71 39 72 65 73 66 74 74 75
REMARK SMILES IDX 67 76 73 77 75 78 72 79 68 80 69 81 70 82 71 83 50 84 51 85
REMARK SMILES IDX 59 86 52 87 58 88 60 89 57 90 53 91 54 92 55 93 56 94
REMARK H PARENT 9 16 80 47 48 58
REMARK Flexibility Score: inf
ROOT
ATOM      1  C   UNL A   1      32.376  29.728  25.237  1.00  0.00     0.275 C 
ENDROOT
BRANCH   1   2
ATOM      2  O   UNL A   1      33.008  28.560  25.812  1.00  0.00    -0.458 OA
BRANCH   2   3
ATOM      3  C   UNL A   1      33.463  27.655  24.910  1.00  0.00     0.340 C 
ATOM      4  O   UNL A   1      33.975  27.904  23.830  1.00  0.00    -0.246 OA
BRANCH   3   5
ATOM      5  C   UNL A   1      33.105  26.273  25.279  1.00  0.00     0.088 A 
ATOM      6  C   UNL A   1      31.866  25.958  25.864  1.00  0.00     0.067 A 
ATOM      7  C   UNL A   1      31.726  24.777  26.594  1.00  0.00     0.078 A 
ATOM      8  C   UNL A   1      32.754  23.846  26.604  1.00  0.00     0.163 A 
ATOM      9  C   UNL A   1      34.136  25.324  25.273  1.00  0.00     0.068 A 
ATOM     10  C   UNL A   1      33.926  24.087  25.880  1.00  0.00     0.162 A 
ATOM     11  O   UNL A   1      32.515  22.692  27.301  1.00  0.00    -0.486 OA
ATOM     12  O   UNL A   1      34.909  23.141  25.734  1.00  0.00    -0.486 OA
ATOM     13  C   UNL A   1      33.674  21.859  27.372  1.00  0.00     0.271 C 
ATOM     14  C   UNL A   1      34.384  21.836  26.029  1.00  0.00     0.271 C 
BRANCH   6  15
ATOM     15  N   UNL A   1      30.684  26.729  25.607  1.00  0.00    -0.278 N 
ATOM     16  H   UNL A   1      30.376  27.432  26.222  1.00  0.00     0.180 HD
BRANCH  15  17
ATOM     17  S   UNL A   1      29.835  26.345  24.149  1.00  0.00     0.271 S 
ATOM     18  O   UNL A   1      28.492  25.978  24.556  1.00  0.00    -0.200 OA
ATOM     19  O   UNL A   1      30.657  25.445  23.381  1.00  0.00    -0.200 OA
BRANCH  17  20
ATOM     20  C   UNL A   1      29.731  27.814  23.157  1.00  0.00     0.140 A 
ATOM     21  C   UNL A   1      28.111  31.240  22.286  1.00  0.00     0.056 C 
ATOM     22  C   UNL A   1      28.909  29.987  22.361  1.00  0.00     0.003 A 
ATOM     23  C   UNL A   1      30.218  29.770  21.991  1.00  0.00     0.016 A 
ATOM     24  S   UNL A   1      28.203  28.565  23.003  1.00  0.00    -0.127 S 
ATOM     25  C   UNL A   1      30.677  28.487  22.403  1.00  0.00     0.034 A 
ENDBRANCH  17  20
ENDBRANCH  15  17
ENDBRANCH   6  15
ENDBRANCH   3   5
ENDBRANCH   2   3
ENDBRANCH   1   2
BRANCH   1  26
ATOM     26  C   UNL A   1      31.903  30.728  26.292  1.00  0.00     0.275 C 
BRANCH  26  27
ATOM     27  O   UNL A   1      32.711  30.631  27.482  1.00  0.00    -0.458 OA
BRANCH  27  28
ATOM     28  C   UNL A   1      33.585  31.654  27.614  1.00  0.00     0.338 C 
ATOM     29  O   UNL A   1      33.300  32.838  27.561  1.00  0.00    -0.246 OA
BRANCH  28  30
ATOM     30  C   UNL A   1      34.960  31.218  27.882  1.00  0.00     0.060 A 
ATOM     31  C   UNL A   1      35.189  29.906  28.273  1.00  0.00     0.016 A 
ATOM     32  C   UNL A   1      35.959  32.183  28.047  1.00  0.00     0.016 A 
ATOM     33  C   UNL A   1      36.354  29.597  28.969  1.00  0.00     0.010 A 
ATOM     34  C   UNL A   1      37.185  31.832  28.625  1.00  0.00     0.010 A 
ATOM     35  C   UNL A   1      37.386  30.540  29.130  1.00  0.00    -0.014 A 
BRANCH  35  36
ATOM     36  C   UNL A   1      38.668  30.129  29.777  1.00  0.00     0.031 A 
ATOM     37  C   UNL A   1      39.619  29.148  29.132  1.00  0.00     0.074 A 
ATOM     38  C   UNL A   1      38.993  30.686  30.962  1.00  0.00     0.049 A 
ATOM     39  N   UNL A   1      40.694  28.592  29.638  1.00  0.00    -0.248 NA
ATOM     40  C   UNL A   1      39.340  28.742  27.746  1.00  0.00     0.031 C 
ATOM     41  C   UNL A   1      38.190  31.688  31.671  1.00  0.00     0.029 A 
ATOM     42  N   UNL A   1      40.084  30.509  31.778  1.00  0.00    -0.354 N 
ATOM     43  C   UNL A   1      41.201  27.750  28.651  1.00  0.00     0.074 A 
ATOM     44  C   UNL A   1      40.317  27.872  27.511  1.00  0.00     0.031 C 
ATOM     45  C   UNL A   1      38.842  32.086  32.767  1.00  0.00     0.029 A 
ATOM     46  C   UNL A   1      40.019  31.250  32.934  1.00  0.00     0.049 A 
ATOM     47  H   UNL A   1      40.836  29.914  31.556  1.00  0.00     0.167 HD
ATOM     48  C   UNL A   1      42.291  26.942  28.705  1.00  0.00     0.034 A 
ATOM     49  C   UNL A   1      40.756  31.207  34.060  1.00  0.00     0.034 A 
ATOM     50  C   UNL A   1      43.162  26.842  29.859  1.00  0.00     0.049 A 
ATOM     51  C   UNL A   1      41.873  30.215  34.147  1.00  0.00     0.074 A 
ATOM     52  C   UNL A   1      44.304  26.071  30.013  1.00  0.00     0.029 A 
ATOM     53  N   UNL A   1      42.984  27.519  31.059  1.00  0.00    -0.354 N 
ATOM     54  N   UNL A   1      42.293  29.369  33.236  1.00  0.00    -0.248 NA
ATOM     55  C   UNL A   1      42.596  30.152  35.420  1.00  0.00     0.031 C 
ATOM     56  C   UNL A   1      44.764  26.219  31.327  1.00  0.00     0.029 A 
ATOM     57  C   UNL A   1      43.964  27.148  31.972  1.00  0.00     0.049 A 
ATOM     58  H   UNL A   1      42.267  28.170  31.238  1.00  0.00     0.167 HD
ATOM     59  C   UNL A   1      43.333  28.665  33.830  1.00  0.00     0.074 A 
ATOM     60  C   UNL A   1      43.493  29.210  35.165  1.00  0.00     0.031 C 
ATOM     61  C   UNL A   1      44.084  27.658  33.318  1.00  0.00     0.034 A 
BRANCH  48  62
ATOM     62  C   UNL A   1      42.573  26.033  27.528  1.00  0.00     0.023 A 
ATOM     63  C   UNL A   1      42.140  24.695  27.474  1.00  0.00     0.031 A 
ATOM     64  C   UNL A   1      43.252  26.548  26.406  1.00  0.00     0.131 A 
ATOM     65  C   UNL A   1      42.411  23.916  26.333  1.00  0.00     0.055 A 
ATOM     66  C   UNL A   1      43.470  25.786  25.256  1.00  0.00     0.041 A 
ATOM     67  F   UNL A   1      43.705  27.811  26.403  1.00  0.00    -0.206 F 
ATOM     68  C   UNL A   1      43.054  24.460  25.217  1.00  0.00     0.022 A 
BRANCH  65  69
ATOM     69  S   UNL A   1      41.986  22.151  26.345  1.00  0.00     0.124 S 
ATOM     70  O   UNL A   1      40.538  22.188  26.159  1.00  0.00    -0.237 OA
ATOM     71  O   UNL A   1      42.763  21.632  25.227  1.00  0.00    -0.237 OA
ATOM     72  O   UNL A   1      42.423  21.701  27.667  1.00  0.00    -0.744 OA
ENDBRANCH  65  69
ENDBRANCH  48  62
BRANCH  49  73
ATOM     73  C   UNL A   1      40.356  32.042  35.228  1.00  0.00     0.023 A 
ATOM     74  C   UNL A   1      39.337  31.638  36.101  1.00  0.00     0.031 A 
ATOM     75  C   UNL A   1      41.017  33.257  35.497  1.00  0.00     0.131 A 
ATOM     76  C   UNL A   1      39.007  32.445  37.201  1.00  0.00     0.055 A 
ATOM     77  C   UNL A   1      40.729  34.022  36.625  1.00  0.00     0.041 A 
ATOM     78  F   UNL A   1      41.996  33.693  34.687  1.00  0.00    -0.206 F 
ATOM     79  C   UNL A   1      39.712  33.620  37.482  1.00  0.00     0.022 A 
BRANCH  76  80
ATOM     80  S   UNL A   1      37.596  31.970  38.235  1.00  0.00     0.124 S 
ATOM     81  O   UNL A   1      37.304  30.629  37.742  1.00  0.00    -0.237 OA
ATOM     82  O   UNL A   1      38.163  32.051  39.577  1.00  0.00    -0.237 OA
ATOM     83  O   UNL A   1      36.591  32.983  37.924  1.00  0.00    -0.744 OA
ENDBRANCH  76  80
ENDBRANCH  49  73
BRANCH  61  84
ATOM     84  C   UNL A   1      45.157  27.105  34.219  1.00  0.00     0.023 A 
ATOM     85  C   UNL A   1      44.872  26.108  35.170  1.00  0.00     0.031 A 
ATOM     86  C   UNL A   1      46.460  27.630  34.181  1.00  0.00     0.131 A 
ATOM     87  C   UNL A   1      45.855  25.719  36.090  1.00  0.00     0.055 A 
ATOM     88  C   UNL A   1      47.453  27.191  35.057  1.00  0.00     0.041 A 
ATOM     89  F   UNL A   1      46.784  28.591  33.300  1.00  0.00    -0.206 F 
ATOM     90  C   UNL A   1      47.149  26.243  36.030  1.00  0.00     0.022 A 
BRANCH  87  91
ATOM     91  S   UNL A   1      45.388  24.606  37.445  1.00  0.00     0.124 S 
ATOM     92  O   UNL A   1      45.679  23.296  36.872  1.00  0.00    -0.237 OA
ATOM     93  O   UNL A   1      46.267  25.040  38.525  1.00  0.00    -0.237 OA
ATOM     94  O   UNL A   1      43.968  24.891  37.648  1.00  0.00    -0.744 OA
ENDBRANCH  87  91
ENDBRANCH  61  84
ENDBRANCH  35  36
ENDBRANCH  28  30
ENDBRANCH  27  28
ENDBRANCH  26  27
ENDBRANCH   1  26
TORSDOF 17
ENDMDL
MODEL 3
REMARK VINA RESULT:     -12.2      1.347      1.571
REMARK SMILES Cc1ccc(S(=O)(=O)Nc2cc3c(cc2C(=O)OCCOC(=O)c2ccc(-c4c5nc(c(-c6cc(S(=O)(=O)[O-])ccc6F)c6ccc([nH]6)c(-c6cc(S(=O)(=O)[O-])ccc6F)c6nc(c(-c7cc(S(=O)(=O)[O-])ccc7F)c7ccc4[nH]7)C=C6)C=C5)cc2)OCCO3)s1
REMARK SMILES IDX 19 1 18 2 16 3 17 4 15 5 10 6 11 7 12 8 14 9 13 10 90 11
REMARK SMILES IDX 87 12 89 13 88 14 9 15 6 17 7 18 8 19 5 20 1 21 2 22 3 23
REMARK SMILES IDX 91 24 4 25 20 26 21 27 22 28 23 29 24 30 25 31 86 32 26 33
REMARK SMILES IDX 85 34 27 35 28 36 29 37 79 38 30 39 84 40 78 41 80 42 31 43
REMARK SMILES IDX 83 44 77 45 76 46 32 48 64 49 44 50 63 51 45 52 48 53 62 54
REMARK SMILES IDX 81 55 46 56 47 57 61 59 82 60 49 61 33 62 34 63 42 64 35 65
REMARK SMILES IDX 41 66 43 67 40 68 36 69 37 70 38 71 39 72 65 73 66 74 74 75
REMARK SMILES IDX 67 76 73 77 75 78 72 79 68 80 69 81 70 82 71 83 50 84 51 85
REMARK SMILES IDX 59 86 52 87 58 88 60 89 57 90 53 91 54 92 55 93 56 94
REMARK H PARENT 9 16 80 47 48 58
REMARK Flexibility Score: inf
ROOT
ATOM      1  C   UNL A   1      35.720  21.247  25.746  1.00  0.00     0.275 C 
ENDROOT
BRANCH   1   2
ATOM      2  O   UNL A   1      35.747  22.689  25.622  1.00  0.00    -0.458 OA
BRANCH   2   3
ATOM      3  C   UNL A   1      34.665  23.327  26.131  1.00  0.00     0.340 C 
ATOM      4  O   UNL A   1      34.120  23.089  27.197  1.00  0.00    -0.246 OA
BRANCH   3   5
ATOM      5  C   UNL A   1      34.059  24.256  25.160  1.00  0.00     0.088 A 
ATOM      6  C   UNL A   1      33.973  23.948  23.791  1.00  0.00     0.067 A 
ATOM      7  C   UNL A   1      33.822  24.975  22.859  1.00  0.00     0.078 A 
ATOM      8  C   UNL A   1      33.595  26.273  23.293  1.00  0.00     0.163 A 
ATOM      9  C   UNL A   1      33.810  25.564  25.598  1.00  0.00     0.068 A 
ATOM     10  C   UNL A   1      33.512  26.551  24.660  1.00  0.00     0.162 A 
ATOM     11  O   UNL A   1      33.405  27.211  22.313  1.00  0.00    -0.486 OA
ATOM     12  O   UNL A   1      33.144  27.782  25.140  1.00  0.00    -0.486 OA
ATOM     13  C   UNL A   1      33.319  28.533  22.847  1.00  0.00     0.271 C 
ATOM     14  C   UNL A   1      32.476  28.532  24.112  1.00  0.00     0.271 C 
BRANCH   6  15
ATOM     15  N   UNL A   1      33.874  22.598  23.319  1.00  0.00    -0.278 N 
ATOM     16  H   UNL A   1      34.654  22.107  22.973  1.00  0.00     0.180 HD
BRANCH  15  17
ATOM     17  S   UNL A   1      32.300  21.884  23.396  1.00  0.00     0.271 S 
ATOM     18  O   UNL A   1      31.852  21.759  22.022  1.00  0.00    -0.200 OA
ATOM     19  O   UNL A   1      31.530  22.614  24.371  1.00  0.00    -0.200 OA
BRANCH  17  20
ATOM     20  C   UNL A   1      32.456  20.252  24.078  1.00  0.00     0.140 A 
ATOM     21  C   UNL A   1      33.587  16.540  23.828  1.00  0.00     0.056 C 
ATOM     22  C   UNL A   1      33.038  17.869  24.206  1.00  0.00     0.003 A 
ATOM     23  C   UNL A   1      32.920  18.434  25.457  1.00  0.00     0.016 A 
ATOM     24  S   UNL A   1      32.467  18.932  22.991  1.00  0.00    -0.127 S 
ATOM     25  C   UNL A   1      32.528  19.800  25.384  1.00  0.00     0.034 A 
ENDBRANCH  17  20
ENDBRANCH  15  17
ENDBRANCH   6  15
ENDBRANCH   3   5
ENDBRANCH   2   3
ENDBRANCH   1   2
BRANCH   1  26
ATOM     26  C   UNL A   1      36.869  20.564  25.006  1.00  0.00     0.275 C 
BRANCH  26  27
ATOM     27  O   UNL A   1      38.002  21.448  24.899  1.00  0.00    -0.458 OA
BRANCH  27  28
ATOM     28  C   UNL A   1      38.967  21.186  25.808  1.00  0.00     0.338 C 
ATOM     29  O   UNL A   1      39.479  20.097  25.999  1.00  0.00    -0.246 OA
BRANCH  28  30
ATOM     30  C   UNL A   1      39.409  22.371  26.553  1.00  0.00     0.060 A 
ATOM     31  C   UNL A   1      38.959  23.623  26.158  1.00  0.00     0.016 A 
ATOM     32  C   UNL A   1      40.497  22.259  27.423  1.00  0.00     0.016 A 
ATOM     33  C   UNL A   1      39.693  24.751  26.510  1.00  0.00     0.010 A 
ATOM     34  C   UNL A   1      41.148  23.410  27.884  1.00  0.00     0.010 A 
ATOM     35  C   UNL A   1      40.778  24.673  27.403  1.00  0.00    -0.014 A 
BRANCH  35  36
ATOM     36  C   UNL A   1      41.461  25.925  27.848  1.00  0.00     0.031 A 
ATOM     37  C   UNL A   1      40.761  26.974  28.681  1.00  0.00     0.074 A 
ATOM     38  C   UNL A   1      42.757  26.099  27.517  1.00  0.00     0.049 A 
ATOM     39  N   UNL A   1      41.181  28.169  29.018  1.00  0.00    -0.248 NA
ATOM     40  C   UNL A   1      39.429  26.643  29.210  1.00  0.00     0.031 C 
ATOM     41  C   UNL A   1      43.569  25.140  26.760  1.00  0.00     0.029 A 
ATOM     42  N   UNL A   1      43.630  27.125  27.780  1.00  0.00    -0.354 N 
ATOM     43  C   UNL A   1      40.158  28.746  29.768  1.00  0.00     0.074 A 
ATOM     44  C   UNL A   1      39.097  27.764  29.842  1.00  0.00     0.031 C 
ATOM     45  C   UNL A   1      44.826  25.585  26.683  1.00  0.00     0.029 A 
ATOM     46  C   UNL A   1      44.875  26.932  27.227  1.00  0.00     0.049 A 
ATOM     47  H   UNL A   1      43.390  27.918  28.311  1.00  0.00     0.167 HD
ATOM     48  C   UNL A   1      40.111  29.984  30.324  1.00  0.00     0.034 A 
ATOM     49  C   UNL A   1      45.920  27.766  27.074  1.00  0.00     0.034 A 
ATOM     50  C   UNL A   1      41.190  30.946  30.239  1.00  0.00     0.049 A 
ATOM     51  C   UNL A   1      45.795  29.170  27.580  1.00  0.00     0.074 A 
ATOM     52  C   UNL A   1      41.255  32.221  30.782  1.00  0.00     0.029 A 
ATOM     53  N   UNL A   1      42.386  30.753  29.558  1.00  0.00    -0.354 N 
ATOM     54  N   UNL A   1      44.792  29.726  28.218  1.00  0.00    -0.248 NA
ATOM     55  C   UNL A   1      46.927  30.063  27.322  1.00  0.00     0.031 C 
ATOM     56  C   UNL A   1      42.448  32.822  30.361  1.00  0.00     0.029 A 
ATOM     57  C   UNL A   1      43.171  31.897  29.626  1.00  0.00     0.049 A 
ATOM     58  H   UNL A   1      42.641  29.923  29.094  1.00  0.00     0.167 HD
ATOM     59  C   UNL A   1      45.173  31.044  28.435  1.00  0.00     0.074 A 
ATOM     60  C   UNL A   1      46.509  31.186  27.888  1.00  0.00     0.031 C 
ATOM     61  C   UNL A   1      44.479  32.046  29.032  1.00  0.00     0.034 A 
BRANCH  48  62
ATOM     62  C   UNL A   1      38.830  30.419  31.005  1.00  0.00     0.023 A 
ATOM     63  C   UNL A   1      37.801  31.103  30.333  1.00  0.00     0.031 A 
ATOM     64  C   UNL A   1      38.622  30.087  32.359  1.00  0.00     0.131 A 
ATOM     65  C   UNL A   1      36.623  31.449  31.022  1.00  0.00     0.055 A 
ATOM     66  C   UNL A   1      37.429  30.386  33.021  1.00  0.00     0.041 A 
ATOM     67  F   UNL A   1      39.573  29.451  33.059  1.00  0.00    -0.206 F 
ATOM     68  C   UNL A   1      36.424  31.076  32.354  1.00  0.00     0.022 A 
BRANCH  65  69
ATOM     69  S   UNL A   1      35.374  32.468  30.184  1.00  0.00     0.124 S 
ATOM     70  O   UNL A   1      34.339  32.577  31.208  1.00  0.00    -0.237 OA
ATOM     71  O   UNL A   1      36.113  33.689  29.886  1.00  0.00    -0.237 OA
ATOM     72  O   UNL A   1      35.003  31.667  29.018  1.00  0.00    -0.744 OA
ENDBRANCH  65  69
ENDBRANCH  48  62
BRANCH  49  73
ATOM     73  C   UNL A   1      47.106  27.318  26.291  1.00  0.00     0.023 A 
ATOM     74  C   UNL A   1      47.263  27.661  24.942  1.00  0.00     0.031 A 
ATOM     75  C   UNL A   1      48.117  26.551  26.903  1.00  0.00     0.131 A 
ATOM     76  C   UNL A   1      48.407  27.235  24.247  1.00  0.00     0.055 A 
ATOM     77  C   UNL A   1      49.279  26.185  26.227  1.00  0.00     0.041 A 
ATOM     78  F   UNL A   1      48.010  26.189  28.192  1.00  0.00    -0.206 F 
ATOM     79  C   UNL A   1      49.425  26.522  24.887  1.00  0.00     0.022 A 
BRANCH  76  80
ATOM     80  S   UNL A   1      48.521  27.575  22.471  1.00  0.00     0.124 S 
ATOM     81  O   UNL A   1      49.758  28.344  22.394  1.00  0.00    -0.237 OA
ATOM     82  O   UNL A   1      48.566  26.229  21.908  1.00  0.00    -0.237 OA
ATOM     83  O   UNL A   1      47.301  28.325  22.189  1.00  0.00    -0.744 OA
ENDBRANCH  76  80
ENDBRANCH  49  73
BRANCH  61  84
ATOM     84  C   UNL A   1      45.181  33.376  29.127  1.00  0.00     0.023 A 
ATOM     85  C   UNL A   1      45.286  34.229  28.013  1.00  0.00     0.031 A 
ATOM     86  C   UNL A   1      45.816  33.762  30.319  1.00  0.00     0.131 A 
ATOM     87  C   UNL A   1      46.069  35.389  28.094  1.00  0.00     0.055 A 
ATOM     88  C   UNL A   1      46.539  34.952  30.413  1.00  0.00     0.041 A 
ATOM     89  F   UNL A   1      45.755  32.981  31.410  1.00  0.00    -0.206 F 
ATOM     90  C   UNL A   1      46.683  35.765  29.292  1.00  0.00     0.022 A 
BRANCH  87  91
ATOM     91  S   UNL A   1      46.373  36.341  26.579  1.00  0.00     0.124 S 
ATOM     92  O   UNL A   1      45.492  37.490  26.763  1.00  0.00    -0.237 OA
ATOM     93  O   UNL A   1      47.804  36.614  26.662  1.00  0.00    -0.237 OA
ATOM     94  O   UNL A   1      45.978  35.423  25.513  1.00  0.00    -0.744 OA
ENDBRANCH  87  91
ENDBRANCH  61  84
ENDBRANCH  35  36
ENDBRANCH  28  30
ENDBRANCH  27  28
ENDBRANCH  26  27
ENDBRANCH   1  26
TORSDOF 17
ENDMDL
