MODEL 1
REMARK VINA RESULT:      -9.7      0.000      0.000
REMARK SMILES O=C(OCCOC(=O)c1ccc2nc(C3CCCCC3)[nH]c2c1)c1ccc(-c2c3nc(c(-c4cc(S(=O)(=O)[O-])ccc4F)c4ccc([nH]4)c(-c4cc(S(=O)(=O)[O-])ccc4F)c4nc(c(-c5cc(S(=O)(=O)[O-])ccc5F)c5ccc2[nH]5)C=C4)C=C3)cc1
REMARK SMILES IDX 4 1 3 2 2 3 1 4 24 5 25 6 86 7 26 8 85 9 27 10 28 11 29 12
REMARK SMILES IDX 79 13 30 14 84 15 78 16 80 17 31 18 83 19 77 20 76 21 32 23
REMARK SMILES IDX 64 24 44 25 63 26 45 27 48 28 62 29 81 30 46 31 47 32 61 34
REMARK SMILES IDX 82 35 49 36 33 37 34 38 42 39 35 40 41 41 43 42 40 43 36 44
REMARK SMILES IDX 37 45 38 46 39 47 65 48 66 49 74 50 67 51 73 52 75 53 72 54
REMARK SMILES IDX 68 55 69 56 70 57 71 58 50 59 51 60 59 61 52 62 58 63 60 64
REMARK SMILES IDX 57 65 53 66 54 67 55 68 56 69 5 70 6 71 7 72 8 73 9 74 10 75
REMARK SMILES IDX 23 76 11 77 22 78 12 79 21 80 13 81 14 82 15 84 16 85 20 86
REMARK SMILES IDX 17 87 19 88 18 89
REMARK H PARENT 80 22 48 33 21 83
REMARK Flexibility Score: inf
ROOT
ATOM      1  C   UNL A   1      33.380  35.885  28.868  1.00  0.00     0.275 C 
ENDROOT
BRANCH   1   2
ATOM      2  O   UNL A   1      32.948  34.779  28.055  1.00  0.00    -0.458 OA
BRANCH   2   3
ATOM      3  C   UNL A   1      33.394  33.501  28.009  1.00  0.00     0.338 C 
ATOM      4  O   UNL A   1      32.586  32.604  27.767  1.00  0.00    -0.246 OA
BRANCH   3   5
ATOM      5  C   UNL A   1      34.783  33.097  28.388  1.00  0.00     0.060 A 
ATOM      6  C   UNL A   1      35.953  33.783  28.060  1.00  0.00     0.016 A 
ATOM      7  C   UNL A   1      34.906  31.908  29.131  1.00  0.00     0.016 A 
ATOM      8  C   UNL A   1      37.192  33.363  28.550  1.00  0.00     0.010 A 
ATOM      9  C   UNL A   1      36.140  31.488  29.637  1.00  0.00     0.010 A 
ATOM     10  C   UNL A   1      37.292  32.224  29.353  1.00  0.00    -0.014 A 
BRANCH  10  11
ATOM     11  C   UNL A   1      38.629  31.755  29.780  1.00  0.00     0.031 A 
ATOM     12  C   UNL A   1      39.328  32.493  30.882  1.00  0.00     0.074 A 
ATOM     13  C   UNL A   1      39.163  30.642  29.243  1.00  0.00     0.049 A 
ATOM     14  N   UNL A   1      40.450  32.203  31.487  1.00  0.00    -0.248 NA
ATOM     15  C   UNL A   1      38.658  33.700  31.393  1.00  0.00     0.031 C 
ATOM     16  C   UNL A   1      38.529  29.821  28.212  1.00  0.00     0.029 A 
ATOM     17  N   UNL A   1      40.354  30.008  29.481  1.00  0.00    -0.354 N 
ATOM     18  C   UNL A   1      40.588  33.153  32.490  1.00  0.00     0.074 A 
ATOM     19  C   UNL A   1      39.484  34.080  32.355  1.00  0.00     0.031 C 
ATOM     20  C   UNL A   1      39.359  28.822  27.868  1.00  0.00     0.029 A 
ATOM     21  C   UNL A   1      40.578  28.925  28.662  1.00  0.00     0.049 A 
ATOM     22  H   UNL A   1      40.992  30.300  30.173  1.00  0.00     0.167 HD
ATOM     23  C   UNL A   1      41.528  33.219  33.463  1.00  0.00     0.034 A 
ATOM     24  C   UNL A   1      41.650  28.114  28.565  1.00  0.00     0.034 A 
ATOM     25  C   UNL A   1      42.651  32.321  33.538  1.00  0.00     0.049 A 
ATOM     26  C   UNL A   1      42.771  28.309  29.556  1.00  0.00     0.074 A 
ATOM     27  C   UNL A   1      43.697  32.315  34.442  1.00  0.00     0.029 A 
ATOM     28  N   UNL A   1      42.884  31.275  32.652  1.00  0.00    -0.354 N 
ATOM     29  N   UNL A   1      42.868  29.186  30.530  1.00  0.00    -0.248 NA
ATOM     30  C   UNL A   1      43.904  27.381  29.466  1.00  0.00     0.031 C 
ATOM     31  C   UNL A   1      44.591  31.304  34.067  1.00  0.00     0.029 A 
ATOM     32  C   UNL A   1      44.071  30.634  32.970  1.00  0.00     0.049 A 
ATOM     33  H   UNL A   1      42.292  31.026  31.906  1.00  0.00     0.167 HD
ATOM     34  C   UNL A   1      44.051  28.885  31.197  1.00  0.00     0.074 A 
ATOM     35  C   UNL A   1      44.621  27.736  30.521  1.00  0.00     0.031 C 
ATOM     36  C   UNL A   1      44.616  29.492  32.273  1.00  0.00     0.034 A 
BRANCH  23  37
ATOM     37  C   UNL A   1      41.370  34.319  34.481  1.00  0.00     0.023 A 
ATOM     38  C   UNL A   1      40.750  34.076  35.721  1.00  0.00     0.031 A 
ATOM     39  C   UNL A   1      41.772  35.632  34.190  1.00  0.00     0.131 A 
ATOM     40  C   UNL A   1      40.484  35.142  36.592  1.00  0.00     0.055 A 
ATOM     41  C   UNL A   1      41.569  36.677  35.093  1.00  0.00     0.041 A 
ATOM     42  F   UNL A   1      42.343  35.926  33.011  1.00  0.00    -0.206 F 
ATOM     43  C   UNL A   1      40.910  36.438  36.296  1.00  0.00     0.022 A 
BRANCH  40  44
ATOM     44  S   UNL A   1      39.458  34.834  38.057  1.00  0.00     0.124 S 
ATOM     45  O   UNL A   1      38.333  34.101  37.480  1.00  0.00    -0.237 OA
ATOM     46  O   UNL A   1      40.349  34.061  38.913  1.00  0.00    -0.237 OA
ATOM     47  O   UNL A   1      39.137  36.176  38.539  1.00  0.00    -0.744 OA
ENDBRANCH  40  44
ENDBRANCH  23  37
BRANCH  24  48
ATOM     48  C   UNL A   1      41.733  27.069  27.503  1.00  0.00     0.023 A 
ATOM     49  C   UNL A   1      41.322  25.747  27.733  1.00  0.00     0.031 A 
ATOM     50  C   UNL A   1      42.305  27.368  26.251  1.00  0.00     0.131 A 
ATOM     51  C   UNL A   1      41.544  24.761  26.757  1.00  0.00     0.055 A 
ATOM     52  C   UNL A   1      42.479  26.395  25.265  1.00  0.00     0.041 A 
ATOM     53  F   UNL A   1      42.710  28.616  25.970  1.00  0.00    -0.206 F 
ATOM     54  C   UNL A   1      42.114  25.077  25.521  1.00  0.00     0.022 A 
BRANCH  51  55
ATOM     55  S   UNL A   1      41.176  23.031  27.164  1.00  0.00     0.124 S 
ATOM     56  O   UNL A   1      39.734  23.071  27.374  1.00  0.00    -0.237 OA
ATOM     57  O   UNL A   1      41.632  22.338  25.963  1.00  0.00    -0.237 OA
ATOM     58  O   UNL A   1      41.975  22.787  28.364  1.00  0.00    -0.744 OA
ENDBRANCH  51  55
ENDBRANCH  24  48
BRANCH  36  59
ATOM     59  C   UNL A   1      45.890  28.881  32.797  1.00  0.00     0.023 A 
ATOM     60  C   UNL A   1      45.874  27.858  33.760  1.00  0.00     0.031 A 
ATOM     61  C   UNL A   1      47.137  29.354  32.350  1.00  0.00     0.131 A 
ATOM     62  C   UNL A   1      47.079  27.392  34.301  1.00  0.00     0.055 A 
ATOM     63  C   UNL A   1      48.335  28.836  32.843  1.00  0.00     0.041 A 
ATOM     64  F   UNL A   1      47.209  30.331  31.432  1.00  0.00    -0.206 F 
ATOM     65  C   UNL A   1      48.310  27.861  33.836  1.00  0.00     0.022 A 
BRANCH  62  66
ATOM     66  S   UNL A   1      47.012  26.242  35.701  1.00  0.00     0.124 S 
ATOM     67  O   UNL A   1      45.796  26.670  36.385  1.00  0.00    -0.237 OA
ATOM     68  O   UNL A   1      46.947  24.944  35.036  1.00  0.00    -0.237 OA
ATOM     69  O   UNL A   1      48.256  26.507  36.421  1.00  0.00    -0.744 OA
ENDBRANCH  62  66
ENDBRANCH  36  59
ENDBRANCH  10  11
ENDBRANCH   3   5
ENDBRANCH   2   3
ENDBRANCH   1   2
BRANCH   1  70
ATOM     70  C   UNL A   1      32.882  35.872  30.316  1.00  0.00     0.275 C 
BRANCH  70  71
ATOM     71  O   UNL A   1      33.856  35.401  31.257  1.00  0.00    -0.458 OA
BRANCH  71  72
ATOM     72  C   UNL A   1      33.348  34.948  32.432  1.00  0.00     0.338 C 
ATOM     73  O   UNL A   1      32.191  35.017  32.808  1.00  0.00    -0.246 OA
BRANCH  72  74
ATOM     74  C   UNL A   1      34.400  34.204  33.154  1.00  0.00     0.062 A 
ATOM     75  C   UNL A   1      35.051  34.768  34.256  1.00  0.00     0.018 A 
ATOM     76  C   UNL A   1      34.745  32.935  32.660  1.00  0.00     0.044 A 
ATOM     77  C   UNL A   1      36.104  34.083  34.881  1.00  0.00     0.031 A 
ATOM     78  C   UNL A   1      35.837  32.312  33.268  1.00  0.00     0.066 A 
ATOM     79  C   UNL A   1      36.516  32.850  34.354  1.00  0.00     0.089 A 
ATOM     80  N   UNL A   1      36.521  31.158  32.981  1.00  0.00    -0.342 N 
ATOM     81  N   UNL A   1      37.545  32.031  34.737  1.00  0.00    -0.233 NA
ATOM     82  C   UNL A   1      37.543  31.023  33.891  1.00  0.00     0.110 A 
ATOM     83  H   UNL A   1      36.314  30.533  32.249  1.00  0.00     0.168 HD
BRANCH  82  84
ATOM     84  C   UNL A   1      38.484  29.855  33.915  1.00  0.00     0.055 C 
ATOM     85  C   UNL A   1      38.590  29.212  32.525  1.00  0.00     0.011 C 
ATOM     86  C   UNL A   1      39.868  30.235  34.462  1.00  0.00     0.011 C 
ATOM     87  C   UNL A   1      39.543  28.022  32.524  1.00  0.00     0.001 C 
ATOM     88  C   UNL A   1      40.822  29.039  34.447  1.00  0.00     0.001 C 
ATOM     89  C   UNL A   1      40.918  28.409  33.061  1.00  0.00     0.000 C 
ENDBRANCH  82  84
ENDBRANCH  72  74
ENDBRANCH  71  72
ENDBRANCH  70  71
ENDBRANCH   1  70
TORSDOF 15
ENDMDL
MODEL 2
REMARK VINA RESULT:      -9.5      4.796      6.949
REMARK SMILES O=C(OCCOC(=O)c1ccc2nc(C3CCCCC3)[nH]c2c1)c1ccc(-c2c3nc(c(-c4cc(S(=O)(=O)[O-])ccc4F)c4ccc([nH]4)c(-c4cc(S(=O)(=O)[O-])ccc4F)c4nc(c(-c5cc(S(=O)(=O)[O-])ccc5F)c5ccc2[nH]5)C=C4)C=C3)cc1
REMARK SMILES IDX 4 1 3 2 2 3 1 4 24 5 25 6 86 7 26 8 85 9 27 10 28 11 29 12
REMARK SMILES IDX 79 13 30 14 84 15 78 16 80 17 31 18 83 19 77 20 76 21 32 23
REMARK SMILES IDX 64 24 44 25 63 26 45 27 48 28 62 29 81 30 46 31 47 32 61 34
REMARK SMILES IDX 82 35 49 36 33 37 34 38 42 39 35 40 41 41 43 42 40 43 36 44
REMARK SMILES IDX 37 45 38 46 39 47 65 48 66 49 74 50 67 51 73 52 75 53 72 54
REMARK SMILES IDX 68 55 69 56 70 57 71 58 50 59 51 60 59 61 52 62 58 63 60 64
REMARK SMILES IDX 57 65 53 66 54 67 55 68 56 69 5 70 6 71 7 72 8 73 9 74 10 75
REMARK SMILES IDX 23 76 11 77 22 78 12 79 21 80 13 81 14 82 15 84 16 85 20 86
REMARK SMILES IDX 17 87 19 88 18 89
REMARK H PARENT 80 22 48 33 21 83
REMARK Flexibility Score: inf
ROOT
ATOM      1  C   UNL A   1      32.266  30.015  27.199  1.00  0.00     0.275 C 
ENDROOT
BRANCH   1   2
ATOM      2  O   UNL A   1      33.438  30.802  26.912  1.00  0.00    -0.458 OA
BRANCH   2   3
ATOM      3  C   UNL A   1      34.278  31.456  27.749  1.00  0.00     0.338 C 
ATOM      4  O   UNL A   1      34.098  32.659  27.942  1.00  0.00    -0.246 OA
BRANCH   3   5
ATOM      5  C   UNL A   1      35.508  30.838  28.334  1.00  0.00     0.060 A 
ATOM      6  C   UNL A   1      35.539  29.853  29.321  1.00  0.00     0.016 A 
ATOM      7  C   UNL A   1      36.738  31.313  27.842  1.00  0.00     0.016 A 
ATOM      8  C   UNL A   1      36.747  29.280  29.725  1.00  0.00     0.010 A 
ATOM      9  C   UNL A   1      37.951  30.736  28.231  1.00  0.00     0.010 A 
ATOM     10  C   UNL A   1      37.958  29.705  29.173  1.00  0.00    -0.014 A 
BRANCH  10  11
ATOM     11  C   UNL A   1      39.226  29.142  29.687  1.00  0.00     0.031 A 
ATOM     12  C   UNL A   1      39.832  29.747  30.918  1.00  0.00     0.074 A 
ATOM     13  C   UNL A   1      39.775  28.060  29.104  1.00  0.00     0.049 A 
ATOM     14  N   UNL A   1      40.873  29.355  31.603  1.00  0.00    -0.248 NA
ATOM     15  C   UNL A   1      39.153  30.931  31.470  1.00  0.00     0.031 C 
ATOM     16  C   UNL A   1      39.224  27.364  27.942  1.00  0.00     0.029 A 
ATOM     17  N   UNL A   1      40.912  27.356  29.400  1.00  0.00    -0.354 N 
ATOM     18  C   UNL A   1      40.939  30.204  32.699  1.00  0.00     0.074 A 
ATOM     19  C   UNL A   1      39.887  31.186  32.542  1.00  0.00     0.031 C 
ATOM     20  C   UNL A   1      40.051  26.365  27.590  1.00  0.00     0.029 A 
ATOM     21  C   UNL A   1      41.183  26.343  28.509  1.00  0.00     0.049 A 
ATOM     22  H   UNL A   1      41.484  27.556  30.177  1.00  0.00     0.167 HD
ATOM     23  C   UNL A   1      41.774  30.142  33.764  1.00  0.00     0.034 A 
ATOM     24  C   UNL A   1      42.232  25.497  28.445  1.00  0.00     0.034 A 
ATOM     25  C   UNL A   1      42.852  29.192  33.866  1.00  0.00     0.049 A 
ATOM     26  C   UNL A   1      43.249  25.553  29.557  1.00  0.00     0.074 A 
ATOM     27  C   UNL A   1      43.797  29.059  34.866  1.00  0.00     0.029 A 
ATOM     28  N   UNL A   1      43.140  28.221  32.914  1.00  0.00    -0.354 N 
ATOM     29  N   UNL A   1      43.274  26.334  30.614  1.00  0.00    -0.248 NA
ATOM     30  C   UNL A   1      44.353  24.589  29.495  1.00  0.00     0.031 C 
ATOM     31  C   UNL A   1      44.691  28.048  34.490  1.00  0.00     0.029 A 
ATOM     32  C   UNL A   1      44.265  27.503  33.288  1.00  0.00     0.049 A 
ATOM     33  H   UNL A   1      42.621  28.066  32.092  1.00  0.00     0.167 HD
ATOM     34  C   UNL A   1      44.371  25.923  31.365  1.00  0.00     0.074 A 
ATOM     35  C   UNL A   1      44.968  24.816  30.645  1.00  0.00     0.031 C 
ATOM     36  C   UNL A   1      44.840  26.406  32.545  1.00  0.00     0.034 A 
BRANCH  23  37
ATOM     37  C   UNL A   1      41.548  31.150  34.859  1.00  0.00     0.023 A 
ATOM     38  C   UNL A   1      40.400  31.095  35.672  1.00  0.00     0.031 A 
ATOM     39  C   UNL A   1      42.442  32.216  35.051  1.00  0.00     0.131 A 
ATOM     40  C   UNL A   1      40.139  32.125  36.587  1.00  0.00     0.055 A 
ATOM     41  C   UNL A   1      42.213  33.200  36.015  1.00  0.00     0.041 A 
ATOM     42  F   UNL A   1      43.538  32.334  34.286  1.00  0.00    -0.206 F 
ATOM     43  C   UNL A   1      41.050  33.166  36.780  1.00  0.00     0.022 A 
BRANCH  40  44
ATOM     44  S   UNL A   1      38.531  32.155  37.428  1.00  0.00     0.124 S 
ATOM     45  O   UNL A   1      38.933  32.221  38.831  1.00  0.00    -0.237 OA
ATOM     46  O   UNL A   1      37.911  33.357  36.886  1.00  0.00    -0.237 OA
ATOM     47  O   UNL A   1      37.910  30.895  37.023  1.00  0.00    -0.744 OA
ENDBRANCH  40  44
ENDBRANCH  23  37
BRANCH  24  48
ATOM     48  C   UNL A   1      42.389  24.549  27.302  1.00  0.00     0.023 A 
ATOM     49  C   UNL A   1      41.739  23.305  27.280  1.00  0.00     0.031 A 
ATOM     50  C   UNL A   1      43.265  24.850  26.241  1.00  0.00     0.131 A 
ATOM     51  C   UNL A   1      42.021  22.384  26.257  1.00  0.00     0.055 A 
ATOM     52  C   UNL A   1      43.504  23.950  25.201  1.00  0.00     0.041 A 
ATOM     53  F   UNL A   1      43.908  26.028  26.204  1.00  0.00    -0.206 F 
ATOM     54  C   UNL A   1      42.894  22.700  25.214  1.00  0.00     0.022 A 
BRANCH  51  55
ATOM     55  S   UNL A   1      41.311  20.717  26.365  1.00  0.00     0.124 S 
ATOM     56  O   UNL A   1      42.242  19.940  25.556  1.00  0.00    -0.237 OA
ATOM     57  O   UNL A   1      41.350  20.469  27.803  1.00  0.00    -0.237 OA
ATOM     58  O   UNL A   1      39.974  20.878  25.798  1.00  0.00    -0.744 OA
ENDBRANCH  51  55
ENDBRANCH  24  48
BRANCH  36  59
ATOM     59  C   UNL A   1      46.031  25.695  33.134  1.00  0.00     0.023 A 
ATOM     60  C   UNL A   1      47.342  25.988  32.721  1.00  0.00     0.031 A 
ATOM     61  C   UNL A   1      45.847  24.688  34.099  1.00  0.00     0.131 A 
ATOM     62  C   UNL A   1      48.413  25.231  33.213  1.00  0.00     0.055 A 
ATOM     63  C   UNL A   1      46.925  23.985  34.637  1.00  0.00     0.041 A 
ATOM     64  F   UNL A   1      44.616  24.368  34.528  1.00  0.00    -0.206 F 
ATOM     65  C   UNL A   1      48.215  24.243  34.182  1.00  0.00     0.022 A 
BRANCH  62  66
ATOM     66  S   UNL A   1      50.055  25.480  32.487  1.00  0.00     0.124 S 
ATOM     67  O   UNL A   1      50.851  25.839  33.657  1.00  0.00    -0.237 OA
ATOM     68  O   UNL A   1      50.338  24.174  31.900  1.00  0.00    -0.237 OA
ATOM     69  O   UNL A   1      49.843  26.559  31.525  1.00  0.00    -0.744 OA
ENDBRANCH  62  66
ENDBRANCH  36  59
ENDBRANCH  10  11
ENDBRANCH   3   5
ENDBRANCH   2   3
ENDBRANCH   1   2
BRANCH   1  70
ATOM     70  C   UNL A   1      31.930  28.934  26.168  1.00  0.00     0.275 C 
BRANCH  70  71
ATOM     71  O   UNL A   1      32.625  27.699  26.381  1.00  0.00    -0.458 OA
BRANCH  71  72
ATOM     72  C   UNL A   1      31.830  26.604  26.491  1.00  0.00     0.338 C 
ATOM     73  O   UNL A   1      30.641  26.582  26.758  1.00  0.00    -0.246 OA
BRANCH  72  74
ATOM     74  C   UNL A   1      32.599  25.409  26.087  1.00  0.00     0.062 A 
ATOM     75  C   UNL A   1      33.861  25.532  25.496  1.00  0.00     0.018 A 
ATOM     76  C   UNL A   1      31.990  24.158  26.279  1.00  0.00     0.044 A 
ATOM     77  C   UNL A   1      34.542  24.393  25.042  1.00  0.00     0.031 A 
ATOM     78  C   UNL A   1      32.671  23.054  25.759  1.00  0.00     0.066 A 
ATOM     79  C   UNL A   1      33.918  23.143  25.153  1.00  0.00     0.089 A 
ATOM     80  N   UNL A   1      32.336  21.728  25.650  1.00  0.00    -0.342 N 
ATOM     81  N   UNL A   1      34.341  21.909  24.732  1.00  0.00    -0.233 NA
ATOM     82  C   UNL A   1      33.370  21.071  25.026  1.00  0.00     0.110 A 
ATOM     83  H   UNL A   1      31.499  21.318  25.966  1.00  0.00     0.168 HD
BRANCH  82  84
ATOM     84  C   UNL A   1      33.378  19.593  24.768  1.00  0.00     0.055 C 
ATOM     85  C   UNL A   1      32.561  19.255  23.513  1.00  0.00     0.011 C 
ATOM     86  C   UNL A   1      34.803  19.027  24.676  1.00  0.00     0.011 C 
ATOM     87  C   UNL A   1      32.556  17.757  23.229  1.00  0.00     0.001 C 
ATOM     88  C   UNL A   1      34.790  17.526  24.378  1.00  0.00     0.001 C 
ATOM     89  C   UNL A   1      33.974  17.204  23.130  1.00  0.00     0.000 C 
ENDBRANCH  82  84
ENDBRANCH  72  74
ENDBRANCH  71  72
ENDBRANCH  70  71
ENDBRANCH   1  70
TORSDOF 15
ENDMDL
MODEL 3
REMARK VINA RESULT:      -9.4      3.911      5.866
REMARK SMILES O=C(OCCOC(=O)c1ccc2nc(C3CCCCC3)[nH]c2c1)c1ccc(-c2c3nc(c(-c4cc(S(=O)(=O)[O-])ccc4F)c4ccc([nH]4)c(-c4cc(S(=O)(=O)[O-])ccc4F)c4nc(c(-c5cc(S(=O)(=O)[O-])ccc5F)c5ccc2[nH]5)C=C4)C=C3)cc1
REMARK SMILES IDX 4 1 3 2 2 3 1 4 24 5 25 6 86 7 26 8 85 9 27 10 28 11 29 12
REMARK SMILES IDX 79 13 30 14 84 15 78 16 80 17 31 18 83 19 77 20 76 21 32 23
REMARK SMILES IDX 64 24 44 25 63 26 45 27 48 28 62 29 81 30 46 31 47 32 61 34
REMARK SMILES IDX 82 35 49 36 33 37 34 38 42 39 35 40 41 41 43 42 40 43 36 44
REMARK SMILES IDX 37 45 38 46 39 47 65 48 66 49 74 50 67 51 73 52 75 53 72 54
REMARK SMILES IDX 68 55 69 56 70 57 71 58 50 59 51 60 59 61 52 62 58 63 60 64
REMARK SMILES IDX 57 65 53 66 54 67 55 68 56 69 5 70 6 71 7 72 8 73 9 74 10 75
REMARK SMILES IDX 23 76 11 77 22 78 12 79 21 80 13 81 14 82 15 84 16 85 20 86
REMARK SMILES IDX 17 87 19 88 18 89
REMARK H PARENT 80 22 48 33 21 83
REMARK Flexibility Score: inf
ROOT
ATOM      1  C   UNL A   1      31.419  32.162  27.162  1.00  0.00     0.275 C 
ENDROOT
BRANCH   1   2
ATOM      2  O   UNL A   1      32.171  33.387  27.077  1.00  0.00    -0.458 OA
BRANCH   2   3
ATOM      3  C   UNL A   1      32.953  33.998  27.999  1.00  0.00     0.338 C 
ATOM      4  O   UNL A   1      32.682  35.153  28.328  1.00  0.00    -0.246 OA
BRANCH   3   5
ATOM      5  C   UNL A   1      34.221  33.407  28.528  1.00  0.00     0.060 A 
ATOM      6  C   UNL A   1      35.512  33.732  28.109  1.00  0.00     0.016 A 
ATOM      7  C   UNL A   1      34.082  32.428  29.529  1.00  0.00     0.016 A 
ATOM      8  C   UNL A   1      36.630  33.183  28.743  1.00  0.00     0.010 A 
ATOM      9  C   UNL A   1      35.196  31.884  30.177  1.00  0.00     0.010 A 
ATOM     10  C   UNL A   1      36.481  32.270  29.789  1.00  0.00    -0.014 A 
BRANCH  10  11
ATOM     11  C   UNL A   1      37.683  31.640  30.378  1.00  0.00     0.031 A 
ATOM     12  C   UNL A   1      38.105  32.051  31.756  1.00  0.00     0.074 A 
ATOM     13  C   UNL A   1      38.332  30.662  29.716  1.00  0.00     0.049 A 
ATOM     14  N   UNL A   1      39.056  31.563  32.508  1.00  0.00    -0.248 NA
ATOM     15  C   UNL A   1      37.331  33.133  32.385  1.00  0.00     0.031 C 
ATOM     16  C   UNL A   1      37.957  30.151  28.399  1.00  0.00     0.029 A 
ATOM     17  N   UNL A   1      39.437  29.926  30.053  1.00  0.00    -0.354 N 
ATOM     18  C   UNL A   1      38.955  32.234  33.719  1.00  0.00     0.074 A 
ATOM     19  C   UNL A   1      37.909  33.224  33.572  1.00  0.00     0.031 C 
ATOM     20  C   UNL A   1      38.847  29.221  28.014  1.00  0.00     0.029 A 
ATOM     21  C   UNL A   1      39.849  29.063  29.063  1.00  0.00     0.049 A 
ATOM     22  H   UNL A   1      39.895  30.007  30.921  1.00  0.00     0.167 HD
ATOM     23  C   UNL A   1      39.643  32.012  34.864  1.00  0.00     0.034 A 
ATOM     24  C   UNL A   1      40.917  28.242  29.013  1.00  0.00     0.034 A 
ATOM     25  C   UNL A   1      40.721  31.063  34.966  1.00  0.00     0.049 A 
ATOM     26  C   UNL A   1      41.777  28.131  30.248  1.00  0.00     0.074 A 
ATOM     27  C   UNL A   1      41.529  30.782  36.052  1.00  0.00     0.029 A 
ATOM     28  N   UNL A   1      41.158  30.251  33.925  1.00  0.00    -0.354 N 
ATOM     29  N   UNL A   1      41.642  28.741  31.405  1.00  0.00    -0.248 NA
ATOM     30  C   UNL A   1      42.902  27.193  30.189  1.00  0.00     0.031 C 
ATOM     31  C   UNL A   1      42.489  29.845  35.651  1.00  0.00     0.029 A 
ATOM     32  C   UNL A   1      42.240  29.489  34.334  1.00  0.00     0.049 A 
ATOM     33  H   UNL A   1      40.755  30.221  33.027  1.00  0.00     0.167 HD
ATOM     34  C   UNL A   1      42.639  28.224  32.226  1.00  0.00     0.074 A 
ATOM     35  C   UNL A   1      43.354  27.243  31.433  1.00  0.00     0.031 C 
ATOM     36  C   UNL A   1      42.936  28.521  33.517  1.00  0.00     0.034 A 
BRANCH  23  37
ATOM     37  C   UNL A   1      39.249  32.840  36.060  1.00  0.00     0.023 A 
ATOM     38  C   UNL A   1      39.777  34.130  36.256  1.00  0.00     0.031 A 
ATOM     39  C   UNL A   1      38.401  32.316  37.049  1.00  0.00     0.131 A 
ATOM     40  C   UNL A   1      39.511  34.823  37.445  1.00  0.00     0.055 A 
ATOM     41  C   UNL A   1      38.082  33.042  38.198  1.00  0.00     0.041 A 
ATOM     42  F   UNL A   1      37.892  31.081  36.928  1.00  0.00    -0.206 F 
ATOM     43  C   UNL A   1      38.648  34.297  38.408  1.00  0.00     0.022 A 
BRANCH  40  44
ATOM     44  S   UNL A   1      40.412  36.364  37.774  1.00  0.00     0.124 S 
ATOM     45  O   UNL A   1      39.394  37.161  38.455  1.00  0.00    -0.237 OA
ATOM     46  O   UNL A   1      41.525  35.911  38.600  1.00  0.00    -0.237 OA
ATOM     47  O   UNL A   1      40.776  36.838  36.441  1.00  0.00    -0.744 OA
ENDBRANCH  40  44
ENDBRANCH  23  37
BRANCH  24  48
ATOM     48  C   UNL A   1      41.248  27.482  27.772  1.00  0.00     0.023 A 
ATOM     49  C   UNL A   1      41.117  26.086  27.704  1.00  0.00     0.031 A 
ATOM     50  C   UNL A   1      41.779  28.145  26.650  1.00  0.00     0.131 A 
ATOM     51  C   UNL A   1      41.569  25.392  26.569  1.00  0.00     0.055 A 
ATOM     52  C   UNL A   1      42.182  27.456  25.504  1.00  0.00     0.041 A 
ATOM     53  F   UNL A   1      41.921  29.480  26.653  1.00  0.00    -0.206 F 
ATOM     54  C   UNL A   1      42.095  26.068  25.466  1.00  0.00     0.022 A 
BRANCH  51  55
ATOM     55  S   UNL A   1      41.562  23.578  26.595  1.00  0.00     0.124 S 
ATOM     56  O   UNL A   1      42.334  23.255  25.401  1.00  0.00    -0.237 OA
ATOM     57  O   UNL A   1      42.208  23.295  27.873  1.00  0.00    -0.237 OA
ATOM     58  O   UNL A   1      40.140  23.241  26.530  1.00  0.00    -0.744 OA
ENDBRANCH  51  55
ENDBRANCH  24  48
BRANCH  36  59
ATOM     59  C   UNL A   1      44.056  27.734  34.147  1.00  0.00     0.023 A 
ATOM     60  C   UNL A   1      43.832  26.477  34.735  1.00  0.00     0.031 A 
ATOM     61  C   UNL A   1      45.358  28.265  34.189  1.00  0.00     0.131 A 
ATOM     62  C   UNL A   1      44.876  25.826  35.406  1.00  0.00     0.055 A 
ATOM     63  C   UNL A   1      46.409  27.579  34.798  1.00  0.00     0.041 A 
ATOM     64  F   UNL A   1      45.626  29.462  33.643  1.00  0.00    -0.206 F 
ATOM     65  C   UNL A   1      46.167  26.360  35.425  1.00  0.00     0.022 A 
BRANCH  62  66
ATOM     66  S   UNL A   1      44.496  24.325  36.348  1.00  0.00     0.124 S 
ATOM     67  O   UNL A   1      44.183  24.866  37.666  1.00  0.00    -0.237 OA
ATOM     68  O   UNL A   1      43.371  23.766  35.604  1.00  0.00    -0.237 OA
ATOM     69  O   UNL A   1      45.734  23.551  36.272  1.00  0.00    -0.744 OA
ENDBRANCH  62  66
ENDBRANCH  36  59
ENDBRANCH  10  11
ENDBRANCH   3   5
ENDBRANCH   2   3
ENDBRANCH   1   2
BRANCH   1  70
ATOM     70  C   UNL A   1      31.743  31.116  26.092  1.00  0.00     0.275 C 
BRANCH  70  71
ATOM     71  O   UNL A   1      32.176  29.859  26.628  1.00  0.00    -0.458 OA
BRANCH  71  72
ATOM     72  C   UNL A   1      33.499  29.594  26.476  1.00  0.00     0.338 C 
ATOM     73  O   UNL A   1      34.428  30.134  27.051  1.00  0.00    -0.246 OA
BRANCH  72  74
ATOM     74  C   UNL A   1      33.656  28.422  25.592  1.00  0.00     0.062 A 
ATOM     75  C   UNL A   1      33.705  28.570  24.202  1.00  0.00     0.018 A 
ATOM     76  C   UNL A   1      33.706  27.158  26.204  1.00  0.00     0.044 A 
ATOM     77  C   UNL A   1      33.771  27.440  23.373  1.00  0.00     0.031 A 
ATOM     78  C   UNL A   1      33.709  26.056  25.345  1.00  0.00     0.066 A 
ATOM     79  C   UNL A   1      33.743  26.167  23.960  1.00  0.00     0.089 A 
ATOM     80  N   UNL A   1      33.632  24.705  25.573  1.00  0.00    -0.342 N 
ATOM     81  N   UNL A   1      33.731  24.929  23.374  1.00  0.00    -0.233 NA
ATOM     82  C   UNL A   1      33.649  24.060  24.359  1.00  0.00     0.110 A 
ATOM     83  H   UNL A   1      33.576  24.273  26.455  1.00  0.00     0.168 HD
BRANCH  82  84
ATOM     84  C   UNL A   1      33.620  22.567  24.212  1.00  0.00     0.055 C 
ATOM     85  C   UNL A   1      34.811  21.926  24.937  1.00  0.00     0.011 C 
ATOM     86  C   UNL A   1      32.288  21.963  24.681  1.00  0.00     0.011 C 
ATOM     87  C   UNL A   1      34.802  20.407  24.802  1.00  0.00     0.001 C 
ATOM     88  C   UNL A   1      32.292  20.438  24.554  1.00  0.00     0.001 C 
ATOM     89  C   UNL A   1      33.480  19.812  25.278  1.00  0.00     0.000 C 
ENDBRANCH  82  84
ENDBRANCH  72  74
ENDBRANCH  71  72
ENDBRANCH  70  71
ENDBRANCH   1  70
TORSDOF 15
ENDMDL
