MODEL 1
REMARK VINA RESULT:     -10.9      0.000      0.000
REMARK SMILES C[C@](NC(=O)CSCc1cccs1)(C(=O)OCCOC(=O)c1ccc(-c2c3nc(c(-c4cc(S(=O)(=O)[O-])ccc4F)c4ccc([nH]4)c(-c4cc(S(=O)(=O)[O-])ccc4F)c4nc(c(-c5cc(S(=O)(=O)[O-])ccc5F)c5ccc2[nH]5)C=C4)C=C3)cc1)C(F)(F)F
REMARK SMILES IDX 17 1 16 2 14 3 15 4 2 5 1 6 85 7 86 8 87 9 88 10 3 11 4 12
REMARK SMILES IDX 5 14 6 15 7 16 8 17 9 18 10 19 13 20 11 21 12 22 18 23 19 24
REMARK SMILES IDX 20 25 21 26 22 27 23 28 84 29 24 30 83 31 25 32 26 33 27 34
REMARK SMILES IDX 77 35 28 36 82 37 76 38 78 39 29 40 81 41 75 42 74 43 30 45
REMARK SMILES IDX 62 46 42 47 61 48 43 49 46 50 60 51 79 52 44 53 45 54 59 56
REMARK SMILES IDX 80 57 47 58 31 59 32 60 40 61 33 62 39 63 41 64 38 65 34 66
REMARK SMILES IDX 35 67 36 68 37 69 63 70 64 71 72 72 65 73 71 74 73 75 70 76
REMARK SMILES IDX 66 77 67 78 68 79 69 80 48 81 49 82 57 83 50 84 56 85 58 86
REMARK SMILES IDX 55 87 51 88 52 89 53 90 54 91
REMARK H PARENT 3 13 78 44 46 55
REMARK Flexibility Score: inf
ROOT
ATOM      1  C   UNL A   1      34.802  20.451  25.054  1.00  0.00     0.274 C 
ENDROOT
BRANCH   1   2
ATOM      2  O   UNL A   1      34.053  21.473  25.745  1.00  0.00    -0.460 OA
BRANCH   2   3
ATOM      3  C   UNL A   1      32.828  21.798  25.213  1.00  0.00     0.341 C 
ATOM      4  O   UNL A   1      32.012  20.967  24.843  1.00  0.00    -0.249 OA
BRANCH   3   5
ATOM      5  C   UNL A   1      32.714  23.311  24.998  1.00  0.00     0.231 C 
ATOM      6  C   UNL A   1      33.507  23.987  26.117  1.00  0.00     0.058 C 
BRANCH   5   7
ATOM      7  C   UNL A   1      33.393  23.602  23.644  1.00  0.00     0.422 C 
ATOM      8  F   UNL A   1      34.712  23.855  23.784  1.00  0.00    -0.168 F 
ATOM      9  F   UNL A   1      33.273  22.546  22.804  1.00  0.00    -0.168 F 
ATOM     10  F   UNL A   1      32.845  24.656  22.998  1.00  0.00    -0.168 F 
ENDBRANCH   5   7
BRANCH   5  11
ATOM     11  N   UNL A   1      31.266  23.683  25.061  1.00  0.00    -0.332 N 
ATOM     12  C   UNL A   1      30.668  24.194  26.185  1.00  0.00     0.231 C 
ATOM     13  H   UNL A   1      30.715  23.556  24.255  1.00  0.00     0.164 HD
ATOM     14  O   UNL A   1      30.771  23.631  27.270  1.00  0.00    -0.274 OA
BRANCH  12  15
ATOM     15  C   UNL A   1      29.958  25.529  25.991  1.00  0.00     0.169 C 
BRANCH  15  16
ATOM     16  S   UNL A   1      30.985  26.657  24.984  1.00  0.00    -0.146 SA
BRANCH  16  17
ATOM     17  C   UNL A   1      29.959  26.854  23.482  1.00  0.00     0.116 C 
BRANCH  17  18
ATOM     18  C   UNL A   1      29.433  28.247  23.375  1.00  0.00     0.014 A 
ATOM     19  C   UNL A   1      30.096  29.435  23.612  1.00  0.00     0.016 A 
ATOM     20  S   UNL A   1      27.816  28.518  22.878  1.00  0.00    -0.148 S 
ATOM     21  C   UNL A   1      29.254  30.569  23.430  1.00  0.00     0.012 A 
ATOM     22  C   UNL A   1      27.986  30.210  23.033  1.00  0.00     0.065 A 
ENDBRANCH  17  18
ENDBRANCH  16  17
ENDBRANCH  15  16
ENDBRANCH  12  15
ENDBRANCH   5  11
ENDBRANCH   3   5
ENDBRANCH   2   3
ENDBRANCH   1   2
BRANCH   1  23
ATOM     23  C   UNL A   1      36.110  21.045  24.545  1.00  0.00     0.275 C 
BRANCH  23  24
ATOM     24  O   UNL A   1      36.835  21.596  25.658  1.00  0.00    -0.458 OA
BRANCH  24  25
ATOM     25  C   UNL A   1      38.157  21.292  25.711  1.00  0.00     0.338 C 
ATOM     26  O   UNL A   1      38.695  20.286  25.289  1.00  0.00    -0.246 OA
BRANCH  25  27
ATOM     27  C   UNL A   1      38.895  22.410  26.326  1.00  0.00     0.060 A 
ATOM     28  C   UNL A   1      38.483  23.719  26.090  1.00  0.00     0.016 A 
ATOM     29  C   UNL A   1      40.063  22.168  27.046  1.00  0.00     0.016 A 
ATOM     30  C   UNL A   1      39.269  24.788  26.525  1.00  0.00     0.010 A 
ATOM     31  C   UNL A   1      40.794  23.248  27.564  1.00  0.00     0.010 A 
ATOM     32  C   UNL A   1      40.422  24.579  27.296  1.00  0.00    -0.014 A 
BRANCH  32  33
ATOM     33  C   UNL A   1      41.238  25.723  27.818  1.00  0.00     0.031 A 
ATOM     34  C   UNL A   1      40.590  26.807  28.651  1.00  0.00     0.074 A 
ATOM     35  C   UNL A   1      42.554  25.833  27.530  1.00  0.00     0.049 A 
ATOM     36  N   UNL A   1      41.017  28.015  28.921  1.00  0.00    -0.248 NA
ATOM     37  C   UNL A   1      39.275  26.498  29.232  1.00  0.00     0.031 C 
ATOM     38  C   UNL A   1      43.351  24.851  26.791  1.00  0.00     0.029 A 
ATOM     39  N   UNL A   1      43.458  26.834  27.812  1.00  0.00    -0.354 N 
ATOM     40  C   UNL A   1      39.994  28.636  29.630  1.00  0.00     0.074 A 
ATOM     41  C   UNL A   1      38.928  27.664  29.762  1.00  0.00     0.031 C 
ATOM     42  C   UNL A   1      44.619  25.277  26.707  1.00  0.00     0.029 A 
ATOM     43  C   UNL A   1      44.705  26.620  27.264  1.00  0.00     0.049 A 
ATOM     44  H   UNL A   1      43.236  27.625  28.353  1.00  0.00     0.167 HD
ATOM     45  C   UNL A   1      39.948  29.903  30.114  1.00  0.00     0.034 A 
ATOM     46  C   UNL A   1      45.777  27.430  27.140  1.00  0.00     0.034 A 
ATOM     47  C   UNL A   1      41.053  30.831  30.060  1.00  0.00     0.049 A 
ATOM     48  C   UNL A   1      45.688  28.845  27.646  1.00  0.00     0.074 A 
ATOM     49  C   UNL A   1      41.131  32.108  30.590  1.00  0.00     0.029 A 
ATOM     50  N   UNL A   1      42.276  30.582  29.451  1.00  0.00    -0.354 N 
ATOM     51  N   UNL A   1      44.686  29.445  28.245  1.00  0.00    -0.248 NA
ATOM     52  C   UNL A   1      46.863  29.702  27.432  1.00  0.00     0.031 C 
ATOM     53  C   UNL A   1      42.372  32.654  30.249  1.00  0.00     0.029 A 
ATOM     54  C   UNL A   1      43.096  31.696  29.560  1.00  0.00     0.049 A 
ATOM     55  H   UNL A   1      42.524  29.739  29.008  1.00  0.00     0.167 HD
ATOM     56  C   UNL A   1      45.111  30.750  28.474  1.00  0.00     0.074 A 
ATOM     57  C   UNL A   1      46.469  30.842  27.980  1.00  0.00     0.031 C 
ATOM     58  C   UNL A   1      44.435  31.784  29.035  1.00  0.00     0.034 A 
BRANCH  45  59
ATOM     59  C   UNL A   1      38.642  30.404  30.682  1.00  0.00     0.023 A 
ATOM     60  C   UNL A   1      37.696  31.106  29.918  1.00  0.00     0.031 A 
ATOM     61  C   UNL A   1      38.326  30.117  32.025  1.00  0.00     0.131 A 
ATOM     62  C   UNL A   1      36.494  31.527  30.514  1.00  0.00     0.055 A 
ATOM     63  C   UNL A   1      37.107  30.486  32.593  1.00  0.00     0.041 A 
ATOM     64  F   UNL A   1      39.201  29.462  32.806  1.00  0.00    -0.206 F 
ATOM     65  C   UNL A   1      36.184  31.202  31.838  1.00  0.00     0.022 A 
BRANCH  62  66
ATOM     66  S   UNL A   1      35.364  32.578  29.559  1.00  0.00     0.124 S 
ATOM     67  O   UNL A   1      34.674  33.312  30.617  1.00  0.00    -0.237 OA
ATOM     68  O   UNL A   1      36.278  33.358  28.732  1.00  0.00    -0.237 OA
ATOM     69  O   UNL A   1      34.534  31.619  28.833  1.00  0.00    -0.744 OA
ENDBRANCH  62  66
ENDBRANCH  45  59
BRANCH  46  70
ATOM     70  C   UNL A   1      46.983  26.973  26.384  1.00  0.00     0.023 A 
ATOM     71  C   UNL A   1      48.044  26.316  27.026  1.00  0.00     0.031 A 
ATOM     72  C   UNL A   1      47.109  27.235  25.006  1.00  0.00     0.131 A 
ATOM     73  C   UNL A   1      49.196  25.975  26.300  1.00  0.00     0.055 A 
ATOM     74  C   UNL A   1      48.227  26.835  24.275  1.00  0.00     0.041 A 
ATOM     75  F   UNL A   1      46.132  27.874  24.344  1.00  0.00    -0.206 F 
ATOM     76  C   UNL A   1      49.285  26.211  24.925  1.00  0.00     0.022 A 
BRANCH  73  77
ATOM     77  S   UNL A   1      50.627  25.309  27.193  1.00  0.00     0.124 S 
ATOM     78  O   UNL A   1      50.022  24.227  27.963  1.00  0.00    -0.237 OA
ATOM     79  O   UNL A   1      51.507  24.907  26.102  1.00  0.00    -0.237 OA
ATOM     80  O   UNL A   1      51.096  26.446  27.983  1.00  0.00    -0.744 OA
ENDBRANCH  73  77
ENDBRANCH  46  70
BRANCH  58  81
ATOM     81  C   UNL A   1      45.173  33.093  29.148  1.00  0.00     0.023 A 
ATOM     82  C   UNL A   1      45.144  34.040  28.110  1.00  0.00     0.031 A 
ATOM     83  C   UNL A   1      45.938  33.382  30.291  1.00  0.00     0.131 A 
ATOM     84  C   UNL A   1      45.906  35.212  28.213  1.00  0.00     0.055 A 
ATOM     85  C   UNL A   1      46.655  34.574  30.410  1.00  0.00     0.041 A 
ATOM     86  F   UNL A   1      46.003  32.509  31.308  1.00  0.00    -0.206 F 
ATOM     87  C   UNL A   1      46.651  35.491  29.363  1.00  0.00     0.022 A 
BRANCH  84  88
ATOM     88  S   UNL A   1      45.973  36.339  26.793  1.00  0.00     0.124 S 
ATOM     89  O   UNL A   1      44.697  37.040  26.903  1.00  0.00    -0.237 OA
ATOM     90  O   UNL A   1      47.163  37.133  27.077  1.00  0.00    -0.237 OA
ATOM     91  O   UNL A   1      46.089  35.440  25.646  1.00  0.00    -0.744 OA
ENDBRANCH  84  88
ENDBRANCH  58  81
ENDBRANCH  32  33
ENDBRANCH  25  27
ENDBRANCH  24  25
ENDBRANCH  23  24
ENDBRANCH   1  23
TORSDOF 20
ENDMDL
MODEL 2
REMARK VINA RESULT:     -10.8      1.473      2.057
REMARK SMILES C[C@](NC(=O)CSCc1cccs1)(C(=O)OCCOC(=O)c1ccc(-c2c3nc(c(-c4cc(S(=O)(=O)[O-])ccc4F)c4ccc([nH]4)c(-c4cc(S(=O)(=O)[O-])ccc4F)c4nc(c(-c5cc(S(=O)(=O)[O-])ccc5F)c5ccc2[nH]5)C=C4)C=C3)cc1)C(F)(F)F
REMARK SMILES IDX 17 1 16 2 14 3 15 4 2 5 1 6 85 7 86 8 87 9 88 10 3 11 4 12
REMARK SMILES IDX 5 14 6 15 7 16 8 17 9 18 10 19 13 20 11 21 12 22 18 23 19 24
REMARK SMILES IDX 20 25 21 26 22 27 23 28 84 29 24 30 83 31 25 32 26 33 27 34
REMARK SMILES IDX 77 35 28 36 82 37 76 38 78 39 29 40 81 41 75 42 74 43 30 45
REMARK SMILES IDX 62 46 42 47 61 48 43 49 46 50 60 51 79 52 44 53 45 54 59 56
REMARK SMILES IDX 80 57 47 58 31 59 32 60 40 61 33 62 39 63 41 64 38 65 34 66
REMARK SMILES IDX 35 67 36 68 37 69 63 70 64 71 72 72 65 73 71 74 73 75 70 76
REMARK SMILES IDX 66 77 67 78 68 79 69 80 48 81 49 82 57 83 50 84 56 85 58 86
REMARK SMILES IDX 55 87 51 88 52 89 53 90 54 91
REMARK H PARENT 3 13 78 44 46 55
REMARK Flexibility Score: inf
ROOT
ATOM      1  C   UNL A   1      34.915  21.482  24.231  1.00  0.00     0.274 C 
ENDROOT
BRANCH   1   2
ATOM      2  O   UNL A   1      34.136  22.430  24.990  1.00  0.00    -0.460 OA
BRANCH   2   3
ATOM      3  C   UNL A   1      32.794  22.486  24.703  1.00  0.00     0.341 C 
ATOM      4  O   UNL A   1      32.137  21.516  24.357  1.00  0.00    -0.249 OA
BRANCH   3   5
ATOM      5  C   UNL A   1      32.297  23.937  24.711  1.00  0.00     0.231 C 
ATOM      6  C   UNL A   1      30.853  23.921  24.208  1.00  0.00     0.058 C 
BRANCH   5   7
ATOM      7  C   UNL A   1      32.318  24.388  26.186  1.00  0.00     0.422 C 
ATOM      8  F   UNL A   1      31.371  25.313  26.445  1.00  0.00    -0.168 F 
ATOM      9  F   UNL A   1      32.095  23.340  27.017  1.00  0.00    -0.168 F 
ATOM     10  F   UNL A   1      33.508  24.910  26.558  1.00  0.00    -0.168 F 
ENDBRANCH   5   7
BRANCH   5  11
ATOM     11  N   UNL A   1      33.177  24.736  23.803  1.00  0.00    -0.332 N 
ATOM     12  C   UNL A   1      33.150  24.624  22.436  1.00  0.00     0.231 C 
ATOM     13  H   UNL A   1      33.808  25.375  24.206  1.00  0.00     0.164 HD
ATOM     14  O   UNL A   1      33.245  23.531  21.886  1.00  0.00    -0.274 OA
BRANCH  12  15
ATOM     15  C   UNL A   1      32.907  25.927  21.684  1.00  0.00     0.169 C 
BRANCH  15  16
ATOM     16  S   UNL A   1      33.616  27.338  22.607  1.00  0.00    -0.146 SA
BRANCH  16  17
ATOM     17  C   UNL A   1      32.126  28.061  23.386  1.00  0.00     0.116 C 
BRANCH  17  18
ATOM     18  C   UNL A   1      32.321  28.223  24.856  1.00  0.00     0.014 A 
ATOM     19  C   UNL A   1      31.364  28.420  25.832  1.00  0.00     0.016 A 
ATOM     20  S   UNL A   1      33.896  28.146  25.528  1.00  0.00    -0.148 S 
ATOM     21  C   UNL A   1      31.935  28.556  27.129  1.00  0.00     0.012 A 
ATOM     22  C   UNL A   1      33.305  28.431  27.104  1.00  0.00     0.065 A 
ENDBRANCH  17  18
ENDBRANCH  16  17
ENDBRANCH  15  16
ENDBRANCH  12  15
ENDBRANCH   5  11
ENDBRANCH   3   5
ENDBRANCH   2   3
ENDBRANCH   1   2
BRANCH   1  23
ATOM     23  C   UNL A   1      35.912  20.795  25.158  1.00  0.00     0.275 C 
BRANCH  23  24
ATOM     24  O   UNL A   1      36.785  21.789  25.720  1.00  0.00    -0.458 OA
BRANCH  24  25
ATOM     25  C   UNL A   1      38.102  21.461  25.766  1.00  0.00     0.338 C 
ATOM     26  O   UNL A   1      38.619  20.444  25.342  1.00  0.00    -0.246 OA
BRANCH  25  27
ATOM     27  C   UNL A   1      38.863  22.565  26.377  1.00  0.00     0.060 A 
ATOM     28  C   UNL A   1      38.478  23.881  26.138  1.00  0.00     0.016 A 
ATOM     29  C   UNL A   1      40.027  22.301  27.096  1.00  0.00     0.016 A 
ATOM     30  C   UNL A   1      39.286  24.936  26.569  1.00  0.00     0.010 A 
ATOM     31  C   UNL A   1      40.781  23.367  27.611  1.00  0.00     0.010 A 
ATOM     32  C   UNL A   1      40.436  24.705  27.339  1.00  0.00    -0.014 A 
BRANCH  32  33
ATOM     33  C   UNL A   1      41.276  25.833  27.857  1.00  0.00     0.031 A 
ATOM     34  C   UNL A   1      40.664  26.900  28.737  1.00  0.00     0.074 A 
ATOM     35  C   UNL A   1      42.581  25.944  27.523  1.00  0.00     0.049 A 
ATOM     36  N   UNL A   1      41.107  28.100  29.018  1.00  0.00    -0.248 NA
ATOM     37  C   UNL A   1      39.369  26.584  29.359  1.00  0.00     0.031 C 
ATOM     38  C   UNL A   1      43.346  24.976  26.733  1.00  0.00     0.029 A 
ATOM     39  N   UNL A   1      43.500  26.935  27.795  1.00  0.00    -0.354 N 
ATOM     40  C   UNL A   1      40.113  28.709  29.779  1.00  0.00     0.074 A 
ATOM     41  C   UNL A   1      39.048  27.739  29.928  1.00  0.00     0.031 C 
ATOM     42  C   UNL A   1      44.612  25.399  26.614  1.00  0.00     0.029 A 
ATOM     43  C   UNL A   1      44.725  26.729  27.198  1.00  0.00     0.049 A 
ATOM     44  H   UNL A   1      43.301  27.714  28.362  1.00  0.00     0.167 HD
ATOM     45  C   UNL A   1      40.091  29.965  30.292  1.00  0.00     0.034 A 
ATOM     46  C   UNL A   1      45.796  27.537  27.052  1.00  0.00     0.034 A 
ATOM     47  C   UNL A   1      41.198  30.889  30.219  1.00  0.00     0.049 A 
ATOM     48  C   UNL A   1      45.732  28.941  27.594  1.00  0.00     0.074 A 
ATOM     49  C   UNL A   1      41.301  32.154  30.776  1.00  0.00     0.029 A 
ATOM     50  N   UNL A   1      42.396  30.649  29.561  1.00  0.00    -0.354 N 
ATOM     51  N   UNL A   1      44.755  29.531  28.242  1.00  0.00    -0.248 NA
ATOM     52  C   UNL A   1      46.902  29.797  27.357  1.00  0.00     0.031 C 
ATOM     53  C   UNL A   1      42.532  32.703  30.401  1.00  0.00     0.029 A 
ATOM     54  C   UNL A   1      43.225  31.757  29.665  1.00  0.00     0.049 A 
ATOM     55  H   UNL A   1      42.624  29.815  29.090  1.00  0.00     0.167 HD
ATOM     56  C   UNL A   1      45.194  30.828  28.485  1.00  0.00     0.074 A 
ATOM     57  C   UNL A   1      46.534  30.926  27.944  1.00  0.00     0.031 C 
ATOM     58  C   UNL A   1      44.545  31.852  29.093  1.00  0.00     0.034 A 
BRANCH  45  59
ATOM     59  C   UNL A   1      38.809  30.458  30.920  1.00  0.00     0.023 A 
ATOM     60  C   UNL A   1      37.797  31.100  30.187  1.00  0.00     0.031 A 
ATOM     61  C   UNL A   1      38.585  30.225  32.291  1.00  0.00     0.131 A 
ATOM     62  C   UNL A   1      36.624  31.517  30.837  1.00  0.00     0.055 A 
ATOM     63  C   UNL A   1      37.393  30.588  32.917  1.00  0.00     0.041 A 
ATOM     64  F   UNL A   1      39.524  29.629  33.043  1.00  0.00    -0.206 F 
ATOM     65  C   UNL A   1      36.406  31.245  32.191  1.00  0.00     0.022 A 
BRANCH  62  66
ATOM     66  S   UNL A   1      35.408  32.495  29.910  1.00  0.00     0.124 S 
ATOM     67  O   UNL A   1      36.147  33.729  29.658  1.00  0.00    -0.237 OA
ATOM     68  O   UNL A   1      35.148  31.656  28.746  1.00  0.00    -0.237 OA
ATOM     69  O   UNL A   1      34.290  32.626  30.843  1.00  0.00    -0.744 OA
ENDBRANCH  62  66
ENDBRANCH  45  59
BRANCH  46  70
ATOM     70  C   UNL A   1      46.971  27.092  26.243  1.00  0.00     0.023 A 
ATOM     71  C   UNL A   1      48.073  26.460  26.839  1.00  0.00     0.031 A 
ATOM     72  C   UNL A   1      47.025  27.343  24.858  1.00  0.00     0.131 A 
ATOM     73  C   UNL A   1      49.194  26.131  26.060  1.00  0.00     0.055 A 
ATOM     74  C   UNL A   1      48.112  26.954  24.077  1.00  0.00     0.041 A 
ATOM     75  F   UNL A   1      46.006  27.959  24.238  1.00  0.00    -0.206 F 
ATOM     76  C   UNL A   1      49.212  26.355  24.681  1.00  0.00     0.022 A 
BRANCH  73  77
ATOM     77  S   UNL A   1      50.678  25.498  26.889  1.00  0.00     0.124 S 
ATOM     78  O   UNL A   1      51.529  25.151  25.755  1.00  0.00    -0.237 OA
ATOM     79  O   UNL A   1      51.099  26.649  27.679  1.00  0.00    -0.237 OA
ATOM     80  O   UNL A   1      50.179  24.362  27.662  1.00  0.00    -0.744 OA
ENDBRANCH  73  77
ENDBRANCH  46  70
BRANCH  58  81
ATOM     81  C   UNL A   1      45.293  33.155  29.209  1.00  0.00     0.023 A 
ATOM     82  C   UNL A   1      45.182  34.151  28.224  1.00  0.00     0.031 A 
ATOM     83  C   UNL A   1      46.148  33.390  30.299  1.00  0.00     0.131 A 
ATOM     84  C   UNL A   1      45.953  35.318  28.321  1.00  0.00     0.055 A 
ATOM     85  C   UNL A   1      46.875  34.576  30.417  1.00  0.00     0.041 A 
ATOM     86  F   UNL A   1      46.292  32.469  31.265  1.00  0.00    -0.206 F 
ATOM     87  C   UNL A   1      46.789  35.542  29.419  1.00  0.00     0.022 A 
BRANCH  84  88
ATOM     88  S   UNL A   1      45.907  36.511  26.956  1.00  0.00     0.124 S 
ATOM     89  O   UNL A   1      46.910  37.487  27.373  1.00  0.00    -0.237 OA
ATOM     90  O   UNL A   1      46.260  35.687  25.805  1.00  0.00    -0.237 OA
ATOM     91  O   UNL A   1      44.528  36.997  26.969  1.00  0.00    -0.744 OA
ENDBRANCH  84  88
ENDBRANCH  58  81
ENDBRANCH  32  33
ENDBRANCH  25  27
ENDBRANCH  24  25
ENDBRANCH  23  24
ENDBRANCH   1  23
TORSDOF 20
ENDMDL
MODEL 3
REMARK VINA RESULT:     -10.7      1.793      2.303
REMARK SMILES C[C@](NC(=O)CSCc1cccs1)(C(=O)OCCOC(=O)c1ccc(-c2c3nc(c(-c4cc(S(=O)(=O)[O-])ccc4F)c4ccc([nH]4)c(-c4cc(S(=O)(=O)[O-])ccc4F)c4nc(c(-c5cc(S(=O)(=O)[O-])ccc5F)c5ccc2[nH]5)C=C4)C=C3)cc1)C(F)(F)F
REMARK SMILES IDX 17 1 16 2 14 3 15 4 2 5 1 6 85 7 86 8 87 9 88 10 3 11 4 12
REMARK SMILES IDX 5 14 6 15 7 16 8 17 9 18 10 19 13 20 11 21 12 22 18 23 19 24
REMARK SMILES IDX 20 25 21 26 22 27 23 28 84 29 24 30 83 31 25 32 26 33 27 34
REMARK SMILES IDX 77 35 28 36 82 37 76 38 78 39 29 40 81 41 75 42 74 43 30 45
REMARK SMILES IDX 62 46 42 47 61 48 43 49 46 50 60 51 79 52 44 53 45 54 59 56
REMARK SMILES IDX 80 57 47 58 31 59 32 60 40 61 33 62 39 63 41 64 38 65 34 66
REMARK SMILES IDX 35 67 36 68 37 69 63 70 64 71 72 72 65 73 71 74 73 75 70 76
REMARK SMILES IDX 66 77 67 78 68 79 69 80 48 81 49 82 57 83 50 84 56 85 58 86
REMARK SMILES IDX 55 87 51 88 52 89 53 90 54 91
REMARK H PARENT 3 13 78 44 46 55
REMARK Flexibility Score: inf
ROOT
ATOM      1  C   UNL A   1      35.292  22.005  24.066  1.00  0.00     0.274 C 
ENDROOT
BRANCH   1   2
ATOM      2  O   UNL A   1      33.935  22.484  24.158  1.00  0.00    -0.460 OA
BRANCH   2   3
ATOM      3  C   UNL A   1      33.771  23.782  24.577  1.00  0.00     0.341 C 
ATOM      4  O   UNL A   1      34.651  24.430  25.125  1.00  0.00    -0.249 OA
BRANCH   3   5
ATOM      5  C   UNL A   1      32.311  24.224  24.420  1.00  0.00     0.231 C 
ATOM      6  C   UNL A   1      31.702  23.377  23.302  1.00  0.00     0.058 C 
BRANCH   5   7
ATOM      7  C   UNL A   1      31.616  23.884  25.754  1.00  0.00     0.422 C 
ATOM      8  F   UNL A   1      31.680  22.566  26.036  1.00  0.00    -0.168 F 
ATOM      9  F   UNL A   1      32.197  24.545  26.785  1.00  0.00    -0.168 F 
ATOM     10  F   UNL A   1      30.312  24.240  25.771  1.00  0.00    -0.168 F 
ENDBRANCH   5   7
BRANCH   5  11
ATOM     11  N   UNL A   1      32.300  25.677  24.063  1.00  0.00    -0.332 N 
ATOM     12  C   UNL A   1      32.525  26.144  22.793  1.00  0.00     0.231 C 
ATOM     13  H   UNL A   1      32.121  26.332  24.776  1.00  0.00     0.164 HD
ATOM     14  O   UNL A   1      33.514  25.796  22.155  1.00  0.00    -0.274 OA
BRANCH  12  15
ATOM     15  C   UNL A   1      31.427  27.037  22.227  1.00  0.00     0.169 C 
BRANCH  15  16
ATOM     16  S   UNL A   1      30.203  27.444  23.522  1.00  0.00    -0.146 SA
BRANCH  16  17
ATOM     17  C   UNL A   1      30.589  29.199  23.863  1.00  0.00     0.116 C 
BRANCH  17  18
ATOM     18  C   UNL A   1      29.489  30.088  23.386  1.00  0.00     0.014 A 
ATOM     19  C   UNL A   1      29.104  31.318  23.882  1.00  0.00     0.016 A 
ATOM     20  S   UNL A   1      28.536  29.627  22.038  1.00  0.00    -0.148 S 
ATOM     21  C   UNL A   1      27.990  31.858  23.179  1.00  0.00     0.012 A 
ATOM     22  C   UNL A   1      27.579  31.037  22.154  1.00  0.00     0.065 A 
ENDBRANCH  17  18
ENDBRANCH  16  17
ENDBRANCH  15  16
ENDBRANCH  12  15
ENDBRANCH   5  11
ENDBRANCH   3   5
ENDBRANCH   2   3
ENDBRANCH   1   2
BRANCH   1  23
ATOM     23  C   UNL A   1      35.587  21.101  25.258  1.00  0.00     0.275 C 
BRANCH  23  24
ATOM     24  O   UNL A   1      36.590  21.726  26.078  1.00  0.00    -0.458 OA
BRANCH  24  25
ATOM     25  C   UNL A   1      37.877  21.430  25.766  1.00  0.00     0.338 C 
ATOM     26  O   UNL A   1      38.281  20.441  25.184  1.00  0.00    -0.246 OA
BRANCH  25  27
ATOM     27  C   UNL A   1      38.754  22.534  26.196  1.00  0.00     0.060 A 
ATOM     28  C   UNL A   1      39.912  22.252  26.915  1.00  0.00     0.016 A 
ATOM     29  C   UNL A   1      38.372  23.857  25.984  1.00  0.00     0.016 A 
ATOM     30  C   UNL A   1      40.659  23.292  27.472  1.00  0.00     0.010 A 
ATOM     31  C   UNL A   1      39.181  24.898  26.463  1.00  0.00     0.010 A 
ATOM     32  C   UNL A   1      40.330  24.635  27.235  1.00  0.00    -0.014 A 
BRANCH  32  33
ATOM     33  C   UNL A   1      41.162  25.758  27.778  1.00  0.00     0.031 A 
ATOM     34  C   UNL A   1      40.534  26.820  28.654  1.00  0.00     0.074 A 
ATOM     35  C   UNL A   1      42.473  25.869  27.472  1.00  0.00     0.049 A 
ATOM     36  N   UNL A   1      40.973  28.017  28.953  1.00  0.00    -0.248 NA
ATOM     37  C   UNL A   1      39.226  26.501  29.247  1.00  0.00     0.031 C 
ATOM     38  C   UNL A   1      43.252  24.905  26.690  1.00  0.00     0.029 A 
ATOM     39  N   UNL A   1      43.388  26.856  27.769  1.00  0.00    -0.354 N 
ATOM     40  C   UNL A   1      39.965  28.622  29.698  1.00  0.00     0.074 A 
ATOM     41  C   UNL A   1      38.896  27.653  29.818  1.00  0.00     0.031 C 
ATOM     42  C   UNL A   1      44.521  25.326  26.599  1.00  0.00     0.029 A 
ATOM     43  C   UNL A   1      44.625  26.651  27.195  1.00  0.00     0.049 A 
ATOM     44  H   UNL A   1      43.179  27.631  28.338  1.00  0.00     0.167 HD
ATOM     45  C   UNL A   1      39.935  29.874  30.220  1.00  0.00     0.034 A 
ATOM     46  C   UNL A   1      45.700  27.459  27.077  1.00  0.00     0.034 A 
ATOM     47  C   UNL A   1      41.045  30.796  30.176  1.00  0.00     0.049 A 
ATOM     48  C   UNL A   1      45.627  28.859  27.628  1.00  0.00     0.074 A 
ATOM     49  C   UNL A   1      41.139  32.057  30.744  1.00  0.00     0.029 A 
ATOM     50  N   UNL A   1      42.255  30.559  29.540  1.00  0.00    -0.354 N 
ATOM     51  N   UNL A   1      44.639  29.446  28.261  1.00  0.00    -0.248 NA
ATOM     52  C   UNL A   1      46.804  29.714  27.421  1.00  0.00     0.031 C 
ATOM     53  C   UNL A   1      42.378  32.606  30.398  1.00  0.00     0.029 A 
ATOM     54  C   UNL A   1      43.084  31.664  29.669  1.00  0.00     0.049 A 
ATOM     55  H   UNL A   1      42.492  29.728  29.068  1.00  0.00     0.167 HD
ATOM     56  C   UNL A   1      45.076  30.741  28.522  1.00  0.00     0.074 A 
ATOM     57  C   UNL A   1      46.426  30.840  28.009  1.00  0.00     0.031 C 
ATOM     58  C   UNL A   1      44.416  31.761  29.125  1.00  0.00     0.034 A 
BRANCH  45  59
ATOM     59  C   UNL A   1      38.641  30.364  30.825  1.00  0.00     0.023 A 
ATOM     60  C   UNL A   1      37.660  31.043  30.083  1.00  0.00     0.031 A 
ATOM     61  C   UNL A   1      38.374  30.092  32.181  1.00  0.00     0.131 A 
ATOM     62  C   UNL A   1      36.474  31.456  30.712  1.00  0.00     0.055 A 
ATOM     63  C   UNL A   1      37.169  30.452  32.784  1.00  0.00     0.041 A 
ATOM     64  F   UNL A   1      39.283  29.461  32.941  1.00  0.00    -0.206 F 
ATOM     65  C   UNL A   1      36.212  31.145  32.050  1.00  0.00     0.022 A 
BRANCH  62  66
ATOM     66  S   UNL A   1      35.298  32.478  29.781  1.00  0.00     0.124 S 
ATOM     67  O   UNL A   1      36.130  33.616  29.399  1.00  0.00    -0.237 OA
ATOM     68  O   UNL A   1      34.893  31.589  28.699  1.00  0.00    -0.237 OA
ATOM     69  O   UNL A   1      34.255  32.780  30.761  1.00  0.00    -0.744 OA
ENDBRANCH  62  66
ENDBRANCH  45  59
BRANCH  46  70
ATOM     70  C   UNL A   1      46.890  27.018  26.289  1.00  0.00     0.023 A 
ATOM     71  C   UNL A   1      47.143  27.517  25.002  1.00  0.00     0.031 A 
ATOM     72  C   UNL A   1      47.770  26.044  26.802  1.00  0.00     0.131 A 
ATOM     73  C   UNL A   1      48.225  27.017  24.260  1.00  0.00     0.055 A 
ATOM     74  C   UNL A   1      48.881  25.600  26.087  1.00  0.00     0.041 A 
ATOM     75  F   UNL A   1      47.568  25.520  28.021  1.00  0.00    -0.206 F 
ATOM     76  C   UNL A   1      49.107  26.079  24.802  1.00  0.00     0.022 A 
BRANCH  73  77
ATOM     77  S   UNL A   1      48.409  27.533  22.530  1.00  0.00     0.124 S 
ATOM     78  O   UNL A   1      48.595  26.253  21.855  1.00  0.00    -0.237 OA
ATOM     79  O   UNL A   1      47.144  28.214  22.280  1.00  0.00    -0.237 OA
ATOM     80  O   UNL A   1      49.587  28.399  22.556  1.00  0.00    -0.744 OA
ENDBRANCH  73  77
ENDBRANCH  46  70
BRANCH  58  81
ATOM     81  C   UNL A   1      45.163  33.062  29.265  1.00  0.00     0.023 A 
ATOM     82  C   UNL A   1      45.089  34.058  28.276  1.00  0.00     0.031 A 
ATOM     83  C   UNL A   1      45.982  33.294  30.383  1.00  0.00     0.131 A 
ATOM     84  C   UNL A   1      45.860  35.222  28.399  1.00  0.00     0.055 A 
ATOM     85  C   UNL A   1      46.709  34.477  30.525  1.00  0.00     0.041 A 
ATOM     86  F   UNL A   1      46.091  32.373  31.354  1.00  0.00    -0.206 F 
ATOM     87  C   UNL A   1      46.659  35.444  29.525  1.00  0.00     0.022 A 
BRANCH  84  88
ATOM     88  S   UNL A   1      45.864  36.415  27.033  1.00  0.00     0.124 S 
ATOM     89  O   UNL A   1      45.947  35.541  25.867  1.00  0.00    -0.237 OA
ATOM     90  O   UNL A   1      44.595  37.111  27.220  1.00  0.00    -0.237 OA
ATOM     91  O   UNL A   1      47.056  37.224  27.287  1.00  0.00    -0.744 OA
ENDBRANCH  84  88
ENDBRANCH  58  81
ENDBRANCH  32  33
ENDBRANCH  25  27
ENDBRANCH  24  25
ENDBRANCH  23  24
ENDBRANCH   1  23
TORSDOF 20
ENDMDL
