MODEL 1
REMARK VINA RESULT:     -11.2      0.000      0.000
REMARK SMILES Cc1ccc([C@H](C)[N@@H+](CC(=O)OCCOC(=O)c2ccc(-c3c4nc(c(-c5cc(S(=O)(=O)[O-])ccc5F)c5ccc([nH]5)c(-c5cc(S(=O)(=O)[O-])ccc5F)c5nc(c(-c6cc(S(=O)(=O)[O-])ccc6F)c6ccc3[nH]6)C=C5)C=C4)cc2)CC(F)(F)F)cc1
REMARK SMILES IDX 13 1 12 2 10 3 11 4 9 5 8 6 6 8 7 9 5 10 1 11 2 12 3 13
REMARK SMILES IDX 87 14 4 15 86 16 81 17 82 18 83 19 84 20 85 21 14 22 15 23
REMARK SMILES IDX 16 24 17 25 18 26 19 27 80 28 20 29 79 30 21 31 22 32 23 33
REMARK SMILES IDX 73 34 24 35 78 36 72 37 74 38 25 39 77 40 71 41 70 42 26 44
REMARK SMILES IDX 58 45 38 46 57 47 39 48 42 49 56 50 75 51 40 52 41 53 55 55
REMARK SMILES IDX 76 56 43 57 27 58 28 59 36 60 29 61 35 62 37 63 34 64 30 65
REMARK SMILES IDX 31 66 32 67 33 68 59 69 60 70 68 71 61 72 67 73 69 74 66 75
REMARK SMILES IDX 62 76 63 77 64 78 65 79 44 80 45 81 53 82 46 83 52 84 54 85
REMARK SMILES IDX 51 86 47 87 48 88 49 89 50 90
REMARK H PARENT 8 7 74 43 42 54
REMARK Flexibility Score: inf
ROOT
ATOM      1  C   UNL A   1      33.587  27.729  26.335  1.00  0.00     0.274 C 
ENDROOT
BRANCH   1   2
ATOM      2  O   UNL A   1      33.580  27.029  25.080  1.00  0.00    -0.458 OA
BRANCH   2   3
ATOM      3  C   UNL A   1      32.823  25.926  25.063  1.00  0.00     0.361 C 
ATOM      4  O   UNL A   1      31.786  25.850  24.419  1.00  0.00    -0.245 OA
BRANCH   3   5
ATOM      5  C   UNL A   1      33.350  24.800  25.935  1.00  0.00     0.387 C 
BRANCH   5   6
ATOM      6  N   UNL A   1      33.660  23.612  25.104  1.00  0.00    -0.312 N 
ATOM      7  H   UNL A   1      33.181  23.648  24.204  1.00  0.00     0.349 HD
BRANCH   6   8
ATOM      8  C   UNL A   1      32.970  22.371  25.534  1.00  0.00     0.212 C 
ATOM      9  C   UNL A   1      31.482  22.520  25.838  1.00  0.00     0.081 C 
BRANCH   8  10
ATOM     10  C   UNL A   1      33.304  21.108  24.719  1.00  0.00     0.009 A 
ATOM     11  C   UNL A   1      33.244  16.970  23.467  1.00  0.00     0.044 C 
ATOM     12  C   UNL A   1      33.352  18.436  23.779  1.00  0.00    -0.051 A 
ATOM     13  C   UNL A   1      32.406  19.338  23.287  1.00  0.00     0.004 A 
ATOM     14  C   UNL A   1      34.362  18.916  24.622  1.00  0.00     0.004 A 
ATOM     15  C   UNL A   1      32.386  20.659  23.745  1.00  0.00     0.010 A 
ATOM     16  C   UNL A   1      34.352  20.247  25.073  1.00  0.00     0.010 A 
ENDBRANCH   8  10
ENDBRANCH   6   8
BRANCH   6  17
ATOM     17  C   UNL A   1      35.051  23.636  24.549  1.00  0.00     0.380 C 
BRANCH  17  18
ATOM     18  C   UNL A   1      36.446  23.517  25.250  1.00  0.00     0.438 C 
ATOM     19  F   UNL A   1      36.570  22.378  25.967  1.00  0.00    -0.165 F 
ATOM     20  F   UNL A   1      37.398  23.431  24.272  1.00  0.00    -0.165 F 
ATOM     21  F   UNL A   1      36.829  24.532  26.034  1.00  0.00    -0.165 F 
ENDBRANCH  17  18
ENDBRANCH   6  17
ENDBRANCH   5   6
ENDBRANCH   3   5
ENDBRANCH   2   3
ENDBRANCH   1   2
BRANCH   1  22
ATOM     22  C   UNL A   1      34.745  28.733  26.686  1.00  0.00     0.275 C 
BRANCH  22  23
ATOM     23  O   UNL A   1      34.797  29.609  27.898  1.00  0.00    -0.458 OA
BRANCH  23  24
ATOM     24  C   UNL A   1      35.680  30.344  28.633  1.00  0.00     0.338 C 
ATOM     25  O   UNL A   1      35.360  31.394  29.183  1.00  0.00    -0.246 OA
BRANCH  24  26
ATOM     26  C   UNL A   1      36.987  29.758  28.961  1.00  0.00     0.060 A 
ATOM     27  C   UNL A   1      37.303  29.013  30.114  1.00  0.00     0.016 A 
ATOM     28  C   UNL A   1      37.890  29.799  27.957  1.00  0.00     0.016 A 
ATOM     29  C   UNL A   1      38.488  28.244  30.130  1.00  0.00     0.010 A 
ATOM     30  C   UNL A   1      38.632  28.676  27.800  1.00  0.00     0.010 A 
ATOM     31  C   UNL A   1      39.150  28.066  28.919  1.00  0.00    -0.014 A 
BRANCH  31  32
ATOM     32  C   UNL A   1      40.473  27.540  28.580  1.00  0.00     0.031 A 
ATOM     33  C   UNL A   1      40.702  26.152  28.204  1.00  0.00     0.074 A 
ATOM     34  C   UNL A   1      41.428  28.486  28.358  1.00  0.00     0.049 A 
ATOM     35  N   UNL A   1      41.580  25.386  28.749  1.00  0.00    -0.248 NA
ATOM     36  C   UNL A   1      39.986  25.548  27.082  1.00  0.00     0.031 C 
ATOM     37  C   UNL A   1      42.763  28.425  27.800  1.00  0.00     0.029 A 
ATOM     38  N   UNL A   1      41.292  29.846  28.673  1.00  0.00    -0.354 N 
ATOM     39  C   UNL A   1      41.798  24.376  27.836  1.00  0.00     0.074 A 
ATOM     40  C   UNL A   1      40.669  24.405  26.926  1.00  0.00     0.031 C 
ATOM     41  C   UNL A   1      43.402  29.577  28.115  1.00  0.00     0.029 A 
ATOM     42  C   UNL A   1      42.523  30.396  28.950  1.00  0.00     0.049 A 
ATOM     43  H   UNL A   1      40.439  30.335  28.693  1.00  0.00     0.167 HD
ATOM     44  C   UNL A   1      43.045  23.851  27.664  1.00  0.00     0.034 A 
ATOM     45  C   UNL A   1      42.660  30.821  30.240  1.00  0.00     0.034 A 
ATOM     46  C   UNL A   1      44.057  24.726  28.268  1.00  0.00     0.049 A 
ATOM     47  C   UNL A   1      43.498  29.826  31.000  1.00  0.00     0.074 A 
ATOM     48  C   UNL A   1      44.945  25.620  27.690  1.00  0.00     0.029 A 
ATOM     49  N   UNL A   1      44.037  25.023  29.626  1.00  0.00    -0.354 N 
ATOM     50  N   UNL A   1      43.893  28.687  30.504  1.00  0.00    -0.248 NA
ATOM     51  C   UNL A   1      43.939  30.024  32.372  1.00  0.00     0.031 C 
ATOM     52  C   UNL A   1      45.391  26.513  28.697  1.00  0.00     0.029 A 
ATOM     53  C   UNL A   1      44.798  26.150  29.893  1.00  0.00     0.049 A 
ATOM     54  H   UNL A   1      43.550  24.503  30.304  1.00  0.00     0.167 HD
ATOM     55  C   UNL A   1      44.528  27.963  31.462  1.00  0.00     0.074 A 
ATOM     56  C   UNL A   1      44.602  28.876  32.594  1.00  0.00     0.031 C 
ATOM     57  C   UNL A   1      44.895  26.663  31.253  1.00  0.00     0.034 A 
BRANCH  44  58
ATOM     58  C   UNL A   1      43.395  22.795  26.636  1.00  0.00     0.023 A 
ATOM     59  C   UNL A   1      42.897  21.485  26.785  1.00  0.00     0.031 A 
ATOM     60  C   UNL A   1      44.137  23.031  25.462  1.00  0.00     0.131 A 
ATOM     61  C   UNL A   1      43.199  20.468  25.864  1.00  0.00     0.055 A 
ATOM     62  C   UNL A   1      44.468  22.011  24.555  1.00  0.00     0.041 A 
ATOM     63  F   UNL A   1      44.541  24.267  25.127  1.00  0.00    -0.206 F 
ATOM     64  C   UNL A   1      44.005  20.718  24.757  1.00  0.00     0.022 A 
BRANCH  61  65
ATOM     65  S   UNL A   1      42.487  18.820  26.123  1.00  0.00     0.124 S 
ATOM     66  O   UNL A   1      43.344  17.983  25.290  1.00  0.00    -0.237 OA
ATOM     67  O   UNL A   1      42.621  18.647  27.565  1.00  0.00    -0.237 OA
ATOM     68  O   UNL A   1      41.113  18.966  25.646  1.00  0.00    -0.744 OA
ENDBRANCH  61  65
ENDBRANCH  44  58
BRANCH  45  69
ATOM     69  C   UNL A   1      41.410  31.502  30.778  1.00  0.00     0.023 A 
ATOM     70  C   UNL A   1      40.542  30.741  31.600  1.00  0.00     0.031 A 
ATOM     71  C   UNL A   1      41.228  32.896  30.798  1.00  0.00     0.131 A 
ATOM     72  C   UNL A   1      39.613  31.364  32.458  1.00  0.00     0.055 A 
ATOM     73  C   UNL A   1      40.259  33.512  31.614  1.00  0.00     0.041 A 
ATOM     74  F   UNL A   1      42.042  33.703  30.104  1.00  0.00    -0.206 F 
ATOM     75  C   UNL A   1      39.460  32.749  32.466  1.00  0.00     0.022 A 
BRANCH  72  76
ATOM     76  S   UNL A   1      38.831  30.360  33.761  1.00  0.00     0.124 S 
ATOM     77  O   UNL A   1      39.173  31.097  34.970  1.00  0.00    -0.237 OA
ATOM     78  O   UNL A   1      37.424  30.386  33.363  1.00  0.00    -0.237 OA
ATOM     79  O   UNL A   1      39.465  29.054  33.610  1.00  0.00    -0.744 OA
ENDBRANCH  72  76
ENDBRANCH  45  69
BRANCH  57  80
ATOM     80  C   UNL A   1      45.464  25.789  32.328  1.00  0.00     0.023 A 
ATOM     81  C   UNL A   1      44.687  24.853  33.014  1.00  0.00     0.031 A 
ATOM     82  C   UNL A   1      46.826  25.862  32.688  1.00  0.00     0.131 A 
ATOM     83  C   UNL A   1      45.201  24.177  34.124  1.00  0.00     0.055 A 
ATOM     84  C   UNL A   1      47.373  25.086  33.710  1.00  0.00     0.041 A 
ATOM     85  F   UNL A   1      47.676  26.699  32.072  1.00  0.00    -0.206 F 
ATOM     86  C   UNL A   1      46.547  24.266  34.465  1.00  0.00     0.022 A 
BRANCH  83  87
ATOM     87  S   UNL A   1      44.018  23.331  35.197  1.00  0.00     0.124 S 
ATOM     88  O   UNL A   1      44.249  21.931  34.847  1.00  0.00    -0.237 OA
ATOM     89  O   UNL A   1      44.459  23.730  36.528  1.00  0.00    -0.237 OA
ATOM     90  O   UNL A   1      42.727  23.870  34.776  1.00  0.00    -0.744 OA
ENDBRANCH  83  87
ENDBRANCH  57  80
ENDBRANCH  31  32
ENDBRANCH  24  26
ENDBRANCH  23  24
ENDBRANCH  22  23
ENDBRANCH   1  22
TORSDOF 19
ENDMDL
MODEL 2
REMARK VINA RESULT:     -11.1      1.587      2.206
REMARK SMILES Cc1ccc([C@H](C)[N@@H+](CC(=O)OCCOC(=O)c2ccc(-c3c4nc(c(-c5cc(S(=O)(=O)[O-])ccc5F)c5ccc([nH]5)c(-c5cc(S(=O)(=O)[O-])ccc5F)c5nc(c(-c6cc(S(=O)(=O)[O-])ccc6F)c6ccc3[nH]6)C=C5)C=C4)cc2)CC(F)(F)F)cc1
REMARK SMILES IDX 13 1 12 2 10 3 11 4 9 5 8 6 6 8 7 9 5 10 1 11 2 12 3 13
REMARK SMILES IDX 87 14 4 15 86 16 81 17 82 18 83 19 84 20 85 21 14 22 15 23
REMARK SMILES IDX 16 24 17 25 18 26 19 27 80 28 20 29 79 30 21 31 22 32 23 33
REMARK SMILES IDX 73 34 24 35 78 36 72 37 74 38 25 39 77 40 71 41 70 42 26 44
REMARK SMILES IDX 58 45 38 46 57 47 39 48 42 49 56 50 75 51 40 52 41 53 55 55
REMARK SMILES IDX 76 56 43 57 27 58 28 59 36 60 29 61 35 62 37 63 34 64 30 65
REMARK SMILES IDX 31 66 32 67 33 68 59 69 60 70 68 71 61 72 67 73 69 74 66 75
REMARK SMILES IDX 62 76 63 77 64 78 65 79 44 80 45 81 53 82 46 83 52 84 54 85
REMARK SMILES IDX 51 86 47 87 48 88 49 89 50 90
REMARK H PARENT 8 7 74 43 42 54
REMARK Flexibility Score: inf
ROOT
ATOM      1  C   UNL A   1      33.184  28.252  26.544  1.00  0.00     0.274 C 
ENDROOT
BRANCH   1   2
ATOM      2  O   UNL A   1      32.976  27.813  25.192  1.00  0.00    -0.458 OA
BRANCH   2   3
ATOM      3  C   UNL A   1      33.238  26.518  24.981  1.00  0.00     0.361 C 
ATOM      4  O   UNL A   1      34.235  25.968  25.427  1.00  0.00    -0.245 OA
BRANCH   3   5
ATOM      5  C   UNL A   1      32.209  25.812  24.117  1.00  0.00     0.387 C 
BRANCH   5   6
ATOM      6  N   UNL A   1      32.249  24.351  24.366  1.00  0.00    -0.312 N 
ATOM      7  H   UNL A   1      32.953  24.107  25.063  1.00  0.00     0.349 HD
BRANCH   6   8
ATOM      8  C   UNL A   1      32.900  23.566  23.288  1.00  0.00     0.212 C 
ATOM      9  C   UNL A   1      32.927  24.235  21.916  1.00  0.00     0.081 C 
BRANCH   8  10
ATOM     10  C   UNL A   1      34.232  22.894  23.666  1.00  0.00     0.009 A 
ATOM     11  C   UNL A   1      37.967  22.194  25.727  1.00  0.00     0.044 C 
ATOM     12  C   UNL A   1      36.694  22.304  24.939  1.00  0.00    -0.051 A 
ATOM     13  C   UNL A   1      35.498  21.788  25.445  1.00  0.00     0.004 A 
ATOM     14  C   UNL A   1      36.666  22.984  23.714  1.00  0.00     0.004 A 
ATOM     15  C   UNL A   1      34.283  22.072  24.812  1.00  0.00     0.010 A 
ATOM     16  C   UNL A   1      35.448  23.259  23.070  1.00  0.00     0.010 A 
ENDBRANCH   8  10
ENDBRANCH   6   8
BRANCH   6  17
ATOM     17  C   UNL A   1      31.070  23.861  25.149  1.00  0.00     0.380 C 
BRANCH  17  18
ATOM     18  C   UNL A   1      30.915  22.660  26.142  1.00  0.00     0.438 C 
ATOM     19  F   UNL A   1      31.152  21.467  25.553  1.00  0.00    -0.165 F 
ATOM     20  F   UNL A   1      31.880  22.786  27.102  1.00  0.00    -0.165 F 
ATOM     21  F   UNL A   1      29.758  22.559  26.808  1.00  0.00    -0.165 F 
ENDBRANCH  17  18
ENDBRANCH   6  17
ENDBRANCH   5   6
ENDBRANCH   3   5
ENDBRANCH   2   3
ENDBRANCH   1   2
BRANCH   1  22
ATOM     22  C   UNL A   1      34.526  28.957  26.960  1.00  0.00     0.275 C 
BRANCH  22  23
ATOM     23  O   UNL A   1      34.638  30.160  27.843  1.00  0.00    -0.458 OA
BRANCH  23  24
ATOM     24  C   UNL A   1      35.555  30.844  28.587  1.00  0.00     0.338 C 
ATOM     25  O   UNL A   1      35.301  31.924  29.110  1.00  0.00    -0.246 OA
BRANCH  24  26
ATOM     26  C   UNL A   1      36.807  30.170  28.957  1.00  0.00     0.060 A 
ATOM     27  C   UNL A   1      36.995  29.296  30.047  1.00  0.00     0.016 A 
ATOM     28  C   UNL A   1      37.795  30.274  28.041  1.00  0.00     0.016 A 
ATOM     29  C   UNL A   1      38.147  28.479  30.079  1.00  0.00     0.010 A 
ATOM     30  C   UNL A   1      38.508  29.141  27.828  1.00  0.00     0.010 A 
ATOM     31  C   UNL A   1      38.905  28.397  28.915  1.00  0.00    -0.014 A 
BRANCH  31  32
ATOM     32  C   UNL A   1      40.233  27.851  28.632  1.00  0.00     0.031 A 
ATOM     33  C   UNL A   1      40.455  26.465  28.247  1.00  0.00     0.074 A 
ATOM     34  C   UNL A   1      41.215  28.782  28.471  1.00  0.00     0.049 A 
ATOM     35  N   UNL A   1      41.291  25.675  28.822  1.00  0.00    -0.248 NA
ATOM     36  C   UNL A   1      39.784  25.890  27.083  1.00  0.00     0.031 C 
ATOM     37  C   UNL A   1      42.574  28.704  27.978  1.00  0.00     0.029 A 
ATOM     38  N   UNL A   1      41.089  30.140  28.799  1.00  0.00    -0.354 N 
ATOM     39  C   UNL A   1      41.535  24.674  27.906  1.00  0.00     0.074 A 
ATOM     40  C   UNL A   1      40.453  24.737  26.943  1.00  0.00     0.031 C 
ATOM     41  C   UNL A   1      43.218  29.839  28.340  1.00  0.00     0.029 A 
ATOM     42  C   UNL A   1      42.315  30.663  29.144  1.00  0.00     0.049 A 
ATOM     43  H   UNL A   1      40.244  30.645  28.785  1.00  0.00     0.167 HD
ATOM     44  C   UNL A   1      42.780  24.128  27.787  1.00  0.00     0.034 A 
ATOM     45  C   UNL A   1      42.396  31.067  30.445  1.00  0.00     0.034 A 
ATOM     46  C   UNL A   1      43.777  24.975  28.452  1.00  0.00     0.049 A 
ATOM     47  C   UNL A   1      43.177  30.046  31.229  1.00  0.00     0.074 A 
ATOM     48  C   UNL A   1      44.708  25.860  27.931  1.00  0.00     0.029 A 
ATOM     49  N   UNL A   1      43.697  25.253  29.811  1.00  0.00    -0.354 N 
ATOM     50  N   UNL A   1      43.575  28.907  30.737  1.00  0.00    -0.248 NA
ATOM     51  C   UNL A   1      43.555  30.216  32.624  1.00  0.00     0.031 C 
ATOM     52  C   UNL A   1      45.121  26.731  28.971  1.00  0.00     0.029 A 
ATOM     53  C   UNL A   1      44.464  26.362  30.132  1.00  0.00     0.049 A 
ATOM     54  H   UNL A   1      43.167  24.733  30.458  1.00  0.00     0.167 HD
ATOM     55  C   UNL A   1      44.151  28.157  31.713  1.00  0.00     0.074 A 
ATOM     56  C   UNL A   1      44.185  29.053  32.861  1.00  0.00     0.031 C 
ATOM     57  C   UNL A   1      44.504  26.854  31.503  1.00  0.00     0.034 A 
BRANCH  44  58
ATOM     58  C   UNL A   1      43.160  23.080  26.762  1.00  0.00     0.023 A 
ATOM     59  C   UNL A   1      42.757  21.742  26.949  1.00  0.00     0.031 A 
ATOM     60  C   UNL A   1      43.839  23.345  25.555  1.00  0.00     0.131 A 
ATOM     61  C   UNL A   1      43.092  20.732  26.031  1.00  0.00     0.055 A 
ATOM     62  C   UNL A   1      44.203  22.334  24.651  1.00  0.00     0.041 A 
ATOM     63  F   UNL A   1      44.146  24.599  25.187  1.00  0.00    -0.206 F 
ATOM     64  C   UNL A   1      43.836  21.016  24.890  1.00  0.00     0.022 A 
BRANCH  61  65
ATOM     65  S   UNL A   1      42.502  19.045  26.342  1.00  0.00     0.124 S 
ATOM     66  O   UNL A   1      43.582  18.237  25.783  1.00  0.00    -0.237 OA
ATOM     67  O   UNL A   1      42.368  19.026  27.794  1.00  0.00    -0.237 OA
ATOM     68  O   UNL A   1      41.240  18.987  25.607  1.00  0.00    -0.744 OA
ENDBRANCH  61  65
ENDBRANCH  44  58
BRANCH  45  69
ATOM     69  C   UNL A   1      41.134  31.763  30.932  1.00  0.00     0.023 A 
ATOM     70  C   UNL A   1      40.198  30.999  31.672  1.00  0.00     0.031 A 
ATOM     71  C   UNL A   1      40.988  33.161  30.993  1.00  0.00     0.131 A 
ATOM     72  C   UNL A   1      39.235  31.618  32.495  1.00  0.00     0.055 A 
ATOM     73  C   UNL A   1      39.987  33.774  31.771  1.00  0.00     0.041 A 
ATOM     74  F   UNL A   1      41.863  33.969  30.379  1.00  0.00    -0.206 F 
ATOM     75  C   UNL A   1      39.118  33.005  32.545  1.00  0.00     0.022 A 
BRANCH  72  76
ATOM     76  S   UNL A   1      38.350  30.591  33.711  1.00  0.00     0.124 S 
ATOM     77  O   UNL A   1      36.985  30.608  33.201  1.00  0.00    -0.237 OA
ATOM     78  O   UNL A   1      39.062  29.317  33.612  1.00  0.00    -0.237 OA
ATOM     79  O   UNL A   1      38.566  31.294  34.971  1.00  0.00    -0.744 OA
ENDBRANCH  72  76
ENDBRANCH  45  69
BRANCH  57  80
ATOM     80  C   UNL A   1      45.004  25.955  32.591  1.00  0.00     0.023 A 
ATOM     81  C   UNL A   1      44.180  25.514  33.628  1.00  0.00     0.031 A 
ATOM     82  C   UNL A   1      46.338  25.496  32.607  1.00  0.00     0.131 A 
ATOM     83  C   UNL A   1      44.714  24.820  34.717  1.00  0.00     0.055 A 
ATOM     84  C   UNL A   1      46.838  24.688  33.628  1.00  0.00     0.041 A 
ATOM     85  F   UNL A   1      47.210  25.825  31.642  1.00  0.00    -0.206 F 
ATOM     86  C   UNL A   1      46.034  24.379  34.716  1.00  0.00     0.022 A 
BRANCH  83  87
ATOM     87  S   UNL A   1      43.681  24.674  36.193  1.00  0.00     0.124 S 
ATOM     88  O   UNL A   1      44.611  24.074  37.148  1.00  0.00    -0.237 OA
ATOM     89  O   UNL A   1      43.312  26.061  36.457  1.00  0.00    -0.237 OA
ATOM     90  O   UNL A   1      42.588  23.806  35.762  1.00  0.00    -0.744 OA
ENDBRANCH  83  87
ENDBRANCH  57  80
ENDBRANCH  31  32
ENDBRANCH  24  26
ENDBRANCH  23  24
ENDBRANCH  22  23
ENDBRANCH   1  22
TORSDOF 19
ENDMDL
MODEL 3
REMARK VINA RESULT:     -11.0      2.881      4.326
REMARK SMILES Cc1ccc([C@H](C)[N@@H+](CC(=O)OCCOC(=O)c2ccc(-c3c4nc(c(-c5cc(S(=O)(=O)[O-])ccc5F)c5ccc([nH]5)c(-c5cc(S(=O)(=O)[O-])ccc5F)c5nc(c(-c6cc(S(=O)(=O)[O-])ccc6F)c6ccc3[nH]6)C=C5)C=C4)cc2)CC(F)(F)F)cc1
REMARK SMILES IDX 13 1 12 2 10 3 11 4 9 5 8 6 6 8 7 9 5 10 1 11 2 12 3 13
REMARK SMILES IDX 87 14 4 15 86 16 81 17 82 18 83 19 84 20 85 21 14 22 15 23
REMARK SMILES IDX 16 24 17 25 18 26 19 27 80 28 20 29 79 30 21 31 22 32 23 33
REMARK SMILES IDX 73 34 24 35 78 36 72 37 74 38 25 39 77 40 71 41 70 42 26 44
REMARK SMILES IDX 58 45 38 46 57 47 39 48 42 49 56 50 75 51 40 52 41 53 55 55
REMARK SMILES IDX 76 56 43 57 27 58 28 59 36 60 29 61 35 62 37 63 34 64 30 65
REMARK SMILES IDX 31 66 32 67 33 68 59 69 60 70 68 71 61 72 67 73 69 74 66 75
REMARK SMILES IDX 62 76 63 77 64 78 65 79 44 80 45 81 53 82 46 83 52 84 54 85
REMARK SMILES IDX 51 86 47 87 48 88 49 89 50 90
REMARK H PARENT 8 7 74 43 42 54
REMARK Flexibility Score: inf
ROOT
ATOM      1  C   UNL A   1      33.126  28.781  27.162  1.00  0.00     0.274 C 
ENDROOT
BRANCH   1   2
ATOM      2  O   UNL A   1      32.649  27.828  26.198  1.00  0.00    -0.458 OA
BRANCH   2   3
ATOM      3  C   UNL A   1      31.644  28.268  25.431  1.00  0.00     0.361 C 
ATOM      4  O   UNL A   1      31.534  29.439  25.100  1.00  0.00    -0.245 OA
BRANCH   3   5
ATOM      5  C   UNL A   1      30.647  27.191  25.042  1.00  0.00     0.387 C 
BRANCH   5   6
ATOM      6  N   UNL A   1      30.463  27.172  23.572  1.00  0.00    -0.312 N 
ATOM      7  H   UNL A   1      30.807  28.030  23.138  1.00  0.00     0.349 HD
BRANCH   6   8
ATOM      8  C   UNL A   1      29.064  27.391  23.129  1.00  0.00     0.212 C 
ATOM      9  C   UNL A   1      27.997  26.675  23.952  1.00  0.00     0.081 C 
BRANCH   8  10
ATOM     10  C   UNL A   1      28.694  28.845  22.783  1.00  0.00     0.009 A 
ATOM     11  C   UNL A   1      28.700  33.165  22.940  1.00  0.00     0.044 C 
ATOM     12  C   UNL A   1      28.606  31.677  22.764  1.00  0.00    -0.051 A 
ATOM     13  C   UNL A   1      29.527  30.996  21.965  1.00  0.00     0.004 A 
ATOM     14  C   UNL A   1      27.635  30.935  23.449  1.00  0.00     0.004 A 
ATOM     15  C   UNL A   1      29.567  29.598  21.968  1.00  0.00     0.010 A 
ATOM     16  C   UNL A   1      27.664  29.530  23.442  1.00  0.00     0.010 A 
ENDBRANCH   8  10
ENDBRANCH   6   8
BRANCH   6  17
ATOM     17  C   UNL A   1      31.415  26.247  22.877  1.00  0.00     0.380 C 
BRANCH  17  18
ATOM     18  C   UNL A   1      32.881  26.463  22.370  1.00  0.00     0.438 C 
ATOM     19  F   UNL A   1      33.745  25.556  22.881  1.00  0.00    -0.165 F 
ATOM     20  F   UNL A   1      32.891  26.247  21.020  1.00  0.00    -0.165 F 
ATOM     21  F   UNL A   1      33.420  27.675  22.543  1.00  0.00    -0.165 F 
ENDBRANCH  17  18
ENDBRANCH   6  17
ENDBRANCH   5   6
ENDBRANCH   3   5
ENDBRANCH   2   3
ENDBRANCH   1   2
BRANCH   1  22
ATOM     22  C   UNL A   1      34.638  29.212  27.180  1.00  0.00     0.275 C 
BRANCH  22  23
ATOM     23  O   UNL A   1      35.178  30.454  27.818  1.00  0.00    -0.458 OA
BRANCH  23  24
ATOM     24  C   UNL A   1      35.969  30.851  28.855  1.00  0.00     0.338 C 
ATOM     25  O   UNL A   1      35.619  31.713  29.655  1.00  0.00    -0.246 OA
BRANCH  24  26
ATOM     26  C   UNL A   1      37.180  30.074  29.157  1.00  0.00     0.060 A 
ATOM     27  C   UNL A   1      37.395  29.269  30.293  1.00  0.00     0.016 A 
ATOM     28  C   UNL A   1      38.070  30.001  28.143  1.00  0.00     0.016 A 
ATOM     29  C   UNL A   1      38.455  28.336  30.282  1.00  0.00     0.010 A 
ATOM     30  C   UNL A   1      38.639  28.785  27.958  1.00  0.00     0.010 A 
ATOM     31  C   UNL A   1      39.073  28.085  29.060  1.00  0.00    -0.014 A 
BRANCH  31  32
ATOM     32  C   UNL A   1      40.301  27.378  28.696  1.00  0.00     0.031 A 
ATOM     33  C   UNL A   1      40.360  25.935  28.511  1.00  0.00     0.074 A 
ATOM     34  C   UNL A   1      41.315  28.177  28.261  1.00  0.00     0.049 A 
ATOM     35  N   UNL A   1      41.209  25.162  29.090  1.00  0.00    -0.248 NA
ATOM     36  C   UNL A   1      39.486  25.262  27.551  1.00  0.00     0.031 C 
ATOM     37  C   UNL A   1      42.579  27.896  27.612  1.00  0.00     0.029 A 
ATOM     38  N   UNL A   1      41.340  29.573  28.382  1.00  0.00    -0.354 N 
ATOM     39  C   UNL A   1      41.242  24.018  28.320  1.00  0.00     0.074 A 
ATOM     40  C   UNL A   1      40.040  24.043  27.511  1.00  0.00     0.031 C 
ATOM     41  C   UNL A   1      43.352  29.004  27.701  1.00  0.00     0.029 A 
ATOM     42  C   UNL A   1      42.639  30.021  28.475  1.00  0.00     0.049 A 
ATOM     43  H   UNL A   1      40.543  30.150  28.399  1.00  0.00     0.167 HD
ATOM     44  C   UNL A   1      42.412  23.343  28.127  1.00  0.00     0.034 A 
ATOM     45  C   UNL A   1      42.938  30.602  29.673  1.00  0.00     0.034 A 
ATOM     46  C   UNL A   1      43.555  24.179  28.512  1.00  0.00     0.049 A 
ATOM     47  C   UNL A   1      43.746  29.638  30.501  1.00  0.00     0.074 A 
ATOM     48  C   UNL A   1      44.465  24.884  27.739  1.00  0.00     0.029 A 
ATOM     49  N   UNL A   1      43.694  24.661  29.809  1.00  0.00    -0.354 N 
ATOM     50  N   UNL A   1      43.982  28.405  30.148  1.00  0.00    -0.248 NA
ATOM     51  C   UNL A   1      44.333  29.975  31.789  1.00  0.00     0.031 C 
ATOM     52  C   UNL A   1      45.088  25.854  28.564  1.00  0.00     0.029 A 
ATOM     53  C   UNL A   1      44.580  25.725  29.845  1.00  0.00     0.049 A 
ATOM     54  H   UNL A   1      43.226  24.295  30.593  1.00  0.00     0.167 HD
ATOM     55  C   UNL A   1      44.635  27.756  31.147  1.00  0.00     0.074 A 
ATOM     56  C   UNL A   1      44.902  28.804  32.122  1.00  0.00     0.031 C 
ATOM     57  C   UNL A   1      44.855  26.408  31.103  1.00  0.00     0.034 A 
BRANCH  44  58
ATOM     58  C   UNL A   1      42.560  22.124  27.241  1.00  0.00     0.023 A 
ATOM     59  C   UNL A   1      43.600  22.073  26.291  1.00  0.00     0.031 A 
ATOM     60  C   UNL A   1      41.769  20.961  27.337  1.00  0.00     0.131 A 
ATOM     61  C   UNL A   1      43.773  20.968  25.440  1.00  0.00     0.055 A 
ATOM     62  C   UNL A   1      41.920  19.868  26.468  1.00  0.00     0.041 A 
ATOM     63  F   UNL A   1      40.844  20.822  28.299  1.00  0.00    -0.206 F 
ATOM     64  C   UNL A   1      42.921  19.870  25.507  1.00  0.00     0.022 A 
BRANCH  61  65
ATOM     65  S   UNL A   1      45.159  20.982  24.270  1.00  0.00     0.124 S 
ATOM     66  O   UNL A   1      46.311  20.902  25.162  1.00  0.00    -0.237 OA
ATOM     67  O   UNL A   1      44.889  19.802  23.456  1.00  0.00    -0.237 OA
ATOM     68  O   UNL A   1      45.002  22.258  23.574  1.00  0.00    -0.744 OA
ENDBRANCH  61  65
ENDBRANCH  44  58
BRANCH  45  69
ATOM     69  C   UNL A   1      41.815  31.482  30.205  1.00  0.00     0.023 A 
ATOM     70  C   UNL A   1      40.923  30.918  31.150  1.00  0.00     0.031 A 
ATOM     71  C   UNL A   1      41.799  32.883  30.086  1.00  0.00     0.131 A 
ATOM     72  C   UNL A   1      40.133  31.733  31.987  1.00  0.00     0.055 A 
ATOM     73  C   UNL A   1      40.966  33.690  30.885  1.00  0.00     0.041 A 
ATOM     74  F   UNL A   1      42.651  33.511  29.265  1.00  0.00    -0.206 F 
ATOM     75  C   UNL A   1      40.144  33.120  31.856  1.00  0.00     0.022 A 
BRANCH  72  76
ATOM     76  S   UNL A   1      39.331  30.967  33.432  1.00  0.00     0.124 S 
ATOM     77  O   UNL A   1      39.713  29.567  33.296  1.00  0.00    -0.237 OA
ATOM     78  O   UNL A   1      39.940  31.698  34.543  1.00  0.00    -0.237 OA
ATOM     79  O   UNL A   1      37.916  31.263  33.231  1.00  0.00    -0.744 OA
ENDBRANCH  72  76
ENDBRANCH  45  69
BRANCH  57  80
ATOM     80  C   UNL A   1      45.438  25.635  32.244  1.00  0.00     0.023 A 
ATOM     81  C   UNL A   1      44.645  24.889  33.119  1.00  0.00     0.031 A 
ATOM     82  C   UNL A   1      46.829  25.613  32.480  1.00  0.00     0.131 A 
ATOM     83  C   UNL A   1      45.196  24.321  34.271  1.00  0.00     0.055 A 
ATOM     84  C   UNL A   1      47.394  24.931  33.558  1.00  0.00     0.041 A 
ATOM     85  F   UNL A   1      47.691  26.263  31.683  1.00  0.00    -0.206 F 
ATOM     86  C   UNL A   1      46.570  24.313  34.488  1.00  0.00     0.022 A 
BRANCH  83  87
ATOM     87  S   UNL A   1      44.045  23.759  35.547  1.00  0.00     0.124 S 
ATOM     88  O   UNL A   1      44.858  22.784  36.271  1.00  0.00    -0.237 OA
ATOM     89  O   UNL A   1      43.747  24.992  36.267  1.00  0.00    -0.237 OA
ATOM     90  O   UNL A   1      42.935  23.195  34.782  1.00  0.00    -0.744 OA
ENDBRANCH  83  87
ENDBRANCH  57  80
ENDBRANCH  31  32
ENDBRANCH  24  26
ENDBRANCH  23  24
ENDBRANCH  22  23
ENDBRANCH   1  22
TORSDOF 19
ENDMDL
