MODEL 1
REMARK VINA RESULT:     -12.4      0.000      0.000
REMARK SMILES Cc1cc2c(c(C)c1Cl)C=C(C(=O)OCCOC(=O)c1ccc(-c3c4nc(c(-c5cc(S(=O)(=O)[O-])ccc5F)c5ccc([nH]5)c(-c5cc(S(=O)(=O)[O-])ccc5F)c5nc(c(-c6cc(S(=O)(=O)[O-])ccc6F)c6ccc3[nH]6)C=C5)C=C4)cc1)[C@@H](C(F)(F)F)O2
REMARK SMILES IDX 16 1 15 2 14 3 12 4 13 5 11 6 1 7 2 8 3 9 8 10 4 11 6 12
REMARK SMILES IDX 9 13 5 14 88 15 7 16 10 17 83 18 84 19 85 20 86 21 87 22
REMARK SMILES IDX 17 23 18 24 19 25 20 26 21 27 82 28 22 29 81 30 23 31 24 32
REMARK SMILES IDX 25 33 75 34 26 35 80 36 74 37 76 38 27 39 79 40 73 41 72 42
REMARK SMILES IDX 28 44 60 45 40 46 59 47 41 48 44 49 58 50 77 51 42 52 43 53
REMARK SMILES IDX 57 55 78 56 45 57 29 58 30 59 38 60 31 61 37 62 39 63 36 64
REMARK SMILES IDX 32 65 33 66 34 67 35 68 61 69 62 70 70 71 63 72 69 73 71 74
REMARK SMILES IDX 68 75 64 76 65 77 66 78 67 79 46 80 47 81 55 82 48 83 54 84
REMARK SMILES IDX 56 85 53 86 49 87 50 88 51 89 52 90
REMARK H PARENT 76 43 44 54
REMARK Flexibility Score: inf
ROOT
ATOM      1  C   UNL A   1      31.716  30.235  26.588  1.00  0.00     0.275 C 
ENDROOT
BRANCH   1   2
ATOM      2  C   UNL A   1      31.758  29.160  25.502  1.00  0.00     0.275 C 
BRANCH   2   3
ATOM      3  O   UNL A   1      32.503  28.001  25.934  1.00  0.00    -0.459 OA
BRANCH   3   4
ATOM      4  C   UNL A   1      33.323  27.454  25.006  1.00  0.00     0.338 C 
ATOM      5  O   UNL A   1      34.021  28.059  24.207  1.00  0.00    -0.246 OA
BRANCH   4   6
ATOM      6  C   UNL A   1      33.261  25.980  25.064  1.00  0.00     0.087 C 
ATOM      7  C   UNL A   1      34.074  19.544  24.706  1.00  0.00     0.046 C 
ATOM      8  C   UNL A   1      34.213  21.036  24.842  1.00  0.00    -0.028 A 
ATOM      9  C   UNL A   1      33.059  21.829  24.851  1.00  0.00     0.052 A 
ATOM     10  C   UNL A   1      35.470  21.655  24.979  1.00  0.00     0.047 A 
ATOM     11  C   UNL A   1      33.144  23.217  24.961  1.00  0.00     0.128 A 
ATOM     12  C   UNL A   1      35.578  23.059  25.095  1.00  0.00    -0.021 A 
ATOM     13  Cl  UNL A   1      36.888  20.649  24.996  1.00  0.00    -0.084 Cl
ATOM     14  C   UNL A   1      34.392  23.841  25.072  1.00  0.00     0.022 A 
ATOM     15  O   UNL A   1      31.944  23.873  24.967  1.00  0.00    -0.475 OA
ATOM     16  C   UNL A   1      36.923  23.728  25.262  1.00  0.00     0.047 C 
ATOM     17  C   UNL A   1      34.411  25.300  25.142  1.00  0.00     0.027 C 
ATOM     18  C   UNL A   1      31.927  25.321  24.897  1.00  0.00     0.316 C 
BRANCH  18  19
ATOM     19  C   UNL A   1      31.253  25.747  23.582  1.00  0.00     0.430 C 
ATOM     20  F   UNL A   1      32.170  26.087  22.644  1.00  0.00    -0.167 F 
ATOM     21  F   UNL A   1      30.520  24.739  23.048  1.00  0.00    -0.167 F 
ATOM     22  F   UNL A   1      30.427  26.805  23.744  1.00  0.00    -0.167 F 
ENDBRANCH  18  19
ENDBRANCH   4   6
ENDBRANCH   3   4
ENDBRANCH   2   3
ENDBRANCH   1   2
BRANCH   1  23
ATOM     23  O   UNL A   1      32.872  30.123  27.436  1.00  0.00    -0.458 OA
BRANCH  23  24
ATOM     24  C   UNL A   1      33.601  31.256  27.558  1.00  0.00     0.338 C 
ATOM     25  O   UNL A   1      33.181  32.401  27.590  1.00  0.00    -0.246 OA
BRANCH  24  26
ATOM     26  C   UNL A   1      35.027  30.937  27.740  1.00  0.00     0.060 A 
ATOM     27  C   UNL A   1      35.397  29.614  27.936  1.00  0.00     0.016 A 
ATOM     28  C   UNL A   1      35.952  31.955  27.957  1.00  0.00     0.016 A 
ATOM     29  C   UNL A   1      36.619  29.321  28.537  1.00  0.00     0.010 A 
ATOM     30  C   UNL A   1      37.234  31.638  28.427  1.00  0.00     0.010 A 
ATOM     31  C   UNL A   1      37.561  30.323  28.808  1.00  0.00    -0.014 A 
BRANCH  31  32
ATOM     32  C   UNL A   1      38.823  30.031  29.567  1.00  0.00     0.031 A 
ATOM     33  C   UNL A   1      39.872  29.117  28.965  1.00  0.00     0.074 A 
ATOM     34  C   UNL A   1      39.090  30.598  30.765  1.00  0.00     0.049 A 
ATOM     35  N   UNL A   1      40.858  28.484  29.549  1.00  0.00    -0.248 NA
ATOM     36  C   UNL A   1      39.787  28.870  27.515  1.00  0.00     0.031 C 
ATOM     37  C   UNL A   1      38.262  31.592  31.451  1.00  0.00     0.029 A 
ATOM     38  N   UNL A   1      40.157  30.426  31.619  1.00  0.00    -0.354 N 
ATOM     39  C   UNL A   1      41.456  27.705  28.559  1.00  0.00     0.074 A 
ATOM     40  C   UNL A   1      40.723  27.947  27.337  1.00  0.00     0.031 C 
ATOM     41  C   UNL A   1      38.879  31.991  32.571  1.00  0.00     0.029 A 
ATOM     42  C   UNL A   1      40.063  31.168  32.775  1.00  0.00     0.049 A 
ATOM     43  H   UNL A   1      40.915  29.829  31.421  1.00  0.00     0.167 HD
ATOM     44  C   UNL A   1      42.515  26.862  28.668  1.00  0.00     0.034 A 
ATOM     45  C   UNL A   1      40.786  31.142  33.914  1.00  0.00     0.034 A 
ATOM     46  C   UNL A   1      43.289  26.693  29.874  1.00  0.00     0.049 A 
ATOM     47  C   UNL A   1      41.890  30.132  34.052  1.00  0.00     0.074 A 
ATOM     48  C   UNL A   1      44.371  25.857  30.093  1.00  0.00     0.029 A 
ATOM     49  N   UNL A   1      43.088  27.396  31.053  1.00  0.00    -0.354 N 
ATOM     50  N   UNL A   1      42.335  29.270  33.170  1.00  0.00    -0.248 NA
ATOM     51  C   UNL A   1      42.564  30.067  35.356  1.00  0.00     0.031 C 
ATOM     52  C   UNL A   1      44.785  26.012  31.420  1.00  0.00     0.029 A 
ATOM     53  C   UNL A   1      44.009  26.995  32.010  1.00  0.00     0.049 A 
ATOM     54  H   UNL A   1      42.393  28.080  31.191  1.00  0.00     0.167 HD
ATOM     55  C   UNL A   1      43.344  28.559  33.814  1.00  0.00     0.074 A 
ATOM     56  C   UNL A   1      43.459  29.114  35.147  1.00  0.00     0.031 C 
ATOM     57  C   UNL A   1      44.100  27.535  33.343  1.00  0.00     0.034 A 
BRANCH  44  58
ATOM     58  C   UNL A   1      42.867  26.006  27.475  1.00  0.00     0.023 A 
ATOM     59  C   UNL A   1      42.389  24.695  27.317  1.00  0.00     0.031 A 
ATOM     60  C   UNL A   1      43.674  26.541  26.451  1.00  0.00     0.131 A 
ATOM     61  C   UNL A   1      42.751  23.952  26.181  1.00  0.00     0.055 A 
ATOM     62  C   UNL A   1      43.977  25.821  25.296  1.00  0.00     0.041 A 
ATOM     63  F   UNL A   1      44.174  27.784  26.556  1.00  0.00    -0.206 F 
ATOM     64  C   UNL A   1      43.519  24.515  25.158  1.00  0.00     0.022 A 
BRANCH  61  65
ATOM     65  S   UNL A   1      42.267  22.206  26.086  1.00  0.00     0.124 S 
ATOM     66  O   UNL A   1      40.819  22.311  25.924  1.00  0.00    -0.237 OA
ATOM     67  O   UNL A   1      43.008  21.735  24.921  1.00  0.00    -0.237 OA
ATOM     68  O   UNL A   1      42.707  21.657  27.366  1.00  0.00    -0.744 OA
ENDBRANCH  61  65
ENDBRANCH  44  58
BRANCH  45  69
ATOM     69  C   UNL A   1      40.410  32.024  35.057  1.00  0.00     0.023 A 
ATOM     70  C   UNL A   1      39.405  31.646  35.960  1.00  0.00     0.031 A 
ATOM     71  C   UNL A   1      41.051  33.260  35.259  1.00  0.00     0.131 A 
ATOM     72  C   UNL A   1      39.065  32.502  37.020  1.00  0.00     0.055 A 
ATOM     73  C   UNL A   1      40.747  34.080  36.345  1.00  0.00     0.041 A 
ATOM     74  F   UNL A   1      42.015  33.672  34.420  1.00  0.00    -0.206 F 
ATOM     75  C   UNL A   1      39.743  33.705  37.231  1.00  0.00     0.022 A 
BRANCH  72  76
ATOM     76  S   UNL A   1      37.691  32.036  38.108  1.00  0.00     0.124 S 
ATOM     77  O   UNL A   1      36.688  33.038  37.765  1.00  0.00    -0.237 OA
ATOM     78  O   UNL A   1      37.409  30.671  37.676  1.00  0.00    -0.237 OA
ATOM     79  O   UNL A   1      38.262  32.156  39.448  1.00  0.00    -0.744 OA
ENDBRANCH  72  76
ENDBRANCH  45  69
BRANCH  57  80
ATOM     80  C   UNL A   1      45.132  26.963  34.281  1.00  0.00     0.023 A 
ATOM     81  C   UNL A   1      44.835  25.872  35.115  1.00  0.00     0.031 A 
ATOM     82  C   UNL A   1      46.420  27.523  34.353  1.00  0.00     0.131 A 
ATOM     83  C   UNL A   1      45.794  25.408  36.025  1.00  0.00     0.055 A 
ATOM     84  C   UNL A   1      47.389  27.019  35.220  1.00  0.00     0.041 A 
ATOM     85  F   UNL A   1      46.754  28.568  33.580  1.00  0.00    -0.206 F 
ATOM     86  C   UNL A   1      47.076  25.964  36.072  1.00  0.00     0.022 A 
BRANCH  83  87
ATOM     87  S   UNL A   1      45.316  24.122  37.211  1.00  0.00     0.124 S 
ATOM     88  O   UNL A   1      44.914  23.032  36.327  1.00  0.00    -0.237 OA
ATOM     89  O   UNL A   1      46.548  23.913  37.962  1.00  0.00    -0.237 OA
ATOM     90  O   UNL A   1      44.228  24.741  37.967  1.00  0.00    -0.744 OA
ENDBRANCH  83  87
ENDBRANCH  57  80
ENDBRANCH  31  32
ENDBRANCH  24  26
ENDBRANCH  23  24
ENDBRANCH   1  23
TORSDOF 15
ENDMDL
MODEL 2
REMARK VINA RESULT:     -12.3      4.926      9.890
REMARK SMILES Cc1cc2c(c(C)c1Cl)C=C(C(=O)OCCOC(=O)c1ccc(-c3c4nc(c(-c5cc(S(=O)(=O)[O-])ccc5F)c5ccc([nH]5)c(-c5cc(S(=O)(=O)[O-])ccc5F)c5nc(c(-c6cc(S(=O)(=O)[O-])ccc6F)c6ccc3[nH]6)C=C5)C=C4)cc1)[C@@H](C(F)(F)F)O2
REMARK SMILES IDX 16 1 15 2 14 3 12 4 13 5 11 6 1 7 2 8 3 9 8 10 4 11 6 12
REMARK SMILES IDX 9 13 5 14 88 15 7 16 10 17 83 18 84 19 85 20 86 21 87 22
REMARK SMILES IDX 17 23 18 24 19 25 20 26 21 27 82 28 22 29 81 30 23 31 24 32
REMARK SMILES IDX 25 33 75 34 26 35 80 36 74 37 76 38 27 39 79 40 73 41 72 42
REMARK SMILES IDX 28 44 60 45 40 46 59 47 41 48 44 49 58 50 77 51 42 52 43 53
REMARK SMILES IDX 57 55 78 56 45 57 29 58 30 59 38 60 31 61 37 62 39 63 36 64
REMARK SMILES IDX 32 65 33 66 34 67 35 68 61 69 62 70 70 71 63 72 69 73 71 74
REMARK SMILES IDX 68 75 64 76 65 77 66 78 67 79 46 80 47 81 55 82 48 83 54 84
REMARK SMILES IDX 56 85 53 86 49 87 50 88 51 89 52 90
REMARK H PARENT 76 43 44 54
REMARK Flexibility Score: inf
ROOT
ATOM      1  C   UNL A   1      36.484  21.094  25.224  1.00  0.00     0.275 C 
ENDROOT
BRANCH   1   2
ATOM      2  C   UNL A   1      35.304  21.809  24.569  1.00  0.00     0.275 C 
BRANCH   2   3
ATOM      3  O   UNL A   1      35.291  23.216  24.895  1.00  0.00    -0.459 OA
BRANCH   3   4
ATOM      4  C   UNL A   1      34.312  23.611  25.742  1.00  0.00     0.338 C 
ATOM      5  O   UNL A   1      34.064  23.133  26.839  1.00  0.00    -0.246 OA
BRANCH   4   6
ATOM      6  C   UNL A   1      33.536  24.722  25.157  1.00  0.00     0.087 C 
ATOM      7  C   UNL A   1      29.998  29.990  23.764  1.00  0.00     0.046 C 
ATOM      8  C   UNL A   1      30.958  28.969  24.310  1.00  0.00    -0.028 A 
ATOM      9  C   UNL A   1      31.049  27.718  23.689  1.00  0.00     0.052 A 
ATOM     10  C   UNL A   1      31.782  29.244  25.419  1.00  0.00     0.047 A 
ATOM     11  C   UNL A   1      31.916  26.739  24.172  1.00  0.00     0.128 A 
ATOM     12  C   UNL A   1      32.670  28.267  25.923  1.00  0.00    -0.021 A 
ATOM     13  Cl  UNL A   1      31.676  30.814  26.157  1.00  0.00    -0.084 Cl
ATOM     14  C   UNL A   1      32.719  26.996  25.289  1.00  0.00     0.022 A 
ATOM     15  O   UNL A   1      31.915  25.565  23.470  1.00  0.00    -0.475 OA
ATOM     16  C   UNL A   1      33.571  28.562  27.099  1.00  0.00     0.047 C 
ATOM     17  C   UNL A   1      33.574  25.912  25.768  1.00  0.00     0.027 C 
ATOM     18  C   UNL A   1      32.644  24.425  23.992  1.00  0.00     0.316 C 
BRANCH  18  19
ATOM     19  C   UNL A   1      31.643  23.306  24.324  1.00  0.00     0.430 C 
ATOM     20  F   UNL A   1      30.609  23.291  23.448  1.00  0.00    -0.167 F 
ATOM     21  F   UNL A   1      32.221  22.081  24.249  1.00  0.00    -0.167 F 
ATOM     22  F   UNL A   1      31.121  23.430  25.565  1.00  0.00    -0.167 F 
ENDBRANCH  18  19
ENDBRANCH   4   6
ENDBRANCH   3   4
ENDBRANCH   2   3
ENDBRANCH   1   2
BRANCH   1  23
ATOM     23  O   UNL A   1      37.703  21.810  24.959  1.00  0.00    -0.458 OA
BRANCH  23  24
ATOM     24  C   UNL A   1      38.756  21.448  25.728  1.00  0.00     0.338 C 
ATOM     25  O   UNL A   1      39.341  20.378  25.716  1.00  0.00    -0.246 OA
BRANCH  24  26
ATOM     26  C   UNL A   1      39.196  22.574  26.568  1.00  0.00     0.060 A 
ATOM     27  C   UNL A   1      38.666  23.835  26.329  1.00  0.00     0.016 A 
ATOM     28  C   UNL A   1      40.293  22.433  27.413  1.00  0.00     0.016 A 
ATOM     29  C   UNL A   1      39.349  24.965  26.770  1.00  0.00     0.010 A 
ATOM     30  C   UNL A   1      40.889  23.573  27.972  1.00  0.00     0.010 A 
ATOM     31  C   UNL A   1      40.481  24.864  27.590  1.00  0.00    -0.014 A 
BRANCH  31  32
ATOM     32  C   UNL A   1      41.291  26.072  27.965  1.00  0.00     0.031 A 
ATOM     33  C   UNL A   1      40.681  27.148  28.842  1.00  0.00     0.074 A 
ATOM     34  C   UNL A   1      42.581  26.218  27.588  1.00  0.00     0.049 A 
ATOM     35  N   UNL A   1      41.062  28.387  29.023  1.00  0.00    -0.248 NA
ATOM     36  C   UNL A   1      39.473  26.783  29.600  1.00  0.00     0.031 C 
ATOM     37  C   UNL A   1      43.377  25.239  26.844  1.00  0.00     0.029 A 
ATOM     38  N   UNL A   1      43.462  27.256  27.794  1.00  0.00    -0.354 N 
ATOM     39  C   UNL A   1      40.099  28.970  29.846  1.00  0.00     0.074 A 
ATOM     40  C   UNL A   1      39.118  27.946  30.131  1.00  0.00     0.031 C 
ATOM     41  C   UNL A   1      44.634  25.686  26.723  1.00  0.00     0.029 A 
ATOM     42  C   UNL A   1      44.700  27.050  27.228  1.00  0.00     0.049 A 
ATOM     43  H   UNL A   1      43.229  28.068  28.300  1.00  0.00     0.167 HD
ATOM     44  C   UNL A   1      40.041  30.243  30.313  1.00  0.00     0.034 A 
ATOM     45  C   UNL A   1      45.749  27.879  27.049  1.00  0.00     0.034 A 
ATOM     46  C   UNL A   1      41.069  31.230  30.090  1.00  0.00     0.049 A 
ATOM     47  C   UNL A   1      45.627  29.312  27.483  1.00  0.00     0.074 A 
ATOM     48  C   UNL A   1      41.102  32.550  30.508  1.00  0.00     0.029 A 
ATOM     49  N   UNL A   1      42.262  30.999  29.419  1.00  0.00    -0.354 N 
ATOM     50  N   UNL A   1      44.635  29.905  28.104  1.00  0.00    -0.248 NA
ATOM     51  C   UNL A   1      46.752  30.198  27.156  1.00  0.00     0.031 C 
ATOM     52  C   UNL A   1      42.285  33.131  30.039  1.00  0.00     0.029 A 
ATOM     53  C   UNL A   1      43.024  32.157  29.390  1.00  0.00     0.049 A 
ATOM     54  H   UNL A   1      42.528  30.138  29.021  1.00  0.00     0.167 HD
ATOM     55  C   UNL A   1      45.019  31.235  28.243  1.00  0.00     0.074 A 
ATOM     56  C   UNL A   1      46.343  31.349  27.667  1.00  0.00     0.031 C 
ATOM     57  C   UNL A   1      44.332  32.269  28.792  1.00  0.00     0.034 A 
BRANCH  44  58
ATOM     58  C   UNL A   1      38.799  30.670  31.059  1.00  0.00     0.023 A 
ATOM     59  C   UNL A   1      37.699  31.263  30.418  1.00  0.00     0.031 A 
ATOM     60  C   UNL A   1      38.709  30.438  32.445  1.00  0.00     0.131 A 
ATOM     61  C   UNL A   1      36.571  31.634  31.170  1.00  0.00     0.055 A 
ATOM     62  C   UNL A   1      37.561  30.749  33.174  1.00  0.00     0.041 A 
ATOM     63  F   UNL A   1      39.737  29.890  33.113  1.00  0.00    -0.206 F 
ATOM     64  C   UNL A   1      36.485  31.357  32.538  1.00  0.00     0.022 A 
BRANCH  61  65
ATOM     65  S   UNL A   1      35.239  32.555  30.353  1.00  0.00     0.124 S 
ATOM     66  O   UNL A   1      34.254  32.661  31.426  1.00  0.00    -0.237 OA
ATOM     67  O   UNL A   1      35.901  33.796  29.969  1.00  0.00    -0.237 OA
ATOM     68  O   UNL A   1      34.851  31.688  29.242  1.00  0.00    -0.744 OA
ENDBRANCH  61  65
ENDBRANCH  44  58
BRANCH  45  69
ATOM     69  C   UNL A   1      46.962  27.401  26.324  1.00  0.00     0.023 A 
ATOM     70  C   UNL A   1      47.165  27.713  24.972  1.00  0.00     0.031 A 
ATOM     71  C   UNL A   1      47.937  26.623  26.977  1.00  0.00     0.131 A 
ATOM     72  C   UNL A   1      48.311  27.241  24.312  1.00  0.00     0.055 A 
ATOM     73  C   UNL A   1      49.100  26.203  26.332  1.00  0.00     0.041 A 
ATOM     74  F   UNL A   1      47.789  26.291  28.269  1.00  0.00    -0.206 F 
ATOM     75  C   UNL A   1      49.289  26.507  24.988  1.00  0.00     0.022 A 
BRANCH  72  76
ATOM     76  S   UNL A   1      48.492  27.570  22.538  1.00  0.00     0.124 S 
ATOM     77  O   UNL A   1      48.592  26.221  21.995  1.00  0.00    -0.237 OA
ATOM     78  O   UNL A   1      47.263  28.295  22.235  1.00  0.00    -0.237 OA
ATOM     79  O   UNL A   1      49.715  28.367  22.464  1.00  0.00    -0.744 OA
ENDBRANCH  72  76
ENDBRANCH  45  69
BRANCH  57  80
ATOM     80  C   UNL A   1      45.016  33.611  28.807  1.00  0.00     0.023 A 
ATOM     81  C   UNL A   1      45.868  33.984  29.861  1.00  0.00     0.031 A 
ATOM     82  C   UNL A   1      44.803  34.533  27.767  1.00  0.00     0.131 A 
ATOM     83  C   UNL A   1      46.433  35.267  29.880  1.00  0.00     0.055 A 
ATOM     84  C   UNL A   1      45.417  35.786  27.762  1.00  0.00     0.041 A 
ATOM     85  F   UNL A   1      43.998  34.227  26.738  1.00  0.00    -0.206 F 
ATOM     86  C   UNL A   1      46.227  36.165  28.829  1.00  0.00     0.022 A 
BRANCH  83  87
ATOM     87  S   UNL A   1      47.375  35.778  31.342  1.00  0.00     0.124 S 
ATOM     88  O   UNL A   1      48.481  34.826  31.337  1.00  0.00    -0.237 OA
ATOM     89  O   UNL A   1      47.721  37.159  31.027  1.00  0.00    -0.237 OA
ATOM     90  O   UNL A   1      46.422  35.614  32.439  1.00  0.00    -0.744 OA
ENDBRANCH  83  87
ENDBRANCH  57  80
ENDBRANCH  31  32
ENDBRANCH  24  26
ENDBRANCH  23  24
ENDBRANCH   1  23
TORSDOF 15
ENDMDL
MODEL 3
REMARK VINA RESULT:     -12.2      1.333      1.645
REMARK SMILES Cc1cc2c(c(C)c1Cl)C=C(C(=O)OCCOC(=O)c1ccc(-c3c4nc(c(-c5cc(S(=O)(=O)[O-])ccc5F)c5ccc([nH]5)c(-c5cc(S(=O)(=O)[O-])ccc5F)c5nc(c(-c6cc(S(=O)(=O)[O-])ccc6F)c6ccc3[nH]6)C=C5)C=C4)cc1)[C@@H](C(F)(F)F)O2
REMARK SMILES IDX 16 1 15 2 14 3 12 4 13 5 11 6 1 7 2 8 3 9 8 10 4 11 6 12
REMARK SMILES IDX 9 13 5 14 88 15 7 16 10 17 83 18 84 19 85 20 86 21 87 22
REMARK SMILES IDX 17 23 18 24 19 25 20 26 21 27 82 28 22 29 81 30 23 31 24 32
REMARK SMILES IDX 25 33 75 34 26 35 80 36 74 37 76 38 27 39 79 40 73 41 72 42
REMARK SMILES IDX 28 44 60 45 40 46 59 47 41 48 44 49 58 50 77 51 42 52 43 53
REMARK SMILES IDX 57 55 78 56 45 57 29 58 30 59 38 60 31 61 37 62 39 63 36 64
REMARK SMILES IDX 32 65 33 66 34 67 35 68 61 69 62 70 70 71 63 72 69 73 71 74
REMARK SMILES IDX 68 75 64 76 65 77 66 78 67 79 46 80 47 81 55 82 48 83 54 84
REMARK SMILES IDX 56 85 53 86 49 87 50 88 51 89 52 90
REMARK H PARENT 76 43 44 54
REMARK Flexibility Score: inf
ROOT
ATOM      1  C   UNL A   1      31.716  30.142  26.044  1.00  0.00     0.275 C 
ENDROOT
BRANCH   1   2
ATOM      2  C   UNL A   1      32.149  29.318  24.832  1.00  0.00     0.275 C 
BRANCH   2   3
ATOM      3  O   UNL A   1      32.495  27.967  25.209  1.00  0.00    -0.459 OA
BRANCH   3   4
ATOM      4  C   UNL A   1      33.333  27.323  24.363  1.00  0.00     0.338 C 
ATOM      5  O   UNL A   1      34.051  27.837  23.518  1.00  0.00    -0.246 OA
BRANCH   4   6
ATOM      6  C   UNL A   1      33.268  25.864  24.580  1.00  0.00     0.087 C 
ATOM      7  C   UNL A   1      34.042  19.421  24.885  1.00  0.00     0.046 C 
ATOM      8  C   UNL A   1      34.191  20.917  24.857  1.00  0.00    -0.028 A 
ATOM      9  C   UNL A   1      33.042  21.716  24.819  1.00  0.00     0.052 A 
ATOM     10  C   UNL A   1      35.455  21.538  24.885  1.00  0.00     0.047 A 
ATOM     11  C   UNL A   1      33.137  23.106  24.777  1.00  0.00     0.128 A 
ATOM     12  C   UNL A   1      35.573  22.945  24.846  1.00  0.00    -0.021 A 
ATOM     13  Cl  UNL A   1      36.868  20.528  24.963  1.00  0.00    -0.084 Cl
ATOM     14  C   UNL A   1      34.389  23.729  24.780  1.00  0.00     0.022 A 
ATOM     15  O   UNL A   1      31.940  23.768  24.752  1.00  0.00    -0.475 OA
ATOM     16  C   UNL A   1      36.925  23.618  24.897  1.00  0.00     0.047 C 
ATOM     17  C   UNL A   1      34.417  25.188  24.692  1.00  0.00     0.027 C 
ATOM     18  C   UNL A   1      31.927  25.201  24.529  1.00  0.00     0.316 C 
BRANCH  18  19
ATOM     19  C   UNL A   1      31.210  25.490  23.199  1.00  0.00     0.430 C 
ATOM     20  F   UNL A   1      30.363  24.486  22.866  1.00  0.00    -0.167 F 
ATOM     21  F   UNL A   1      30.456  26.614  23.272  1.00  0.00    -0.167 F 
ATOM     22  F   UNL A   1      32.073  25.649  22.171  1.00  0.00    -0.167 F 
ENDBRANCH  18  19
ENDBRANCH   4   6
ENDBRANCH   3   4
ENDBRANCH   2   3
ENDBRANCH   1   2
BRANCH   1  23
ATOM     23  O   UNL A   1      32.693  30.028  27.093  1.00  0.00    -0.458 OA
BRANCH  23  24
ATOM     24  C   UNL A   1      33.359  31.170  27.380  1.00  0.00     0.338 C 
ATOM     25  O   UNL A   1      32.881  32.284  27.522  1.00  0.00    -0.246 OA
BRANCH  24  26
ATOM     26  C   UNL A   1      34.789  30.897  27.593  1.00  0.00     0.060 A 
ATOM     27  C   UNL A   1      35.197  29.586  27.799  1.00  0.00     0.016 A 
ATOM     28  C   UNL A   1      35.677  31.943  27.828  1.00  0.00     0.016 A 
ATOM     29  C   UNL A   1      36.414  29.333  28.427  1.00  0.00     0.010 A 
ATOM     30  C   UNL A   1      36.958  31.667  28.326  1.00  0.00     0.010 A 
ATOM     31  C   UNL A   1      37.318  30.364  28.717  1.00  0.00    -0.014 A 
BRANCH  31  32
ATOM     32  C   UNL A   1      38.572  30.113  29.504  1.00  0.00     0.031 A 
ATOM     33  C   UNL A   1      39.665  29.238  28.922  1.00  0.00     0.074 A 
ATOM     34  C   UNL A   1      38.792  30.684  30.709  1.00  0.00     0.049 A 
ATOM     35  N   UNL A   1      40.659  28.637  29.526  1.00  0.00    -0.248 NA
ATOM     36  C   UNL A   1      39.622  28.994  27.470  1.00  0.00     0.031 C 
ATOM     37  C   UNL A   1      37.914  31.646  31.379  1.00  0.00     0.029 A 
ATOM     38  N   UNL A   1      39.844  30.546  31.587  1.00  0.00    -0.354 N 
ATOM     39  C   UNL A   1      41.306  27.883  28.549  1.00  0.00     0.074 A 
ATOM     40  C   UNL A   1      40.593  28.105  27.310  1.00  0.00     0.031 C 
ATOM     41  C   UNL A   1      38.492  32.061  32.514  1.00  0.00     0.029 A 
ATOM     42  C   UNL A   1      39.699  31.279  32.743  1.00  0.00     0.049 A 
ATOM     43  H   UNL A   1      40.626  29.976  31.404  1.00  0.00     0.167 HD
ATOM     44  C   UNL A   1      42.390  27.077  28.678  1.00  0.00     0.034 A 
ATOM     45  C   UNL A   1      40.395  31.273  33.897  1.00  0.00     0.034 A 
ATOM     46  C   UNL A   1      43.143  26.930  29.901  1.00  0.00     0.049 A 
ATOM     47  C   UNL A   1      41.531  30.302  34.058  1.00  0.00     0.074 A 
ATOM     48  C   UNL A   1      44.248  26.131  30.143  1.00  0.00     0.029 A 
ATOM     49  N   UNL A   1      42.891  27.621  31.078  1.00  0.00    -0.354 N 
ATOM     50  N   UNL A   1      42.026  29.459  33.183  1.00  0.00    -0.248 NA
ATOM     51  C   UNL A   1      42.176  30.255  35.376  1.00  0.00     0.031 C 
ATOM     52  C   UNL A   1      44.626  26.295  31.479  1.00  0.00     0.029 A 
ATOM     53  C   UNL A   1      43.802  27.248  32.054  1.00  0.00     0.049 A 
ATOM     54  H   UNL A   1      42.169  28.279  31.202  1.00  0.00     0.167 HD
ATOM     55  C   UNL A   1      43.043  28.781  33.847  1.00  0.00     0.074 A 
ATOM     56  C   UNL A   1      43.109  29.334  35.185  1.00  0.00     0.031 C 
ATOM     57  C   UNL A   1      43.845  27.786  33.391  1.00  0.00     0.034 A 
BRANCH  44  58
ATOM     58  C   UNL A   1      42.799  26.239  27.491  1.00  0.00     0.023 A 
ATOM     59  C   UNL A   1      42.364  24.915  27.314  1.00  0.00     0.031 A 
ATOM     60  C   UNL A   1      43.617  26.803  26.492  1.00  0.00     0.131 A 
ATOM     61  C   UNL A   1      42.778  24.190  26.184  1.00  0.00     0.055 A 
ATOM     62  C   UNL A   1      43.971  26.099  25.342  1.00  0.00     0.041 A 
ATOM     63  F   UNL A   1      44.077  28.059  26.616  1.00  0.00    -0.206 F 
ATOM     64  C   UNL A   1      43.556  24.781  25.185  1.00  0.00     0.022 A 
BRANCH  61  65
ATOM     65  S   UNL A   1      42.348  22.431  26.067  1.00  0.00     0.124 S 
ATOM     66  O   UNL A   1      40.889  22.487  26.022  1.00  0.00    -0.237 OA
ATOM     67  O   UNL A   1      43.011  22.024  24.834  1.00  0.00    -0.237 OA
ATOM     68  O   UNL A   1      42.905  21.859  27.291  1.00  0.00    -0.744 OA
ENDBRANCH  61  65
ENDBRANCH  44  58
BRANCH  45  69
ATOM     69  C   UNL A   1      39.963  32.137  35.034  1.00  0.00     0.023 A 
ATOM     70  C   UNL A   1      40.441  33.449  35.167  1.00  0.00     0.031 A 
ATOM     71  C   UNL A   1      39.065  31.659  36.007  1.00  0.00     0.131 A 
ATOM     72  C   UNL A   1      40.026  34.235  36.253  1.00  0.00     0.055 A 
ATOM     73  C   UNL A   1      38.613  32.463  37.053  1.00  0.00     0.041 A 
ATOM     74  F   UNL A   1      38.582  30.409  35.930  1.00  0.00    -0.206 F 
ATOM     75  C   UNL A   1      39.100  33.759  37.184  1.00  0.00     0.022 A 
BRANCH  72  76
ATOM     76  S   UNL A   1      40.744  35.888  36.457  1.00  0.00     0.124 S 
ATOM     77  O   UNL A   1      40.823  36.001  37.908  1.00  0.00    -0.237 OA
ATOM     78  O   UNL A   1      42.015  35.758  35.752  1.00  0.00    -0.237 OA
ATOM     79  O   UNL A   1      39.766  36.764  35.813  1.00  0.00    -0.744 OA
ENDBRANCH  72  76
ENDBRANCH  45  69
BRANCH  57  80
ATOM     80  C   UNL A   1      44.874  27.246  34.350  1.00  0.00     0.023 A 
ATOM     81  C   UNL A   1      44.571  26.192  35.229  1.00  0.00     0.031 A 
ATOM     82  C   UNL A   1      46.166  27.800  34.397  1.00  0.00     0.131 A 
ATOM     83  C   UNL A   1      45.529  25.760  36.157  1.00  0.00     0.055 A 
ATOM     84  C   UNL A   1      47.134  27.325  35.283  1.00  0.00     0.041 A 
ATOM     85  F   UNL A   1      46.507  28.809  33.581  1.00  0.00    -0.206 F 
ATOM     86  C   UNL A   1      46.815  26.308  36.178  1.00  0.00     0.022 A 
BRANCH  83  87
ATOM     87  S   UNL A   1      45.044  24.528  37.395  1.00  0.00     0.124 S 
ATOM     88  O   UNL A   1      46.000  24.785  38.467  1.00  0.00    -0.237 OA
ATOM     89  O   UNL A   1      43.659  24.891  37.674  1.00  0.00    -0.237 OA
ATOM     90  O   UNL A   1      45.220  23.254  36.699  1.00  0.00    -0.744 OA
ENDBRANCH  83  87
ENDBRANCH  57  80
ENDBRANCH  31  32
ENDBRANCH  24  26
ENDBRANCH  23  24
ENDBRANCH   1  23
TORSDOF 15
ENDMDL
