MODEL 1
REMARK VINA RESULT:     -11.7      0.000      0.000
REMARK SMILES [NH3+][C@@H](Cc1cn(-c2nc(Cl)nc(N3CCOCC3)n2)c2ccccc12)C(=O)OCCOC(=O)c1ccc(-c2c3nc(c(-c4cc(S(=O)(=O)[O-])ccc4F)c4ccc([nH]4)c(-c4cc(S(=O)(=O)[O-])ccc4F)c4nc(c(-c5cc(S(=O)(=O)[O-])ccc5F)c5ccc2[nH]5)C=C4)C=C3)cc1
REMARK SMILES IDX 29 1 28 2 26 3 27 4 2 5 1 6 3 10 4 11 5 12 25 13 6 14 20 15
REMARK SMILES IDX 24 16 21 17 23 18 22 19 7 20 8 21 19 22 9 23 12 24 10 25
REMARK SMILES IDX 11 26 13 27 14 28 18 29 15 30 17 31 16 32 30 33 31 34 32 35
REMARK SMILES IDX 33 36 34 37 35 38 96 39 36 40 95 41 37 42 38 43 39 44 89 45
REMARK SMILES IDX 40 46 94 47 88 48 90 49 41 50 93 51 87 52 86 53 42 55 74 56
REMARK SMILES IDX 54 57 73 58 55 59 58 60 72 61 91 62 56 63 57 64 71 66 92 67
REMARK SMILES IDX 59 68 43 69 44 70 52 71 45 72 51 73 53 74 50 75 46 76 47 77
REMARK SMILES IDX 48 78 49 79 75 80 76 81 84 82 77 83 83 84 85 85 82 86 78 87
REMARK SMILES IDX 79 88 80 89 81 90 60 91 61 92 69 93 62 94 68 95 70 96 67 97
REMARK SMILES IDX 63 98 64 99 65 100 66 101
REMARK H PARENT 1 7 1 8 1 9 90 54 58 65
REMARK Flexibility Score: inf
ROOT
ATOM      1  C   UNL A   1      33.283  34.991  28.957  1.00  0.00     0.274 C 
ENDROOT
BRANCH   1   2
ATOM      2  O   UNL A   1      33.301  34.761  30.380  1.00  0.00    -0.458 OA
BRANCH   2   3
ATOM      3  C   UNL A   1      33.212  35.860  31.189  1.00  0.00     0.365 C 
ATOM      4  O   UNL A   1      32.548  36.858  30.933  1.00  0.00    -0.245 OA
BRANCH   3   5
ATOM      5  C   UNL A   1      34.075  35.719  32.457  1.00  0.00     0.296 C 
BRANCH   5   6
ATOM      6  N   UNL A   1      33.978  36.906  33.352  1.00  0.00    -0.346 N 
ATOM      7  H   UNL A   1      34.510  36.732  34.204  1.00  0.00     0.345 HD
ATOM      8  H   UNL A   1      33.001  37.073  33.588  1.00  0.00     0.345 HD
ATOM      9  H   UNL A   1      34.358  37.722  32.874  1.00  0.00     0.345 HD
ENDBRANCH   5   6
BRANCH   5  10
ATOM     10  C   UNL A   1      33.826  34.382  33.157  1.00  0.00     0.115 C 
BRANCH  10  11
ATOM     11  C   UNL A   1      35.053  33.762  33.702  1.00  0.00    -0.015 A 
ATOM     12  C   UNL A   1      35.739  34.192  34.805  1.00  0.00     0.099 A 
ATOM     13  C   UNL A   1      35.713  32.595  33.219  1.00  0.00     0.004 A 
ATOM     14  N   UNL A   1      36.825  33.373  34.991  1.00  0.00    -0.285 N 
ATOM     15  C   UNL A   1      36.845  32.390  34.017  1.00  0.00     0.056 A 
ATOM     16  C   UNL A   1      35.424  31.687  32.180  1.00  0.00     0.010 A 
ATOM     17  C   UNL A   1      37.699  31.296  33.806  1.00  0.00     0.027 A 
ATOM     18  C   UNL A   1      36.259  30.589  31.976  1.00  0.00     0.001 A 
ATOM     19  C   UNL A   1      37.381  30.401  32.777  1.00  0.00     0.002 A 
BRANCH  14  20
ATOM     20  C   UNL A   1      37.679  33.528  36.104  1.00  0.00     0.240 A 
ATOM     21  N   UNL A   1      38.629  34.448  36.052  1.00  0.00    -0.181 NA
ATOM     22  N   UNL A   1      37.260  32.920  37.214  1.00  0.00    -0.176 NA
ATOM     23  C   UNL A   1      39.028  34.802  37.267  1.00  0.00     0.228 A 
ATOM     24  C   UNL A   1      37.788  33.313  38.358  1.00  0.00     0.231 A 
ATOM     25  Cl  UNL A   1      40.143  36.098  37.328  1.00  0.00    -0.041 Cl
ATOM     26  N   UNL A   1      38.651  34.309  38.446  1.00  0.00    -0.182 NA
BRANCH  24  27
ATOM     27  N   UNL A   1      37.349  32.648  39.469  1.00  0.00    -0.336 N 
ATOM     28  C   UNL A   1      38.295  32.523  40.576  1.00  0.00     0.148 C 
ATOM     29  C   UNL A   1      35.938  32.608  39.815  1.00  0.00     0.148 C 
ATOM     30  C   UNL A   1      37.926  31.314  41.444  1.00  0.00     0.181 C 
ATOM     31  C   UNL A   1      35.691  31.363  40.688  1.00  0.00     0.181 C 
ATOM     32  O   UNL A   1      36.546  31.358  41.848  1.00  0.00    -0.378 OA
ENDBRANCH  24  27
ENDBRANCH  14  20
ENDBRANCH  10  11
ENDBRANCH   5  10
ENDBRANCH   3   5
ENDBRANCH   2   3
ENDBRANCH   1   2
BRANCH   1  33
ATOM     33  C   UNL A   1      34.632  34.596  28.349  1.00  0.00     0.275 C 
BRANCH  33  34
ATOM     34  O   UNL A   1      35.083  33.396  28.989  1.00  0.00    -0.458 OA
BRANCH  34  35
ATOM     35  C   UNL A   1      35.080  32.279  28.220  1.00  0.00     0.338 C 
ATOM     36  O   UNL A   1      34.400  32.081  27.227  1.00  0.00    -0.246 OA
BRANCH  35  37
ATOM     37  C   UNL A   1      36.254  31.475  28.628  1.00  0.00     0.060 A 
ATOM     38  C   UNL A   1      37.420  32.085  29.104  1.00  0.00     0.016 A 
ATOM     39  C   UNL A   1      36.247  30.113  28.311  1.00  0.00     0.016 A 
ATOM     40  C   UNL A   1      38.607  31.360  29.152  1.00  0.00     0.010 A 
ATOM     41  C   UNL A   1      37.437  29.390  28.362  1.00  0.00     0.010 A 
ATOM     42  C   UNL A   1      38.628  30.026  28.729  1.00  0.00    -0.014 A 
BRANCH  42  43
ATOM     43  C   UNL A   1      39.872  29.274  28.881  1.00  0.00     0.031 A 
ATOM     44  C   UNL A   1      40.186  28.932  30.281  1.00  0.00     0.074 A 
ATOM     45  C   UNL A   1      40.695  28.804  27.925  1.00  0.00     0.049 A 
ATOM     46  N   UNL A   1      41.114  29.450  31.014  1.00  0.00    -0.248 NA
ATOM     47  C   UNL A   1      39.297  27.997  30.975  1.00  0.00     0.031 C 
ATOM     48  C   UNL A   1      40.471  28.749  26.490  1.00  0.00     0.029 A 
ATOM     49  N   UNL A   1      41.901  28.178  28.067  1.00  0.00    -0.354 N 
ATOM     50  C   UNL A   1      41.033  28.792  32.233  1.00  0.00     0.074 A 
ATOM     51  C   UNL A   1      39.800  28.043  32.207  1.00  0.00     0.031 C 
ATOM     52  C   UNL A   1      41.371  27.915  25.916  1.00  0.00     0.029 A 
ATOM     53  C   UNL A   1      42.352  27.540  26.922  1.00  0.00     0.049 A 
ATOM     54  H   UNL A   1      42.406  28.179  28.912  1.00  0.00     0.167 HD
ATOM     55  C   UNL A   1      42.077  28.758  33.103  1.00  0.00     0.034 A 
ATOM     56  C   UNL A   1      43.447  26.748  26.813  1.00  0.00     0.034 A 
ATOM     57  C   UNL A   1      43.099  29.709  32.755  1.00  0.00     0.049 A 
ATOM     58  C   UNL A   1      44.368  27.067  27.926  1.00  0.00     0.074 A 
ATOM     59  C   UNL A   1      43.153  31.083  32.636  1.00  0.00     0.029 A 
ATOM     60  N   UNL A   1      44.226  29.230  32.133  1.00  0.00    -0.354 N 
ATOM     61  N   UNL A   1      45.063  28.164  28.023  1.00  0.00    -0.248 NA
ATOM     62  C   UNL A   1      44.276  26.279  29.145  1.00  0.00     0.031 C 
ATOM     63  C   UNL A   1      44.087  31.337  31.592  1.00  0.00     0.029 A 
ATOM     64  C   UNL A   1      44.563  30.107  31.134  1.00  0.00     0.049 A 
ATOM     65  H   UNL A   1      44.707  28.403  32.365  1.00  0.00     0.167 HD
ATOM     66  C   UNL A   1      45.098  28.432  29.381  1.00  0.00     0.074 A 
ATOM     67  C   UNL A   1      44.744  27.170  30.021  1.00  0.00     0.031 C 
ATOM     68  C   UNL A   1      45.126  29.714  29.853  1.00  0.00     0.034 A 
BRANCH  55  69
ATOM     69  C   UNL A   1      42.289  27.652  34.102  1.00  0.00     0.023 A 
ATOM     70  C   UNL A   1      43.086  26.526  33.831  1.00  0.00     0.031 A 
ATOM     71  C   UNL A   1      41.844  27.785  35.429  1.00  0.00     0.131 A 
ATOM     72  C   UNL A   1      43.357  25.560  34.805  1.00  0.00     0.055 A 
ATOM     73  C   UNL A   1      42.182  26.864  36.428  1.00  0.00     0.041 A 
ATOM     74  F   UNL A   1      41.107  28.840  35.810  1.00  0.00    -0.206 F 
ATOM     75  C   UNL A   1      42.931  25.735  36.116  1.00  0.00     0.022 A 
BRANCH  72  76
ATOM     76  S   UNL A   1      44.246  24.044  34.359  1.00  0.00     0.124 S 
ATOM     77  O   UNL A   1      44.885  24.432  33.106  1.00  0.00    -0.237 OA
ATOM     78  O   UNL A   1      45.140  23.875  35.502  1.00  0.00    -0.237 OA
ATOM     79  O   UNL A   1      43.185  23.046  34.255  1.00  0.00    -0.744 OA
ENDBRANCH  72  76
ENDBRANCH  55  69
BRANCH  56  80
ATOM     80  C   UNL A   1      43.593  25.499  26.032  1.00  0.00     0.023 A 
ATOM     81  C   UNL A   1      42.765  24.399  26.322  1.00  0.00     0.031 A 
ATOM     82  C   UNL A   1      44.738  25.263  25.251  1.00  0.00     0.131 A 
ATOM     83  C   UNL A   1      43.123  23.112  25.895  1.00  0.00     0.055 A 
ATOM     84  C   UNL A   1      45.084  23.979  24.811  1.00  0.00     0.041 A 
ATOM     85  F   UNL A   1      45.584  26.263  24.961  1.00  0.00    -0.206 F 
ATOM     86  C   UNL A   1      44.283  22.893  25.147  1.00  0.00     0.022 A 
BRANCH  83  87
ATOM     87  S   UNL A   1      42.123  21.676  26.373  1.00  0.00     0.124 S 
ATOM     88  O   UNL A   1      42.634  20.631  25.489  1.00  0.00    -0.237 OA
ATOM     89  O   UNL A   1      42.469  21.530  27.784  1.00  0.00    -0.237 OA
ATOM     90  O   UNL A   1      40.755  22.106  26.095  1.00  0.00    -0.744 OA
ENDBRANCH  83  87
ENDBRANCH  56  80
BRANCH  68  91
ATOM     91  C   UNL A   1      45.485  30.843  28.908  1.00  0.00     0.023 A 
ATOM     92  C   UNL A   1      46.759  31.428  29.053  1.00  0.00     0.031 A 
ATOM     93  C   UNL A   1      44.578  31.480  28.040  1.00  0.00     0.131 A 
ATOM     94  C   UNL A   1      47.080  32.614  28.380  1.00  0.00     0.055 A 
ATOM     95  C   UNL A   1      44.929  32.623  27.312  1.00  0.00     0.041 A 
ATOM     96  F   UNL A   1      43.305  31.075  27.931  1.00  0.00    -0.206 F 
ATOM     97  C   UNL A   1      46.178  33.204  27.492  1.00  0.00     0.022 A 
BRANCH  94  98
ATOM     98  S   UNL A   1      48.612  33.504  28.760  1.00  0.00     0.124 S 
ATOM     99  O   UNL A   1      48.859  33.119  30.148  1.00  0.00    -0.237 OA
ATOM    100  O   UNL A   1      49.546  32.947  27.782  1.00  0.00    -0.237 OA
ATOM    101  O   UNL A   1      48.268  34.908  28.554  1.00  0.00    -0.744 OA
ENDBRANCH  94  98
ENDBRANCH  68  91
ENDBRANCH  42  43
ENDBRANCH  35  37
ENDBRANCH  34  35
ENDBRANCH  33  34
ENDBRANCH   1  33
TORSDOF 19
ENDMDL
MODEL 2
REMARK VINA RESULT:     -11.5      4.154     13.262
REMARK SMILES [NH3+][C@@H](Cc1cn(-c2nc(Cl)nc(N3CCOCC3)n2)c2ccccc12)C(=O)OCCOC(=O)c1ccc(-c2c3nc(c(-c4cc(S(=O)(=O)[O-])ccc4F)c4ccc([nH]4)c(-c4cc(S(=O)(=O)[O-])ccc4F)c4nc(c(-c5cc(S(=O)(=O)[O-])ccc5F)c5ccc2[nH]5)C=C4)C=C3)cc1
REMARK SMILES IDX 29 1 28 2 26 3 27 4 2 5 1 6 3 10 4 11 5 12 25 13 6 14 20 15
REMARK SMILES IDX 24 16 21 17 23 18 22 19 7 20 8 21 19 22 9 23 12 24 10 25
REMARK SMILES IDX 11 26 13 27 14 28 18 29 15 30 17 31 16 32 30 33 31 34 32 35
REMARK SMILES IDX 33 36 34 37 35 38 96 39 36 40 95 41 37 42 38 43 39 44 89 45
REMARK SMILES IDX 40 46 94 47 88 48 90 49 41 50 93 51 87 52 86 53 42 55 74 56
REMARK SMILES IDX 54 57 73 58 55 59 58 60 72 61 91 62 56 63 57 64 71 66 92 67
REMARK SMILES IDX 59 68 43 69 44 70 52 71 45 72 51 73 53 74 50 75 46 76 47 77
REMARK SMILES IDX 48 78 49 79 75 80 76 81 84 82 77 83 83 84 85 85 82 86 78 87
REMARK SMILES IDX 79 88 80 89 81 90 60 91 61 92 69 93 62 94 68 95 70 96 67 97
REMARK SMILES IDX 63 98 64 99 65 100 66 101
REMARK H PARENT 1 7 1 8 1 9 90 54 58 65
REMARK Flexibility Score: inf
ROOT
ATOM      1  C   UNL A   1      41.556  19.804  26.269  1.00  0.00     0.274 C 
ENDROOT
BRANCH   1   2
ATOM      2  O   UNL A   1      42.568  20.375  25.415  1.00  0.00    -0.458 OA
BRANCH   2   3
ATOM      3  C   UNL A   1      43.744  19.688  25.299  1.00  0.00     0.365 C 
ATOM      4  O   UNL A   1      43.831  18.467  25.234  1.00  0.00    -0.245 OA
BRANCH   3   5
ATOM      5  C   UNL A   1      44.966  20.625  25.294  1.00  0.00     0.296 C 
BRANCH   5   6
ATOM      6  N   UNL A   1      46.257  19.885  25.359  1.00  0.00    -0.346 N 
ATOM      7  H   UNL A   1      46.160  18.991  24.877  1.00  0.00     0.345 HD
ATOM      8  H   UNL A   1      46.505  19.720  26.334  1.00  0.00     0.345 HD
ATOM      9  H   UNL A   1      46.988  20.436  24.910  1.00  0.00     0.345 HD
ENDBRANCH   5   6
BRANCH   5  10
ATOM     10  C   UNL A   1      44.883  21.644  24.157  1.00  0.00     0.115 C 
BRANCH  10  11
ATOM     11  C   UNL A   1      45.300  23.007  24.552  1.00  0.00    -0.015 A 
ATOM     12  C   UNL A   1      46.592  23.442  24.668  1.00  0.00     0.099 A 
ATOM     13  C   UNL A   1      44.452  24.115  24.837  1.00  0.00     0.004 A 
ATOM     14  N   UNL A   1      46.577  24.756  25.065  1.00  0.00    -0.285 N 
ATOM     15  C   UNL A   1      45.270  25.193  25.195  1.00  0.00     0.056 A 
ATOM     16  C   UNL A   1      43.053  24.292  24.797  1.00  0.00     0.010 A 
ATOM     17  C   UNL A   1      44.729  26.449  25.513  1.00  0.00     0.027 A 
ATOM     18  C   UNL A   1      42.510  25.541  25.096  1.00  0.00     0.001 A 
ATOM     19  C   UNL A   1      43.338  26.601  25.451  1.00  0.00     0.002 A 
BRANCH  14  20
ATOM     20  C   UNL A   1      47.771  25.498  25.192  1.00  0.00     0.240 A 
ATOM     21  N   UNL A   1      48.502  25.343  26.285  1.00  0.00    -0.181 NA
ATOM     22  N   UNL A   1      48.190  26.073  24.064  1.00  0.00    -0.176 NA
ATOM     23  C   UNL A   1      49.762  25.706  26.082  1.00  0.00     0.228 A 
ATOM     24  C   UNL A   1      49.451  26.458  24.012  1.00  0.00     0.231 A 
ATOM     25  Cl  UNL A   1      50.835  25.402  27.378  1.00  0.00    -0.041 Cl
ATOM     26  N   UNL A   1      50.310  26.242  24.992  1.00  0.00    -0.182 NA
BRANCH  24  27
ATOM     27  N   UNL A   1      49.834  27.065  22.848  1.00  0.00    -0.336 N 
ATOM     28  C   UNL A   1      48.763  27.534  21.969  1.00  0.00     0.148 C 
ATOM     29  C   UNL A   1      51.108  27.754  22.741  1.00  0.00     0.148 C 
ATOM     30  C   UNL A   1      49.275  27.625  20.526  1.00  0.00     0.181 C 
ATOM     31  C   UNL A   1      51.513  27.790  21.255  1.00  0.00     0.181 C 
ATOM     32  O   UNL A   1      50.487  28.396  20.445  1.00  0.00    -0.378 OA
ENDBRANCH  24  27
ENDBRANCH  14  20
ENDBRANCH  10  11
ENDBRANCH   5  10
ENDBRANCH   3   5
ENDBRANCH   2   3
ENDBRANCH   1   2
BRANCH   1  33
ATOM     33  C   UNL A   1      40.724  20.920  26.909  1.00  0.00     0.275 C 
BRANCH  33  34
ATOM     34  O   UNL A   1      41.479  22.136  26.854  1.00  0.00    -0.458 OA
BRANCH  34  35
ATOM     35  C   UNL A   1      42.123  22.483  27.996  1.00  0.00     0.338 C 
ATOM     36  O   UNL A   1      42.894  21.789  28.636  1.00  0.00    -0.246 OA
BRANCH  35  37
ATOM     37  C   UNL A   1      41.951  23.944  28.158  1.00  0.00     0.060 A 
ATOM     38  C   UNL A   1      42.949  24.731  28.743  1.00  0.00     0.016 A 
ATOM     39  C   UNL A   1      40.680  24.476  27.917  1.00  0.00     0.016 A 
ATOM     40  C   UNL A   1      42.640  26.011  29.195  1.00  0.00     0.010 A 
ATOM     41  C   UNL A   1      40.376  25.758  28.370  1.00  0.00     0.010 A 
ATOM     42  C   UNL A   1      41.339  26.505  29.058  1.00  0.00    -0.014 A 
BRANCH  42  43
ATOM     43  C   UNL A   1      41.079  27.886  29.462  1.00  0.00     0.031 A 
ATOM     44  C   UNL A   1      41.945  28.870  28.786  1.00  0.00     0.074 A 
ATOM     45  C   UNL A   1      40.125  28.357  30.287  1.00  0.00     0.049 A 
ATOM     46  N   UNL A   1      42.919  29.533  29.313  1.00  0.00    -0.248 NA
ATOM     47  C   UNL A   1      41.785  29.047  27.340  1.00  0.00     0.031 C 
ATOM     48  C   UNL A   1      38.984  27.650  30.842  1.00  0.00     0.029 A 
ATOM     49  N   UNL A   1      39.936  29.635  30.732  1.00  0.00    -0.354 N 
ATOM     50  C   UNL A   1      43.408  30.342  28.297  1.00  0.00     0.074 A 
ATOM     51  C   UNL A   1      42.792  29.877  27.077  1.00  0.00     0.031 C 
ATOM     52  C   UNL A   1      38.091  28.538  31.340  1.00  0.00     0.029 A 
ATOM     53  C   UNL A   1      38.697  29.860  31.313  1.00  0.00     0.049 A 
ATOM     54  H   UNL A   1      40.621  30.336  30.648  1.00  0.00     0.167 HD
ATOM     55  C   UNL A   1      44.138  31.460  28.555  1.00  0.00     0.034 A 
ATOM     56  C   UNL A   1      38.201  31.051  31.727  1.00  0.00     0.034 A 
ATOM     57  C   UNL A   1      44.582  31.508  29.922  1.00  0.00     0.049 A 
ATOM     58  C   UNL A   1      39.333  31.977  31.953  1.00  0.00     0.074 A 
ATOM     59  C   UNL A   1      45.388  30.715  30.715  1.00  0.00     0.029 A 
ATOM     60  N   UNL A   1      43.904  32.337  30.781  1.00  0.00    -0.354 N 
ATOM     61  N   UNL A   1      40.179  31.887  32.939  1.00  0.00    -0.248 NA
ATOM     62  C   UNL A   1      39.736  32.852  30.864  1.00  0.00     0.031 C 
ATOM     63  C   UNL A   1      44.846  30.817  32.028  1.00  0.00     0.029 A 
ATOM     64  C   UNL A   1      43.746  31.675  31.972  1.00  0.00     0.049 A 
ATOM     65  H   UNL A   1      43.587  33.247  30.578  1.00  0.00     0.167 HD
ATOM     66  C   UNL A   1      41.384  32.307  32.399  1.00  0.00     0.074 A 
ATOM     67  C   UNL A   1      41.018  33.032  31.188  1.00  0.00     0.031 C 
ATOM     68  C   UNL A   1      42.573  31.786  32.823  1.00  0.00     0.034 A 
BRANCH  55  69
ATOM     69  C   UNL A   1      44.197  32.645  27.629  1.00  0.00     0.023 A 
ATOM     70  C   UNL A   1      43.608  33.884  27.942  1.00  0.00     0.031 A 
ATOM     71  C   UNL A   1      45.007  32.622  26.480  1.00  0.00     0.131 A 
ATOM     72  C   UNL A   1      43.761  35.003  27.118  1.00  0.00     0.055 A 
ATOM     73  C   UNL A   1      45.231  33.763  25.699  1.00  0.00     0.041 A 
ATOM     74  F   UNL A   1      45.648  31.503  26.107  1.00  0.00    -0.206 F 
ATOM     75  C   UNL A   1      44.595  34.960  26.008  1.00  0.00     0.022 A 
BRANCH  72  76
ATOM     76  S   UNL A   1      42.844  36.526  27.476  1.00  0.00     0.124 S 
ATOM     77  O   UNL A   1      43.409  37.449  26.497  1.00  0.00    -0.237 OA
ATOM     78  O   UNL A   1      41.465  36.109  27.233  1.00  0.00    -0.237 OA
ATOM     79  O   UNL A   1      43.168  36.797  28.873  1.00  0.00    -0.744 OA
ENDBRANCH  72  76
ENDBRANCH  55  69
BRANCH  56  80
ATOM     80  C   UNL A   1      36.814  31.553  31.600  1.00  0.00     0.023 A 
ATOM     81  C   UNL A   1      36.245  31.703  30.322  1.00  0.00     0.031 A 
ATOM     82  C   UNL A   1      36.175  32.195  32.675  1.00  0.00     0.131 A 
ATOM     83  C   UNL A   1      35.121  32.521  30.139  1.00  0.00     0.055 A 
ATOM     84  C   UNL A   1      35.042  32.998  32.492  1.00  0.00     0.041 A 
ATOM     85  F   UNL A   1      36.680  32.116  33.915  1.00  0.00    -0.206 F 
ATOM     86  C   UNL A   1      34.519  33.177  31.215  1.00  0.00     0.022 A 
BRANCH  83  87
ATOM     87  S   UNL A   1      34.462  32.814  28.475  1.00  0.00     0.124 S 
ATOM     88  O   UNL A   1      35.647  33.255  27.742  1.00  0.00    -0.237 OA
ATOM     89  O   UNL A   1      33.960  31.491  28.117  1.00  0.00    -0.237 OA
ATOM     90  O   UNL A   1      33.448  33.844  28.686  1.00  0.00    -0.744 OA
ENDBRANCH  83  87
ENDBRANCH  56  80
BRANCH  68  91
ATOM     91  C   UNL A   1      42.621  31.017  34.129  1.00  0.00     0.023 A 
ATOM     92  C   UNL A   1      42.381  29.630  34.071  1.00  0.00     0.031 A 
ATOM     93  C   UNL A   1      42.686  31.609  35.405  1.00  0.00     0.131 A 
ATOM     94  C   UNL A   1      42.183  28.892  35.245  1.00  0.00     0.055 A 
ATOM     95  C   UNL A   1      42.562  30.853  36.577  1.00  0.00     0.041 A 
ATOM     96  F   UNL A   1      42.784  32.936  35.562  1.00  0.00    -0.206 F 
ATOM     97  C   UNL A   1      42.293  29.492  36.501  1.00  0.00     0.022 A 
BRANCH  94  98
ATOM     98  S   UNL A   1      41.622  27.170  35.167  1.00  0.00     0.124 S 
ATOM     99  O   UNL A   1      41.107  26.950  36.517  1.00  0.00    -0.237 OA
ATOM    100  O   UNL A   1      40.610  27.219  34.114  1.00  0.00    -0.237 OA
ATOM    101  O   UNL A   1      42.827  26.418  34.829  1.00  0.00    -0.744 OA
ENDBRANCH  94  98
ENDBRANCH  68  91
ENDBRANCH  42  43
ENDBRANCH  35  37
ENDBRANCH  34  35
ENDBRANCH  33  34
ENDBRANCH   1  33
TORSDOF 19
ENDMDL
MODEL 3
REMARK VINA RESULT:     -11.4      4.538      7.640
REMARK SMILES [NH3+][C@@H](Cc1cn(-c2nc(Cl)nc(N3CCOCC3)n2)c2ccccc12)C(=O)OCCOC(=O)c1ccc(-c2c3nc(c(-c4cc(S(=O)(=O)[O-])ccc4F)c4ccc([nH]4)c(-c4cc(S(=O)(=O)[O-])ccc4F)c4nc(c(-c5cc(S(=O)(=O)[O-])ccc5F)c5ccc2[nH]5)C=C4)C=C3)cc1
REMARK SMILES IDX 29 1 28 2 26 3 27 4 2 5 1 6 3 10 4 11 5 12 25 13 6 14 20 15
REMARK SMILES IDX 24 16 21 17 23 18 22 19 7 20 8 21 19 22 9 23 12 24 10 25
REMARK SMILES IDX 11 26 13 27 14 28 18 29 15 30 17 31 16 32 30 33 31 34 32 35
REMARK SMILES IDX 33 36 34 37 35 38 96 39 36 40 95 41 37 42 38 43 39 44 89 45
REMARK SMILES IDX 40 46 94 47 88 48 90 49 41 50 93 51 87 52 86 53 42 55 74 56
REMARK SMILES IDX 54 57 73 58 55 59 58 60 72 61 91 62 56 63 57 64 71 66 92 67
REMARK SMILES IDX 59 68 43 69 44 70 52 71 45 72 51 73 53 74 50 75 46 76 47 77
REMARK SMILES IDX 48 78 49 79 75 80 76 81 84 82 77 83 83 84 85 85 82 86 78 87
REMARK SMILES IDX 79 88 80 89 81 90 60 91 61 92 69 93 62 94 68 95 70 96 67 97
REMARK SMILES IDX 63 98 64 99 65 100 66 101
REMARK H PARENT 1 7 1 8 1 9 90 54 58 65
REMARK Flexibility Score: inf
ROOT
ATOM      1  C   UNL A   1      34.352  34.232  28.202  1.00  0.00     0.274 C 
ENDROOT
BRANCH   1   2
ATOM      2  O   UNL A   1      34.278  33.007  27.446  1.00  0.00    -0.458 OA
BRANCH   2   3
ATOM      3  C   UNL A   1      33.036  32.465  27.259  1.00  0.00     0.365 C 
ATOM      4  O   UNL A   1      31.991  33.104  27.277  1.00  0.00    -0.245 OA
BRANCH   3   5
ATOM      5  C   UNL A   1      33.093  30.939  27.054  1.00  0.00     0.296 C 
BRANCH   5   6
ATOM      6  N   UNL A   1      34.000  30.264  28.024  1.00  0.00    -0.346 N 
ATOM      7  H   UNL A   1      34.964  30.534  27.829  1.00  0.00     0.345 HD
ATOM      8  H   UNL A   1      33.904  29.254  27.932  1.00  0.00     0.345 HD
ATOM      9  H   UNL A   1      33.752  30.546  28.972  1.00  0.00     0.345 HD
ENDBRANCH   5   6
BRANCH   5  10
ATOM     10  C   UNL A   1      31.691  30.334  26.978  1.00  0.00     0.115 C 
BRANCH  10  11
ATOM     11  C   UNL A   1      31.655  29.005  26.331  1.00  0.00    -0.015 A 
ATOM     12  C   UNL A   1      31.910  27.811  26.947  1.00  0.00     0.099 A 
ATOM     13  C   UNL A   1      31.309  28.718  24.978  1.00  0.00     0.004 A 
ATOM     14  N   UNL A   1      31.790  26.805  26.022  1.00  0.00    -0.285 N 
ATOM     15  C   UNL A   1      31.438  27.336  24.793  1.00  0.00     0.056 A 
ATOM     16  C   UNL A   1      30.876  29.523  23.904  1.00  0.00     0.010 A 
ATOM     17  C   UNL A   1      31.142  26.733  23.561  1.00  0.00     0.027 A 
ATOM     18  C   UNL A   1      30.565  28.928  22.682  1.00  0.00     0.001 A 
ATOM     19  C   UNL A   1      30.700  27.554  22.515  1.00  0.00     0.002 A 
BRANCH  14  20
ATOM     20  C   UNL A   1      31.921  25.449  26.390  1.00  0.00     0.240 A 
ATOM     21  N   UNL A   1      30.864  24.817  26.874  1.00  0.00    -0.181 NA
ATOM     22  N   UNL A   1      33.031  24.858  25.944  1.00  0.00    -0.176 NA
ATOM     23  C   UNL A   1      30.979  23.502  26.736  1.00  0.00     0.228 A 
ATOM     24  C   UNL A   1      33.049  23.539  25.924  1.00  0.00     0.231 A 
ATOM     25  Cl  UNL A   1      29.604  22.591  27.185  1.00  0.00    -0.041 Cl
ATOM     26  N   UNL A   1      32.008  22.800  26.262  1.00  0.00    -0.182 NA
BRANCH  24  27
ATOM     27  N   UNL A   1      34.213  22.972  25.483  1.00  0.00    -0.336 N 
ATOM     28  C   UNL A   1      35.312  23.886  25.173  1.00  0.00     0.148 C 
ATOM     29  C   UNL A   1      34.584  21.620  25.861  1.00  0.00     0.148 C 
ATOM     30  C   UNL A   1      36.272  23.227  24.175  1.00  0.00     0.181 C 
ATOM     31  C   UNL A   1      35.550  21.069  24.796  1.00  0.00     0.181 C 
ATOM     32  O   UNL A   1      36.693  21.929  24.629  1.00  0.00    -0.378 OA
ENDBRANCH  24  27
ENDBRANCH  14  20
ENDBRANCH  10  11
ENDBRANCH   5  10
ENDBRANCH   3   5
ENDBRANCH   2   3
ENDBRANCH   1   2
BRANCH   1  33
ATOM     33  C   UNL A   1      34.414  33.918  29.699  1.00  0.00     0.275 C 
BRANCH  33  34
ATOM     34  O   UNL A   1      34.964  32.604  29.864  1.00  0.00    -0.458 OA
BRANCH  34  35
ATOM     35  C   UNL A   1      35.177  32.210  31.144  1.00  0.00     0.338 C 
ATOM     36  O   UNL A   1      34.383  32.272  32.067  1.00  0.00    -0.246 OA
BRANCH  35  37
ATOM     37  C   UNL A   1      36.433  31.427  31.147  1.00  0.00     0.060 A 
ATOM     38  C   UNL A   1      37.676  32.051  30.986  1.00  0.00     0.016 A 
ATOM     39  C   UNL A   1      36.327  30.034  31.087  1.00  0.00     0.016 A 
ATOM     40  C   UNL A   1      38.790  31.288  30.649  1.00  0.00     0.010 A 
ATOM     41  C   UNL A   1      37.445  29.275  30.750  1.00  0.00     0.010 A 
ATOM     42  C   UNL A   1      38.664  29.905  30.477  1.00  0.00    -0.014 A 
BRANCH  42  43
ATOM     43  C   UNL A   1      39.875  29.129  30.214  1.00  0.00     0.031 A 
ATOM     44  C   UNL A   1      40.626  28.776  31.433  1.00  0.00     0.074 A 
ATOM     45  C   UNL A   1      40.328  28.648  29.041  1.00  0.00     0.049 A 
ATOM     46  N   UNL A   1      41.752  29.275  31.819  1.00  0.00    -0.248 NA
ATOM     47  C   UNL A   1      39.997  27.855  32.384  1.00  0.00     0.031 C 
ATOM     48  C   UNL A   1      39.644  28.602  27.760  1.00  0.00     0.029 A 
ATOM     49  N   UNL A   1      41.502  27.999  28.781  1.00  0.00    -0.354 N 
ATOM     50  C   UNL A   1      42.064  28.614  32.998  1.00  0.00     0.074 A 
ATOM     51  C   UNL A   1      40.878  27.888  33.382  1.00  0.00     0.031 C 
ATOM     52  C   UNL A   1      40.289  27.754  26.924  1.00  0.00     0.029 A 
ATOM     53  C   UNL A   1      41.540  27.357  27.552  1.00  0.00     0.049 A 
ATOM     54  H   UNL A   1      42.257  27.987  29.412  1.00  0.00     0.167 HD
ATOM     55  C   UNL A   1      43.336  28.557  33.476  1.00  0.00     0.034 A 
ATOM     56  C   UNL A   1      42.522  26.545  27.091  1.00  0.00     0.034 A 
ATOM     57  C   UNL A   1      44.204  29.490  32.809  1.00  0.00     0.049 A 
ATOM     58  C   UNL A   1      43.765  26.843  27.838  1.00  0.00     0.074 A 
ATOM     59  C   UNL A   1      44.242  30.863  32.675  1.00  0.00     0.029 A 
ATOM     60  N   UNL A   1      45.055  28.994  31.852  1.00  0.00    -0.354 N 
ATOM     61  N   UNL A   1      44.473  27.927  27.699  1.00  0.00    -0.248 NA
ATOM     62  C   UNL A   1      44.064  26.053  29.022  1.00  0.00     0.031 C 
ATOM     63  C   UNL A   1      44.785  31.104  31.381  1.00  0.00     0.029 A 
ATOM     64  C   UNL A   1      45.060  29.867  30.796  1.00  0.00     0.049 A 
ATOM     65  H   UNL A   1      45.570  28.156  31.915  1.00  0.00     0.167 HD
ATOM     66  C   UNL A   1      44.957  28.190  28.969  1.00  0.00     0.074 A 
ATOM     67  C   UNL A   1      44.811  26.932  29.692  1.00  0.00     0.031 C 
ATOM     68  C   UNL A   1      45.164  29.469  29.401  1.00  0.00     0.034 A 
BRANCH  55  69
ATOM     69  C   UNL A   1      43.844  27.444  34.353  1.00  0.00     0.023 A 
ATOM     70  C   UNL A   1      44.030  26.131  33.882  1.00  0.00     0.031 A 
ATOM     71  C   UNL A   1      44.334  27.710  35.644  1.00  0.00     0.131 A 
ATOM     72  C   UNL A   1      44.600  25.135  34.680  1.00  0.00     0.055 A 
ATOM     73  C   UNL A   1      44.982  26.735  36.414  1.00  0.00     0.041 A 
ATOM     74  F   UNL A   1      44.244  28.937  36.179  1.00  0.00    -0.206 F 
ATOM     75  C   UNL A   1      45.106  25.435  35.939  1.00  0.00     0.022 A 
BRANCH  72  76
ATOM     76  S   UNL A   1      44.661  23.422  34.089  1.00  0.00     0.124 S 
ATOM     77  O   UNL A   1      43.621  22.792  34.896  1.00  0.00    -0.237 OA
ATOM     78  O   UNL A   1      44.353  23.584  32.670  1.00  0.00    -0.237 OA
ATOM     79  O   UNL A   1      46.032  23.011  34.379  1.00  0.00    -0.744 OA
ENDBRANCH  72  76
ENDBRANCH  55  69
BRANCH  56  80
ATOM     80  C   UNL A   1      42.380  25.297  26.309  1.00  0.00     0.023 A 
ATOM     81  C   UNL A   1      41.500  24.295  26.756  1.00  0.00     0.031 A 
ATOM     82  C   UNL A   1      43.329  24.941  25.334  1.00  0.00     0.131 A 
ATOM     83  C   UNL A   1      41.625  22.980  26.283  1.00  0.00     0.055 A 
ATOM     84  C   UNL A   1      43.440  23.631  24.850  1.00  0.00     0.041 A 
ATOM     85  F   UNL A   1      44.215  25.842  24.884  1.00  0.00    -0.206 F 
ATOM     86  C   UNL A   1      42.595  22.639  25.339  1.00  0.00     0.022 A 
BRANCH  83  87
ATOM     87  S   UNL A   1      40.573  21.662  26.951  1.00  0.00     0.124 S 
ATOM     88  O   UNL A   1      41.072  20.480  26.252  1.00  0.00    -0.237 OA
ATOM     89  O   UNL A   1      40.883  21.727  28.376  1.00  0.00    -0.237 OA
ATOM     90  O   UNL A   1      39.225  22.078  26.574  1.00  0.00    -0.744 OA
ENDBRANCH  83  87
ENDBRANCH  56  80
BRANCH  68  91
ATOM     91  C   UNL A   1      45.212  30.594  28.388  1.00  0.00     0.023 A 
ATOM     92  C   UNL A   1      46.484  31.026  27.962  1.00  0.00     0.031 A 
ATOM     93  C   UNL A   1      44.103  31.368  27.996  1.00  0.00     0.131 A 
ATOM     94  C   UNL A   1      46.623  32.200  27.210  1.00  0.00     0.055 A 
ATOM     95  C   UNL A   1      44.241  32.498  27.181  1.00  0.00     0.041 A 
ATOM     96  F   UNL A   1      42.869  31.113  28.453  1.00  0.00    -0.206 F 
ATOM     97  C   UNL A   1      45.505  32.929  26.798  1.00  0.00     0.022 A 
BRANCH  94  98
ATOM     98  S   UNL A   1      48.265  32.896  26.881  1.00  0.00     0.124 S 
ATOM     99  O   UNL A   1      47.995  33.820  25.783  1.00  0.00    -0.237 OA
ATOM    100  O   UNL A   1      48.598  33.523  28.159  1.00  0.00    -0.237 OA
ATOM    101  O   UNL A   1      49.079  31.734  26.534  1.00  0.00    -0.744 OA
ENDBRANCH  94  98
ENDBRANCH  68  91
ENDBRANCH  42  43
ENDBRANCH  35  37
ENDBRANCH  34  35
ENDBRANCH  33  34
ENDBRANCH   1  33
TORSDOF 19
ENDMDL
