MODEL 1
REMARK VINA RESULT:     -12.5      0.000      0.000
REMARK SMILES O=C(N/N=C\c1ccccc1C(=O)OCCOC(=O)c1ccc(-c2c3nc(c(-c4cc(S(=O)(=O)[O-])ccc4F)c4ccc([nH]4)c(-c4cc(S(=O)(=O)[O-])ccc4F)c4nc(c(-c5cc(S(=O)(=O)[O-])ccc5F)c5ccc2[nH]5)C=C4)C=C3)cc1)C(=O)N1CCCCC1
REMARK SMILES IDX 15 1 14 2 12 3 13 4 11 5 6 6 7 7 8 8 10 9 9 10 5 11 4 12
REMARK SMILES IDX 3 13 1 14 2 15 83 17 84 18 85 19 86 20 90 21 87 22 89 23
REMARK SMILES IDX 88 24 16 25 17 26 18 27 19 28 20 29 21 30 82 31 22 32 81 33
REMARK SMILES IDX 23 34 24 35 25 36 75 37 26 38 80 39 74 40 76 41 27 42 79 43
REMARK SMILES IDX 73 44 72 45 28 47 60 48 40 49 59 50 41 51 44 52 58 53 77 54
REMARK SMILES IDX 42 55 43 56 57 58 78 59 45 60 29 61 30 62 38 63 31 64 37 65
REMARK SMILES IDX 39 66 36 67 32 68 33 69 34 70 35 71 61 72 62 73 70 74 63 75
REMARK SMILES IDX 69 76 71 77 68 78 64 79 65 80 66 81 67 82 46 83 47 84 55 85
REMARK SMILES IDX 48 86 54 87 56 88 53 89 49 90 50 91 51 92 52 93
REMARK H PARENT 3 16 76 46 44 57
REMARK Flexibility Score: inf
ROOT
ATOM      1  C   UNL A   1      35.935  20.402  25.126  1.00  0.00     0.275 C 
ENDROOT
BRANCH   1   2
ATOM      2  O   UNL A   1      35.554  21.529  25.944  1.00  0.00    -0.458 OA
BRANCH   2   3
ATOM      3  C   UNL A   1      34.335  21.403  26.517  1.00  0.00     0.338 C 
ATOM      4  O   UNL A   1      34.096  21.307  27.707  1.00  0.00    -0.246 OA
BRANCH   3   5
ATOM      5  C   UNL A   1      33.291  21.293  25.492  1.00  0.00     0.068 A 
ATOM      6  C   UNL A   1      32.968  22.765  24.501  1.00  0.00     0.009 A 
ATOM      7  C   UNL A   1      32.226  22.632  22.806  1.00  0.00     0.010 A 
ATOM      8  C   UNL A   1      31.886  20.983  22.122  1.00  0.00     0.001 A 
ATOM      9  C   UNL A   1      32.947  19.660  24.805  1.00  0.00     0.016 A 
ATOM     10  C   UNL A   1      32.268  19.504  23.097  1.00  0.00     0.001 A 
BRANCH   6  11
ATOM     11  C   UNL A   1      33.837  23.880  24.775  1.00  0.00     0.142 C 
ATOM     12  N   UNL A   1      33.501  24.778  25.636  1.00  0.00    -0.180 NA
BRANCH  12  13
ATOM     13  N   UNL A   1      32.310  24.640  26.298  1.00  0.00    -0.239 N 
ATOM     14  O   UNL A   1      30.115  24.910  26.712  1.00  0.00    -0.262 OA
ATOM     15  C   UNL A   1      31.177  25.458  26.397  1.00  0.00     0.329 C 
ATOM     16  H   UNL A   1      32.235  23.800  26.804  1.00  0.00     0.194 HD
BRANCH  15  17
ATOM     17  C   UNL A   1      31.231  27.143  26.252  1.00  0.00     0.313 C 
ATOM     18  O   UNL A   1      31.289  27.347  27.517  1.00  0.00    -0.263 OA
ATOM     19  N   UNL A   1      31.167  28.382  24.688  1.00  0.00    -0.334 N 
ATOM     20  C   UNL A   1      30.822  30.060  24.545  1.00  0.00     0.120 C 
ATOM     21  C   UNL A   1      31.437  28.165  23.012  1.00  0.00     0.120 C 
ATOM     22  C   UNL A   1      29.577  30.324  23.678  1.00  0.00     0.022 C 
ATOM     23  C   UNL A   1      30.181  28.433  22.173  1.00  0.00     0.022 C 
ATOM     24  C   UNL A   1      29.759  29.884  22.242  1.00  0.00     0.004 C 
ENDBRANCH  15  17
ENDBRANCH  12  13
ENDBRANCH   6  11
ENDBRANCH   3   5
ENDBRANCH   2   3
ENDBRANCH   1   2
BRANCH   1  25
ATOM     25  C   UNL A   1      37.453  20.235  24.971  1.00  0.00     0.275 C 
BRANCH  25  26
ATOM     26  O   UNL A   1      38.189  21.435  25.268  1.00  0.00    -0.458 OA
BRANCH  26  27
ATOM     27  C   UNL A   1      39.295  21.242  26.021  1.00  0.00     0.338 C 
ATOM     28  O   UNL A   1      39.967  20.225  26.085  1.00  0.00    -0.246 OA
BRANCH  27  29
ATOM     29  C   UNL A   1      39.650  22.463  26.761  1.00  0.00     0.060 A 
ATOM     30  C   UNL A   1      39.169  23.684  26.289  1.00  0.00     0.016 A 
ATOM     31  C   UNL A   1      40.618  22.428  27.765  1.00  0.00     0.016 A 
ATOM     32  C   UNL A   1      39.738  24.876  26.726  1.00  0.00     0.010 A 
ATOM     33  C   UNL A   1      41.142  23.633  28.253  1.00  0.00     0.010 A 
ATOM     34  C   UNL A   1      40.744  24.865  27.700  1.00  0.00    -0.014 A 
BRANCH  34  35
ATOM     35  C   UNL A   1      41.452  26.124  28.055  1.00  0.00     0.031 A 
ATOM     36  C   UNL A   1      40.731  27.184  28.848  1.00  0.00     0.074 A 
ATOM     37  C   UNL A   1      42.745  26.310  27.727  1.00  0.00     0.049 A 
ATOM     38  N   UNL A   1      41.077  28.423  29.085  1.00  0.00    -0.248 NA
ATOM     39  C   UNL A   1      39.444  26.795  29.443  1.00  0.00     0.031 C 
ATOM     40  C   UNL A   1      43.595  25.339  27.035  1.00  0.00     0.029 A 
ATOM     41  N   UNL A   1      43.575  27.380  27.948  1.00  0.00    -0.354 N 
ATOM     42  C   UNL A   1      40.023  28.982  29.799  1.00  0.00     0.074 A 
ATOM     43  C   UNL A   1      39.033  27.939  29.971  1.00  0.00     0.031 C 
ATOM     44  C   UNL A   1      44.832  25.847  26.917  1.00  0.00     0.029 A 
ATOM     45  C   UNL A   1      44.846  27.202  27.459  1.00  0.00     0.049 A 
ATOM     46  H   UNL A   1      43.285  28.198  28.414  1.00  0.00     0.167 HD
ATOM     47  C   UNL A   1      39.886  30.253  30.252  1.00  0.00     0.034 A 
ATOM     48  C   UNL A   1      45.892  28.048  27.413  1.00  0.00     0.034 A 
ATOM     49  C   UNL A   1      40.897  31.272  30.114  1.00  0.00     0.049 A 
ATOM     50  C   UNL A   1      45.725  29.451  27.927  1.00  0.00     0.074 A 
ATOM     51  C   UNL A   1      40.842  32.608  30.474  1.00  0.00     0.029 A 
ATOM     52  N   UNL A   1      42.166  31.054  29.596  1.00  0.00    -0.354 N 
ATOM     53  N   UNL A   1      44.661  30.018  28.446  1.00  0.00    -0.248 NA
ATOM     54  C   UNL A   1      46.892  30.337  27.820  1.00  0.00     0.031 C 
ATOM     55  C   UNL A   1      42.072  33.202  30.155  1.00  0.00     0.029 A 
ATOM     56  C   UNL A   1      42.904  32.226  29.631  1.00  0.00     0.049 A 
ATOM     57  H   UNL A   1      42.494  30.192  29.251  1.00  0.00     0.167 HD
ATOM     58  C   UNL A   1      45.025  31.333  28.706  1.00  0.00     0.074 A 
ATOM     59  C   UNL A   1      46.414  31.470  28.314  1.00  0.00     0.031 C 
ATOM     60  C   UNL A   1      44.276  32.345  29.211  1.00  0.00     0.034 A 
BRANCH  47  61
ATOM     61  C   UNL A   1      38.558  30.619  30.858  1.00  0.00     0.023 A 
ATOM     62  C   UNL A   1      37.538  31.230  30.110  1.00  0.00     0.031 A 
ATOM     63  C   UNL A   1      38.337  30.402  32.230  1.00  0.00     0.131 A 
ATOM     64  C   UNL A   1      36.364  31.655  30.752  1.00  0.00     0.055 A 
ATOM     65  C   UNL A   1      37.144  30.775  32.849  1.00  0.00     0.041 A 
ATOM     66  F   UNL A   1      39.288  29.844  32.994  1.00  0.00    -0.206 F 
ATOM     67  C   UNL A   1      36.154  31.416  32.112  1.00  0.00     0.022 A 
BRANCH  64  68
ATOM     68  S   UNL A   1      35.161  32.636  29.810  1.00  0.00     0.124 S 
ATOM     69  O   UNL A   1      34.168  32.951  30.834  1.00  0.00    -0.237 OA
ATOM     70  O   UNL A   1      35.968  33.753  29.335  1.00  0.00    -0.237 OA
ATOM     71  O   UNL A   1      34.703  31.713  28.774  1.00  0.00    -0.744 OA
ENDBRANCH  64  68
ENDBRANCH  47  61
BRANCH  48  72
ATOM     72  C   UNL A   1      47.164  27.625  26.774  1.00  0.00     0.023 A 
ATOM     73  C   UNL A   1      48.128  26.897  27.486  1.00  0.00     0.031 A 
ATOM     74  C   UNL A   1      47.437  27.969  25.439  1.00  0.00     0.131 A 
ATOM     75  C   UNL A   1      49.337  26.553  26.864  1.00  0.00     0.055 A 
ATOM     76  C   UNL A   1      48.627  27.597  24.815  1.00  0.00     0.041 A 
ATOM     77  F   UNL A   1      46.540  28.662  24.720  1.00  0.00    -0.206 F 
ATOM     78  C   UNL A   1      49.589  26.890  25.530  1.00  0.00     0.022 A 
BRANCH  75  79
ATOM     79  S   UNL A   1      50.605  25.691  27.833  1.00  0.00     0.124 S 
ATOM     80  O   UNL A   1      50.141  24.310  27.772  1.00  0.00    -0.237 OA
ATOM     81  O   UNL A   1      51.819  25.993  27.084  1.00  0.00    -0.237 OA
ATOM     82  O   UNL A   1      50.515  26.321  29.149  1.00  0.00    -0.744 OA
ENDBRANCH  75  79
ENDBRANCH  48  72
BRANCH  60  83
ATOM     83  C   UNL A   1      44.960  33.673  29.362  1.00  0.00     0.023 A 
ATOM     84  C   UNL A   1      45.070  34.557  28.276  1.00  0.00     0.031 A 
ATOM     85  C   UNL A   1      45.528  34.042  30.591  1.00  0.00     0.131 A 
ATOM     86  C   UNL A   1      45.766  35.765  28.434  1.00  0.00     0.055 A 
ATOM     87  C   UNL A   1      46.199  35.255  30.748  1.00  0.00     0.041 A 
ATOM     88  F   UNL A   1      45.449  33.223  31.652  1.00  0.00    -0.206 F 
ATOM     89  C   UNL A   1      46.326  36.120  29.664  1.00  0.00     0.022 A 
BRANCH  86  90
ATOM     90  S   UNL A   1      45.971  36.850  26.994  1.00  0.00     0.124 S 
ATOM     91  O   UNL A   1      46.039  35.891  25.896  1.00  0.00    -0.237 OA
ATOM     92  O   UNL A   1      44.767  37.674  27.049  1.00  0.00    -0.237 OA
ATOM     93  O   UNL A   1      47.218  37.559  27.274  1.00  0.00    -0.744 OA
ENDBRANCH  86  90
ENDBRANCH  60  83
ENDBRANCH  34  35
ENDBRANCH  27  29
ENDBRANCH  26  27
ENDBRANCH  25  26
ENDBRANCH   1  25
TORSDOF 17
ENDMDL
MODEL 2
REMARK VINA RESULT:     -12.5      2.198      7.817
REMARK SMILES O=C(N/N=C\c1ccccc1C(=O)OCCOC(=O)c1ccc(-c2c3nc(c(-c4cc(S(=O)(=O)[O-])ccc4F)c4ccc([nH]4)c(-c4cc(S(=O)(=O)[O-])ccc4F)c4nc(c(-c5cc(S(=O)(=O)[O-])ccc5F)c5ccc2[nH]5)C=C4)C=C3)cc1)C(=O)N1CCCCC1
REMARK SMILES IDX 15 1 14 2 12 3 13 4 11 5 6 6 7 7 8 8 10 9 9 10 5 11 4 12
REMARK SMILES IDX 3 13 1 14 2 15 83 17 84 18 85 19 86 20 90 21 87 22 89 23
REMARK SMILES IDX 88 24 16 25 17 26 18 27 19 28 20 29 21 30 82 31 22 32 81 33
REMARK SMILES IDX 23 34 24 35 25 36 75 37 26 38 80 39 74 40 76 41 27 42 79 43
REMARK SMILES IDX 73 44 72 45 28 47 60 48 40 49 59 50 41 51 44 52 58 53 77 54
REMARK SMILES IDX 42 55 43 56 57 58 78 59 45 60 29 61 30 62 38 63 31 64 37 65
REMARK SMILES IDX 39 66 36 67 32 68 33 69 34 70 35 71 61 72 62 73 70 74 63 75
REMARK SMILES IDX 69 76 71 77 68 78 64 79 65 80 66 81 67 82 46 83 47 84 55 85
REMARK SMILES IDX 48 86 54 87 56 88 53 89 49 90 50 91 51 92 52 93
REMARK H PARENT 3 16 76 46 44 57
REMARK Flexibility Score: inf
ROOT
ATOM      1  C   UNL A   1      37.770  20.821  24.965  1.00  0.00     0.275 C 
ENDROOT
BRANCH   1   2
ATOM      2  O   UNL A   1      36.770  20.965  25.996  1.00  0.00    -0.458 OA
BRANCH   2   3
ATOM      3  C   UNL A   1      35.511  21.107  25.522  1.00  0.00     0.338 C 
ATOM      4  O   UNL A   1      34.996  20.470  24.620  1.00  0.00    -0.246 OA
BRANCH   3   5
ATOM      5  C   UNL A   1      34.833  22.228  26.181  1.00  0.00     0.068 A 
ATOM      6  C   UNL A   1      35.054  23.858  25.442  1.00  0.00     0.009 A 
ATOM      7  C   UNL A   1      33.802  25.203  25.699  1.00  0.00     0.010 A 
ATOM      8  C   UNL A   1      32.304  24.837  26.661  1.00  0.00     0.001 A 
ATOM      9  C   UNL A   1      33.343  21.876  27.137  1.00  0.00     0.016 A 
ATOM     10  C   UNL A   1      32.057  23.181  27.352  1.00  0.00     0.001 A 
BRANCH   6  11
ATOM     11  C   UNL A   1      35.819  23.869  24.221  1.00  0.00     0.142 C 
ATOM     12  N   UNL A   1      35.270  23.549  23.100  1.00  0.00    -0.180 NA
BRANCH  12  13
ATOM     13  N   UNL A   1      33.941  23.216  23.091  1.00  0.00    -0.239 N 
ATOM     14  O   UNL A   1      31.841  23.055  22.298  1.00  0.00    -0.262 OA
ATOM     15  C   UNL A   1      32.823  23.787  22.468  1.00  0.00     0.329 C 
ATOM     16  H   UNL A   1      33.730  22.419  23.627  1.00  0.00     0.194 HD
BRANCH  15  17
ATOM     17  C   UNL A   1      32.711  25.431  22.082  1.00  0.00     0.313 C 
ATOM     18  O   UNL A   1      33.404  25.326  21.009  1.00  0.00    -0.263 OA
ATOM     19  N   UNL A   1      31.862  26.992  22.992  1.00  0.00    -0.334 N 
ATOM     20  C   UNL A   1      32.076  28.690  22.832  1.00  0.00     0.120 C 
ATOM     21  C   UNL A   1      30.662  27.128  24.204  1.00  0.00     0.120 C 
ATOM     22  C   UNL A   1      32.582  29.336  24.134  1.00  0.00     0.022 C 
ATOM     23  C   UNL A   1      31.194  27.773  25.491  1.00  0.00     0.022 C 
ATOM     24  C   UNL A   1      31.592  29.217  25.272  1.00  0.00     0.004 C 
ENDBRANCH  15  17
ENDBRANCH  12  13
ENDBRANCH   6  11
ENDBRANCH   3   5
ENDBRANCH   2   3
ENDBRANCH   1   2
BRANCH   1  25
ATOM     25  C   UNL A   1      38.780  19.698  25.236  1.00  0.00     0.275 C 
BRANCH  25  26
ATOM     26  O   UNL A   1      39.416  19.806  26.522  1.00  0.00    -0.458 OA
BRANCH  26  27
ATOM     27  C   UNL A   1      40.686  20.268  26.482  1.00  0.00     0.338 C 
ATOM     28  O   UNL A   1      41.659  19.693  26.019  1.00  0.00    -0.246 OA
BRANCH  27  29
ATOM     29  C   UNL A   1      40.772  21.625  27.043  1.00  0.00     0.060 A 
ATOM     30  C   UNL A   1      40.040  22.641  26.427  1.00  0.00     0.016 A 
ATOM     31  C   UNL A   1      41.727  21.934  28.012  1.00  0.00     0.016 A 
ATOM     32  C   UNL A   1      40.341  23.974  26.685  1.00  0.00     0.010 A 
ATOM     33  C   UNL A   1      41.981  23.277  28.320  1.00  0.00     0.010 A 
ATOM     34  C   UNL A   1      41.328  24.310  27.620  1.00  0.00    -0.014 A 
BRANCH  34  35
ATOM     35  C   UNL A   1      41.749  25.727  27.784  1.00  0.00     0.031 A 
ATOM     36  C   UNL A   1      43.030  26.200  27.148  1.00  0.00     0.074 A 
ATOM     37  C   UNL A   1      40.976  26.609  28.446  1.00  0.00     0.049 A 
ATOM     38  N   UNL A   1      43.687  27.317  27.331  1.00  0.00    -0.248 NA
ATOM     39  C   UNL A   1      43.660  25.284  26.183  1.00  0.00     0.031 C 
ATOM     40  C   UNL A   1      39.671  26.317  29.042  1.00  0.00     0.029 A 
ATOM     41  N   UNL A   1      41.174  27.940  28.715  1.00  0.00    -0.354 N 
ATOM     42  C   UNL A   1      44.838  27.213  26.558  1.00  0.00     0.074 A 
ATOM     43  C   UNL A   1      44.780  25.929  25.890  1.00  0.00     0.031 C 
ATOM     44  C   UNL A   1      39.173  27.443  29.579  1.00  0.00     0.029 A 
ATOM     45  C   UNL A   1      40.151  28.516  29.427  1.00  0.00     0.049 A 
ATOM     46  H   UNL A   1      41.974  28.435  28.423  1.00  0.00     0.167 HD
ATOM     47  C   UNL A   1      45.858  28.099  26.433  1.00  0.00     0.034 A 
ATOM     48  C   UNL A   1      40.031  29.756  29.939  1.00  0.00     0.034 A 
ATOM     49  C   UNL A   1      45.883  29.393  27.067  1.00  0.00     0.049 A 
ATOM     50  C   UNL A   1      41.167  30.727  29.785  1.00  0.00     0.074 A 
ATOM     51  C   UNL A   1      46.891  30.344  27.065  1.00  0.00     0.029 A 
ATOM     52  N   UNL A   1      44.833  29.932  27.797  1.00  0.00    -0.354 N 
ATOM     53  N   UNL A   1      42.326  30.553  29.195  1.00  0.00    -0.248 NA
ATOM     54  C   UNL A   1      40.990  32.053  30.393  1.00  0.00     0.031 C 
ATOM     55  C   UNL A   1      46.455  31.449  27.811  1.00  0.00     0.029 A 
ATOM     56  C   UNL A   1      45.163  31.201  28.244  1.00  0.00     0.049 A 
ATOM     57  H   UNL A   1      43.977  29.478  27.972  1.00  0.00     0.167 HD
ATOM     58  C   UNL A   1      43.025  31.740  29.381  1.00  0.00     0.074 A 
ATOM     59  C   UNL A   1      42.149  32.633  30.112  1.00  0.00     0.031 C 
ATOM     60  C   UNL A   1      44.284  32.061  28.993  1.00  0.00     0.034 A 
BRANCH  47  61
ATOM     61  C   UNL A   1      47.058  27.646  25.646  1.00  0.00     0.023 A 
ATOM     62  C   UNL A   1      47.233  27.980  24.292  1.00  0.00     0.031 A 
ATOM     63  C   UNL A   1      48.014  26.814  26.255  1.00  0.00     0.131 A 
ATOM     64  C   UNL A   1      48.311  27.435  23.576  1.00  0.00     0.055 A 
ATOM     65  C   UNL A   1      49.115  26.323  25.551  1.00  0.00     0.041 A 
ATOM     66  F   UNL A   1      47.880  26.446  27.538  1.00  0.00    -0.206 F 
ATOM     67  C   UNL A   1      49.261  26.624  24.200  1.00  0.00     0.022 A 
BRANCH  64  68
ATOM     68  S   UNL A   1      48.390  27.703  21.783  1.00  0.00     0.124 S 
ATOM     69  O   UNL A   1      47.058  28.234  21.503  1.00  0.00    -0.237 OA
ATOM     70  O   UNL A   1      49.496  28.643  21.652  1.00  0.00    -0.237 OA
ATOM     71  O   UNL A   1      48.641  26.366  21.248  1.00  0.00    -0.744 OA
ENDBRANCH  64  68
ENDBRANCH  47  61
BRANCH  48  72
ATOM     72  C   UNL A   1      38.827  30.121  30.729  1.00  0.00     0.023 A 
ATOM     73  C   UNL A   1      37.790  30.877  30.165  1.00  0.00     0.031 A 
ATOM     74  C   UNL A   1      38.716  29.733  32.076  1.00  0.00     0.131 A 
ATOM     75  C   UNL A   1      36.688  31.242  30.953  1.00  0.00     0.055 A 
ATOM     76  C   UNL A   1      37.605  30.072  32.847  1.00  0.00     0.041 A 
ATOM     77  F   UNL A   1      39.685  29.006  32.654  1.00  0.00    -0.206 F 
ATOM     78  C   UNL A   1      36.585  30.837  32.288  1.00  0.00     0.022 A 
BRANCH  75  79
ATOM     79  S   UNL A   1      35.404  32.296  30.226  1.00  0.00     0.124 S 
ATOM     80  O   UNL A   1      36.146  33.519  29.940  1.00  0.00    -0.237 OA
ATOM     81  O   UNL A   1      34.987  31.514  29.067  1.00  0.00    -0.237 OA
ATOM     82  O   UNL A   1      34.409  32.405  31.291  1.00  0.00    -0.744 OA
ENDBRANCH  75  79
ENDBRANCH  48  72
BRANCH  60  83
ATOM     83  C   UNL A   1      44.767  33.434  29.361  1.00  0.00     0.023 A 
ATOM     84  C   UNL A   1      44.625  34.513  28.473  1.00  0.00     0.031 A 
ATOM     85  C   UNL A   1      45.397  33.656  30.596  1.00  0.00     0.131 A 
ATOM     86  C   UNL A   1      45.138  35.771  28.823  1.00  0.00     0.055 A 
ATOM     87  C   UNL A   1      45.885  34.915  30.947  1.00  0.00     0.041 A 
ATOM     88  F   UNL A   1      45.557  32.651  31.470  1.00  0.00    -0.206 F 
ATOM     89  C   UNL A   1      45.763  35.979  30.056  1.00  0.00     0.022 A 
BRANCH  86  90
ATOM     90  S   UNL A   1      45.021  37.127  27.623  1.00  0.00     0.124 S 
ATOM     91  O   UNL A   1      45.377  38.286  28.436  1.00  0.00    -0.237 OA
ATOM     92  O   UNL A   1      45.997  36.734  26.610  1.00  0.00    -0.237 OA
ATOM     93  O   UNL A   1      43.627  37.080  27.187  1.00  0.00    -0.744 OA
ENDBRANCH  86  90
ENDBRANCH  60  83
ENDBRANCH  34  35
ENDBRANCH  27  29
ENDBRANCH  26  27
ENDBRANCH  25  26
ENDBRANCH   1  25
TORSDOF 17
ENDMDL
MODEL 3
REMARK VINA RESULT:     -12.3      1.707      2.166
REMARK SMILES O=C(N/N=C\c1ccccc1C(=O)OCCOC(=O)c1ccc(-c2c3nc(c(-c4cc(S(=O)(=O)[O-])ccc4F)c4ccc([nH]4)c(-c4cc(S(=O)(=O)[O-])ccc4F)c4nc(c(-c5cc(S(=O)(=O)[O-])ccc5F)c5ccc2[nH]5)C=C4)C=C3)cc1)C(=O)N1CCCCC1
REMARK SMILES IDX 15 1 14 2 12 3 13 4 11 5 6 6 7 7 8 8 10 9 9 10 5 11 4 12
REMARK SMILES IDX 3 13 1 14 2 15 83 17 84 18 85 19 86 20 90 21 87 22 89 23
REMARK SMILES IDX 88 24 16 25 17 26 18 27 19 28 20 29 21 30 82 31 22 32 81 33
REMARK SMILES IDX 23 34 24 35 25 36 75 37 26 38 80 39 74 40 76 41 27 42 79 43
REMARK SMILES IDX 73 44 72 45 28 47 60 48 40 49 59 50 41 51 44 52 58 53 77 54
REMARK SMILES IDX 42 55 43 56 57 58 78 59 45 60 29 61 30 62 38 63 31 64 37 65
REMARK SMILES IDX 39 66 36 67 32 68 33 69 34 70 35 71 61 72 62 73 70 74 63 75
REMARK SMILES IDX 69 76 71 77 68 78 64 79 65 80 66 81 67 82 46 83 47 84 55 85
REMARK SMILES IDX 48 86 54 87 56 88 53 89 49 90 50 91 51 92 52 93
REMARK H PARENT 3 16 76 46 44 57
REMARK Flexibility Score: inf
ROOT
ATOM      1  C   UNL A   1      35.563  20.694  24.986  1.00  0.00     0.275 C 
ENDROOT
BRANCH   1   2
ATOM      2  O   UNL A   1      35.405  22.043  25.473  1.00  0.00    -0.458 OA
BRANCH   2   3
ATOM      3  C   UNL A   1      34.134  22.361  25.807  1.00  0.00     0.338 C 
ATOM      4  O   UNL A   1      33.781  23.211  26.605  1.00  0.00    -0.246 OA
BRANCH   3   5
ATOM      5  C   UNL A   1      33.185  21.461  25.143  1.00  0.00     0.068 A 
ATOM      6  C   UNL A   1      32.794  21.822  23.419  1.00  0.00     0.009 A 
ATOM      7  C   UNL A   1      32.197  20.489  22.274  1.00  0.00     0.010 A 
ATOM      8  C   UNL A   1      32.070  18.787  22.898  1.00  0.00     0.001 A 
ATOM      9  C   UNL A   1      33.052  19.767  25.753  1.00  0.00     0.016 A 
ATOM     10  C   UNL A   1      32.520  18.417  24.614  1.00  0.00     0.001 A 
BRANCH   6  11
ATOM     11  C   UNL A   1      33.528  22.924  22.851  1.00  0.00     0.142 C 
ATOM     12  N   UNL A   1      32.922  24.006  22.505  1.00  0.00    -0.180 NA
BRANCH  12  13
ATOM     13  N   UNL A   1      31.570  24.095  22.705  1.00  0.00    -0.239 N 
ATOM     14  O   UNL A   1      29.608  25.040  23.270  1.00  0.00    -0.262 OA
ATOM     15  C   UNL A   1      30.788  24.855  23.586  1.00  0.00     0.329 C 
ATOM     16  H   UNL A   1      31.044  23.511  22.114  1.00  0.00     0.194 HD
BRANCH  15  17
ATOM     17  C   UNL A   1      31.338  25.388  25.095  1.00  0.00     0.313 C 
ATOM     18  O   UNL A   1      30.866  24.380  25.732  1.00  0.00    -0.263 OA
ATOM     19  N   UNL A   1      32.315  27.024  25.692  1.00  0.00    -0.334 N 
ATOM     20  C   UNL A   1      32.521  27.759  27.231  1.00  0.00     0.120 C 
ATOM     21  C   UNL A   1      33.249  28.194  24.865  1.00  0.00     0.120 C 
ATOM     22  C   UNL A   1      31.923  29.177  27.281  1.00  0.00     0.022 C 
ATOM     23  C   UNL A   1      32.630  29.596  24.930  1.00  0.00     0.022 C 
ATOM     24  C   UNL A   1      32.616  30.139  26.342  1.00  0.00     0.004 C 
ENDBRANCH  15  17
ENDBRANCH  12  13
ENDBRANCH   6  11
ENDBRANCH   3   5
ENDBRANCH   2   3
ENDBRANCH   1   2
BRANCH   1  25
ATOM     25  C   UNL A   1      37.017  20.205  24.977  1.00  0.00     0.275 C 
BRANCH  25  26
ATOM     26  O   UNL A   1      37.976  21.276  25.030  1.00  0.00    -0.458 OA
BRANCH  26  27
ATOM     27  C   UNL A   1      39.061  21.019  25.794  1.00  0.00     0.338 C 
ATOM     28  O   UNL A   1      39.677  19.967  25.860  1.00  0.00    -0.246 OA
BRANCH  27  29
ATOM     29  C   UNL A   1      39.473  22.215  26.546  1.00  0.00     0.060 A 
ATOM     30  C   UNL A   1      38.982  23.454  26.134  1.00  0.00     0.016 A 
ATOM     31  C   UNL A   1      40.496  22.142  27.492  1.00  0.00     0.016 A 
ATOM     32  C   UNL A   1      39.591  24.627  26.571  1.00  0.00     0.010 A 
ATOM     33  C   UNL A   1      41.061  23.326  27.983  1.00  0.00     0.010 A 
ATOM     34  C   UNL A   1      40.650  24.578  27.486  1.00  0.00    -0.014 A 
BRANCH  34  35
ATOM     35  C   UNL A   1      41.393  25.818  27.834  1.00  0.00     0.031 A 
ATOM     36  C   UNL A   1      40.721  26.877  28.670  1.00  0.00     0.074 A 
ATOM     37  C   UNL A   1      42.676  25.986  27.462  1.00  0.00     0.049 A 
ATOM     38  N   UNL A   1      41.098  28.106  28.913  1.00  0.00    -0.248 NA
ATOM     39  C   UNL A   1      39.449  26.501  29.306  1.00  0.00     0.031 C 
ATOM     40  C   UNL A   1      43.482  25.013  26.724  1.00  0.00     0.029 A 
ATOM     41  N   UNL A   1      43.533  27.038  27.669  1.00  0.00    -0.354 N 
ATOM     42  C   UNL A   1      40.081  28.672  29.675  1.00  0.00     0.074 A 
ATOM     43  C   UNL A   1      39.079  27.643  29.867  1.00  0.00     0.031 C 
ATOM     44  C   UNL A   1      44.724  25.500  26.568  1.00  0.00     0.029 A 
ATOM     45  C   UNL A   1      44.781  26.845  27.131  1.00  0.00     0.049 A 
ATOM     46  H   UNL A   1      43.276  27.853  28.158  1.00  0.00     0.167 HD
ATOM     47  C   UNL A   1      39.984  29.937  30.153  1.00  0.00     0.034 A 
ATOM     48  C   UNL A   1      45.840  27.674  27.059  1.00  0.00     0.034 A 
ATOM     49  C   UNL A   1      41.008  30.940  29.994  1.00  0.00     0.049 A 
ATOM     50  C   UNL A   1      45.718  29.071  27.601  1.00  0.00     0.074 A 
ATOM     51  C   UNL A   1      40.990  32.271  30.377  1.00  0.00     0.029 A 
ATOM     52  N   UNL A   1      42.252  30.709  29.425  1.00  0.00    -0.354 N 
ATOM     53  N   UNL A   1      44.685  29.648  28.168  1.00  0.00    -0.248 NA
ATOM     54  C   UNL A   1      46.897  29.938  27.465  1.00  0.00     0.031 C 
ATOM     55  C   UNL A   1      42.218  32.848  30.021  1.00  0.00     0.029 A 
ATOM     56  C   UNL A   1      43.012  31.867  29.452  1.00  0.00     0.049 A 
ATOM     57  H   UNL A   1      42.552  29.847  29.056  1.00  0.00     0.167 HD
ATOM     58  C   UNL A   1      45.082  30.952  28.435  1.00  0.00     0.074 A 
ATOM     59  C   UNL A   1      46.457  31.071  27.994  1.00  0.00     0.031 C 
ATOM     60  C   UNL A   1      44.370  31.968  28.983  1.00  0.00     0.034 A 
BRANCH  47  61
ATOM     61  C   UNL A   1      38.686  30.316  30.813  1.00  0.00     0.023 A 
ATOM     62  C   UNL A   1      37.651  30.960  30.113  1.00  0.00     0.031 A 
ATOM     63  C   UNL A   1      38.510  30.077  32.188  1.00  0.00     0.131 A 
ATOM     64  C   UNL A   1      36.510  31.395  30.805  1.00  0.00     0.055 A 
ATOM     65  C   UNL A   1      37.347  30.461  32.857  1.00  0.00     0.041 A 
ATOM     66  F   UNL A   1      39.478  29.488  32.906  1.00  0.00    -0.206 F 
ATOM     67  C   UNL A   1      36.344  31.135  32.168  1.00  0.00     0.022 A 
BRANCH  64  68
ATOM     68  S   UNL A   1      35.293  32.415  29.926  1.00  0.00     0.124 S 
ATOM     69  O   UNL A   1      34.809  31.488  28.907  1.00  0.00    -0.237 OA
ATOM     70  O   UNL A   1      34.347  32.758  30.981  1.00  0.00    -0.237 OA
ATOM     71  O   UNL A   1      36.087  33.530  29.415  1.00  0.00    -0.744 OA
ENDBRANCH  64  68
ENDBRANCH  47  61
BRANCH  48  72
ATOM     72  C   UNL A   1      47.080  27.239  26.367  1.00  0.00     0.023 A 
ATOM     73  C   UNL A   1      48.087  26.541  27.049  1.00  0.00     0.031 A 
ATOM     74  C   UNL A   1      47.279  27.543  25.009  1.00  0.00     0.131 A 
ATOM     75  C   UNL A   1      49.264  26.185  26.374  1.00  0.00     0.055 A 
ATOM     76  C   UNL A   1      48.438  27.159  24.334  1.00  0.00     0.041 A 
ATOM     77  F   UNL A   1      46.339  28.207  24.318  1.00  0.00    -0.206 F 
ATOM     78  C   UNL A   1      49.442  26.481  25.019  1.00  0.00     0.022 A 
BRANCH  75  79
ATOM     79  S   UNL A   1      50.588  25.363  27.302  1.00  0.00     0.124 S 
ATOM     80  O   UNL A   1      51.019  26.420  28.209  1.00  0.00    -0.237 OA
ATOM     81  O   UNL A   1      49.883  24.242  27.913  1.00  0.00    -0.237 OA
ATOM     82  O   UNL A   1      51.554  24.998  26.267  1.00  0.00    -0.744 OA
ENDBRANCH  75  79
ENDBRANCH  48  72
BRANCH  60  83
ATOM     83  C   UNL A   1      45.083  33.281  29.129  1.00  0.00     0.023 A 
ATOM     84  C   UNL A   1      45.807  33.586  30.293  1.00  0.00     0.031 A 
ATOM     85  C   UNL A   1      45.013  34.242  28.108  1.00  0.00     0.131 A 
ATOM     86  C   UNL A   1      46.414  34.844  30.423  1.00  0.00     0.055 A 
ATOM     87  C   UNL A   1      45.638  35.483  28.233  1.00  0.00     0.041 A 
ATOM     88  F   UNL A   1      44.328  33.992  26.982  1.00  0.00    -0.206 F 
ATOM     89  C   UNL A   1      46.337  35.792  29.398  1.00  0.00     0.022 A 
BRANCH  86  90
ATOM     90  S   UNL A   1      47.268  35.247  31.972  1.00  0.00     0.124 S 
ATOM     91  O   UNL A   1      48.458  34.406  31.893  1.00  0.00    -0.237 OA
ATOM     92  O   UNL A   1      47.493  36.684  31.840  1.00  0.00    -0.237 OA
ATOM     93  O   UNL A   1      46.306  34.865  33.004  1.00  0.00    -0.744 OA
ENDBRANCH  86  90
ENDBRANCH  60  83
ENDBRANCH  34  35
ENDBRANCH  27  29
ENDBRANCH  26  27
ENDBRANCH  25  26
ENDBRANCH   1  25
TORSDOF 17
ENDMDL
