MODEL 1
REMARK VINA RESULT:     -11.8      0.000      0.000
REMARK SMILES CCC1(C(=O)OCCOC(=O)c2ccc(-c3c4nc(c(-c5cc(S(=O)(=O)[O-])ccc5F)c5ccc([nH]5)c(-c5cc(S(=O)(=O)[O-])ccc5F)c5nc(c(-c6cc(S(=O)(=O)[O-])ccc6F)c6ccc3[nH]6)C=C5)C=C4)cc2)CCN(C(=O)C[C@H]2CSCC[NH2+]2)CC1
REMARK SMILES IDX 8 1 7 2 6 3 4 4 5 5 3 6 75 7 88 8 76 9 87 10 77 11 78 12
REMARK SMILES IDX 79 13 2 14 1 15 80 16 81 17 82 18 86 19 83 20 85 21 84 24
REMARK SMILES IDX 9 25 10 26 11 27 12 28 13 29 74 30 14 31 73 32 15 33 16 34
REMARK SMILES IDX 17 35 67 36 18 37 72 38 66 39 68 40 19 41 71 42 65 43 64 44
REMARK SMILES IDX 20 46 52 47 32 48 51 49 33 50 36 51 50 52 69 53 34 54 35 55
REMARK SMILES IDX 49 57 70 58 37 59 21 60 22 61 30 62 23 63 29 64 31 65 28 66
REMARK SMILES IDX 24 67 25 68 26 69 27 70 53 71 54 72 62 73 55 74 61 75 63 76
REMARK SMILES IDX 60 77 56 78 57 79 58 80 59 81 38 82 39 83 47 84 40 85 46 86
REMARK SMILES IDX 48 87 45 88 41 89 42 90 43 91 44 92
REMARK H PARENT 86 22 86 23 68 45 36 56
REMARK Flexibility Score: inf
ROOT
ATOM      1  C   UNL A   1      37.172  20.936  24.739  1.00  0.00     0.275 C 
ENDROOT
BRANCH   1   2
ATOM      2  C   UNL A   1      35.707  20.639  25.035  1.00  0.00     0.274 C 
BRANCH   2   3
ATOM      3  O   UNL A   1      34.953  21.869  25.112  1.00  0.00    -0.462 OA
BRANCH   3   4
ATOM      4  C   UNL A   1      34.305  22.255  23.982  1.00  0.00     0.312 C 
ATOM      5  O   UNL A   1      34.874  22.653  22.970  1.00  0.00    -0.252 OA
BRANCH   4   6
ATOM      6  C   UNL A   1      32.762  22.162  24.084  1.00  0.00     0.071 C 
ATOM      7  C   UNL A   1      32.277  22.213  25.554  1.00  0.00     0.040 C 
ATOM      8  C   UNL A   1      32.260  23.396  23.286  1.00  0.00     0.040 C 
ATOM      9  C   UNL A   1      30.823  22.647  25.726  1.00  0.00     0.120 C 
ATOM     10  C   UNL A   1      30.834  23.834  23.583  1.00  0.00     0.120 C 
ATOM     11  N   UNL A   1      30.598  23.897  25.018  1.00  0.00    -0.342 N 
ATOM     12  C   UNL A   1      30.080  24.978  25.710  1.00  0.00     0.228 C 
ATOM     13  O   UNL A   1      29.595  24.861  26.838  1.00  0.00    -0.275 OA
BRANCH   6  14
ATOM     14  C   UNL A   1      32.406  20.813  23.403  1.00  0.00     0.015 C 
ATOM     15  C   UNL A   1      32.523  19.512  24.174  1.00  0.00     0.005 C 
ENDBRANCH   6  14
BRANCH  12  16
ATOM     16  C   UNL A   1      30.186  26.358  25.087  1.00  0.00     0.166 C 
BRANCH  16  17
ATOM     17  C   UNL A   1      31.300  27.251  25.680  1.00  0.00     0.201 C 
ATOM     18  C   UNL A   1      31.379  28.553  24.850  1.00  0.00     0.135 C 
ATOM     19  N   UNL A   1      31.099  27.540  27.117  1.00  0.00    -0.342 N 
ATOM     20  S   UNL A   1      32.770  29.627  25.343  1.00  0.00    -0.150 SA
ATOM     21  C   UNL A   1      32.247  28.245  27.699  1.00  0.00     0.271 C 
ATOM     22  H   UNL A   1      30.966  26.659  27.614  1.00  0.00     0.346 HD
ATOM     23  H   UNL A   1      30.279  28.140  27.208  1.00  0.00     0.346 HD
ATOM     24  C   UNL A   1      32.436  29.653  27.133  1.00  0.00     0.131 C 
ENDBRANCH  16  17
ENDBRANCH  12  16
ENDBRANCH   4   6
ENDBRANCH   3   4
ENDBRANCH   2   3
ENDBRANCH   1   2
BRANCH   1  25
ATOM     25  O   UNL A   1      37.671  21.836  25.740  1.00  0.00    -0.458 OA
BRANCH  25  26
ATOM     26  C   UNL A   1      38.957  21.646  26.117  1.00  0.00     0.338 C 
ATOM     27  O   UNL A   1      39.623  20.637  25.960  1.00  0.00    -0.246 OA
BRANCH  26  28
ATOM     28  C   UNL A   1      39.481  22.875  26.751  1.00  0.00     0.060 A 
ATOM     29  C   UNL A   1      38.979  24.127  26.401  1.00  0.00     0.016 A 
ATOM     30  C   UNL A   1      40.569  22.784  27.618  1.00  0.00     0.016 A 
ATOM     31  C   UNL A   1      39.643  25.286  26.807  1.00  0.00     0.010 A 
ATOM     32  C   UNL A   1      41.149  23.950  28.131  1.00  0.00     0.010 A 
ATOM     33  C   UNL A   1      40.723  25.220  27.700  1.00  0.00    -0.014 A 
BRANCH  33  34
ATOM     34  C   UNL A   1      41.431  26.453  28.161  1.00  0.00     0.031 A 
ATOM     35  C   UNL A   1      40.690  27.491  28.969  1.00  0.00     0.074 A 
ATOM     36  C   UNL A   1      42.728  26.669  27.853  1.00  0.00     0.049 A 
ATOM     37  N   UNL A   1      41.004  28.739  29.209  1.00  0.00    -0.248 NA
ATOM     38  C   UNL A   1      39.411  27.072  29.563  1.00  0.00     0.031 C 
ATOM     39  C   UNL A   1      43.600  25.741  27.129  1.00  0.00     0.029 A 
ATOM     40  N   UNL A   1      43.542  27.747  28.111  1.00  0.00    -0.354 N 
ATOM     41  C   UNL A   1      39.926  29.277  29.907  1.00  0.00     0.074 A 
ATOM     42  C   UNL A   1      38.954  28.214  30.057  1.00  0.00     0.031 C 
ATOM     43  C   UNL A   1      44.830  26.266  27.043  1.00  0.00     0.029 A 
ATOM     44  C   UNL A   1      44.810  27.615  27.593  1.00  0.00     0.049 A 
ATOM     45  H   UNL A   1      43.246  28.537  28.618  1.00  0.00     0.167 HD
ATOM     46  C   UNL A   1      39.761  30.545  30.365  1.00  0.00     0.034 A 
ATOM     47  C   UNL A   1      45.826  28.496  27.502  1.00  0.00     0.034 A 
ATOM     48  C   UNL A   1      40.770  31.573  30.268  1.00  0.00     0.049 A 
ATOM     49  C   UNL A   1      45.620  29.900  28.002  1.00  0.00     0.074 A 
ATOM     50  C   UNL A   1      40.714  32.886  30.707  1.00  0.00     0.029 A 
ATOM     51  N   UNL A   1      42.030  31.397  29.711  1.00  0.00    -0.354 N 
ATOM     52  N   UNL A   1      44.551  30.431  28.548  1.00  0.00    -0.248 NA
ATOM     53  C   UNL A   1      46.746  30.828  27.845  1.00  0.00     0.031 C 
ATOM     54  C   UNL A   1      41.921  33.514  30.377  1.00  0.00     0.029 A 
ATOM     55  C   UNL A   1      42.754  32.578  29.786  1.00  0.00     0.049 A 
ATOM     56  H   UNL A   1      42.361  30.556  29.321  1.00  0.00     0.167 HD
ATOM     57  C   UNL A   1      44.878  31.759  28.798  1.00  0.00     0.074 A 
ATOM     58  C   UNL A   1      46.250  31.940  28.367  1.00  0.00     0.031 C 
ATOM     59  C   UNL A   1      44.112  32.744  29.330  1.00  0.00     0.034 A 
BRANCH  46  60
ATOM     60  C   UNL A   1      38.415  30.905  30.949  1.00  0.00     0.023 A 
ATOM     61  C   UNL A   1      37.399  31.505  30.187  1.00  0.00     0.031 A 
ATOM     62  C   UNL A   1      38.159  30.663  32.312  1.00  0.00     0.131 A 
ATOM     63  C   UNL A   1      36.203  31.905  30.806  1.00  0.00     0.055 A 
ATOM     64  C   UNL A   1      36.939  30.995  32.905  1.00  0.00     0.041 A 
ATOM     65  F   UNL A   1      39.098  30.110  33.096  1.00  0.00    -0.206 F 
ATOM     66  C   UNL A   1      35.957  31.633  32.155  1.00  0.00     0.022 A 
BRANCH  63  67
ATOM     67  S   UNL A   1      35.028  32.909  29.857  1.00  0.00     0.124 S 
ATOM     68  O   UNL A   1      34.548  31.946  28.869  1.00  0.00    -0.237 OA
ATOM     69  O   UNL A   1      34.065  33.313  30.877  1.00  0.00    -0.237 OA
ATOM     70  O   UNL A   1      35.854  33.987  29.317  1.00  0.00    -0.744 OA
ENDBRANCH  63  67
ENDBRANCH  46  60
BRANCH  47  71
ATOM     71  C   UNL A   1      47.096  28.106  26.827  1.00  0.00     0.023 A 
ATOM     72  C   UNL A   1      47.186  28.054  25.428  1.00  0.00     0.031 A 
ATOM     73  C   UNL A   1      48.237  27.769  27.577  1.00  0.00     0.131 A 
ATOM     74  C   UNL A   1      48.387  27.652  24.821  1.00  0.00     0.055 A 
ATOM     75  C   UNL A   1      49.443  27.419  26.970  1.00  0.00     0.041 A 
ATOM     76  F   UNL A   1      48.202  27.804  28.919  1.00  0.00    -0.206 F 
ATOM     77  C   UNL A   1      49.519  27.350  25.582  1.00  0.00     0.022 A 
BRANCH  74  78
ATOM     78  S   UNL A   1      48.433  27.473  23.018  1.00  0.00     0.124 S 
ATOM     79  O   UNL A   1      49.725  28.067  22.691  1.00  0.00    -0.237 OA
ATOM     80  O   UNL A   1      48.332  26.026  22.854  1.00  0.00    -0.237 OA
ATOM     81  O   UNL A   1      47.266  28.232  22.570  1.00  0.00    -0.744 OA
ENDBRANCH  74  78
ENDBRANCH  47  71
BRANCH  59  82
ATOM     82  C   UNL A   1      44.767  34.089  29.497  1.00  0.00     0.023 A 
ATOM     83  C   UNL A   1      44.723  35.058  28.480  1.00  0.00     0.031 A 
ATOM     84  C   UNL A   1      45.468  34.392  30.677  1.00  0.00     0.131 A 
ATOM     85  C   UNL A   1      45.413  36.269  28.642  1.00  0.00     0.055 A 
ATOM     86  C   UNL A   1      46.115  35.615  30.850  1.00  0.00     0.041 A 
ATOM     87  F   UNL A   1      45.541  33.497  31.676  1.00  0.00    -0.206 F 
ATOM     88  C   UNL A   1      46.099  36.557  29.825  1.00  0.00     0.022 A 
BRANCH  85  89
ATOM     89  S   UNL A   1      45.467  37.434  27.252  1.00  0.00     0.124 S 
ATOM     90  O   UNL A   1      44.055  37.558  26.906  1.00  0.00    -0.237 OA
ATOM     91  O   UNL A   1      46.082  38.612  27.857  1.00  0.00    -0.237 OA
ATOM     92  O   UNL A   1      46.291  36.747  26.260  1.00  0.00    -0.744 OA
ENDBRANCH  85  89
ENDBRANCH  59  82
ENDBRANCH  33  34
ENDBRANCH  26  28
ENDBRANCH  25  26
ENDBRANCH   1  25
TORSDOF 17
ENDMDL
MODEL 2
REMARK VINA RESULT:     -11.8      5.315     10.268
REMARK SMILES CCC1(C(=O)OCCOC(=O)c2ccc(-c3c4nc(c(-c5cc(S(=O)(=O)[O-])ccc5F)c5ccc([nH]5)c(-c5cc(S(=O)(=O)[O-])ccc5F)c5nc(c(-c6cc(S(=O)(=O)[O-])ccc6F)c6ccc3[nH]6)C=C5)C=C4)cc2)CCN(C(=O)C[C@H]2CSCC[NH2+]2)CC1
REMARK SMILES IDX 8 1 7 2 6 3 4 4 5 5 3 6 75 7 88 8 76 9 87 10 77 11 78 12
REMARK SMILES IDX 79 13 2 14 1 15 80 16 81 17 82 18 86 19 83 20 85 21 84 24
REMARK SMILES IDX 9 25 10 26 11 27 12 28 13 29 74 30 14 31 73 32 15 33 16 34
REMARK SMILES IDX 17 35 67 36 18 37 72 38 66 39 68 40 19 41 71 42 65 43 64 44
REMARK SMILES IDX 20 46 52 47 32 48 51 49 33 50 36 51 50 52 69 53 34 54 35 55
REMARK SMILES IDX 49 57 70 58 37 59 21 60 22 61 30 62 23 63 29 64 31 65 28 66
REMARK SMILES IDX 24 67 25 68 26 69 27 70 53 71 54 72 62 73 55 74 61 75 63 76
REMARK SMILES IDX 60 77 56 78 57 79 58 80 59 81 38 82 39 83 47 84 40 85 46 86
REMARK SMILES IDX 48 87 45 88 41 89 42 90 43 91 44 92
REMARK H PARENT 86 22 86 23 68 45 36 56
REMARK Flexibility Score: inf
ROOT
ATOM      1  C   UNL A   1      31.983  29.972  25.451  1.00  0.00     0.275 C 
ENDROOT
BRANCH   1   2
ATOM      2  C   UNL A   1      32.227  28.559  24.935  1.00  0.00     0.274 C 
BRANCH   2   3
ATOM      3  O   UNL A   1      32.135  27.608  26.018  1.00  0.00    -0.462 OA
BRANCH   3   4
ATOM      4  C   UNL A   1      32.674  26.380  25.795  1.00  0.00     0.312 C 
ATOM      5  O   UNL A   1      33.877  26.144  25.844  1.00  0.00    -0.252 OA
BRANCH   4   6
ATOM      6  C   UNL A   1      31.627  25.290  25.456  1.00  0.00     0.071 C 
ATOM      7  C   UNL A   1      31.728  24.834  23.979  1.00  0.00     0.040 C 
ATOM      8  C   UNL A   1      31.971  24.127  26.426  1.00  0.00     0.040 C 
ATOM      9  C   UNL A   1      31.133  23.456  23.700  1.00  0.00     0.120 C 
ATOM     10  C   UNL A   1      31.429  22.762  26.031  1.00  0.00     0.120 C 
ATOM     11  N   UNL A   1      31.692  22.484  24.626  1.00  0.00    -0.342 N 
ATOM     12  C   UNL A   1      32.303  21.349  24.123  1.00  0.00     0.228 C 
ATOM     13  O   UNL A   1      32.196  21.019  22.939  1.00  0.00    -0.275 OA
BRANCH   6  14
ATOM     14  C   UNL A   1      30.258  25.954  25.764  1.00  0.00     0.015 C 
ATOM     15  C   UNL A   1      29.290  26.271  24.640  1.00  0.00     0.005 C 
ENDBRANCH   6  14
BRANCH  12  16
ATOM     16  C   UNL A   1      33.192  20.534  25.042  1.00  0.00     0.166 C 
BRANCH  16  17
ATOM     17  C   UNL A   1      33.080  19.002  24.861  1.00  0.00     0.201 C 
ATOM     18  C   UNL A   1      34.401  18.482  24.251  1.00  0.00     0.135 C 
ATOM     19  N   UNL A   1      32.754  18.298  26.122  1.00  0.00    -0.342 N 
ATOM     20  S   UNL A   1      34.339  16.707  23.830  1.00  0.00    -0.150 SA
ATOM     21  C   UNL A   1      32.487  16.873  25.898  1.00  0.00     0.271 C 
ATOM     22  H   UNL A   1      31.926  18.729  26.534  1.00  0.00     0.346 HD
ATOM     23  H   UNL A   1      33.558  18.377  26.744  1.00  0.00     0.346 HD
ATOM     24  C   UNL A   1      33.719  16.098  25.431  1.00  0.00     0.131 C 
ENDBRANCH  16  17
ENDBRANCH  12  16
ENDBRANCH   4   6
ENDBRANCH   3   4
ENDBRANCH   2   3
ENDBRANCH   1   2
BRANCH   1  25
ATOM     25  O   UNL A   1      32.405  30.042  26.821  1.00  0.00    -0.458 OA
BRANCH  25  26
ATOM     26  C   UNL A   1      32.989  31.203  27.201  1.00  0.00     0.338 C 
ATOM     27  O   UNL A   1      32.491  32.315  27.167  1.00  0.00    -0.246 OA
BRANCH  26  28
ATOM     28  C   UNL A   1      34.355  30.938  27.699  1.00  0.00     0.060 A 
ATOM     29  C   UNL A   1      34.782  29.635  27.949  1.00  0.00     0.016 A 
ATOM     30  C   UNL A   1      35.179  32.011  28.036  1.00  0.00     0.016 A 
ATOM     31  C   UNL A   1      35.966  29.409  28.653  1.00  0.00     0.010 A 
ATOM     32  C   UNL A   1      36.428  31.773  28.620  1.00  0.00     0.010 A 
ATOM     33  C   UNL A   1      36.823  30.471  28.978  1.00  0.00    -0.014 A 
BRANCH  33  34
ATOM     34  C   UNL A   1      38.105  30.244  29.713  1.00  0.00     0.031 A 
ATOM     35  C   UNL A   1      39.172  29.360  29.113  1.00  0.00     0.074 A 
ATOM     36  C   UNL A   1      38.325  30.804  30.922  1.00  0.00     0.049 A 
ATOM     37  N   UNL A   1      40.203  28.793  29.687  1.00  0.00    -0.248 NA
ATOM     38  C   UNL A   1      39.043  29.055  27.679  1.00  0.00     0.031 C 
ATOM     39  C   UNL A   1      37.421  31.726  31.613  1.00  0.00     0.029 A 
ATOM     40  N   UNL A   1      39.385  30.676  31.788  1.00  0.00    -0.354 N 
ATOM     41  C   UNL A   1      40.795  27.997  28.709  1.00  0.00     0.074 A 
ATOM     42  C   UNL A   1      40.009  28.165  27.504  1.00  0.00     0.031 C 
ATOM     43  C   UNL A   1      37.982  32.114  32.767  1.00  0.00     0.029 A 
ATOM     44  C   UNL A   1      39.225  31.379  32.961  1.00  0.00     0.049 A 
ATOM     45  H   UNL A   1      40.182  30.133  31.589  1.00  0.00     0.167 HD
ATOM     46  C   UNL A   1      41.884  27.193  28.816  1.00  0.00     0.034 A 
ATOM     47  C   UNL A   1      39.952  31.386  34.096  1.00  0.00     0.034 A 
ATOM     48  C   UNL A   1      42.695  27.093  30.006  1.00  0.00     0.049 A 
ATOM     49  C   UNL A   1      41.146  30.478  34.201  1.00  0.00     0.074 A 
ATOM     50  C   UNL A   1      43.825  26.320  30.221  1.00  0.00     0.029 A 
ATOM     51  N   UNL A   1      42.478  27.807  31.177  1.00  0.00    -0.354 N 
ATOM     52  N   UNL A   1      41.623  29.638  33.313  1.00  0.00    -0.248 NA
ATOM     53  C   UNL A   1      41.880  30.498  35.472  1.00  0.00     0.031 C 
ATOM     54  C   UNL A   1      44.263  26.534  31.533  1.00  0.00     0.029 A 
ATOM     55  C   UNL A   1      43.443  27.485  32.119  1.00  0.00     0.049 A 
ATOM     56  H   UNL A   1      41.745  28.449  31.317  1.00  0.00     0.167 HD
ATOM     57  C   UNL A   1      42.715  29.028  33.921  1.00  0.00     0.074 A 
ATOM     58  C   UNL A   1      42.840  29.614  35.240  1.00  0.00     0.031 C 
ATOM     59  C   UNL A   1      43.537  28.063  33.436  1.00  0.00     0.034 A 
BRANCH  46  60
ATOM     60  C   UNL A   1      42.215  26.309  27.637  1.00  0.00     0.023 A 
ATOM     61  C   UNL A   1      41.733  24.995  27.521  1.00  0.00     0.031 A 
ATOM     62  C   UNL A   1      43.060  26.792  26.619  1.00  0.00     0.131 A 
ATOM     63  C   UNL A   1      42.152  24.187  26.451  1.00  0.00     0.055 A 
ATOM     64  C   UNL A   1      43.413  26.008  25.518  1.00  0.00     0.041 A 
ATOM     65  F   UNL A   1      43.567  28.033  26.684  1.00  0.00    -0.206 F 
ATOM     66  C   UNL A   1      42.970  24.692  25.437  1.00  0.00     0.022 A 
BRANCH  63  67
ATOM     67  S   UNL A   1      41.725  22.425  26.475  1.00  0.00     0.124 S 
ATOM     68  O   UNL A   1      42.193  22.025  27.800  1.00  0.00    -0.237 OA
ATOM     69  O   UNL A   1      40.278  22.450  26.287  1.00  0.00    -0.237 OA
ATOM     70  O   UNL A   1      42.489  21.871  25.358  1.00  0.00    -0.744 OA
ENDBRANCH  63  67
ENDBRANCH  46  60
BRANCH  47  71
ATOM     71  C   UNL A   1      39.515  32.209  35.258  1.00  0.00     0.023 A 
ATOM     72  C   UNL A   1      38.744  31.654  36.290  1.00  0.00     0.031 A 
ATOM     73  C   UNL A   1      39.857  33.571  35.346  1.00  0.00     0.131 A 
ATOM     74  C   UNL A   1      38.320  32.463  37.356  1.00  0.00     0.055 A 
ATOM     75  C   UNL A   1      39.476  34.359  36.432  1.00  0.00     0.041 A 
ATOM     76  F   UNL A   1      40.594  34.149  34.384  1.00  0.00    -0.206 F 
ATOM     77  C   UNL A   1      38.695  33.807  37.442  1.00  0.00     0.022 A 
BRANCH  74  78
ATOM     78  S   UNL A   1      37.220  31.748  38.608  1.00  0.00     0.124 S 
ATOM     79  O   UNL A   1      36.043  32.601  38.493  1.00  0.00    -0.237 OA
ATOM     80  O   UNL A   1      37.069  30.377  38.130  1.00  0.00    -0.237 OA
ATOM     81  O   UNL A   1      37.978  31.893  39.850  1.00  0.00    -0.744 OA
ENDBRANCH  74  78
ENDBRANCH  47  71
BRANCH  59  82
ATOM     82  C   UNL A   1      44.657  27.619  34.339  1.00  0.00     0.023 A 
ATOM     83  C   UNL A   1      44.501  26.537  35.223  1.00  0.00     0.031 A 
ATOM     84  C   UNL A   1      45.883  28.305  34.334  1.00  0.00     0.131 A 
ATOM     85  C   UNL A   1      45.540  26.204  36.105  1.00  0.00     0.055 A 
ATOM     86  C   UNL A   1      46.929  27.941  35.181  1.00  0.00     0.041 A 
ATOM     87  F   UNL A   1      46.079  29.347  33.509  1.00  0.00    -0.206 F 
ATOM     88  C   UNL A   1      46.757  26.893  36.082  1.00  0.00     0.022 A 
BRANCH  85  89
ATOM     89  S   UNL A   1      45.254  24.906  37.339  1.00  0.00     0.124 S 
ATOM     90  O   UNL A   1      45.373  23.693  36.537  1.00  0.00    -0.237 OA
ATOM     91  O   UNL A   1      46.326  25.146  38.299  1.00  0.00    -0.237 OA
ATOM     92  O   UNL A   1      43.908  25.192  37.833  1.00  0.00    -0.744 OA
ENDBRANCH  85  89
ENDBRANCH  59  82
ENDBRANCH  33  34
ENDBRANCH  26  28
ENDBRANCH  25  26
ENDBRANCH   1  25
TORSDOF 17
ENDMDL
MODEL 3
REMARK VINA RESULT:     -11.7      1.840      2.257
REMARK SMILES CCC1(C(=O)OCCOC(=O)c2ccc(-c3c4nc(c(-c5cc(S(=O)(=O)[O-])ccc5F)c5ccc([nH]5)c(-c5cc(S(=O)(=O)[O-])ccc5F)c5nc(c(-c6cc(S(=O)(=O)[O-])ccc6F)c6ccc3[nH]6)C=C5)C=C4)cc2)CCN(C(=O)C[C@H]2CSCC[NH2+]2)CC1
REMARK SMILES IDX 8 1 7 2 6 3 4 4 5 5 3 6 75 7 88 8 76 9 87 10 77 11 78 12
REMARK SMILES IDX 79 13 2 14 1 15 80 16 81 17 82 18 86 19 83 20 85 21 84 24
REMARK SMILES IDX 9 25 10 26 11 27 12 28 13 29 74 30 14 31 73 32 15 33 16 34
REMARK SMILES IDX 17 35 67 36 18 37 72 38 66 39 68 40 19 41 71 42 65 43 64 44
REMARK SMILES IDX 20 46 52 47 32 48 51 49 33 50 36 51 50 52 69 53 34 54 35 55
REMARK SMILES IDX 49 57 70 58 37 59 21 60 22 61 30 62 23 63 29 64 31 65 28 66
REMARK SMILES IDX 24 67 25 68 26 69 27 70 53 71 54 72 62 73 55 74 61 75 63 76
REMARK SMILES IDX 60 77 56 78 57 79 58 80 59 81 38 82 39 83 47 84 40 85 46 86
REMARK SMILES IDX 48 87 45 88 41 89 42 90 43 91 44 92
REMARK H PARENT 86 22 86 23 68 45 36 56
REMARK Flexibility Score: inf
ROOT
ATOM      1  C   UNL A   1      36.040  20.829  25.220  1.00  0.00     0.275 C 
ENDROOT
BRANCH   1   2
ATOM      2  C   UNL A   1      35.084  21.627  26.099  1.00  0.00     0.274 C 
BRANCH   2   3
ATOM      3  O   UNL A   1      33.871  21.927  25.375  1.00  0.00    -0.462 OA
BRANCH   3   4
ATOM      4  C   UNL A   1      33.500  23.234  25.328  1.00  0.00     0.312 C 
ATOM      5  O   UNL A   1      33.585  24.003  26.281  1.00  0.00    -0.252 OA
BRANCH   4   6
ATOM      6  C   UNL A   1      32.940  23.676  23.953  1.00  0.00     0.071 C 
ATOM      7  C   UNL A   1      31.425  23.992  24.023  1.00  0.00     0.040 C 
ATOM      8  C   UNL A   1      33.762  24.947  23.605  1.00  0.00     0.040 C 
ATOM      9  C   UNL A   1      30.917  24.904  22.908  1.00  0.00     0.120 C 
ATOM     10  C   UNL A   1      33.145  25.861  22.558  1.00  0.00     0.120 C 
ATOM     11  N   UNL A   1      31.738  26.103  22.843  1.00  0.00    -0.342 N 
ATOM     12  C   UNL A   1      31.127  27.342  22.930  1.00  0.00     0.228 C 
ATOM     13  O   UNL A   1      29.904  27.476  22.837  1.00  0.00    -0.275 OA
BRANCH   6  14
ATOM     14  C   UNL A   1      33.239  22.482  23.007  1.00  0.00     0.015 C 
ATOM     15  C   UNL A   1      32.127  21.539  22.590  1.00  0.00     0.005 C 
ENDBRANCH   6  14
BRANCH  12  16
ATOM     16  C   UNL A   1      31.986  28.556  23.228  1.00  0.00     0.166 C 
BRANCH  16  17
ATOM     17  C   UNL A   1      32.192  28.849  24.733  1.00  0.00     0.201 C 
ATOM     18  C   UNL A   1      33.674  28.589  25.085  1.00  0.00     0.135 C 
ATOM     19  N   UNL A   1      31.780  30.219  25.110  1.00  0.00    -0.342 N 
ATOM     20  S   UNL A   1      34.017  28.739  26.871  1.00  0.00    -0.150 SA
ATOM     21  C   UNL A   1      31.824  30.422  26.563  1.00  0.00     0.271 C 
ATOM     22  H   UNL A   1      30.827  30.377  24.784  1.00  0.00     0.346 HD
ATOM     23  H   UNL A   1      32.430  30.876  24.679  1.00  0.00     0.346 HD
ATOM     24  C   UNL A   1      33.242  30.366  27.133  1.00  0.00     0.131 C 
ENDBRANCH  16  17
ENDBRANCH  12  16
ENDBRANCH   4   6
ENDBRANCH   3   4
ENDBRANCH   2   3
ENDBRANCH   1   2
BRANCH   1  25
ATOM     25  O   UNL A   1      37.223  21.611  24.997  1.00  0.00    -0.458 OA
BRANCH  25  26
ATOM     26  C   UNL A   1      38.337  21.193  25.643  1.00  0.00     0.338 C 
ATOM     27  O   UNL A   1      38.775  20.056  25.682  1.00  0.00    -0.246 OA
BRANCH  26  28
ATOM     28  C   UNL A   1      38.993  22.341  26.306  1.00  0.00     0.060 A 
ATOM     29  C   UNL A   1      38.496  23.634  26.148  1.00  0.00     0.016 A 
ATOM     30  C   UNL A   1      40.188  22.140  26.994  1.00  0.00     0.016 A 
ATOM     31  C   UNL A   1      39.256  24.730  26.559  1.00  0.00     0.010 A 
ATOM     32  C   UNL A   1      40.880  23.236  27.523  1.00  0.00     0.010 A 
ATOM     33  C   UNL A   1      40.447  24.551  27.277  1.00  0.00    -0.014 A 
BRANCH  33  34
ATOM     34  C   UNL A   1      41.261  25.716  27.742  1.00  0.00     0.031 A 
ATOM     35  C   UNL A   1      40.632  26.777  28.611  1.00  0.00     0.074 A 
ATOM     36  C   UNL A   1      42.556  25.849  27.383  1.00  0.00     0.049 A 
ATOM     37  N   UNL A   1      41.045  27.991  28.874  1.00  0.00    -0.248 NA
ATOM     38  C   UNL A   1      39.351  26.431  29.248  1.00  0.00     0.031 C 
ATOM     39  C   UNL A   1      43.328  24.885  26.596  1.00  0.00     0.029 A 
ATOM     40  N   UNL A   1      43.456  26.857  27.637  1.00  0.00    -0.354 N 
ATOM     41  C   UNL A   1      40.038  28.582  29.633  1.00  0.00     0.074 A 
ATOM     42  C   UNL A   1      38.999  27.586  29.794  1.00  0.00     0.031 C 
ATOM     43  C   UNL A   1      44.588  25.324  26.471  1.00  0.00     0.029 A 
ATOM     44  C   UNL A   1      44.689  26.653  27.060  1.00  0.00     0.049 A 
ATOM     45  H   UNL A   1      43.239  27.650  28.179  1.00  0.00     0.167 HD
ATOM     46  C   UNL A   1      39.984  29.843  30.135  1.00  0.00     0.034 A 
ATOM     47  C   UNL A   1      45.761  27.462  26.950  1.00  0.00     0.034 A 
ATOM     48  C   UNL A   1      41.060  30.799  30.023  1.00  0.00     0.049 A 
ATOM     49  C   UNL A   1      45.677  28.860  27.500  1.00  0.00     0.074 A 
ATOM     50  C   UNL A   1      41.117  32.098  30.502  1.00  0.00     0.029 A 
ATOM     51  N   UNL A   1      42.280  30.552  29.407  1.00  0.00    -0.354 N 
ATOM     52  N   UNL A   1      44.674  29.448  28.107  1.00  0.00    -0.248 NA
ATOM     53  C   UNL A   1      46.861  29.711  27.321  1.00  0.00     0.031 C 
ATOM     54  C   UNL A   1      42.352  32.649  30.139  1.00  0.00     0.029 A 
ATOM     55  C   UNL A   1      43.089  31.676  29.484  1.00  0.00     0.049 A 
ATOM     56  H   UNL A   1      42.533  29.703  28.979  1.00  0.00     0.167 HD
ATOM     57  C   UNL A   1      45.106  30.740  28.381  1.00  0.00     0.074 A 
ATOM     58  C   UNL A   1      46.468  30.838  27.896  1.00  0.00     0.031 C 
ATOM     59  C   UNL A   1      44.436  31.760  28.975  1.00  0.00     0.034 A 
BRANCH  46  60
ATOM     60  C   UNL A   1      38.693  30.278  30.787  1.00  0.00     0.023 A 
ATOM     61  C   UNL A   1      37.745  31.076  30.125  1.00  0.00     0.031 A 
ATOM     62  C   UNL A   1      38.423  29.905  32.118  1.00  0.00     0.131 A 
ATOM     63  C   UNL A   1      36.608  31.529  30.814  1.00  0.00     0.055 A 
ATOM     64  C   UNL A   1      37.254  30.297  32.773  1.00  0.00     0.041 A 
ATOM     65  F   UNL A   1      39.300  29.160  32.809  1.00  0.00    -0.206 F 
ATOM     66  C   UNL A   1      36.345  31.127  32.126  1.00  0.00     0.022 A 
BRANCH  63  67
ATOM     67  S   UNL A   1      35.546  32.765  30.017  1.00  0.00     0.124 S 
ATOM     68  O   UNL A   1      34.326  32.663  30.814  1.00  0.00    -0.237 OA
ATOM     69  O   UNL A   1      36.316  33.993  30.180  1.00  0.00    -0.237 OA
ATOM     70  O   UNL A   1      35.427  32.281  28.643  1.00  0.00    -0.744 OA
ENDBRANCH  63  67
ENDBRANCH  46  60
BRANCH  47  71
ATOM     71  C   UNL A   1      46.970  27.005  26.209  1.00  0.00     0.023 A 
ATOM     72  C   UNL A   1      48.048  26.407  26.879  1.00  0.00     0.031 A 
ATOM     73  C   UNL A   1      47.067  27.171  24.816  1.00  0.00     0.131 A 
ATOM     74  C   UNL A   1      49.187  26.016  26.157  1.00  0.00     0.055 A 
ATOM     75  C   UNL A   1      48.179  26.737  24.096  1.00  0.00     0.041 A 
ATOM     76  F   UNL A   1      46.062  27.738  24.129  1.00  0.00    -0.206 F 
ATOM     77  C   UNL A   1      49.253  26.163  24.769  1.00  0.00     0.022 A 
BRANCH  74  78
ATOM     78  S   UNL A   1      50.612  25.363  27.068  1.00  0.00     0.124 S 
ATOM     79  O   UNL A   1      51.496  24.949  25.984  1.00  0.00    -0.237 OA
ATOM     80  O   UNL A   1      51.040  26.527  27.837  1.00  0.00    -0.237 OA
ATOM     81  O   UNL A   1      50.041  24.272  27.858  1.00  0.00    -0.744 OA
ENDBRANCH  74  78
ENDBRANCH  47  71
BRANCH  59  82
ATOM     82  C   UNL A   1      45.192  33.049  29.152  1.00  0.00     0.023 A 
ATOM     83  C   UNL A   1      45.210  34.033  28.149  1.00  0.00     0.031 A 
ATOM     84  C   UNL A   1      45.928  33.280  30.327  1.00  0.00     0.131 A 
ATOM     85  C   UNL A   1      45.991  35.186  28.319  1.00  0.00     0.055 A 
ATOM     86  C   UNL A   1      46.667  34.449  30.509  1.00  0.00     0.041 A 
ATOM     87  F   UNL A   1      45.945  32.368  31.313  1.00  0.00    -0.206 F 
ATOM     88  C   UNL A   1      46.712  35.404  29.497  1.00  0.00     0.022 A 
BRANCH  85  89
ATOM     89  S   UNL A   1      46.117  36.365  26.945  1.00  0.00     0.124 S 
ATOM     90  O   UNL A   1      47.424  36.969  27.183  1.00  0.00    -0.237 OA
ATOM     91  O   UNL A   1      46.018  35.495  25.778  1.00  0.00    -0.237 OA
ATOM     92  O   UNL A   1      44.976  37.255  27.152  1.00  0.00    -0.744 OA
ENDBRANCH  85  89
ENDBRANCH  59  82
ENDBRANCH  33  34
ENDBRANCH  26  28
ENDBRANCH  25  26
ENDBRANCH   1  25
TORSDOF 17
ENDMDL
