MODEL 1
REMARK VINA RESULT:     -11.0      0.000      0.000
REMARK SMILES CCN(CC)C(=O)C[C@](C)(C(=O)OCCOC(=O)c1ccc(-c2c3nc(c(-c4cc(S(=O)(=O)[O-])ccc4F)c4ccc([nH]4)c(-c4cc(S(=O)(=O)[O-])ccc4F)c4nc(c(-c5cc(S(=O)(=O)[O-])ccc5F)c5ccc2[nH]5)C=C4)C=C3)cc1)c1ccccc1
REMARK SMILES IDX 14 1 13 2 11 3 12 4 9 5 10 6 8 7 6 8 3 9 7 10 2 11 1 12 4 13
REMARK SMILES IDX 5 14 82 15 83 16 87 17 84 18 86 19 85 20 15 21 16 22 17 23
REMARK SMILES IDX 18 24 19 25 20 26 81 27 21 28 80 29 22 30 23 31 24 32 74 33
REMARK SMILES IDX 25 34 79 35 73 36 75 37 26 38 78 39 72 40 71 41 27 43 59 44
REMARK SMILES IDX 39 45 58 46 40 47 43 48 57 49 76 50 41 51 42 52 56 54 77 55
REMARK SMILES IDX 44 56 28 57 29 58 37 59 30 60 36 61 38 62 35 63 31 64 32 65
REMARK SMILES IDX 33 66 34 67 60 68 61 69 69 70 62 71 68 72 70 73 67 74 63 75
REMARK SMILES IDX 64 76 65 77 66 78 45 79 46 80 54 81 47 82 53 83 55 84 52 85
REMARK SMILES IDX 48 86 49 87 50 88 51 89
REMARK H PARENT 75 42 43 53
REMARK Flexibility Score: inf
ROOT
ATOM      1  C   UNL A   1      31.842  28.156  26.491  1.00  0.00     0.274 C 
ENDROOT
BRANCH   1   2
ATOM      2  O   UNL A   1      31.223  27.129  25.687  1.00  0.00    -0.461 OA
BRANCH   2   3
ATOM      3  C   UNL A   1      31.894  26.704  24.574  1.00  0.00     0.316 C 
ATOM      4  O   UNL A   1      33.116  26.678  24.511  1.00  0.00    -0.251 OA
BRANCH   3   5
ATOM      5  C   UNL A   1      30.933  26.372  23.395  1.00  0.00     0.099 C 
ATOM      6  C   UNL A   1      31.690  26.544  22.039  1.00  0.00     0.029 C 
BRANCH   5   7
ATOM      7  C   UNL A   1      30.440  24.901  23.537  1.00  0.00     0.123 C 
BRANCH   7   8
ATOM      8  C   UNL A   1      31.092  24.015  24.595  1.00  0.00     0.224 C 
ATOM      9  N   UNL A   1      32.260  23.314  24.311  1.00  0.00    -0.343 N 
ATOM     10  O   UNL A   1      30.547  23.912  25.697  1.00  0.00    -0.275 OA
BRANCH   9  11
ATOM     11  C   UNL A   1      32.881  22.585  25.423  1.00  0.00     0.116 C 
ATOM     12  C   UNL A   1      32.653  21.079  25.345  1.00  0.00     0.027 C 
ENDBRANCH   9  11
BRANCH   9  13
ATOM     13  C   UNL A   1      32.876  23.160  22.992  1.00  0.00     0.116 C 
ATOM     14  C   UNL A   1      34.395  23.215  23.018  1.00  0.00     0.027 C 
ENDBRANCH   9  13
ENDBRANCH   7   8
ENDBRANCH   5   7
BRANCH   5  15
ATOM     15  C   UNL A   1      29.671  27.290  23.314  1.00  0.00    -0.030 A 
ATOM     16  C   UNL A   1      28.414  26.813  23.756  1.00  0.00     0.005 A 
ATOM     17  C   UNL A   1      29.708  28.615  22.855  1.00  0.00     0.005 A 
ATOM     18  C   UNL A   1      27.251  27.584  23.662  1.00  0.00     0.000 A 
ATOM     19  C   UNL A   1      28.544  29.392  22.767  1.00  0.00     0.000 A 
ATOM     20  C   UNL A   1      27.314  28.871  23.151  1.00  0.00     0.000 A 
ENDBRANCH   5  15
ENDBRANCH   3   5
ENDBRANCH   2   3
ENDBRANCH   1   2
BRANCH   1  21
ATOM     21  C   UNL A   1      31.797  29.488  25.751  1.00  0.00     0.275 C 
BRANCH  21  22
ATOM     22  O   UNL A   1      33.083  30.096  25.913  1.00  0.00    -0.458 OA
BRANCH  22  23
ATOM     23  C   UNL A   1      33.167  31.104  26.811  1.00  0.00     0.338 C 
ATOM     24  O   UNL A   1      32.371  32.003  27.003  1.00  0.00    -0.246 OA
BRANCH  23  25
ATOM     25  C   UNL A   1      34.386  30.862  27.598  1.00  0.00     0.060 A 
ATOM     26  C   UNL A   1      35.188  31.956  27.923  1.00  0.00     0.016 A 
ATOM     27  C   UNL A   1      34.759  29.577  27.978  1.00  0.00     0.016 A 
ATOM     28  C   UNL A   1      36.380  31.767  28.606  1.00  0.00     0.010 A 
ATOM     29  C   UNL A   1      35.928  29.401  28.728  1.00  0.00     0.010 A 
ATOM     30  C   UNL A   1      36.759  30.495  29.042  1.00  0.00    -0.014 A 
BRANCH  30  31
ATOM     31  C   UNL A   1      38.059  30.303  29.742  1.00  0.00     0.031 A 
ATOM     32  C   UNL A   1      39.133  29.496  29.073  1.00  0.00     0.074 A 
ATOM     33  C   UNL A   1      38.317  30.884  30.932  1.00  0.00     0.049 A 
ATOM     34  N   UNL A   1      40.201  28.945  29.586  1.00  0.00    -0.248 NA
ATOM     35  C   UNL A   1      38.970  29.270  27.630  1.00  0.00     0.031 C 
ATOM     36  C   UNL A   1      37.433  31.814  31.638  1.00  0.00     0.029 A 
ATOM     37  N   UNL A   1      39.414  30.788  31.754  1.00  0.00    -0.354 N 
ATOM     38  C   UNL A   1      40.800  28.243  28.545  1.00  0.00     0.074 A 
ATOM     39  C   UNL A   1      39.977  28.450  27.371  1.00  0.00     0.031 C 
ATOM     40  C   UNL A   1      38.042  32.238  32.757  1.00  0.00     0.029 A 
ATOM     41  C   UNL A   1      39.296  31.510  32.920  1.00  0.00     0.049 A 
ATOM     42  H   UNL A   1      40.210  30.253  31.530  1.00  0.00     0.167 HD
ATOM     43  C   UNL A   1      41.923  27.485  28.581  1.00  0.00     0.034 A 
ATOM     44  C   UNL A   1      40.063  31.523  34.029  1.00  0.00     0.034 A 
ATOM     45  C   UNL A   1      42.746  27.339  29.757  1.00  0.00     0.049 A 
ATOM     46  C   UNL A   1      41.234  30.576  34.100  1.00  0.00     0.074 A 
ATOM     47  C   UNL A   1      43.887  26.574  29.930  1.00  0.00     0.029 A 
ATOM     48  N   UNL A   1      42.518  27.988  30.966  1.00  0.00    -0.354 N 
ATOM     49  N   UNL A   1      41.704  29.772  33.174  1.00  0.00    -0.248 NA
ATOM     50  C   UNL A   1      41.941  30.496  35.384  1.00  0.00     0.031 C 
ATOM     51  C   UNL A   1      44.316  26.719  31.256  1.00  0.00     0.029 A 
ATOM     52  C   UNL A   1      43.478  27.620  31.894  1.00  0.00     0.049 A 
ATOM     53  H   UNL A   1      41.782  28.618  31.136  1.00  0.00     0.167 HD
ATOM     54  C   UNL A   1      42.753  29.080  33.771  1.00  0.00     0.074 A 
ATOM     55  C   UNL A   1      42.868  29.584  35.124  1.00  0.00     0.031 C 
ATOM     56  C   UNL A   1      43.546  28.107  33.252  1.00  0.00     0.034 A 
BRANCH  43  57
ATOM     57  C   UNL A   1      42.254  26.688  27.344  1.00  0.00     0.023 A 
ATOM     58  C   UNL A   1      41.955  25.320  27.228  1.00  0.00     0.031 A 
ATOM     59  C   UNL A   1      42.950  27.302  26.287  1.00  0.00     0.131 A 
ATOM     60  C   UNL A   1      42.419  24.595  26.118  1.00  0.00     0.055 A 
ATOM     61  C   UNL A   1      43.338  26.593  25.149  1.00  0.00     0.041 A 
ATOM     62  F   UNL A   1      43.286  28.600  26.352  1.00  0.00    -0.206 F 
ATOM     63  C   UNL A   1      43.089  25.228  25.067  1.00  0.00     0.022 A 
BRANCH  60  64
ATOM     64  S   UNL A   1      42.275  22.786  26.139  1.00  0.00     0.124 S 
ATOM     65  O   UNL A   1      42.877  22.425  24.857  1.00  0.00    -0.237 OA
ATOM     66  O   UNL A   1      43.038  22.424  27.328  1.00  0.00    -0.237 OA
ATOM     67  O   UNL A   1      40.834  22.557  26.227  1.00  0.00    -0.744 OA
ENDBRANCH  60  64
ENDBRANCH  43  57
BRANCH  44  68
ATOM     68  C   UNL A   1      39.679  32.351  35.210  1.00  0.00     0.023 A 
ATOM     69  C   UNL A   1      38.902  31.818  36.252  1.00  0.00     0.031 A 
ATOM     70  C   UNL A   1      40.054  33.705  35.297  1.00  0.00     0.131 A 
ATOM     71  C   UNL A   1      38.515  32.637  37.325  1.00  0.00     0.055 A 
ATOM     72  C   UNL A   1      39.715  34.499  36.392  1.00  0.00     0.041 A 
ATOM     73  F   UNL A   1      40.778  34.273  34.319  1.00  0.00    -0.206 F 
ATOM     74  C   UNL A   1      38.935  33.967  37.412  1.00  0.00     0.022 A 
BRANCH  71  75
ATOM     75  S   UNL A   1      37.395  31.962  38.582  1.00  0.00     0.124 S 
ATOM     76  O   UNL A   1      38.186  32.117  39.798  1.00  0.00    -0.237 OA
ATOM     77  O   UNL A   1      36.232  32.834  38.456  1.00  0.00    -0.237 OA
ATOM     78  O   UNL A   1      37.186  30.582  38.147  1.00  0.00    -0.744 OA
ENDBRANCH  71  75
ENDBRANCH  44  68
BRANCH  56  79
ATOM     79  C   UNL A   1      44.600  27.538  34.164  1.00  0.00     0.023 A 
ATOM     80  C   UNL A   1      44.335  26.420  34.975  1.00  0.00     0.031 A 
ATOM     81  C   UNL A   1      45.874  28.125  34.230  1.00  0.00     0.131 A 
ATOM     82  C   UNL A   1      45.323  25.947  35.851  1.00  0.00     0.055 A 
ATOM     83  C   UNL A   1      46.868  27.621  35.071  1.00  0.00     0.041 A 
ATOM     84  F   UNL A   1      46.174  29.195  33.477  1.00  0.00    -0.206 F 
ATOM     85  C   UNL A   1      46.591  26.533  35.894  1.00  0.00     0.022 A 
BRANCH  82  86
ATOM     86  S   UNL A   1      44.912  24.587  36.979  1.00  0.00     0.124 S 
ATOM     87  O   UNL A   1      44.769  23.464  36.059  1.00  0.00    -0.237 OA
ATOM     88  O   UNL A   1      46.076  24.546  37.860  1.00  0.00    -0.237 OA
ATOM     89  O   UNL A   1      43.673  25.031  37.613  1.00  0.00    -0.744 OA
ENDBRANCH  82  86
ENDBRANCH  56  79
ENDBRANCH  30  31
ENDBRANCH  23  25
ENDBRANCH  22  23
ENDBRANCH  21  22
ENDBRANCH   1  21
TORSDOF 19
ENDMDL
MODEL 2
REMARK VINA RESULT:     -10.9      1.505      2.137
REMARK SMILES CCN(CC)C(=O)C[C@](C)(C(=O)OCCOC(=O)c1ccc(-c2c3nc(c(-c4cc(S(=O)(=O)[O-])ccc4F)c4ccc([nH]4)c(-c4cc(S(=O)(=O)[O-])ccc4F)c4nc(c(-c5cc(S(=O)(=O)[O-])ccc5F)c5ccc2[nH]5)C=C4)C=C3)cc1)c1ccccc1
REMARK SMILES IDX 14 1 13 2 11 3 12 4 9 5 10 6 8 7 6 8 3 9 7 10 2 11 1 12 4 13
REMARK SMILES IDX 5 14 82 15 83 16 87 17 84 18 86 19 85 20 15 21 16 22 17 23
REMARK SMILES IDX 18 24 19 25 20 26 81 27 21 28 80 29 22 30 23 31 24 32 74 33
REMARK SMILES IDX 25 34 79 35 73 36 75 37 26 38 78 39 72 40 71 41 27 43 59 44
REMARK SMILES IDX 39 45 58 46 40 47 43 48 57 49 76 50 41 51 42 52 56 54 77 55
REMARK SMILES IDX 44 56 28 57 29 58 37 59 30 60 36 61 38 62 35 63 31 64 32 65
REMARK SMILES IDX 33 66 34 67 60 68 61 69 69 70 62 71 68 72 70 73 67 74 63 75
REMARK SMILES IDX 64 76 65 77 66 78 45 79 46 80 54 81 47 82 53 83 55 84 52 85
REMARK SMILES IDX 48 86 49 87 50 88 51 89
REMARK H PARENT 75 42 43 53
REMARK Flexibility Score: inf
ROOT
ATOM      1  C   UNL A   1      32.418  27.799  26.678  1.00  0.00     0.274 C 
ENDROOT
BRANCH   1   2
ATOM      2  O   UNL A   1      32.494  27.394  25.294  1.00  0.00    -0.461 OA
BRANCH   2   3
ATOM      3  C   UNL A   1      31.317  27.165  24.635  1.00  0.00     0.316 C 
ATOM      4  O   UNL A   1      30.404  26.513  25.124  1.00  0.00    -0.251 OA
BRANCH   3   5
ATOM      5  C   UNL A   1      31.333  27.730  23.185  1.00  0.00     0.099 C 
ATOM      6  C   UNL A   1      32.557  28.685  23.010  1.00  0.00     0.029 C 
BRANCH   5   7
ATOM      7  C   UNL A   1      31.445  26.546  22.177  1.00  0.00     0.123 C 
BRANCH   7   8
ATOM      8  C   UNL A   1      32.754  25.764  22.118  1.00  0.00     0.224 C 
ATOM      9  N   UNL A   1      32.851  24.499  22.689  1.00  0.00    -0.343 N 
ATOM     10  O   UNL A   1      33.732  26.289  21.579  1.00  0.00    -0.275 OA
BRANCH   9  11
ATOM     11  C   UNL A   1      34.109  23.774  22.479  1.00  0.00     0.116 C 
ATOM     12  C   UNL A   1      34.973  23.710  23.735  1.00  0.00     0.027 C 
ENDBRANCH   9  11
BRANCH   9  13
ATOM     13  C   UNL A   1      31.856  23.864  23.553  1.00  0.00     0.116 C 
ATOM     14  C   UNL A   1      31.670  22.379  23.282  1.00  0.00     0.027 C 
ENDBRANCH   9  13
ENDBRANCH   7   8
ENDBRANCH   5   7
BRANCH   5  15
ATOM     15  C   UNL A   1      30.067  28.561  22.801  1.00  0.00    -0.030 A 
ATOM     16  C   UNL A   1      30.193  29.727  22.008  1.00  0.00     0.005 A 
ATOM     17  C   UNL A   1      28.763  28.194  23.168  1.00  0.00     0.005 A 
ATOM     18  C   UNL A   1      29.092  30.523  21.678  1.00  0.00     0.000 A 
ATOM     19  C   UNL A   1      27.657  28.989  22.831  1.00  0.00     0.000 A 
ATOM     20  C   UNL A   1      27.823  30.162  22.104  1.00  0.00     0.000 A 
ENDBRANCH   5  15
ENDBRANCH   3   5
ENDBRANCH   2   3
ENDBRANCH   1   2
BRANCH   1  21
ATOM     21  C   UNL A   1      32.014  29.266  26.766  1.00  0.00     0.275 C 
BRANCH  21  22
ATOM     22  O   UNL A   1      33.149  30.035  26.354  1.00  0.00    -0.458 OA
BRANCH  22  23
ATOM     23  C   UNL A   1      33.420  31.147  27.073  1.00  0.00     0.338 C 
ATOM     24  O   UNL A   1      32.707  32.116  27.249  1.00  0.00    -0.246 OA
BRANCH  23  25
ATOM     25  C   UNL A   1      34.735  30.931  27.697  1.00  0.00     0.060 A 
ATOM     26  C   UNL A   1      35.073  29.636  28.089  1.00  0.00     0.016 A 
ATOM     27  C   UNL A   1      35.607  31.990  27.931  1.00  0.00     0.016 A 
ATOM     28  C   UNL A   1      36.274  29.397  28.741  1.00  0.00     0.010 A 
ATOM     29  C   UNL A   1      36.849  31.730  28.526  1.00  0.00     0.010 A 
ATOM     30  C   UNL A   1      37.191  30.430  28.948  1.00  0.00    -0.014 A 
BRANCH  30  31
ATOM     31  C   UNL A   1      38.459  30.165  29.681  1.00  0.00     0.031 A 
ATOM     32  C   UNL A   1      39.499  29.290  29.043  1.00  0.00     0.074 A 
ATOM     33  C   UNL A   1      38.723  30.736  30.875  1.00  0.00     0.049 A 
ATOM     34  N   UNL A   1      40.519  28.680  29.584  1.00  0.00    -0.248 NA
ATOM     35  C   UNL A   1      39.358  29.065  27.597  1.00  0.00     0.031 C 
ATOM     36  C   UNL A   1      37.880  31.722  31.555  1.00  0.00     0.029 A 
ATOM     37  N   UNL A   1      39.793  30.579  31.724  1.00  0.00    -0.354 N 
ATOM     38  C   UNL A   1      41.100  27.936  28.561  1.00  0.00     0.074 A 
ATOM     39  C   UNL A   1      40.320  28.185  27.367  1.00  0.00     0.031 C 
ATOM     40  C   UNL A   1      38.486  32.115  32.686  1.00  0.00     0.029 A 
ATOM     41  C   UNL A   1      39.689  31.314  32.883  1.00  0.00     0.049 A 
ATOM     42  H   UNL A   1      40.560  29.997  31.522  1.00  0.00     0.167 HD
ATOM     43  C   UNL A   1      42.175  27.113  28.629  1.00  0.00     0.034 A 
ATOM     44  C   UNL A   1      40.429  31.288  34.010  1.00  0.00     0.034 A 
ATOM     45  C   UNL A   1      42.958  26.925  29.826  1.00  0.00     0.049 A 
ATOM     46  C   UNL A   1      41.539  30.273  34.115  1.00  0.00     0.074 A 
ATOM     47  C   UNL A   1      44.046  26.094  30.030  1.00  0.00     0.029 A 
ATOM     48  N   UNL A   1      42.740  27.593  31.025  1.00  0.00    -0.354 N 
ATOM     49  N   UNL A   1      41.982  29.436  33.205  1.00  0.00    -0.248 NA
ATOM     50  C   UNL A   1      42.209  30.159  35.416  1.00  0.00     0.031 C 
ATOM     51  C   UNL A   1      44.451  26.221  31.365  1.00  0.00     0.029 A 
ATOM     52  C   UNL A   1      43.654  27.174  31.979  1.00  0.00     0.049 A 
ATOM     53  H   UNL A   1      42.039  28.268  31.174  1.00  0.00     0.167 HD
ATOM     54  C   UNL A   1      42.972  28.686  33.830  1.00  0.00     0.074 A 
ATOM     55  C   UNL A   1      43.085  29.191  35.183  1.00  0.00     0.031 C 
ATOM     56  C   UNL A   1      43.718  27.665  33.335  1.00  0.00     0.034 A 
BRANCH  43  57
ATOM     57  C   UNL A   1      42.487  26.289  27.404  1.00  0.00     0.023 A 
ATOM     58  C   UNL A   1      42.061  24.957  27.263  1.00  0.00     0.031 A 
ATOM     59  C   UNL A   1      43.291  26.834  26.387  1.00  0.00     0.131 A 
ATOM     60  C   UNL A   1      42.506  24.193  26.173  1.00  0.00     0.055 A 
ATOM     61  C   UNL A   1      43.665  26.093  25.265  1.00  0.00     0.041 A 
ATOM     62  F   UNL A   1      43.750  28.092  26.478  1.00  0.00    -0.206 F 
ATOM     63  C   UNL A   1      43.287  24.759  25.161  1.00  0.00     0.022 A 
BRANCH  60  64
ATOM     64  S   UNL A   1      42.184  22.407  26.174  1.00  0.00     0.124 S 
ATOM     65  O   UNL A   1      40.726  22.367  26.097  1.00  0.00    -0.237 OA
ATOM     66  O   UNL A   1      42.900  21.958  24.986  1.00  0.00    -0.237 OA
ATOM     67  O   UNL A   1      42.745  21.958  27.448  1.00  0.00    -0.744 OA
ENDBRANCH  60  64
ENDBRANCH  43  57
BRANCH  44  68
ATOM     68  C   UNL A   1      40.066  32.144  35.178  1.00  0.00     0.023 A 
ATOM     69  C   UNL A   1      39.162  31.699  36.155  1.00  0.00     0.031 A 
ATOM     70  C   UNL A   1      40.595  33.443  35.314  1.00  0.00     0.131 A 
ATOM     71  C   UNL A   1      38.803  32.549  37.215  1.00  0.00     0.055 A 
ATOM     72  C   UNL A   1      40.279  34.261  36.398  1.00  0.00     0.041 A 
ATOM     73  F   UNL A   1      41.447  33.929  34.398  1.00  0.00    -0.206 F 
ATOM     74  C   UNL A   1      39.372  33.817  37.354  1.00  0.00     0.022 A 
BRANCH  71  75
ATOM     75  S   UNL A   1      37.527  32.002  38.382  1.00  0.00     0.124 S 
ATOM     76  O   UNL A   1      37.321  30.618  37.969  1.00  0.00    -0.237 OA
ATOM     77  O   UNL A   1      38.184  32.197  39.669  1.00  0.00    -0.237 OA
ATOM     78  O   UNL A   1      36.409  32.904  38.112  1.00  0.00    -0.744 OA
ENDBRANCH  71  75
ENDBRANCH  44  68
BRANCH  56  79
ATOM     79  C   UNL A   1      44.713  27.039  34.275  1.00  0.00     0.023 A 
ATOM     80  C   UNL A   1      46.014  27.555  34.409  1.00  0.00     0.031 A 
ATOM     81  C   UNL A   1      44.361  25.911  35.034  1.00  0.00     0.131 A 
ATOM     82  C   UNL A   1      46.932  26.916  35.256  1.00  0.00     0.055 A 
ATOM     83  C   UNL A   1      45.265  25.307  35.909  1.00  0.00     0.041 A 
ATOM     84  F   UNL A   1      43.132  25.380  34.939  1.00  0.00    -0.206 F 
ATOM     85  C   UNL A   1      46.561  25.804  36.016  1.00  0.00     0.022 A 
BRANCH  82  86
ATOM     86  S   UNL A   1      48.640  27.525  35.310  1.00  0.00     0.124 S 
ATOM     87  O   UNL A   1      49.274  26.742  34.254  1.00  0.00    -0.237 OA
ATOM     88  O   UNL A   1      48.476  28.949  35.038  1.00  0.00    -0.237 OA
ATOM     89  O   UNL A   1      49.075  27.202  36.668  1.00  0.00    -0.744 OA
ENDBRANCH  82  86
ENDBRANCH  56  79
ENDBRANCH  30  31
ENDBRANCH  23  25
ENDBRANCH  22  23
ENDBRANCH  21  22
ENDBRANCH   1  21
TORSDOF 19
ENDMDL
MODEL 3
REMARK VINA RESULT:     -10.9      4.939      9.974
REMARK SMILES CCN(CC)C(=O)C[C@](C)(C(=O)OCCOC(=O)c1ccc(-c2c3nc(c(-c4cc(S(=O)(=O)[O-])ccc4F)c4ccc([nH]4)c(-c4cc(S(=O)(=O)[O-])ccc4F)c4nc(c(-c5cc(S(=O)(=O)[O-])ccc5F)c5ccc2[nH]5)C=C4)C=C3)cc1)c1ccccc1
REMARK SMILES IDX 14 1 13 2 11 3 12 4 9 5 10 6 8 7 6 8 3 9 7 10 2 11 1 12 4 13
REMARK SMILES IDX 5 14 82 15 83 16 87 17 84 18 86 19 85 20 15 21 16 22 17 23
REMARK SMILES IDX 18 24 19 25 20 26 81 27 21 28 80 29 22 30 23 31 24 32 74 33
REMARK SMILES IDX 25 34 79 35 73 36 75 37 26 38 78 39 72 40 71 41 27 43 59 44
REMARK SMILES IDX 39 45 58 46 40 47 43 48 57 49 76 50 41 51 42 52 56 54 77 55
REMARK SMILES IDX 44 56 28 57 29 58 37 59 30 60 36 61 38 62 35 63 31 64 32 65
REMARK SMILES IDX 33 66 34 67 60 68 61 69 69 70 62 71 68 72 70 73 67 74 63 75
REMARK SMILES IDX 64 76 65 77 66 78 45 79 46 80 54 81 47 82 53 83 55 84 52 85
REMARK SMILES IDX 48 86 49 87 50 88 51 89
REMARK H PARENT 75 42 43 53
REMARK Flexibility Score: inf
ROOT
ATOM      1  C   UNL A   1      36.635  22.848  23.472  1.00  0.00     0.274 C 
ENDROOT
BRANCH   1   2
ATOM      2  O   UNL A   1      35.462  23.555  23.929  1.00  0.00    -0.461 OA
BRANCH   2   3
ATOM      3  C   UNL A   1      34.273  23.276  23.313  1.00  0.00     0.316 C 
ATOM      4  O   UNL A   1      34.073  23.512  22.129  1.00  0.00    -0.251 OA
BRANCH   3   5
ATOM      5  C   UNL A   1      33.204  22.738  24.309  1.00  0.00     0.099 C 
ATOM      6  C   UNL A   1      33.642  23.065  25.772  1.00  0.00     0.029 C 
BRANCH   5   7
ATOM      7  C   UNL A   1      31.836  23.421  24.007  1.00  0.00     0.123 C 
BRANCH   7   8
ATOM      8  C   UNL A   1      31.255  24.374  25.047  1.00  0.00     0.224 C 
ATOM      9  N   UNL A   1      31.439  25.748  24.932  1.00  0.00    -0.343 N 
ATOM     10  O   UNL A   1      30.643  23.898  26.008  1.00  0.00    -0.275 OA
BRANCH   9  11
ATOM     11  C   UNL A   1      30.744  26.593  25.910  1.00  0.00     0.116 C 
ATOM     12  C   UNL A   1      31.700  27.341  26.833  1.00  0.00     0.027 C 
ENDBRANCH   9  11
BRANCH   9  13
ATOM     13  C   UNL A   1      32.330  26.423  23.988  1.00  0.00     0.116 C 
ATOM     14  C   UNL A   1      33.755  26.575  24.495  1.00  0.00     0.027 C 
ENDBRANCH   9  13
ENDBRANCH   7   8
ENDBRANCH   5   7
BRANCH   5  15
ATOM     15  C   UNL A   1      32.986  21.192  24.250  1.00  0.00    -0.030 A 
ATOM     16  C   UNL A   1      32.394  20.599  23.108  1.00  0.00     0.005 A 
ATOM     17  C   UNL A   1      33.390  20.316  25.269  1.00  0.00     0.005 A 
ATOM     18  C   UNL A   1      32.141  19.227  23.031  1.00  0.00     0.000 A 
ATOM     19  C   UNL A   1      33.143  18.937  25.188  1.00  0.00     0.000 A 
ATOM     20  C   UNL A   1      32.503  18.396  24.080  1.00  0.00     0.000 A 
ENDBRANCH   5  15
ENDBRANCH   3   5
ENDBRANCH   2   3
ENDBRANCH   1   2
BRANCH   1  21
ATOM     21  C   UNL A   1      36.862  21.612  24.334  1.00  0.00     0.275 C 
BRANCH  21  22
ATOM     22  O   UNL A   1      37.366  22.070  25.593  1.00  0.00    -0.458 OA
BRANCH  22  23
ATOM     23  C   UNL A   1      38.591  21.624  25.953  1.00  0.00     0.338 C 
ATOM     24  O   UNL A   1      39.061  20.514  25.789  1.00  0.00    -0.246 OA
BRANCH  23  25
ATOM     25  C   UNL A   1      39.309  22.779  26.514  1.00  0.00     0.060 A 
ATOM     26  C   UNL A   1      38.894  24.057  26.140  1.00  0.00     0.016 A 
ATOM     27  C   UNL A   1      40.398  22.611  27.365  1.00  0.00     0.016 A 
ATOM     28  C   UNL A   1      39.584  25.173  26.592  1.00  0.00     0.010 A 
ATOM     29  C   UNL A   1      41.045  23.744  27.874  1.00  0.00     0.010 A 
ATOM     30  C   UNL A   1      40.651  25.040  27.483  1.00  0.00    -0.014 A 
BRANCH  30  31
ATOM     31  C   UNL A   1      41.403  26.244  27.931  1.00  0.00     0.031 A 
ATOM     32  C   UNL A   1      40.715  27.245  28.814  1.00  0.00     0.074 A 
ATOM     33  C   UNL A   1      42.701  26.430  27.613  1.00  0.00     0.049 A 
ATOM     34  N   UNL A   1      41.039  28.482  29.079  1.00  0.00    -0.248 NA
ATOM     35  C   UNL A   1      39.486  26.786  29.477  1.00  0.00     0.031 C 
ATOM     36  C   UNL A   1      43.547  25.480  26.888  1.00  0.00     0.029 A 
ATOM     37  N   UNL A   1      43.544  27.483  27.877  1.00  0.00    -0.354 N 
ATOM     38  C   UNL A   1      40.015  28.976  29.880  1.00  0.00     0.074 A 
ATOM     39  C   UNL A   1      39.066  27.897  30.063  1.00  0.00     0.031 C 
ATOM     40  C   UNL A   1      44.794  25.971  26.810  1.00  0.00     0.029 A 
ATOM     41  C   UNL A   1      44.807  27.324  27.354  1.00  0.00     0.049 A 
ATOM     42  H   UNL A   1      43.270  28.276  28.392  1.00  0.00     0.167 HD
ATOM     43  C   UNL A   1      39.880  30.223  30.396  1.00  0.00     0.034 A 
ATOM     44  C   UNL A   1      45.832  28.194  27.248  1.00  0.00     0.034 A 
ATOM     45  C   UNL A   1      40.869  31.261  30.233  1.00  0.00     0.049 A 
ATOM     46  C   UNL A   1      45.616  29.613  27.709  1.00  0.00     0.074 A 
ATOM     47  C   UNL A   1      40.833  32.572  30.677  1.00  0.00     0.029 A 
ATOM     48  N   UNL A   1      42.085  31.098  29.579  1.00  0.00    -0.354 N 
ATOM     49  N   UNL A   1      44.574  30.137  28.313  1.00  0.00    -0.248 NA
ATOM     50  C   UNL A   1      46.692  30.571  27.423  1.00  0.00     0.031 C 
ATOM     51  C   UNL A   1      42.001  33.213  30.246  1.00  0.00     0.029 A 
ATOM     52  C   UNL A   1      42.794  32.289  29.584  1.00  0.00     0.049 A 
ATOM     53  H   UNL A   1      42.397  30.258  29.174  1.00  0.00     0.167 HD
ATOM     54  C   UNL A   1      44.863  31.489  28.464  1.00  0.00     0.074 A 
ATOM     55  C   UNL A   1      46.190  31.694  27.919  1.00  0.00     0.031 C 
ATOM     56  C   UNL A   1      44.099  32.477  28.997  1.00  0.00     0.034 A 
BRANCH  43  57
ATOM     57  C   UNL A   1      38.578  30.544  31.087  1.00  0.00     0.023 A 
ATOM     58  C   UNL A   1      37.523  31.206  30.437  1.00  0.00     0.031 A 
ATOM     59  C   UNL A   1      38.423  30.240  32.452  1.00  0.00     0.131 A 
ATOM     60  C   UNL A   1      36.396  31.611  31.168  1.00  0.00     0.055 A 
ATOM     61  C   UNL A   1      37.265  30.574  33.155  1.00  0.00     0.041 A 
ATOM     62  F   UNL A   1      39.407  29.632  33.133  1.00  0.00    -0.206 F 
ATOM     63  C   UNL A   1      36.250  31.280  32.518  1.00  0.00     0.022 A 
BRANCH  60  64
ATOM     64  S   UNL A   1      35.194  32.714  30.374  1.00  0.00     0.124 S 
ATOM     65  O   UNL A   1      34.790  31.927  29.212  1.00  0.00    -0.237 OA
ATOM     66  O   UNL A   1      34.186  32.883  31.414  1.00  0.00    -0.237 OA
ATOM     67  O   UNL A   1      35.978  33.909  30.064  1.00  0.00    -0.744 OA
ENDBRANCH  60  64
ENDBRANCH  43  57
BRANCH  44  68
ATOM     68  C   UNL A   1      47.097  27.799  26.563  1.00  0.00     0.023 A 
ATOM     69  C   UNL A   1      47.236  27.909  25.170  1.00  0.00     0.031 A 
ATOM     70  C   UNL A   1      48.179  27.268  27.291  1.00  0.00     0.131 A 
ATOM     71  C   UNL A   1      48.422  27.481  24.549  1.00  0.00     0.055 A 
ATOM     72  C   UNL A   1      49.376  26.899  26.677  1.00  0.00     0.041 A 
ATOM     73  F   UNL A   1      48.094  27.120  28.622  1.00  0.00    -0.206 F 
ATOM     74  C   UNL A   1      49.499  26.998  25.296  1.00  0.00     0.022 A 
BRANCH  71  75
ATOM     75  S   UNL A   1      48.518  27.501  22.738  1.00  0.00     0.124 S 
ATOM     76  O   UNL A   1      47.290  28.204  22.383  1.00  0.00    -0.237 OA
ATOM     77  O   UNL A   1      49.763  28.226  22.506  1.00  0.00    -0.237 OA
ATOM     78  O   UNL A   1      48.549  26.084  22.382  1.00  0.00    -0.744 OA
ENDBRANCH  71  75
ENDBRANCH  44  68
BRANCH  56  79
ATOM     79  C   UNL A   1      44.695  33.859  29.007  1.00  0.00     0.023 A 
ATOM     80  C   UNL A   1      45.547  34.278  30.044  1.00  0.00     0.031 A 
ATOM     81  C   UNL A   1      44.399  34.768  27.978  1.00  0.00     0.131 A 
ATOM     82  C   UNL A   1      46.043  35.590  30.049  1.00  0.00     0.055 A 
ATOM     83  C   UNL A   1      44.932  36.057  27.965  1.00  0.00     0.041 A 
ATOM     84  F   UNL A   1      43.588  34.415  26.967  1.00  0.00    -0.206 F 
ATOM     85  C   UNL A   1      45.752  36.477  29.009  1.00  0.00     0.022 A 
BRANCH  82  86
ATOM     86  S   UNL A   1      47.033  36.145  31.464  1.00  0.00     0.124 S 
ATOM     87  O   UNL A   1      48.005  35.064  31.596  1.00  0.00    -0.237 OA
ATOM     88  O   UNL A   1      47.560  37.424  30.999  1.00  0.00    -0.237 OA
ATOM     89  O   UNL A   1      46.058  36.237  32.549  1.00  0.00    -0.744 OA
ENDBRANCH  82  86
ENDBRANCH  56  79
ENDBRANCH  30  31
ENDBRANCH  23  25
ENDBRANCH  22  23
ENDBRANCH  21  22
ENDBRANCH   1  21
TORSDOF 19
ENDMDL
