MODEL 1
REMARK VINA RESULT:     -13.2      0.000      0.000
REMARK SMILES C[C@H]1c2ccc(O)cc2OC(=O)[C@@H]1CC(=O)N[C@@H](CC1=c2ccccc2=NC1)C(=O)OCCOC(=O)c1ccc(-c2c3nc(c(-c4cc(S(=O)(=O)[O-])ccc4F)c4ccc([nH]4)c(-c4cc(S(=O)(=O)[O-])ccc4F)c4nc(c(-c5cc(S(=O)(=O)[O-])ccc5F)c5ccc2[nH]5)C=C4)C=C3)cc1
REMARK SMILES IDX 32 1 31 2 29 3 30 4 18 5 17 6 15 7 16 8 14 10 13 11 1 12
REMARK SMILES IDX 2 13 3 14 4 15 9 16 11 17 5 18 8 19 10 20 12 21 6 22 7 23
REMARK SMILES IDX 19 25 20 26 21 27 28 28 22 29 26 30 27 31 23 32 25 33 24 34
REMARK SMILES IDX 33 35 34 36 35 37 36 38 37 39 38 40 99 41 39 42 98 43 40 44
REMARK SMILES IDX 41 45 42 46 92 47 43 48 97 49 91 50 93 51 44 52 96 53 90 54
REMARK SMILES IDX 89 55 45 57 77 58 57 59 76 60 58 61 61 62 75 63 94 64 59 65
REMARK SMILES IDX 60 66 74 68 95 69 62 70 46 71 47 72 55 73 48 74 54 75 56 76
REMARK SMILES IDX 53 77 49 78 50 79 51 80 52 81 78 82 79 83 87 84 80 85 86 86
REMARK SMILES IDX 88 87 85 88 81 89 82 90 83 91 84 92 63 93 64 94 72 95 65 96
REMARK SMILES IDX 71 97 73 98 70 99 66 100 67 101 68 102 69 103
REMARK H PARENT 17 9 7 24 93 56 61 67
REMARK Flexibility Score: inf
ROOT
ATOM      1  C   UNL A   1      31.781  28.908  27.237  1.00  0.00     0.274 C 
ENDROOT
BRANCH   1   2
ATOM      2  O   UNL A   1      31.421  28.146  26.065  1.00  0.00    -0.461 OA
BRANCH   2   3
ATOM      3  C   UNL A   1      32.011  26.929  25.943  1.00  0.00     0.329 C 
ATOM      4  O   UNL A   1      33.223  26.752  25.854  1.00  0.00    -0.250 OA
BRANCH   3   5
ATOM      5  C   UNL A   1      31.000  25.788  25.751  1.00  0.00     0.196 C 
BRANCH   5   6
ATOM      6  N   UNL A   1      30.874  24.788  26.820  1.00  0.00    -0.342 N 
ATOM      7  C   UNL A   1      30.730  23.431  26.749  1.00  0.00     0.221 C 
ATOM      8  O   UNL A   1      30.217  22.839  27.699  1.00  0.00    -0.275 OA
ATOM      9  H   UNL A   1      30.898  25.155  27.733  1.00  0.00     0.164 HD
BRANCH   7  10
ATOM     10  C   UNL A   1      31.308  22.658  25.572  1.00  0.00     0.116 C 
BRANCH  10  11
ATOM     11  C   UNL A   1      32.793  22.886  25.215  1.00  0.00     0.116 C 
ATOM     12  C   UNL A   1      34.593  22.576  23.392  1.00  0.00     0.014 C 
ATOM     13  C   UNL A   1      33.175  22.243  23.856  1.00  0.00     0.034 C 
ATOM     14  C   UNL A   1      33.026  20.753  24.001  1.00  0.00    -0.001 A 
ATOM     15  C   UNL A   1      32.524  19.948  22.977  1.00  0.00     0.011 A 
ATOM     16  C   UNL A   1      33.293  20.181  25.248  1.00  0.00     0.138 A 
ATOM     17  C   UNL A   1      33.708  22.330  26.277  1.00  0.00     0.315 C 
ATOM     18  C   UNL A   1      32.174  18.627  23.257  1.00  0.00     0.047 A 
ATOM     19  C   UNL A   1      32.933  18.877  25.544  1.00  0.00     0.093 A 
ATOM     20  O   UNL A   1      33.847  20.949  26.288  1.00  0.00    -0.426 OA
ATOM     21  O   UNL A   1      34.252  23.032  27.123  1.00  0.00    -0.251 OA
ATOM     22  C   UNL A   1      32.317  18.138  24.554  1.00  0.00     0.119 A 
BRANCH  22  23
ATOM     23  O   UNL A   1      31.766  16.951  24.923  1.00  0.00    -0.508 OA
ATOM     24  H   UNL A   1      32.315  16.246  25.203  1.00  0.00     0.293 HD
ENDBRANCH  22  23
ENDBRANCH  10  11
ENDBRANCH   7  10
ENDBRANCH   5   6
BRANCH   5  25
ATOM     25  C   UNL A   1      29.599  26.380  25.354  1.00  0.00     0.070 C 
BRANCH  25  26
ATOM     26  C   UNL A   1      29.298  26.673  23.877  1.00  0.00    -0.037 C 
ATOM     27  C   UNL A   1      29.095  27.939  23.475  1.00  0.00     0.001 A 
ATOM     28  C   UNL A   1      30.164  26.000  22.855  1.00  0.00     0.174 C 
ATOM     29  C   UNL A   1      27.996  28.448  22.666  1.00  0.00     0.010 A 
ATOM     30  C   UNL A   1      30.375  28.127  22.719  1.00  0.00     0.065 A 
ATOM     31  N   UNL A   1      31.067  27.078  22.397  1.00  0.00    -0.280 NA
ATOM     32  C   UNL A   1      28.229  29.545  21.917  1.00  0.00     0.001 A 
ATOM     33  C   UNL A   1      30.634  29.531  22.353  1.00  0.00     0.028 A 
ATOM     34  C   UNL A   1      29.533  30.204  21.969  1.00  0.00     0.002 A 
ENDBRANCH  25  26
ENDBRANCH   5  25
ENDBRANCH   3   5
ENDBRANCH   2   3
ENDBRANCH   1   2
BRANCH   1  35
ATOM     35  C   UNL A   1      31.965  30.379  26.877  1.00  0.00     0.275 C 
BRANCH  35  36
ATOM     36  O   UNL A   1      33.360  30.631  26.643  1.00  0.00    -0.458 OA
BRANCH  36  37
ATOM     37  C   UNL A   1      33.872  31.647  27.384  1.00  0.00     0.338 C 
ATOM     38  O   UNL A   1      33.328  32.690  27.673  1.00  0.00    -0.246 OA
BRANCH  37  39
ATOM     39  C   UNL A   1      35.143  31.188  27.983  1.00  0.00     0.060 A 
ATOM     40  C   UNL A   1      36.234  32.041  28.182  1.00  0.00     0.016 A 
ATOM     41  C   UNL A   1      35.224  29.845  28.349  1.00  0.00     0.016 A 
ATOM     42  C   UNL A   1      37.410  31.544  28.756  1.00  0.00     0.010 A 
ATOM     43  C   UNL A   1      36.400  29.352  28.908  1.00  0.00     0.010 A 
ATOM     44  C   UNL A   1      37.507  30.191  29.113  1.00  0.00    -0.014 A 
BRANCH  44  45
ATOM     45  C   UNL A   1      38.697  29.660  29.825  1.00  0.00     0.031 A 
ATOM     46  C   UNL A   1      39.044  30.086  31.223  1.00  0.00     0.074 A 
ATOM     47  C   UNL A   1      39.540  28.873  29.136  1.00  0.00     0.049 A 
ATOM     48  N   UNL A   1      40.156  29.917  31.890  1.00  0.00    -0.248 NA
ATOM     49  C   UNL A   1      38.046  30.895  31.927  1.00  0.00     0.031 C 
ATOM     50  C   UNL A   1      39.335  28.442  27.752  1.00  0.00     0.029 A 
ATOM     51  N   UNL A   1      40.733  28.305  29.495  1.00  0.00    -0.354 N 
ATOM     52  C   UNL A   1      40.035  30.686  33.047  1.00  0.00     0.074 A 
ATOM     53  C   UNL A   1      38.753  31.352  32.955  1.00  0.00     0.031 C 
ATOM     54  C   UNL A   1      40.361  27.662  27.384  1.00  0.00     0.029 A 
ATOM     55  C   UNL A   1      41.292  27.534  28.504  1.00  0.00     0.049 A 
ATOM     56  H   UNL A   1      41.150  28.436  30.376  1.00  0.00     0.167 HD
ATOM     57  C   UNL A   1      40.902  30.791  34.087  1.00  0.00     0.034 A 
ATOM     58  C   UNL A   1      42.405  26.776  28.513  1.00  0.00     0.034 A 
ATOM     59  C   UNL A   1      42.071  29.948  34.212  1.00  0.00     0.049 A 
ATOM     60  C   UNL A   1      43.197  26.675  29.790  1.00  0.00     0.074 A 
ATOM     61  C   UNL A   1      42.928  29.824  35.293  1.00  0.00     0.029 A 
ATOM     62  N   UNL A   1      42.506  29.035  33.260  1.00  0.00    -0.354 N 
ATOM     63  N   UNL A   1      43.048  27.355  30.902  1.00  0.00    -0.248 NA
ATOM     64  C   UNL A   1      44.275  25.679  29.836  1.00  0.00     0.031 C 
ATOM     65  C   UNL A   1      43.886  28.855  34.989  1.00  0.00     0.029 A 
ATOM     66  C   UNL A   1      43.594  28.327  33.743  1.00  0.00     0.049 A 
ATOM     67  H   UNL A   1      42.100  28.910  32.372  1.00  0.00     0.167 HD
ATOM     68  C   UNL A   1      43.992  26.851  31.790  1.00  0.00     0.074 A 
ATOM     69  C   UNL A   1      44.689  25.789  31.093  1.00  0.00     0.031 C 
ATOM     70  C   UNL A   1      44.259  27.241  33.061  1.00  0.00     0.034 A 
BRANCH  57  71
ATOM     71  C   UNL A   1      40.623  31.764  35.224  1.00  0.00     0.023 A 
ATOM     72  C   UNL A   1      39.549  31.522  36.113  1.00  0.00     0.031 A 
ATOM     73  C   UNL A   1      41.293  32.994  35.343  1.00  0.00     0.131 A 
ATOM     74  C   UNL A   1      39.165  32.502  37.042  1.00  0.00     0.055 A 
ATOM     75  C   UNL A   1      40.957  33.933  36.323  1.00  0.00     0.041 A 
ATOM     76  F   UNL A   1      42.286  33.318  34.499  1.00  0.00    -0.206 F 
ATOM     77  C   UNL A   1      39.880  33.695  37.168  1.00  0.00     0.022 A 
BRANCH  74  78
ATOM     78  S   UNL A   1      37.661  32.326  38.046  1.00  0.00     0.124 S 
ATOM     79  O   UNL A   1      38.098  32.846  39.340  1.00  0.00    -0.237 OA
ATOM     80  O   UNL A   1      36.713  33.172  37.325  1.00  0.00    -0.237 OA
ATOM     81  O   UNL A   1      37.379  30.895  38.013  1.00  0.00    -0.744 OA
ENDBRANCH  74  78
ENDBRANCH  57  71
BRANCH  58  82
ATOM     82  C   UNL A   1      42.684  25.928  27.323  1.00  0.00     0.023 A 
ATOM     83  C   UNL A   1      42.165  24.626  27.217  1.00  0.00     0.031 A 
ATOM     84  C   UNL A   1      43.633  26.347  26.374  1.00  0.00     0.131 A 
ATOM     85  C   UNL A   1      42.653  23.767  26.224  1.00  0.00     0.055 A 
ATOM     86  C   UNL A   1      44.064  25.510  25.347  1.00  0.00     0.041 A 
ATOM     87  F   UNL A   1      44.179  27.570  26.461  1.00  0.00    -0.206 F 
ATOM     88  C   UNL A   1      43.588  24.206  25.279  1.00  0.00     0.022 A 
BRANCH  85  89
ATOM     89  S   UNL A   1      42.222  22.004  26.226  1.00  0.00     0.124 S 
ATOM     90  O   UNL A   1      40.790  22.043  25.946  1.00  0.00    -0.237 OA
ATOM     91  O   UNL A   1      43.063  21.490  25.148  1.00  0.00    -0.237 OA
ATOM     92  O   UNL A   1      42.593  21.562  27.566  1.00  0.00    -0.744 OA
ENDBRANCH  85  89
ENDBRANCH  58  82
BRANCH  70  93
ATOM     93  C   UNL A   1      45.340  26.524  33.835  1.00  0.00     0.023 A 
ATOM     94  C   UNL A   1      44.995  25.484  34.722  1.00  0.00     0.031 A 
ATOM     95  C   UNL A   1      46.668  26.984  33.834  1.00  0.00     0.131 A 
ATOM     96  C   UNL A   1      45.956  24.970  35.601  1.00  0.00     0.055 A 
ATOM     97  C   UNL A   1      47.633  26.437  34.681  1.00  0.00     0.041 A 
ATOM     98  F   UNL A   1      47.042  27.983  33.019  1.00  0.00    -0.206 F 
ATOM     99  C   UNL A   1      47.275  25.437  35.580  1.00  0.00     0.022 A 
BRANCH  96 100
ATOM    100  S   UNL A   1      45.511  23.751  36.869  1.00  0.00     0.124 S 
ATOM    101  O   UNL A   1      46.808  23.464  37.480  1.00  0.00    -0.237 OA
ATOM    102  O   UNL A   1      44.581  24.504  37.707  1.00  0.00    -0.237 OA
ATOM    103  O   UNL A   1      44.925  22.651  36.111  1.00  0.00    -0.744 OA
ENDBRANCH  96 100
ENDBRANCH  70  93
ENDBRANCH  44  45
ENDBRANCH  37  39
ENDBRANCH  36  37
ENDBRANCH  35  36
ENDBRANCH   1  35
TORSDOF 20
ENDMDL
MODEL 2
REMARK VINA RESULT:     -12.8      2.409      3.169
REMARK SMILES C[C@H]1c2ccc(O)cc2OC(=O)[C@@H]1CC(=O)N[C@@H](CC1=c2ccccc2=NC1)C(=O)OCCOC(=O)c1ccc(-c2c3nc(c(-c4cc(S(=O)(=O)[O-])ccc4F)c4ccc([nH]4)c(-c4cc(S(=O)(=O)[O-])ccc4F)c4nc(c(-c5cc(S(=O)(=O)[O-])ccc5F)c5ccc2[nH]5)C=C4)C=C3)cc1
REMARK SMILES IDX 32 1 31 2 29 3 30 4 18 5 17 6 15 7 16 8 14 10 13 11 1 12
REMARK SMILES IDX 2 13 3 14 4 15 9 16 11 17 5 18 8 19 10 20 12 21 6 22 7 23
REMARK SMILES IDX 19 25 20 26 21 27 28 28 22 29 26 30 27 31 23 32 25 33 24 34
REMARK SMILES IDX 33 35 34 36 35 37 36 38 37 39 38 40 99 41 39 42 98 43 40 44
REMARK SMILES IDX 41 45 42 46 92 47 43 48 97 49 91 50 93 51 44 52 96 53 90 54
REMARK SMILES IDX 89 55 45 57 77 58 57 59 76 60 58 61 61 62 75 63 94 64 59 65
REMARK SMILES IDX 60 66 74 68 95 69 62 70 46 71 47 72 55 73 48 74 54 75 56 76
REMARK SMILES IDX 53 77 49 78 50 79 51 80 52 81 78 82 79 83 87 84 80 85 86 86
REMARK SMILES IDX 88 87 85 88 81 89 82 90 83 91 84 92 63 93 64 94 72 95 65 96
REMARK SMILES IDX 71 97 73 98 70 99 66 100 67 101 68 102 69 103
REMARK H PARENT 17 9 7 24 93 56 61 67
REMARK Flexibility Score: inf
ROOT
ATOM      1  C   UNL A   1      32.502  29.950  25.496  1.00  0.00     0.274 C 
ENDROOT
BRANCH   1   2
ATOM      2  O   UNL A   1      32.344  28.721  24.756  1.00  0.00    -0.461 OA
BRANCH   2   3
ATOM      3  C   UNL A   1      32.605  28.790  23.425  1.00  0.00     0.329 C 
ATOM      4  O   UNL A   1      33.576  29.363  22.938  1.00  0.00    -0.250 OA
BRANCH   3   5
ATOM      5  C   UNL A   1      31.467  28.225  22.560  1.00  0.00     0.196 C 
BRANCH   5   6
ATOM      6  N   UNL A   1      31.782  27.131  21.632  1.00  0.00    -0.342 N 
ATOM      7  C   UNL A   1      32.777  26.194  21.675  1.00  0.00     0.221 C 
ATOM      8  O   UNL A   1      33.133  25.659  20.625  1.00  0.00    -0.275 OA
ATOM      9  H   UNL A   1      31.181  27.061  20.856  1.00  0.00     0.164 HD
BRANCH   7  10
ATOM     10  C   UNL A   1      33.340  25.733  23.012  1.00  0.00     0.116 C 
BRANCH  10  11
ATOM     11  C   UNL A   1      32.355  25.155  24.052  1.00  0.00     0.116 C 
ATOM     12  C   UNL A   1      32.021  24.587  26.547  1.00  0.00     0.014 C 
ATOM     13  C   UNL A   1      33.003  25.009  25.454  1.00  0.00     0.034 C 
ATOM     14  C   UNL A   1      34.105  23.991  25.342  1.00  0.00    -0.001 A 
ATOM     15  C   UNL A   1      35.318  24.124  26.021  1.00  0.00     0.011 A 
ATOM     16  C   UNL A   1      33.944  22.941  24.434  1.00  0.00     0.138 A 
ATOM     17  C   UNL A   1      31.834  23.805  23.628  1.00  0.00     0.315 C 
ATOM     18  C   UNL A   1      36.384  23.291  25.681  1.00  0.00     0.047 A 
ATOM     19  C   UNL A   1      35.000  22.120  24.075  1.00  0.00     0.093 A 
ATOM     20  O   UNL A   1      32.720  22.746  23.770  1.00  0.00    -0.426 OA
ATOM     21  O   UNL A   1      30.725  23.646  23.130  1.00  0.00    -0.251 OA
ATOM     22  C   UNL A   1      36.227  22.352  24.663  1.00  0.00     0.119 A 
BRANCH  22  23
ATOM     23  O   UNL A   1      37.297  21.698  24.138  1.00  0.00    -0.508 OA
ATOM     24  H   UNL A   1      38.131  22.120  24.099  1.00  0.00     0.293 HD
ENDBRANCH  22  23
ENDBRANCH  10  11
ENDBRANCH   7  10
ENDBRANCH   5   6
BRANCH   5  25
ATOM     25  C   UNL A   1      30.236  27.868  23.468  1.00  0.00     0.070 C 
BRANCH  25  26
ATOM     26  C   UNL A   1      29.117  28.902  23.660  1.00  0.00    -0.037 C 
ATOM     27  C   UNL A   1      29.245  30.131  23.133  1.00  0.00     0.001 A 
ATOM     28  C   UNL A   1      27.711  28.441  23.416  1.00  0.00     0.174 C 
ATOM     29  C   UNL A   1      29.043  31.410  23.802  1.00  0.00     0.010 A 
ATOM     30  C   UNL A   1      28.231  29.997  22.038  1.00  0.00     0.065 A 
ATOM     31  N   UNL A   1      27.377  29.021  22.097  1.00  0.00    -0.280 NA
ATOM     32  C   UNL A   1      28.669  32.458  23.042  1.00  0.00     0.001 A 
ATOM     33  C   UNL A   1      28.290  31.090  21.052  1.00  0.00     0.028 A 
ATOM     34  C   UNL A   1      28.522  32.300  21.596  1.00  0.00     0.002 A 
ENDBRANCH  25  26
ENDBRANCH   5  25
ENDBRANCH   3   5
ENDBRANCH   2   3
ENDBRANCH   1   2
BRANCH   1  35
ATOM     35  C   UNL A   1      33.725  29.868  26.405  1.00  0.00     0.275 C 
BRANCH  35  36
ATOM     36  O   UNL A   1      33.421  30.504  27.656  1.00  0.00    -0.458 OA
BRANCH  36  37
ATOM     37  C   UNL A   1      34.256  31.526  27.976  1.00  0.00     0.338 C 
ATOM     38  O   UNL A   1      33.973  32.700  28.078  1.00  0.00    -0.246 OA
BRANCH  37  39
ATOM     39  C   UNL A   1      35.547  30.951  28.407  1.00  0.00     0.060 A 
ATOM     40  C   UNL A   1      36.778  31.474  27.998  1.00  0.00     0.016 A 
ATOM     41  C   UNL A   1      35.499  29.841  29.250  1.00  0.00     0.016 A 
ATOM     42  C   UNL A   1      37.967  30.883  28.442  1.00  0.00     0.010 A 
ATOM     43  C   UNL A   1      36.683  29.250  29.680  1.00  0.00     0.010 A 
ATOM     44  C   UNL A   1      37.929  29.757  29.278  1.00  0.00    -0.014 A 
BRANCH  44  45
ATOM     45  C   UNL A   1      39.169  29.177  29.856  1.00  0.00     0.031 A 
ATOM     46  C   UNL A   1      39.793  29.722  31.109  1.00  0.00     0.074 A 
ATOM     47  C   UNL A   1      39.799  28.220  29.154  1.00  0.00     0.049 A 
ATOM     48  N   UNL A   1      40.983  29.503  31.605  1.00  0.00    -0.248 NA
ATOM     49  C   UNL A   1      39.016  30.721  31.847  1.00  0.00     0.031 C 
ATOM     50  C   UNL A   1      39.315  27.656  27.894  1.00  0.00     0.029 A 
ATOM     51  N   UNL A   1      40.976  27.562  29.392  1.00  0.00    -0.354 N 
ATOM     52  C   UNL A   1      41.139  30.412  32.651  1.00  0.00     0.074 A 
ATOM     53  C   UNL A   1      39.932  31.210  32.675  1.00  0.00     0.031 C 
ATOM     54  C   UNL A   1      40.181  26.722  27.476  1.00  0.00     0.029 A 
ATOM     55  C   UNL A   1      41.276  26.619  28.439  1.00  0.00     0.049 A 
ATOM     56  H   UNL A   1      41.551  27.746  30.169  1.00  0.00     0.167 HD
ATOM     57  C   UNL A   1      42.181  30.537  33.514  1.00  0.00     0.034 A 
ATOM     58  C   UNL A   1      42.296  25.741  28.373  1.00  0.00     0.034 A 
ATOM     59  C   UNL A   1      43.267  29.582  33.565  1.00  0.00     0.049 A 
ATOM     60  C   UNL A   1      43.284  25.699  29.508  1.00  0.00     0.074 A 
ATOM     61  C   UNL A   1      44.283  29.487  34.501  1.00  0.00     0.029 A 
ATOM     62  N   UNL A   1      43.439  28.518  32.689  1.00  0.00    -0.354 N 
ATOM     63  N   UNL A   1      43.398  26.519  30.526  1.00  0.00    -0.248 NA
ATOM     64  C   UNL A   1      44.253  24.595  29.517  1.00  0.00     0.031 C 
ATOM     65  C   UNL A   1      45.075  28.383  34.183  1.00  0.00     0.029 A 
ATOM     66  C   UNL A   1      44.521  27.749  33.083  1.00  0.00     0.049 A 
ATOM     67  H   UNL A   1      42.874  28.338  31.903  1.00  0.00     0.167 HD
ATOM     68  C   UNL A   1      44.429  26.016  31.312  1.00  0.00     0.074 A 
ATOM     69  C   UNL A   1      44.888  24.804  30.664  1.00  0.00     0.031 C 
ATOM     70  C   UNL A   1      44.950  26.519  32.458  1.00  0.00     0.034 A 
BRANCH  57  71
ATOM     71  C   UNL A   1      42.199  31.663  34.538  1.00  0.00     0.023 A 
ATOM     72  C   UNL A   1      41.301  31.639  35.631  1.00  0.00     0.031 A 
ATOM     73  C   UNL A   1      42.968  32.827  34.362  1.00  0.00     0.131 A 
ATOM     74  C   UNL A   1      41.177  32.758  36.471  1.00  0.00     0.055 A 
ATOM     75  C   UNL A   1      42.898  33.906  35.248  1.00  0.00     0.041 A 
ATOM     76  F   UNL A   1      43.801  32.946  33.315  1.00  0.00    -0.206 F 
ATOM     77  C   UNL A   1      41.989  33.881  36.298  1.00  0.00     0.022 A 
BRANCH  74  78
ATOM     78  S   UNL A   1      39.886  32.855  37.745  1.00  0.00     0.124 S 
ATOM     79  O   UNL A   1      40.642  32.578  38.964  1.00  0.00    -0.237 OA
ATOM     80  O   UNL A   1      39.421  34.233  37.603  1.00  0.00    -0.237 OA
ATOM     81  O   UNL A   1      38.929  31.824  37.358  1.00  0.00    -0.744 OA
ENDBRANCH  74  78
ENDBRANCH  57  71
BRANCH  58  82
ATOM     82  C   UNL A   1      42.280  24.731  27.281  1.00  0.00     0.023 A 
ATOM     83  C   UNL A   1      41.452  23.597  27.348  1.00  0.00     0.031 A 
ATOM     84  C   UNL A   1      43.239  24.798  26.255  1.00  0.00     0.131 A 
ATOM     85  C   UNL A   1      41.649  22.544  26.444  1.00  0.00     0.055 A 
ATOM     86  C   UNL A   1      43.384  23.777  25.317  1.00  0.00     0.041 A 
ATOM     87  F   UNL A   1      44.072  25.847  26.178  1.00  0.00    -0.206 F 
ATOM     88  C   UNL A   1      42.599  22.634  25.421  1.00  0.00     0.022 A 
BRANCH  85  89
ATOM     89  S   UNL A   1      40.801  20.956  26.669  1.00  0.00     0.124 S 
ATOM     90  O   UNL A   1      40.807  20.813  28.121  1.00  0.00    -0.237 OA
ATOM     91  O   UNL A   1      39.497  21.226  26.066  1.00  0.00    -0.237 OA
ATOM     92  O   UNL A   1      41.639  20.012  25.936  1.00  0.00    -0.744 OA
ENDBRANCH  85  89
ENDBRANCH  58  82
BRANCH  70  93
ATOM     93  C   UNL A   1      46.075  25.776  33.139  1.00  0.00     0.023 A 
ATOM     94  C   UNL A   1      47.384  25.859  32.622  1.00  0.00     0.031 A 
ATOM     95  C   UNL A   1      45.824  24.855  34.170  1.00  0.00     0.131 A 
ATOM     96  C   UNL A   1      48.381  25.005  33.109  1.00  0.00     0.055 A 
ATOM     97  C   UNL A   1      46.833  24.037  34.682  1.00  0.00     0.041 A 
ATOM     98  F   UNL A   1      44.591  24.726  34.684  1.00  0.00    -0.206 F 
ATOM     99  C   UNL A   1      48.113  24.099  34.141  1.00  0.00     0.022 A 
BRANCH  96 100
ATOM    100  S   UNL A   1      50.032  24.966  32.356  1.00  0.00     0.124 S 
ATOM    101  O   UNL A   1      50.761  25.927  33.182  1.00  0.00    -0.237 OA
ATOM    102  O   UNL A   1      50.419  23.569  32.537  1.00  0.00    -0.237 OA
ATOM    103  O   UNL A   1      49.802  25.382  30.977  1.00  0.00    -0.744 OA
ENDBRANCH  96 100
ENDBRANCH  70  93
ENDBRANCH  44  45
ENDBRANCH  37  39
ENDBRANCH  36  37
ENDBRANCH  35  36
ENDBRANCH   1  35
TORSDOF 20
ENDMDL
MODEL 3
REMARK VINA RESULT:     -12.7      4.455      9.984
REMARK SMILES C[C@H]1c2ccc(O)cc2OC(=O)[C@@H]1CC(=O)N[C@@H](CC1=c2ccccc2=NC1)C(=O)OCCOC(=O)c1ccc(-c2c3nc(c(-c4cc(S(=O)(=O)[O-])ccc4F)c4ccc([nH]4)c(-c4cc(S(=O)(=O)[O-])ccc4F)c4nc(c(-c5cc(S(=O)(=O)[O-])ccc5F)c5ccc2[nH]5)C=C4)C=C3)cc1
REMARK SMILES IDX 32 1 31 2 29 3 30 4 18 5 17 6 15 7 16 8 14 10 13 11 1 12
REMARK SMILES IDX 2 13 3 14 4 15 9 16 11 17 5 18 8 19 10 20 12 21 6 22 7 23
REMARK SMILES IDX 19 25 20 26 21 27 28 28 22 29 26 30 27 31 23 32 25 33 24 34
REMARK SMILES IDX 33 35 34 36 35 37 36 38 37 39 38 40 99 41 39 42 98 43 40 44
REMARK SMILES IDX 41 45 42 46 92 47 43 48 97 49 91 50 93 51 44 52 96 53 90 54
REMARK SMILES IDX 89 55 45 57 77 58 57 59 76 60 58 61 61 62 75 63 94 64 59 65
REMARK SMILES IDX 60 66 74 68 95 69 62 70 46 71 47 72 55 73 48 74 54 75 56 76
REMARK SMILES IDX 53 77 49 78 50 79 51 80 52 81 78 82 79 83 87 84 80 85 86 86
REMARK SMILES IDX 88 87 85 88 81 89 82 90 83 91 84 92 63 93 64 94 72 95 65 96
REMARK SMILES IDX 71 97 73 98 70 99 66 100 67 101 68 102 69 103
REMARK H PARENT 17 9 7 24 93 56 61 67
REMARK Flexibility Score: inf
ROOT
ATOM      1  C   UNL A   1      36.858  21.749  24.727  1.00  0.00     0.274 C 
ENDROOT
BRANCH   1   2
ATOM      2  O   UNL A   1      36.106  22.706  25.502  1.00  0.00    -0.461 OA
BRANCH   2   3
ATOM      3  C   UNL A   1      34.937  22.259  26.027  1.00  0.00     0.329 C 
ATOM      4  O   UNL A   1      34.851  21.566  27.038  1.00  0.00    -0.250 OA
BRANCH   3   5
ATOM      5  C   UNL A   1      33.723  22.559  25.133  1.00  0.00     0.196 C 
BRANCH   5   6
ATOM      6  N   UNL A   1      33.969  23.136  23.804  1.00  0.00    -0.342 N 
ATOM      7  C   UNL A   1      33.319  24.140  23.144  1.00  0.00     0.221 C 
ATOM      8  O   UNL A   1      33.386  24.181  21.915  1.00  0.00    -0.275 OA
ATOM      9  H   UNL A   1      34.721  22.736  23.313  1.00  0.00     0.164 HD
BRANCH   7  10
ATOM     10  C   UNL A   1      32.635  25.255  23.922  1.00  0.00     0.116 C 
BRANCH  10  11
ATOM     11  C   UNL A   1      31.104  25.176  24.107  1.00  0.00     0.116 C 
ATOM     12  C   UNL A   1      28.890  26.490  23.933  1.00  0.00     0.014 C 
ATOM     13  C   UNL A   1      30.418  26.553  23.912  1.00  0.00     0.034 C 
ATOM     14  C   UNL A   1      30.902  27.462  25.008  1.00  0.00    -0.001 A 
ATOM     15  C   UNL A   1      31.175  28.814  24.793  1.00  0.00     0.011 A 
ATOM     16  C   UNL A   1      31.199  26.897  26.252  1.00  0.00     0.138 A 
ATOM     17  C   UNL A   1      30.739  24.653  25.474  1.00  0.00     0.315 C 
ATOM     18  C   UNL A   1      31.857  29.537  25.772  1.00  0.00     0.047 A 
ATOM     19  C   UNL A   1      31.892  27.598  27.224  1.00  0.00     0.093 A 
ATOM     20  O   UNL A   1      30.892  25.551  26.521  1.00  0.00    -0.426 OA
ATOM     21  O   UNL A   1      30.388  23.495  25.673  1.00  0.00    -0.251 OA
ATOM     22  C   UNL A   1      32.267  28.895  26.940  1.00  0.00     0.119 A 
BRANCH  22  23
ATOM     23  O   UNL A   1      33.137  29.488  27.800  1.00  0.00    -0.508 OA
ATOM     24  H   UNL A   1      33.842  28.994  28.169  1.00  0.00     0.293 HD
ENDBRANCH  22  23
ENDBRANCH  10  11
ENDBRANCH   7  10
ENDBRANCH   5   6
BRANCH   5  25
ATOM     25  C   UNL A   1      32.802  21.289  25.043  1.00  0.00     0.070 C 
BRANCH  25  26
ATOM     26  C   UNL A   1      33.250  20.093  24.191  1.00  0.00    -0.037 C 
ATOM     27  C   UNL A   1      33.728  18.988  24.788  1.00  0.00     0.001 A 
ATOM     28  C   UNL A   1      32.333  19.658  23.087  1.00  0.00     0.174 C 
ATOM     29  C   UNL A   1      34.957  18.271  24.474  1.00  0.00     0.010 A 
ATOM     30  C   UNL A   1      32.564  18.085  24.522  1.00  0.00     0.065 A 
ATOM     31  N   UNL A   1      31.696  18.435  23.622  1.00  0.00    -0.280 NA
ATOM     32  C   UNL A   1      34.997  16.952  24.753  1.00  0.00     0.001 A 
ATOM     33  C   UNL A   1      32.615  16.827  25.288  1.00  0.00     0.028 A 
ATOM     34  C   UNL A   1      33.851  16.302  25.388  1.00  0.00     0.002 A 
ENDBRANCH  25  26
ENDBRANCH   5  25
ENDBRANCH   3   5
ENDBRANCH   2   3
ENDBRANCH   1   2
BRANCH   1  35
ATOM     35  C   UNL A   1      37.965  21.132  25.576  1.00  0.00     0.275 C 
BRANCH  35  36
ATOM     36  O   UNL A   1      39.055  22.063  25.671  1.00  0.00    -0.458 OA
BRANCH  36  37
ATOM     37  C   UNL A   1      39.830  21.901  26.774  1.00  0.00     0.338 C 
ATOM     38  O   UNL A   1      40.276  20.862  27.210  1.00  0.00    -0.246 OA
BRANCH  37  39
ATOM     39  C   UNL A   1      40.239  23.237  27.252  1.00  0.00     0.060 A 
ATOM     40  C   UNL A   1      41.270  23.422  28.181  1.00  0.00     0.016 A 
ATOM     41  C   UNL A   1      39.549  24.335  26.740  1.00  0.00     0.016 A 
ATOM     42  C   UNL A   1      41.611  24.716  28.593  1.00  0.00     0.010 A 
ATOM     43  C   UNL A   1      39.883  25.619  27.161  1.00  0.00     0.010 A 
ATOM     44  C   UNL A   1      40.912  25.825  28.096  1.00  0.00    -0.014 A 
BRANCH  44  45
ATOM     45  C   UNL A   1      41.322  27.214  28.426  1.00  0.00     0.031 A 
ATOM     46  C   UNL A   1      42.755  27.659  28.351  1.00  0.00     0.074 A 
ATOM     47  C   UNL A   1      40.388  28.042  28.923  1.00  0.00     0.049 A 
ATOM     48  N   UNL A   1      43.314  28.739  28.832  1.00  0.00    -0.248 NA
ATOM     49  C   UNL A   1      43.701  26.721  27.744  1.00  0.00     0.031 C 
ATOM     50  C   UNL A   1      38.976  27.698  29.096  1.00  0.00     0.029 A 
ATOM     51  N   UNL A   1      40.482  29.330  29.378  1.00  0.00    -0.354 N 
ATOM     52  C   UNL A   1      44.689  28.564  28.681  1.00  0.00     0.074 A 
ATOM     53  C   UNL A   1      44.866  27.248  28.104  1.00  0.00     0.031 C 
ATOM     54  C   UNL A   1      38.330  28.757  29.605  1.00  0.00     0.029 A 
ATOM     55  C   UNL A   1      39.280  29.853  29.789  1.00  0.00     0.049 A 
ATOM     56  H   UNL A   1      41.327  29.833  29.407  1.00  0.00     0.167 HD
ATOM     57  C   UNL A   1      45.690  29.435  28.972  1.00  0.00     0.034 A 
ATOM     58  C   UNL A   1      38.971  31.090  30.224  1.00  0.00     0.034 A 
ATOM     59  C   UNL A   1      45.438  30.807  29.358  1.00  0.00     0.049 A 
ATOM     60  C   UNL A   1      40.055  32.134  30.256  1.00  0.00     0.074 A 
ATOM     61  C   UNL A   1      46.350  31.839  29.504  1.00  0.00     0.029 A 
ATOM     62  N   UNL A   1      44.183  31.357  29.586  1.00  0.00    -0.354 N 
ATOM     63  N   UNL A   1      41.344  31.983  30.055  1.00  0.00    -0.248 NA
ATOM     64  C   UNL A   1      39.649  33.519  30.524  1.00  0.00     0.031 C 
ATOM     65  C   UNL A   1      45.653  33.002  29.837  1.00  0.00     0.029 A 
ATOM     66  C   UNL A   1      44.298  32.714  29.839  1.00  0.00     0.049 A 
ATOM     67  H   UNL A   1      43.336  30.855  29.571  1.00  0.00     0.167 HD
ATOM     68  C   UNL A   1      41.898  33.256  30.145  1.00  0.00     0.074 A 
ATOM     69  C   UNL A   1      40.800  34.168  30.390  1.00  0.00     0.031 C 
ATOM     70  C   UNL A   1      43.198  33.628  30.042  1.00  0.00     0.034 A 
BRANCH  57  71
ATOM     71  C   UNL A   1      47.144  29.014  28.817  1.00  0.00     0.023 A 
ATOM     72  C   UNL A   1      47.722  28.931  27.529  1.00  0.00     0.031 A 
ATOM     73  C   UNL A   1      47.909  28.542  29.898  1.00  0.00     0.131 A 
ATOM     74  C   UNL A   1      48.996  28.364  27.359  1.00  0.00     0.055 A 
ATOM     75  C   UNL A   1      49.208  28.052  29.733  1.00  0.00     0.041 A 
ATOM     76  F   UNL A   1      47.405  28.537  31.143  1.00  0.00    -0.206 F 
ATOM     77  C   UNL A   1      49.751  27.947  28.458  1.00  0.00     0.022 A 
BRANCH  74  78
ATOM     78  S   UNL A   1      49.682  28.036  25.709  1.00  0.00     0.124 S 
ATOM     79  O   UNL A   1      50.207  26.681  25.863  1.00  0.00    -0.237 OA
ATOM     80  O   UNL A   1      48.498  28.151  24.860  1.00  0.00    -0.237 OA
ATOM     81  O   UNL A   1      50.687  29.078  25.531  1.00  0.00    -0.744 OA
ENDBRANCH  74  78
ENDBRANCH  57  71
BRANCH  58  82
ATOM     82  C   UNL A   1      37.538  31.410  30.464  1.00  0.00     0.023 A 
ATOM     83  C   UNL A   1      36.704  31.853  29.424  1.00  0.00     0.031 A 
ATOM     84  C   UNL A   1      37.045  31.459  31.781  1.00  0.00     0.131 A 
ATOM     85  C   UNL A   1      35.447  32.391  29.727  1.00  0.00     0.055 A 
ATOM     86  C   UNL A   1      35.767  31.932  32.070  1.00  0.00     0.041 A 
ATOM     87  F   UNL A   1      37.823  31.079  32.807  1.00  0.00    -0.206 F 
ATOM     88  C   UNL A   1      34.967  32.420  31.042  1.00  0.00     0.022 A 
BRANCH  85  89
ATOM     89  S   UNL A   1      34.462  33.227  28.453  1.00  0.00     0.124 S 
ATOM     90  O   UNL A   1      35.486  33.631  27.496  1.00  0.00    -0.237 OA
ATOM     91  O   UNL A   1      33.572  32.155  28.013  1.00  0.00    -0.237 OA
ATOM     92  O   UNL A   1      33.812  34.313  29.180  1.00  0.00    -0.744 OA
ENDBRANCH  85  89
ENDBRANCH  58  82
BRANCH  70  93
ATOM     93  C   UNL A   1      43.553  35.090  30.169  1.00  0.00     0.023 A 
ATOM     94  C   UNL A   1      43.799  35.644  31.442  1.00  0.00     0.031 A 
ATOM     95  C   UNL A   1      43.468  35.961  29.070  1.00  0.00     0.131 A 
ATOM     96  C   UNL A   1      43.907  37.032  31.588  1.00  0.00     0.055 A 
ATOM     97  C   UNL A   1      43.622  37.341  29.215  1.00  0.00     0.041 A 
ATOM     98  F   UNL A   1      43.219  35.484  27.840  1.00  0.00    -0.206 F 
ATOM     99  C   UNL A   1      43.827  37.883  30.480  1.00  0.00     0.022 A 
BRANCH  96 100
ATOM    100  S   UNL A   1      44.057  37.793  33.229  1.00  0.00     0.124 S 
ATOM    101  O   UNL A   1      45.450  38.238  33.228  1.00  0.00    -0.237 OA
ATOM    102  O   UNL A   1      43.062  38.861  33.165  1.00  0.00    -0.237 OA
ATOM    103  O   UNL A   1      43.755  36.705  34.152  1.00  0.00    -0.744 OA
ENDBRANCH  96 100
ENDBRANCH  70  93
ENDBRANCH  44  45
ENDBRANCH  37  39
ENDBRANCH  36  37
ENDBRANCH  35  36
ENDBRANCH   1  35
TORSDOF 20
ENDMDL
