MODEL 1
REMARK VINA RESULT:     -10.5      0.000      0.000
REMARK SMILES CCCCCCCNC(=O)Oc1cccc(-c2ccc([C@@H](C)C(=O)OCCOC(=O)c3ccc(-c4c5nc(c(-c6cc(S(=O)(=O)[O-])ccc6F)c6ccc([nH]6)c(-c6cc(S(=O)(=O)[O-])ccc6F)c6nc(c(-c7cc(S(=O)(=O)[O-])ccc7F)c7ccc4[nH]7)C=C6)C=C5)cc3)cc2F)c1
REMARK SMILES IDX 21 1 22 2 20 3 17 4 18 5 95 6 19 7 94 8 96 9 16 10 12 11
REMARK SMILES IDX 13 12 97 13 14 14 15 15 11 16 9 17 8 18 10 20 7 21 6 22 5 23
REMARK SMILES IDX 4 24 3 25 2 26 1 27 23 28 24 29 25 30 26 31 27 32 28 33
REMARK SMILES IDX 29 34 30 35 31 36 32 37 93 38 33 39 92 40 34 41 35 42 36 43
REMARK SMILES IDX 86 44 37 45 91 46 85 47 87 48 38 49 90 50 84 51 83 52 39 54
REMARK SMILES IDX 71 55 51 56 70 57 52 58 55 59 69 60 88 61 53 62 54 63 68 65
REMARK SMILES IDX 89 66 56 67 40 68 41 69 49 70 42 71 48 72 50 73 47 74 43 75
REMARK SMILES IDX 44 76 45 77 46 78 72 79 73 80 81 81 74 82 80 83 82 84 79 85
REMARK SMILES IDX 75 86 76 87 77 88 78 89 57 90 58 91 66 92 59 93 65 94 67 95
REMARK SMILES IDX 64 96 60 97 61 98 62 99 63 100
REMARK H PARENT 8 19 87 53 55 64
REMARK Flexibility Score: inf
ROOT
ATOM      1  C   UNL A   1      32.991  26.669  25.678  1.00  0.00     0.126 C 
ATOM      2  C   UNL A   1      34.427  27.186  25.598  1.00  0.00     0.025 C 
ENDROOT
BRANCH   1   3
ATOM      3  C   UNL A   1      32.855  25.253  25.137  1.00  0.00    -0.031 A 
ATOM      4  C   UNL A   1      32.613  22.624  24.058  1.00  0.00     0.018 A 
ATOM      5  C   UNL A   1      31.891  23.016  25.198  1.00  0.00     0.012 A 
ATOM      6  C   UNL A   1      33.467  23.573  23.486  1.00  0.00     0.131 A 
ATOM      7  C   UNL A   1      32.004  24.308  25.725  1.00  0.00     0.005 A 
ATOM      8  C   UNL A   1      33.587  24.863  24.006  1.00  0.00     0.044 A 
ATOM      9  F   UNL A   1      34.171  23.273  22.383  1.00  0.00    -0.206 F 
BRANCH   4  10
ATOM     10  C   UNL A   1      32.443  21.279  23.484  1.00  0.00    -0.012 A 
ATOM     11  C   UNL A   1      32.536  18.859  23.649  1.00  0.00     0.133 A 
ATOM     12  C   UNL A   1      32.142  18.721  22.321  1.00  0.00     0.047 A 
ATOM     13  C   UNL A   1      32.704  20.118  24.231  1.00  0.00     0.056 A 
ATOM     14  C   UNL A   1      31.882  19.861  21.568  1.00  0.00     0.004 A 
ATOM     15  C   UNL A   1      32.030  21.125  22.145  1.00  0.00     0.009 A 
BRANCH  11  16
ATOM     16  O   UNL A   1      32.881  17.683  24.332  1.00  0.00    -0.410 OA
BRANCH  16  17
ATOM     17  C   UNL A   1      34.013  17.004  23.906  1.00  0.00     0.412 C 
ATOM     18  N   UNL A   1      35.179  17.620  24.276  1.00  0.00    -0.321 N 
ATOM     19  H   UNL A   1      36.015  17.166  24.024  1.00  0.00     0.167 HD
ATOM     20  O   UNL A   1      34.031  15.982  23.231  1.00  0.00    -0.224 OA
BRANCH  18  21
ATOM     21  C   UNL A   1      35.313  18.870  25.001  1.00  0.00     0.119 C 
BRANCH  21  22
ATOM     22  C   UNL A   1      36.585  19.632  24.637  1.00  0.00     0.021 C 
BRANCH  22  23
ATOM     23  C   UNL A   1      36.479  21.160  24.723  1.00  0.00     0.002 C 
BRANCH  23  24
ATOM     24  C   UNL A   1      35.945  21.715  26.048  1.00  0.00     0.000 C 
BRANCH  24  25
ATOM     25  C   UNL A   1      35.835  23.242  26.128  1.00  0.00    -0.000 C 
BRANCH  25  26
ATOM     26  C   UNL A   1      37.047  24.017  25.606  1.00  0.00    -0.003 C 
ATOM     27  C   UNL A   1      38.185  24.111  26.611  1.00  0.00     0.004 C 
ENDBRANCH  25  26
ENDBRANCH  24  25
ENDBRANCH  23  24
ENDBRANCH  22  23
ENDBRANCH  21  22
ENDBRANCH  18  21
ENDBRANCH  16  17
ENDBRANCH  11  16
ENDBRANCH   4  10
ENDBRANCH   1   3
BRANCH   1  28
ATOM     28  C   UNL A   1      32.038  27.709  25.097  1.00  0.00     0.313 C 
ATOM     29  O   UNL A   1      32.053  28.014  23.908  1.00  0.00    -0.252 OA
BRANCH  28  30
ATOM     30  O   UNL A   1      31.150  28.206  25.997  1.00  0.00    -0.462 OA
BRANCH  30  31
ATOM     31  C   UNL A   1      31.697  28.909  27.129  1.00  0.00     0.274 C 
BRANCH  31  32
ATOM     32  C   UNL A   1      31.784  30.415  26.868  1.00  0.00     0.275 C 
BRANCH  32  33
ATOM     33  O   UNL A   1      33.108  30.807  26.462  1.00  0.00    -0.458 OA
BRANCH  33  34
ATOM     34  C   UNL A   1      33.685  31.741  27.255  1.00  0.00     0.338 C 
ATOM     35  O   UNL A   1      33.192  32.790  27.627  1.00  0.00    -0.246 OA
BRANCH  34  36
ATOM     36  C   UNL A   1      34.987  31.258  27.738  1.00  0.00     0.060 A 
ATOM     37  C   UNL A   1      35.117  29.894  28.008  1.00  0.00     0.016 A 
ATOM     38  C   UNL A   1      36.025  32.143  28.031  1.00  0.00     0.016 A 
ATOM     39  C   UNL A   1      36.272  29.406  28.609  1.00  0.00     0.010 A 
ATOM     40  C   UNL A   1      37.191  31.651  28.627  1.00  0.00     0.010 A 
ATOM     41  C   UNL A   1      37.310  30.285  28.944  1.00  0.00    -0.014 A 
BRANCH  41  42
ATOM     42  C   UNL A   1      38.468  29.780  29.720  1.00  0.00     0.031 A 
ATOM     43  C   UNL A   1      38.694  30.288  31.118  1.00  0.00     0.074 A 
ATOM     44  C   UNL A   1      39.279  28.846  29.194  1.00  0.00     0.049 A 
ATOM     45  N   UNL A   1      39.673  30.032  31.946  1.00  0.00    -0.248 NA
ATOM     46  C   UNL A   1      37.680  31.212  31.646  1.00  0.00     0.031 C 
ATOM     47  C   UNL A   1      39.121  28.242  27.869  1.00  0.00     0.029 A 
ATOM     48  N   UNL A   1      40.396  28.238  29.708  1.00  0.00    -0.354 N 
ATOM     49  C   UNL A   1      39.405  30.777  33.090  1.00  0.00     0.074 A 
ATOM     50  C   UNL A   1      38.185  31.515  32.832  1.00  0.00     0.031 C 
ATOM     51  C   UNL A   1      40.105  27.348  27.678  1.00  0.00     0.029 A 
ATOM     52  C   UNL A   1      40.987  27.349  28.842  1.00  0.00     0.049 A 
ATOM     53  H   UNL A   1      40.742  28.422  30.611  1.00  0.00     0.167 HD
ATOM     54  C   UNL A   1      40.112  30.838  34.247  1.00  0.00     0.034 A 
ATOM     55  C   UNL A   1      42.125  26.637  28.966  1.00  0.00     0.034 A 
ATOM     56  C   UNL A   1      41.329  30.097  34.481  1.00  0.00     0.049 A 
ATOM     57  C   UNL A   1      42.922  26.757  30.240  1.00  0.00     0.074 A 
ATOM     58  C   UNL A   1      42.144  30.097  35.600  1.00  0.00     0.029 A 
ATOM     59  N   UNL A   1      41.912  29.220  33.571  1.00  0.00    -0.354 N 
ATOM     60  N   UNL A   1      42.681  27.494  31.300  1.00  0.00    -0.248 NA
ATOM     61  C   UNL A   1      44.141  25.944  30.336  1.00  0.00     0.031 C 
ATOM     62  C   UNL A   1      43.241  29.264  35.348  1.00  0.00     0.029 A 
ATOM     63  C   UNL A   1      43.080  28.687  34.098  1.00  0.00     0.049 A 
ATOM     64  H   UNL A   1      41.548  29.007  32.681  1.00  0.00     0.167 HD
ATOM     65  C   UNL A   1      43.704  27.209  32.201  1.00  0.00     0.074 A 
ATOM     66  C   UNL A   1      44.554  26.225  31.563  1.00  0.00     0.031 C 
ATOM     67  C   UNL A   1      43.920  27.711  33.444  1.00  0.00     0.034 A 
BRANCH  54  68
ATOM     68  C   UNL A   1      39.614  31.793  35.308  1.00  0.00     0.023 A 
ATOM     69  C   UNL A   1      40.083  33.115  35.403  1.00  0.00     0.031 A 
ATOM     70  C   UNL A   1      38.692  31.353  36.274  1.00  0.00     0.131 A 
ATOM     71  C   UNL A   1      39.689  33.923  36.482  1.00  0.00     0.055 A 
ATOM     72  C   UNL A   1      38.243  32.187  37.300  1.00  0.00     0.041 A 
ATOM     73  F   UNL A   1      38.226  30.094  36.252  1.00  0.00    -0.206 F 
ATOM     74  C   UNL A   1      38.754  33.476  37.418  1.00  0.00     0.022 A 
BRANCH  71  75
ATOM     75  S   UNL A   1      40.526  35.516  36.734  1.00  0.00     0.124 S 
ATOM     76  O   UNL A   1      41.828  35.266  36.121  1.00  0.00    -0.237 OA
ATOM     77  O   UNL A   1      39.652  36.446  36.028  1.00  0.00    -0.237 OA
ATOM     78  O   UNL A   1      40.551  35.666  38.187  1.00  0.00    -0.744 OA
ENDBRANCH  71  75
ENDBRANCH  54  68
BRANCH  55  79
ATOM     79  C   UNL A   1      42.601  25.776  27.846  1.00  0.00     0.023 A 
ATOM     80  C   UNL A   1      42.127  24.466  27.682  1.00  0.00     0.031 A 
ATOM     81  C   UNL A   1      43.576  26.245  26.947  1.00  0.00     0.131 A 
ATOM     82  C   UNL A   1      42.658  23.654  26.667  1.00  0.00     0.055 A 
ATOM     83  C   UNL A   1      44.065  25.450  25.910  1.00  0.00     0.041 A 
ATOM     84  F   UNL A   1      44.061  27.491  27.060  1.00  0.00    -0.206 F 
ATOM     85  C   UNL A   1      43.614  24.141  25.773  1.00  0.00     0.022 A 
BRANCH  82  86
ATOM     86  S   UNL A   1      42.131  21.920  26.576  1.00  0.00     0.124 S 
ATOM     87  O   UNL A   1      42.327  21.477  27.952  1.00  0.00    -0.237 OA
ATOM     88  O   UNL A   1      40.747  22.046  26.134  1.00  0.00    -0.237 OA
ATOM     89  O   UNL A   1      43.045  21.337  25.596  1.00  0.00    -0.744 OA
ENDBRANCH  82  86
ENDBRANCH  55  79
BRANCH  67  90
ATOM     90  C   UNL A   1      45.094  27.151  34.208  1.00  0.00     0.023 A 
ATOM     91  C   UNL A   1      44.949  26.087  35.117  1.00  0.00     0.031 A 
ATOM     92  C   UNL A   1      46.372  27.714  34.047  1.00  0.00     0.131 A 
ATOM     93  C   UNL A   1      46.050  25.661  35.875  1.00  0.00     0.055 A 
ATOM     94  C   UNL A   1      47.475  27.249  34.762  1.00  0.00     0.041 A 
ATOM     95  F   UNL A   1      46.565  28.733  33.193  1.00  0.00    -0.206 F 
ATOM     96  C   UNL A   1      47.315  26.227  35.693  1.00  0.00     0.022 A 
BRANCH  93  97
ATOM     97  S   UNL A   1      45.789  24.424  37.176  1.00  0.00     0.124 S 
ATOM     98  O   UNL A   1      45.372  23.256  36.407  1.00  0.00    -0.237 OA
ATOM     99  O   UNL A   1      47.108  24.342  37.795  1.00  0.00    -0.237 OA
ATOM    100  O   UNL A   1      44.749  25.020  38.011  1.00  0.00    -0.744 OA
ENDBRANCH  93  97
ENDBRANCH  67  90
ENDBRANCH  41  42
ENDBRANCH  34  36
ENDBRANCH  33  34
ENDBRANCH  32  33
ENDBRANCH  31  32
ENDBRANCH  30  31
ENDBRANCH  28  30
ENDBRANCH   1  28
TORSDOF 24
ENDMDL
MODEL 2
REMARK VINA RESULT:     -10.4      3.205      5.362
REMARK SMILES CCCCCCCNC(=O)Oc1cccc(-c2ccc([C@@H](C)C(=O)OCCOC(=O)c3ccc(-c4c5nc(c(-c6cc(S(=O)(=O)[O-])ccc6F)c6ccc([nH]6)c(-c6cc(S(=O)(=O)[O-])ccc6F)c6nc(c(-c7cc(S(=O)(=O)[O-])ccc7F)c7ccc4[nH]7)C=C6)C=C5)cc3)cc2F)c1
REMARK SMILES IDX 21 1 22 2 20 3 17 4 18 5 95 6 19 7 94 8 96 9 16 10 12 11
REMARK SMILES IDX 13 12 97 13 14 14 15 15 11 16 9 17 8 18 10 20 7 21 6 22 5 23
REMARK SMILES IDX 4 24 3 25 2 26 1 27 23 28 24 29 25 30 26 31 27 32 28 33
REMARK SMILES IDX 29 34 30 35 31 36 32 37 93 38 33 39 92 40 34 41 35 42 36 43
REMARK SMILES IDX 86 44 37 45 91 46 85 47 87 48 38 49 90 50 84 51 83 52 39 54
REMARK SMILES IDX 71 55 51 56 70 57 52 58 55 59 69 60 88 61 53 62 54 63 68 65
REMARK SMILES IDX 89 66 56 67 40 68 41 69 49 70 42 71 48 72 50 73 47 74 43 75
REMARK SMILES IDX 44 76 45 77 46 78 72 79 73 80 81 81 74 82 80 83 82 84 79 85
REMARK SMILES IDX 75 86 76 87 77 88 78 89 57 90 58 91 66 92 59 93 65 94 67 95
REMARK SMILES IDX 64 96 60 97 61 98 62 99 63 100
REMARK H PARENT 8 19 87 53 55 64
REMARK Flexibility Score: inf
ROOT
ATOM      1  C   UNL A   1      34.354  32.807  28.846  1.00  0.00     0.126 C 
ATOM      2  C   UNL A   1      35.802  33.233  29.089  1.00  0.00     0.025 C 
ENDROOT
BRANCH   1   3
ATOM      3  C   UNL A   1      34.257  31.555  27.987  1.00  0.00    -0.031 A 
ATOM      4  C   UNL A   1      34.006  29.205  26.390  1.00  0.00     0.018 A 
ATOM      5  C   UNL A   1      35.192  29.493  27.085  1.00  0.00     0.012 A 
ATOM      6  C   UNL A   1      32.960  30.128  26.502  1.00  0.00     0.131 A 
ATOM      7  C   UNL A   1      35.315  30.644  27.875  1.00  0.00     0.005 A 
ATOM      8  C   UNL A   1      33.075  31.278  27.286  1.00  0.00     0.044 A 
ATOM      9  F   UNL A   1      31.790  29.905  25.882  1.00  0.00    -0.206 F 
BRANCH   4  10
ATOM     10  C   UNL A   1      33.873  27.965  25.607  1.00  0.00    -0.012 A 
ATOM     11  C   UNL A   1      33.683  25.550  25.448  1.00  0.00     0.133 A 
ATOM     12  C   UNL A   1      33.659  25.613  24.058  1.00  0.00     0.047 A 
ATOM     13  C   UNL A   1      33.804  26.705  26.225  1.00  0.00     0.056 A 
ATOM     14  C   UNL A   1      33.729  26.852  23.431  1.00  0.00     0.004 A 
ATOM     15  C   UNL A   1      33.833  28.015  24.199  1.00  0.00     0.009 A 
BRANCH  11  16
ATOM     16  O   UNL A   1      33.710  24.272  26.025  1.00  0.00    -0.410 OA
BRANCH  16  17
ATOM     17  C   UNL A   1      34.916  23.587  26.004  1.00  0.00     0.412 C 
ATOM     18  N   UNL A   1      34.784  22.258  26.306  1.00  0.00    -0.321 N 
ATOM     19  H   UNL A   1      35.606  21.717  26.279  1.00  0.00     0.167 HD
ATOM     20  O   UNL A   1      36.020  24.074  25.788  1.00  0.00    -0.224 OA
BRANCH  18  21
ATOM     21  C   UNL A   1      33.561  21.562  26.662  1.00  0.00     0.119 C 
BRANCH  21  22
ATOM     22  C   UNL A   1      33.350  20.285  25.852  1.00  0.00     0.021 C 
BRANCH  22  23
ATOM     23  C   UNL A   1      33.581  20.424  24.341  1.00  0.00     0.002 C 
BRANCH  23  24
ATOM     24  C   UNL A   1      32.343  20.777  23.509  1.00  0.00     0.000 C 
BRANCH  24  25
ATOM     25  C   UNL A   1      32.173  22.262  23.176  1.00  0.00    -0.000 C 
BRANCH  25  26
ATOM     26  C   UNL A   1      31.174  23.023  24.052  1.00  0.00    -0.003 C 
ATOM     27  C   UNL A   1      30.523  24.202  23.345  1.00  0.00     0.004 C 
ENDBRANCH  25  26
ENDBRANCH  24  25
ENDBRANCH  23  24
ENDBRANCH  22  23
ENDBRANCH  21  22
ENDBRANCH  18  21
ENDBRANCH  16  17
ENDBRANCH  11  16
ENDBRANCH   4  10
ENDBRANCH   1   3
BRANCH   1  28
ATOM     28  C   UNL A   1      33.536  34.009  28.385  1.00  0.00     0.313 C 
ATOM     29  O   UNL A   1      32.449  33.883  27.828  1.00  0.00    -0.252 OA
BRANCH  28  30
ATOM     30  O   UNL A   1      34.091  35.208  28.704  1.00  0.00    -0.462 OA
BRANCH  30  31
ATOM     31  C   UNL A   1      33.196  36.334  28.795  1.00  0.00     0.274 C 
BRANCH  31  32
ATOM     32  C   UNL A   1      32.928  36.724  30.251  1.00  0.00     0.275 C 
BRANCH  32  33
ATOM     33  O   UNL A   1      32.534  35.587  31.040  1.00  0.00    -0.458 OA
BRANCH  33  34
ATOM     34  C   UNL A   1      33.013  35.591  32.307  1.00  0.00     0.338 C 
ATOM     35  O   UNL A   1      32.482  36.077  33.288  1.00  0.00    -0.246 OA
BRANCH  34  36
ATOM     36  C   UNL A   1      34.245  34.793  32.382  1.00  0.00     0.060 A 
ATOM     37  C   UNL A   1      34.137  33.464  32.799  1.00  0.00     0.016 A 
ATOM     38  C   UNL A   1      35.497  35.369  32.161  1.00  0.00     0.016 A 
ATOM     39  C   UNL A   1      35.280  32.709  33.034  1.00  0.00     0.010 A 
ATOM     40  C   UNL A   1      36.648  34.606  32.388  1.00  0.00     0.010 A 
ATOM     41  C   UNL A   1      36.545  33.281  32.852  1.00  0.00    -0.014 A 
BRANCH  41  42
ATOM     42  C   UNL A   1      37.753  32.519  33.252  1.00  0.00     0.031 A 
ATOM     43  C   UNL A   1      38.406  32.815  34.574  1.00  0.00     0.074 A 
ATOM     44  C   UNL A   1      38.229  31.542  32.459  1.00  0.00     0.049 A 
ATOM     45  N   UNL A   1      39.499  32.318  35.091  1.00  0.00    -0.248 NA
ATOM     46  C   UNL A   1      37.736  33.812  35.422  1.00  0.00     0.031 C 
ATOM     47  C   UNL A   1      37.642  31.131  31.183  1.00  0.00     0.029 A 
ATOM     48  N   UNL A   1      39.313  30.717  32.610  1.00  0.00    -0.354 N 
ATOM     49  C   UNL A   1      39.661  32.953  36.318  1.00  0.00     0.074 A 
ATOM     50  C   UNL A   1      38.566  33.892  36.450  1.00  0.00     0.031 C 
ATOM     51  C   UNL A   1      38.373  30.129  30.669  1.00  0.00     0.029 A 
ATOM     52  C   UNL A   1      39.504  29.858  31.554  1.00  0.00     0.049 A 
ATOM     53  H   UNL A   1      39.900  30.737  33.401  1.00  0.00     0.167 HD
ATOM     54  C   UNL A   1      40.634  32.769  37.246  1.00  0.00     0.034 A 
ATOM     55  C   UNL A   1      40.492  28.973  31.316  1.00  0.00     0.034 A 
ATOM     56  C   UNL A   1      41.720  31.829  37.091  1.00  0.00     0.049 A 
ATOM     57  C   UNL A   1      41.590  28.819  32.337  1.00  0.00     0.074 A 
ATOM     58  C   UNL A   1      42.775  31.573  37.951  1.00  0.00     0.029 A 
ATOM     59  N   UNL A   1      41.893  30.990  35.995  1.00  0.00    -0.354 N 
ATOM     60  N   UNL A   1      41.755  29.452  33.477  1.00  0.00    -0.248 NA
ATOM     61  C   UNL A   1      42.631  27.826  32.044  1.00  0.00     0.031 C 
ATOM     62  C   UNL A   1      43.609  30.620  37.353  1.00  0.00     0.029 A 
ATOM     63  C   UNL A   1      43.043  30.229  36.151  1.00  0.00     0.049 A 
ATOM     64  H   UNL A   1      41.287  30.943  35.220  1.00  0.00     0.167 HD
ATOM     65  C   UNL A   1      42.903  28.910  34.049  1.00  0.00     0.074 A 
ATOM     66  C   UNL A   1      43.380  27.893  33.134  1.00  0.00     0.031 C 
ATOM     67  C   UNL A   1      43.507  29.222  35.224  1.00  0.00     0.034 A 
BRANCH  54  68
ATOM     68  C   UNL A   1      40.592  33.654  38.471  1.00  0.00     0.023 A 
ATOM     69  C   UNL A   1      39.821  33.330  39.602  1.00  0.00     0.031 A 
ATOM     70  C   UNL A   1      41.296  34.871  38.484  1.00  0.00     0.131 A 
ATOM     71  C   UNL A   1      39.711  34.244  40.662  1.00  0.00     0.055 A 
ATOM     72  C   UNL A   1      41.245  35.741  39.576  1.00  0.00     0.041 A 
ATOM     73  F   UNL A   1      42.030  35.249  37.425  1.00  0.00    -0.206 F 
ATOM     74  C   UNL A   1      40.436  35.437  40.667  1.00  0.00     0.022 A 
BRANCH  71  75
ATOM     75  S   UNL A   1      38.491  33.925  41.969  1.00  0.00     0.124 S 
ATOM     76  O   UNL A   1      37.963  32.623  41.570  1.00  0.00    -0.237 OA
ATOM     77  O   UNL A   1      39.310  33.943  43.175  1.00  0.00    -0.237 OA
ATOM     78  O   UNL A   1      37.549  35.035  41.840  1.00  0.00    -0.744 OA
ENDBRANCH  71  75
ENDBRANCH  54  68
BRANCH  55  79
ATOM     79  C   UNL A   1      40.514  28.191  30.048  1.00  0.00     0.023 A 
ATOM     80  C   UNL A   1      41.431  28.484  29.028  1.00  0.00     0.031 A 
ATOM     81  C   UNL A   1      39.582  27.161  29.824  1.00  0.00     0.131 A 
ATOM     82  C   UNL A   1      41.371  27.782  27.812  1.00  0.00     0.055 A 
ATOM     83  C   UNL A   1      39.558  26.435  28.633  1.00  0.00     0.041 A 
ATOM     84  F   UNL A   1      38.685  26.841  30.769  1.00  0.00    -0.206 F 
ATOM     85  C   UNL A   1      40.450  26.753  27.613  1.00  0.00     0.022 A 
BRANCH  82  86
ATOM     86  S   UNL A   1      42.473  28.288  26.462  1.00  0.00     0.124 S 
ATOM     87  O   UNL A   1      42.715  29.690  26.783  1.00  0.00    -0.237 OA
ATOM     88  O   UNL A   1      43.604  27.384  26.638  1.00  0.00    -0.237 OA
ATOM     89  O   UNL A   1      41.671  28.052  25.263  1.00  0.00    -0.744 OA
ENDBRANCH  82  86
ENDBRANCH  55  79
BRANCH  67  90
ATOM     90  C   UNL A   1      44.717  28.404  35.604  1.00  0.00     0.023 A 
ATOM     91  C   UNL A   1      44.612  27.247  36.396  1.00  0.00     0.031 A 
ATOM     92  C   UNL A   1      45.998  28.810  35.192  1.00  0.00     0.131 A 
ATOM     93  C   UNL A   1      45.772  26.571  36.802  1.00  0.00     0.055 A 
ATOM     94  C   UNL A   1      47.144  28.103  35.553  1.00  0.00     0.041 A 
ATOM     95  F   UNL A   1      46.155  29.910  34.436  1.00  0.00    -0.206 F 
ATOM     96  C   UNL A   1      47.037  26.984  36.375  1.00  0.00     0.022 A 
BRANCH  93  97
ATOM     97  S   UNL A   1      45.617  25.201  37.982  1.00  0.00     0.124 S 
ATOM     98  O   UNL A   1      45.261  24.086  37.110  1.00  0.00    -0.237 OA
ATOM     99  O   UNL A   1      46.950  25.147  38.572  1.00  0.00    -0.237 OA
ATOM    100  O   UNL A   1      44.557  25.644  38.885  1.00  0.00    -0.744 OA
ENDBRANCH  93  97
ENDBRANCH  67  90
ENDBRANCH  41  42
ENDBRANCH  34  36
ENDBRANCH  33  34
ENDBRANCH  32  33
ENDBRANCH  31  32
ENDBRANCH  30  31
ENDBRANCH  28  30
ENDBRANCH   1  28
TORSDOF 24
ENDMDL
MODEL 3
REMARK VINA RESULT:     -10.4      4.546     10.241
REMARK SMILES CCCCCCCNC(=O)Oc1cccc(-c2ccc([C@@H](C)C(=O)OCCOC(=O)c3ccc(-c4c5nc(c(-c6cc(S(=O)(=O)[O-])ccc6F)c6ccc([nH]6)c(-c6cc(S(=O)(=O)[O-])ccc6F)c6nc(c(-c7cc(S(=O)(=O)[O-])ccc7F)c7ccc4[nH]7)C=C6)C=C5)cc3)cc2F)c1
REMARK SMILES IDX 21 1 22 2 20 3 17 4 18 5 95 6 19 7 94 8 96 9 16 10 12 11
REMARK SMILES IDX 13 12 97 13 14 14 15 15 11 16 9 17 8 18 10 20 7 21 6 22 5 23
REMARK SMILES IDX 4 24 3 25 2 26 1 27 23 28 24 29 25 30 26 31 27 32 28 33
REMARK SMILES IDX 29 34 30 35 31 36 32 37 93 38 33 39 92 40 34 41 35 42 36 43
REMARK SMILES IDX 86 44 37 45 91 46 85 47 87 48 38 49 90 50 84 51 83 52 39 54
REMARK SMILES IDX 71 55 51 56 70 57 52 58 55 59 69 60 88 61 53 62 54 63 68 65
REMARK SMILES IDX 89 66 56 67 40 68 41 69 49 70 42 71 48 72 50 73 47 74 43 75
REMARK SMILES IDX 44 76 45 77 46 78 72 79 73 80 81 81 74 82 80 83 82 84 79 85
REMARK SMILES IDX 75 86 76 87 77 88 78 89 57 90 58 91 66 92 59 93 65 94 67 95
REMARK SMILES IDX 64 96 60 97 61 98 62 99 63 100
REMARK H PARENT 8 19 87 53 55 64
REMARK Flexibility Score: inf
ROOT
ATOM      1  C   UNL A   1      33.848  21.370  26.276  1.00  0.00     0.126 C 
ATOM      2  C   UNL A   1      32.649  20.431  26.402  1.00  0.00     0.025 C 
ENDROOT
BRANCH   1   3
ATOM      3  C   UNL A   1      33.435  22.834  26.250  1.00  0.00    -0.031 A 
ATOM      4  C   UNL A   1      32.727  25.597  26.216  1.00  0.00     0.018 A 
ATOM      5  C   UNL A   1      31.818  24.615  26.644  1.00  0.00     0.012 A 
ATOM      6  C   UNL A   1      33.987  25.160  25.792  1.00  0.00     0.131 A 
ATOM      7  C   UNL A   1      32.166  23.259  26.668  1.00  0.00     0.005 A 
ATOM      8  C   UNL A   1      34.341  23.810  25.810  1.00  0.00     0.044 A 
ATOM      9  F   UNL A   1      34.911  26.046  25.389  1.00  0.00    -0.206 F 
BRANCH   4  10
ATOM     10  C   UNL A   1      32.365  27.024  26.247  1.00  0.00    -0.012 A 
ATOM     11  C   UNL A   1      31.338  28.989  25.258  1.00  0.00     0.133 A 
ATOM     12  C   UNL A   1      31.732  29.776  26.337  1.00  0.00     0.047 A 
ATOM     13  C   UNL A   1      31.659  27.631  25.194  1.00  0.00     0.056 A 
ATOM     14  C   UNL A   1      32.433  29.192  27.385  1.00  0.00     0.004 A 
ATOM     15  C   UNL A   1      32.744  27.829  27.340  1.00  0.00     0.009 A 
BRANCH  11  16
ATOM     16  O   UNL A   1      30.723  29.649  24.184  1.00  0.00    -0.410 OA
BRANCH  16  17
ATOM     17  C   UNL A   1      30.215  28.866  23.158  1.00  0.00     0.412 C 
ATOM     18  N   UNL A   1      31.155  28.535  22.219  1.00  0.00    -0.321 N 
ATOM     19  H   UNL A   1      30.855  27.956  21.482  1.00  0.00     0.167 HD
ATOM     20  O   UNL A   1      29.048  28.512  23.030  1.00  0.00    -0.224 OA
BRANCH  18  21
ATOM     21  C   UNL A   1      32.546  28.948  22.195  1.00  0.00     0.119 C 
BRANCH  21  22
ATOM     22  C   UNL A   1      33.513  27.780  22.372  1.00  0.00     0.021 C 
BRANCH  22  23
ATOM     23  C   UNL A   1      33.032  26.441  21.796  1.00  0.00     0.002 C 
BRANCH  23  24
ATOM     24  C   UNL A   1      33.592  25.186  22.473  1.00  0.00     0.000 C 
BRANCH  24  25
ATOM     25  C   UNL A   1      32.967  23.860  22.027  1.00  0.00    -0.000 C 
BRANCH  25  26
ATOM     26  C   UNL A   1      31.973  23.237  23.010  1.00  0.00    -0.003 C 
ATOM     27  C   UNL A   1      30.758  24.113  23.280  1.00  0.00     0.004 C 
ENDBRANCH  25  26
ENDBRANCH  24  25
ENDBRANCH  23  24
ENDBRANCH  22  23
ENDBRANCH  21  22
ENDBRANCH  18  21
ENDBRANCH  16  17
ENDBRANCH  11  16
ENDBRANCH   4  10
ENDBRANCH   1   3
BRANCH   1  28
ATOM     28  C   UNL A   1      34.749  20.902  25.138  1.00  0.00     0.313 C 
ATOM     29  O   UNL A   1      34.333  20.766  23.991  1.00  0.00    -0.252 OA
BRANCH  28  30
ATOM     30  O   UNL A   1      36.045  20.716  25.501  1.00  0.00    -0.462 OA
BRANCH  30  31
ATOM     31  C   UNL A   1      36.853  19.900  24.632  1.00  0.00     0.274 C 
BRANCH  31  32
ATOM     32  C   UNL A   1      38.256  19.683  25.206  1.00  0.00     0.275 C 
BRANCH  32  33
ATOM     33  O   UNL A   1      38.597  20.698  26.168  1.00  0.00    -0.458 OA
BRANCH  33  34
ATOM     34  C   UNL A   1      39.894  20.687  26.558  1.00  0.00     0.338 C 
ATOM     35  O   UNL A   1      40.693  19.779  26.417  1.00  0.00    -0.246 OA
BRANCH  34  36
ATOM     36  C   UNL A   1      40.273  22.006  27.084  1.00  0.00     0.060 A 
ATOM     37  C   UNL A   1      39.656  23.131  26.531  1.00  0.00     0.016 A 
ATOM     38  C   UNL A   1      41.300  22.147  28.019  1.00  0.00     0.016 A 
ATOM     39  C   UNL A   1      40.083  24.407  26.880  1.00  0.00     0.010 A 
ATOM     40  C   UNL A   1      41.724  23.431  28.377  1.00  0.00     0.010 A 
ATOM     41  C   UNL A   1      41.136  24.567  27.789  1.00  0.00    -0.014 A 
BRANCH  41  42
ATOM     42  C   UNL A   1      41.684  25.922  28.036  1.00  0.00     0.031 A 
ATOM     43  C   UNL A   1      43.061  26.262  27.534  1.00  0.00     0.074 A 
ATOM     44  C   UNL A   1      40.938  26.849  28.662  1.00  0.00     0.049 A 
ATOM     45  N   UNL A   1      43.756  27.358  27.693  1.00  0.00    -0.248 NA
ATOM     46  C   UNL A   1      43.743  25.221  26.752  1.00  0.00     0.031 C 
ATOM     47  C   UNL A   1      39.569  26.647  29.142  1.00  0.00     0.029 A 
ATOM     48  N   UNL A   1      41.223  28.147  29.002  1.00  0.00    -0.354 N 
ATOM     49  C   UNL A   1      44.968  27.135  27.047  1.00  0.00     0.074 A 
ATOM     50  C   UNL A   1      44.918  25.786  26.520  1.00  0.00     0.031 C 
ATOM     51  C   UNL A   1      39.135  27.783  29.712  1.00  0.00     0.029 A 
ATOM     52  C   UNL A   1      40.206  28.776  29.680  1.00  0.00     0.049 A 
ATOM     53  H   UNL A   1      42.076  28.587  28.781  1.00  0.00     0.167 HD
ATOM     54  C   UNL A   1      46.022  27.977  26.908  1.00  0.00     0.034 A 
ATOM     55  C   UNL A   1      40.154  30.003  30.233  1.00  0.00     0.034 A 
ATOM     56  C   UNL A   1      46.052  29.317  27.447  1.00  0.00     0.049 A 
ATOM     57  C   UNL A   1      41.355  30.906  30.110  1.00  0.00     0.074 A 
ATOM     58  C   UNL A   1      47.071  30.253  27.390  1.00  0.00     0.029 A 
ATOM     59  N   UNL A   1      45.009  29.914  28.148  1.00  0.00    -0.354 N 
ATOM     60  N   UNL A   1      42.511  30.672  29.531  1.00  0.00    -0.248 NA
ATOM     61  C   UNL A   1      41.242  32.242  30.709  1.00  0.00     0.031 C 
ATOM     62  C   UNL A   1      46.666  31.390  28.099  1.00  0.00     0.029 A 
ATOM     63  C   UNL A   1      45.367  31.196  28.541  1.00  0.00     0.049 A 
ATOM     64  H   UNL A   1      44.142  29.489  28.338  1.00  0.00     0.167 HD
ATOM     65  C   UNL A   1      43.250  31.843  29.671  1.00  0.00     0.074 A 
ATOM     66  C   UNL A   1      42.405  32.783  30.378  1.00  0.00     0.031 C 
ATOM     67  C   UNL A   1      44.512  32.119  29.252  1.00  0.00     0.034 A 
BRANCH  54  68
ATOM     68  C   UNL A   1      47.246  27.437  26.204  1.00  0.00     0.023 A 
ATOM     69  C   UNL A   1      48.204  26.651  26.869  1.00  0.00     0.031 A 
ATOM     70  C   UNL A   1      47.485  27.762  24.857  1.00  0.00     0.131 A 
ATOM     71  C   UNL A   1      49.388  26.281  26.210  1.00  0.00     0.055 A 
ATOM     72  C   UNL A   1      48.627  27.324  24.183  1.00  0.00     0.041 A 
ATOM     73  F   UNL A   1      46.620  28.530  24.175  1.00  0.00    -0.206 F 
ATOM     74  C   UNL A   1      49.595  26.592  24.865  1.00  0.00     0.022 A 
BRANCH  71  75
ATOM     75  S   UNL A   1      50.723  25.514  27.173  1.00  0.00     0.124 S 
ATOM     76  O   UNL A   1      50.056  24.334  27.717  1.00  0.00    -0.237 OA
ATOM     77  O   UNL A   1      51.741  25.266  26.160  1.00  0.00    -0.237 OA
ATOM     78  O   UNL A   1      51.064  26.535  28.162  1.00  0.00    -0.744 OA
ENDBRANCH  71  75
ENDBRANCH  54  68
BRANCH  55  79
ATOM     79  C   UNL A   1      38.944  30.442  30.984  1.00  0.00     0.023 A 
ATOM     80  C   UNL A   1      37.929  31.182  30.361  1.00  0.00     0.031 A 
ATOM     81  C   UNL A   1      38.811  30.159  32.356  1.00  0.00     0.131 A 
ATOM     82  C   UNL A   1      36.842  31.651  31.117  1.00  0.00     0.055 A 
ATOM     83  C   UNL A   1      37.705  30.586  33.092  1.00  0.00     0.041 A 
ATOM     84  F   UNL A   1      39.754  29.453  32.999  1.00  0.00    -0.206 F 
ATOM     85  C   UNL A   1      36.717  31.348  32.474  1.00  0.00     0.022 A 
BRANCH  82  86
ATOM     86  S   UNL A   1      35.625  32.730  30.314  1.00  0.00     0.124 S 
ATOM     87  O   UNL A   1      36.227  34.046  30.497  1.00  0.00    -0.237 OA
ATOM     88  O   UNL A   1      35.615  32.214  28.949  1.00  0.00    -0.237 OA
ATOM     89  O   UNL A   1      34.402  32.491  31.077  1.00  0.00    -0.744 OA
ENDBRANCH  82  86
ENDBRANCH  55  79
BRANCH  67  90
ATOM     90  C   UNL A   1      45.019  33.518  29.500  1.00  0.00     0.023 A 
ATOM     91  C   UNL A   1      44.641  34.600  28.686  1.00  0.00     0.031 A 
ATOM     92  C   UNL A   1      45.923  33.762  30.550  1.00  0.00     0.131 A 
ATOM     93  C   UNL A   1      45.211  35.865  28.897  1.00  0.00     0.055 A 
ATOM     94  C   UNL A   1      46.443  35.033  30.789  1.00  0.00     0.041 A 
ATOM     95  F   UNL A   1      46.319  32.763  31.355  1.00  0.00    -0.206 F 
ATOM     96  C   UNL A   1      46.100  36.091  29.952  1.00  0.00     0.022 A 
BRANCH  93  97
ATOM     97  S   UNL A   1      44.855  37.192  27.712  1.00  0.00     0.124 S 
ATOM     98  O   UNL A   1      46.186  37.515  27.207  1.00  0.00    -0.237 OA
ATOM     99  O   UNL A   1      43.957  36.534  26.770  1.00  0.00    -0.237 OA
ATOM    100  O   UNL A   1      44.237  38.230  28.536  1.00  0.00    -0.744 OA
ENDBRANCH  93  97
ENDBRANCH  67  90
ENDBRANCH  41  42
ENDBRANCH  34  36
ENDBRANCH  33  34
ENDBRANCH  32  33
ENDBRANCH  31  32
ENDBRANCH  30  31
ENDBRANCH  28  30
ENDBRANCH   1  28
TORSDOF 24
ENDMDL
