MODEL 1
REMARK VINA RESULT:     -12.5      0.000      0.000
REMARK SMILES Cc1cc(F)ccc1S(=O)(=O)Nc1ccc2oc(C)c(C(=O)OCCOC(=O)c3ccc(-c4c5nc(c(-c6cc(S(=O)(=O)[O-])ccc6F)c6ccc([nH]6)c(-c6cc(S(=O)(=O)[O-])ccc6F)c6nc(c(-c7cc(S(=O)(=O)[O-])ccc7F)c7ccc4[nH]7)C=C6)C=C5)cc3)c2c1
REMARK SMILES IDX 24 1 23 2 21 3 22 4 20 5 13 6 14 7 93 8 15 9 92 10 16 11
REMARK SMILES IDX 17 12 18 13 19 14 12 15 9 17 10 18 11 19 8 20 1 21 2 22 3 23
REMARK SMILES IDX 4 24 7 25 5 26 6 27 25 28 26 29 27 30 28 31 29 32 30 33
REMARK SMILES IDX 91 34 31 35 90 36 32 37 33 38 34 39 84 40 35 41 89 42 83 43
REMARK SMILES IDX 85 44 36 45 88 46 82 47 81 48 37 50 69 51 49 52 68 53 50 54
REMARK SMILES IDX 53 55 67 56 86 57 51 58 52 59 66 61 87 62 54 63 38 64 39 65
REMARK SMILES IDX 47 66 40 67 46 68 48 69 45 70 41 71 42 72 43 73 44 74 70 75
REMARK SMILES IDX 71 76 79 77 72 78 78 79 80 80 77 81 73 82 74 83 75 84 76 85
REMARK SMILES IDX 55 86 56 87 64 88 57 89 63 90 65 91 62 92 58 93 59 94 60 95
REMARK SMILES IDX 61 96
REMARK H PARENT 12 16 85 49 53 60
REMARK Flexibility Score: inf
ROOT
ATOM      1  C   UNL A   1      32.144  29.303  24.887  1.00  0.00     0.275 C 
ENDROOT
BRANCH   1   2
ATOM      2  O   UNL A   1      31.235  29.020  23.805  1.00  0.00    -0.458 OA
BRANCH   2   3
ATOM      3  C   UNL A   1      31.295  27.797  23.207  1.00  0.00     0.342 C 
ATOM      4  O   UNL A   1      31.554  27.617  22.018  1.00  0.00    -0.246 OA
BRANCH   3   5
ATOM      5  C   UNL A   1      31.048  26.721  24.145  1.00  0.00     0.109 A 
ATOM      6  C   UNL A   1      33.892  24.515  25.528  1.00  0.00     0.050 A 
ATOM      7  C   UNL A   1      33.090  23.853  26.457  1.00  0.00     0.030 A 
ATOM      8  C   UNL A   1      33.352  25.538  24.731  1.00  0.00     0.039 A 
ATOM      9  C   UNL A   1      31.715  24.098  26.528  1.00  0.00     0.050 A 
ATOM     10  C   UNL A   1      31.966  25.818  24.783  1.00  0.00     0.037 A 
ATOM     11  C   UNL A   1      31.200  25.056  25.657  1.00  0.00     0.135 A 
ATOM     12  O   UNL A   1      29.883  25.355  25.518  1.00  0.00    -0.460 OA
ATOM     13  C   UNL A   1      29.788  26.332  24.576  1.00  0.00     0.116 A 
ATOM     14  C   UNL A   1      28.412  26.702  24.183  1.00  0.00     0.088 C 
BRANCH   6  15
ATOM     15  N   UNL A   1      35.255  24.140  25.472  1.00  0.00    -0.280 N 
ATOM     16  H   UNL A   1      35.888  24.651  26.027  1.00  0.00     0.180 HD
BRANCH  15  17
ATOM     17  S   UNL A   1      35.882  22.897  24.536  1.00  0.00     0.262 S 
ATOM     18  O   UNL A   1      36.922  22.325  25.362  1.00  0.00    -0.201 OA
ATOM     19  O   UNL A   1      36.181  23.393  23.208  1.00  0.00    -0.201 OA
BRANCH  17  20
ATOM     20  C   UNL A   1      34.595  21.643  24.387  1.00  0.00     0.090 A 
ATOM     21  C   UNL A   1      33.230  22.896  22.577  1.00  0.00     0.046 C 
ATOM     22  C   UNL A   1      33.512  21.742  23.488  1.00  0.00    -0.028 A 
ATOM     23  C   UNL A   1      32.594  20.677  23.411  1.00  0.00     0.044 A 
ATOM     24  C   UNL A   1      32.804  19.501  24.118  1.00  0.00     0.123 A 
ATOM     25  C   UNL A   1      34.792  20.436  25.094  1.00  0.00     0.025 A 
ATOM     26  F   UNL A   1      31.939  18.487  23.972  1.00  0.00    -0.207 F 
ATOM     27  C   UNL A   1      33.906  19.363  24.943  1.00  0.00     0.040 A 
ENDBRANCH  17  20
ENDBRANCH  15  17
ENDBRANCH   6  15
ENDBRANCH   3   5
ENDBRANCH   2   3
ENDBRANCH   1   2
BRANCH   1  28
ATOM     28  C   UNL A   1      31.585  30.421  25.766  1.00  0.00     0.275 C 
BRANCH  28  29
ATOM     29  O   UNL A   1      32.305  30.452  27.010  1.00  0.00    -0.458 OA
BRANCH  29  30
ATOM     30  C   UNL A   1      33.002  31.586  27.257  1.00  0.00     0.338 C 
ATOM     31  O   UNL A   1      32.567  32.722  27.305  1.00  0.00    -0.246 OA
BRANCH  30  32
ATOM     32  C   UNL A   1      34.397  31.241  27.576  1.00  0.00     0.060 A 
ATOM     33  C   UNL A   1      34.700  29.909  27.813  1.00  0.00     0.016 A 
ATOM     34  C   UNL A   1      35.353  32.222  27.828  1.00  0.00     0.016 A 
ATOM     35  C   UNL A   1      35.888  29.575  28.455  1.00  0.00     0.010 A 
ATOM     36  C   UNL A   1      36.605  31.855  28.357  1.00  0.00     0.010 A 
ATOM     37  C   UNL A   1      36.864  30.531  28.756  1.00  0.00    -0.014 A 
BRANCH  37  38
ATOM     38  C   UNL A   1      38.058  30.142  29.588  1.00  0.00     0.031 A 
ATOM     39  C   UNL A   1      39.181  29.329  28.976  1.00  0.00     0.074 A 
ATOM     40  C   UNL A   1      38.222  30.598  30.852  1.00  0.00     0.049 A 
ATOM     41  N   UNL A   1      40.215  28.769  29.556  1.00  0.00    -0.248 NA
ATOM     42  C   UNL A   1      39.128  29.103  27.525  1.00  0.00     0.031 C 
ATOM     43  C   UNL A   1      37.291  31.473  31.566  1.00  0.00     0.029 A 
ATOM     44  N   UNL A   1      39.262  30.446  31.741  1.00  0.00    -0.354 N 
ATOM     45  C   UNL A   1      40.868  28.040  28.565  1.00  0.00     0.074 A 
ATOM     46  C   UNL A   1      40.119  28.243  27.344  1.00  0.00     0.031 C 
ATOM     47  C   UNL A   1      37.860  31.892  32.704  1.00  0.00     0.029 A 
ATOM     48  C   UNL A   1      39.119  31.185  32.898  1.00  0.00     0.049 A 
ATOM     49  H   UNL A   1      40.036  29.863  31.569  1.00  0.00     0.167 HD
ATOM     50  C   UNL A   1      41.978  27.266  28.669  1.00  0.00     0.034 A 
ATOM     51  C   UNL A   1      39.876  31.257  34.012  1.00  0.00     0.034 A 
ATOM     52  C   UNL A   1      42.763  27.138  29.875  1.00  0.00     0.049 A 
ATOM     53  C   UNL A   1      41.088  30.366  34.117  1.00  0.00     0.074 A 
ATOM     54  C   UNL A   1      43.890  26.361  30.092  1.00  0.00     0.029 A 
ATOM     55  N   UNL A   1      42.525  27.821  31.062  1.00  0.00    -0.354 N 
ATOM     56  N   UNL A   1      41.607  29.558  33.220  1.00  0.00    -0.248 NA
ATOM     57  C   UNL A   1      41.795  30.363  35.405  1.00  0.00     0.031 C 
ATOM     58  C   UNL A   1      44.286  26.515  31.426  1.00  0.00     0.029 A 
ATOM     59  C   UNL A   1      43.466  27.460  32.019  1.00  0.00     0.049 A 
ATOM     60  H   UNL A   1      41.796  28.467  31.204  1.00  0.00     0.167 HD
ATOM     61  C   UNL A   1      42.701  28.959  33.837  1.00  0.00     0.074 A 
ATOM     62  C   UNL A   1      42.793  29.529  35.165  1.00  0.00     0.031 C 
ATOM     63  C   UNL A   1      43.544  28.010  33.353  1.00  0.00     0.034 A 
BRANCH  50  64
ATOM     64  C   UNL A   1      42.351  26.417  27.473  1.00  0.00     0.023 A 
ATOM     65  C   UNL A   1      41.912  25.092  27.311  1.00  0.00     0.031 A 
ATOM     66  C   UNL A   1      43.207  26.946  26.487  1.00  0.00     0.131 A 
ATOM     67  C   UNL A   1      42.394  24.320  26.241  1.00  0.00     0.055 A 
ATOM     68  C   UNL A   1      43.606  26.204  25.374  1.00  0.00     0.041 A 
ATOM     69  F   UNL A   1      43.683  28.197  26.595  1.00  0.00    -0.206 F 
ATOM     70  C   UNL A   1      43.214  24.876  25.256  1.00  0.00     0.022 A 
BRANCH  67  71
ATOM     71  S   UNL A   1      42.073  22.535  26.246  1.00  0.00     0.124 S 
ATOM     72  O   UNL A   1      42.768  22.114  27.460  1.00  0.00    -0.237 OA
ATOM     73  O   UNL A   1      40.617  22.475  26.291  1.00  0.00    -0.237 OA
ATOM     74  O   UNL A   1      42.680  22.074  24.998  1.00  0.00    -0.744 OA
ENDBRANCH  67  71
ENDBRANCH  50  64
BRANCH  51  75
ATOM     75  C   UNL A   1      39.465  32.116  35.170  1.00  0.00     0.023 A 
ATOM     76  C   UNL A   1      40.001  33.401  35.356  1.00  0.00     0.031 A 
ATOM     77  C   UNL A   1      38.579  31.632  36.152  1.00  0.00     0.131 A 
ATOM     78  C   UNL A   1      39.677  34.137  36.510  1.00  0.00     0.055 A 
ATOM     79  C   UNL A   1      38.195  32.400  37.251  1.00  0.00     0.041 A 
ATOM     80  F   UNL A   1      38.059  30.397  36.054  1.00  0.00    -0.206 F 
ATOM     81  C   UNL A   1      38.756  33.656  37.444  1.00  0.00     0.022 A 
BRANCH  78  82
ATOM     82  S   UNL A   1      40.566  35.685  36.843  1.00  0.00     0.124 S 
ATOM     83  O   UNL A   1      39.694  36.670  36.211  1.00  0.00    -0.237 OA
ATOM     84  O   UNL A   1      40.608  35.709  38.302  1.00  0.00    -0.237 OA
ATOM     85  O   UNL A   1      41.857  35.484  36.188  1.00  0.00    -0.744 OA
ENDBRANCH  78  82
ENDBRANCH  51  75
BRANCH  63  86
ATOM     86  C   UNL A   1      44.660  27.555  34.266  1.00  0.00     0.023 A 
ATOM     87  C   UNL A   1      44.501  26.466  35.143  1.00  0.00     0.031 A 
ATOM     88  C   UNL A   1      45.884  28.246  34.292  1.00  0.00     0.131 A 
ATOM     89  C   UNL A   1      45.516  26.150  36.059  1.00  0.00     0.055 A 
ATOM     90  C   UNL A   1      46.918  27.880  35.154  1.00  0.00     0.041 A 
ATOM     91  F   UNL A   1      46.095  29.296  33.481  1.00  0.00    -0.206 F 
ATOM     92  C   UNL A   1      46.730  26.838  36.058  1.00  0.00     0.022 A 
BRANCH  89  93
ATOM     93  S   UNL A   1      45.177  24.912  37.343  1.00  0.00     0.124 S 
ATOM     94  O   UNL A   1      45.105  23.680  36.564  1.00  0.00    -0.237 OA
ATOM     95  O   UNL A   1      46.336  25.047  38.220  1.00  0.00    -0.237 OA
ATOM     96  O   UNL A   1      43.909  25.354  37.920  1.00  0.00    -0.744 OA
ENDBRANCH  89  93
ENDBRANCH  63  86
ENDBRANCH  37  38
ENDBRANCH  30  32
ENDBRANCH  29  30
ENDBRANCH  28  29
ENDBRANCH   1  28
TORSDOF 17
ENDMDL
MODEL 2
REMARK VINA RESULT:     -12.5      4.521      7.664
REMARK SMILES Cc1cc(F)ccc1S(=O)(=O)Nc1ccc2oc(C)c(C(=O)OCCOC(=O)c3ccc(-c4c5nc(c(-c6cc(S(=O)(=O)[O-])ccc6F)c6ccc([nH]6)c(-c6cc(S(=O)(=O)[O-])ccc6F)c6nc(c(-c7cc(S(=O)(=O)[O-])ccc7F)c7ccc4[nH]7)C=C6)C=C5)cc3)c2c1
REMARK SMILES IDX 24 1 23 2 21 3 22 4 20 5 13 6 14 7 93 8 15 9 92 10 16 11
REMARK SMILES IDX 17 12 18 13 19 14 12 15 9 17 10 18 11 19 8 20 1 21 2 22 3 23
REMARK SMILES IDX 4 24 7 25 5 26 6 27 25 28 26 29 27 30 28 31 29 32 30 33
REMARK SMILES IDX 91 34 31 35 90 36 32 37 33 38 34 39 84 40 35 41 89 42 83 43
REMARK SMILES IDX 85 44 36 45 88 46 82 47 81 48 37 50 69 51 49 52 68 53 50 54
REMARK SMILES IDX 53 55 67 56 86 57 51 58 52 59 66 61 87 62 54 63 38 64 39 65
REMARK SMILES IDX 47 66 40 67 46 68 48 69 45 70 41 71 42 72 43 73 44 74 70 75
REMARK SMILES IDX 71 76 79 77 72 78 78 79 80 80 77 81 73 82 74 83 75 84 76 85
REMARK SMILES IDX 55 86 56 87 64 88 57 89 63 90 65 91 62 92 58 93 59 94 60 95
REMARK SMILES IDX 61 96
REMARK H PARENT 12 16 85 49 53 60
REMARK Flexibility Score: inf
ROOT
ATOM      1  C   UNL A   1      36.352  19.918  25.001  1.00  0.00     0.275 C 
ENDROOT
BRANCH   1   2
ATOM      2  O   UNL A   1      36.063  21.219  25.550  1.00  0.00    -0.458 OA
BRANCH   2   3
ATOM      3  C   UNL A   1      34.783  21.497  25.927  1.00  0.00     0.342 C 
ATOM      4  O   UNL A   1      34.378  21.466  27.088  1.00  0.00    -0.246 OA
BRANCH   3   5
ATOM      5  C   UNL A   1      33.953  21.869  24.799  1.00  0.00     0.109 A 
ATOM      6  C   UNL A   1      33.541  25.536  23.679  1.00  0.00     0.050 A 
ATOM      7  C   UNL A   1      32.838  25.227  22.515  1.00  0.00     0.030 A 
ATOM      8  C   UNL A   1      34.025  24.507  24.505  1.00  0.00     0.039 A 
ATOM      9  C   UNL A   1      32.488  23.907  22.210  1.00  0.00     0.050 A 
ATOM     10  C   UNL A   1      33.697  23.160  24.222  1.00  0.00     0.037 A 
ATOM     11  C   UNL A   1      32.910  22.923  23.102  1.00  0.00     0.135 A 
ATOM     12  O   UNL A   1      32.584  21.608  23.020  1.00  0.00    -0.460 OA
ATOM     13  C   UNL A   1      33.181  20.978  24.068  1.00  0.00     0.116 A 
ATOM     14  C   UNL A   1      32.834  19.551  24.232  1.00  0.00     0.088 C 
BRANCH   6  15
ATOM     15  N   UNL A   1      33.773  26.906  23.947  1.00  0.00    -0.280 N 
ATOM     16  H   UNL A   1      34.553  27.324  23.515  1.00  0.00     0.180 HD
BRANCH  15  17
ATOM     17  S   UNL A   1      32.831  27.875  24.939  1.00  0.00     0.262 S 
ATOM     18  O   UNL A   1      33.426  29.186  24.818  1.00  0.00    -0.201 OA
ATOM     19  O   UNL A   1      32.686  27.245  26.236  1.00  0.00    -0.201 OA
BRANCH  17  20
ATOM     20  C   UNL A   1      31.197  27.979  24.184  1.00  0.00     0.090 A 
ATOM     21  C   UNL A   1      30.335  25.729  25.135  1.00  0.00     0.046 C 
ATOM     22  C   UNL A   1      30.194  27.003  24.361  1.00  0.00    -0.028 A 
ATOM     23  C   UNL A   1      28.932  27.212  23.772  1.00  0.00     0.044 A 
ATOM     24  C   UNL A   1      28.634  28.403  23.124  1.00  0.00     0.123 A 
ATOM     25  C   UNL A   1      30.872  29.185  23.525  1.00  0.00     0.025 A 
ATOM     26  F   UNL A   1      27.402  28.588  22.630  1.00  0.00    -0.207 F 
ATOM     27  C   UNL A   1      29.586  29.400  23.014  1.00  0.00     0.040 A 
ENDBRANCH  17  20
ENDBRANCH  15  17
ENDBRANCH   6  15
ENDBRANCH   3   5
ENDBRANCH   2   3
ENDBRANCH   1   2
BRANCH   1  28
ATOM     28  C   UNL A   1      37.860  19.673  24.994  1.00  0.00     0.275 C 
BRANCH  28  29
ATOM     29  O   UNL A   1      38.539  20.881  25.379  1.00  0.00    -0.458 OA
BRANCH  29  30
ATOM     30  C   UNL A   1      39.673  20.713  26.099  1.00  0.00     0.338 C 
ATOM     31  O   UNL A   1      40.394  19.732  26.120  1.00  0.00    -0.246 OA
BRANCH  30  32
ATOM     32  C   UNL A   1      39.992  21.964  26.806  1.00  0.00     0.060 A 
ATOM     33  C   UNL A   1      39.239  23.089  26.509  1.00  0.00     0.016 A 
ATOM     34  C   UNL A   1      41.127  22.084  27.604  1.00  0.00     0.016 A 
ATOM     35  C   UNL A   1      39.709  24.349  26.865  1.00  0.00     0.010 A 
ATOM     36  C   UNL A   1      41.521  23.353  28.068  1.00  0.00     0.010 A 
ATOM     37  C   UNL A   1      40.862  24.520  27.638  1.00  0.00    -0.014 A 
BRANCH  37  38
ATOM     38  C   UNL A   1      41.412  25.904  27.862  1.00  0.00     0.031 A 
ATOM     39  C   UNL A   1      42.670  26.349  27.144  1.00  0.00     0.074 A 
ATOM     40  C   UNL A   1      40.748  26.821  28.602  1.00  0.00     0.049 A 
ATOM     41  N   UNL A   1      43.384  27.436  27.312  1.00  0.00    -0.248 NA
ATOM     42  C   UNL A   1      43.206  25.449  26.113  1.00  0.00     0.031 C 
ATOM     43  C   UNL A   1      39.471  26.599  29.284  1.00  0.00     0.029 A 
ATOM     44  N   UNL A   1      41.017  28.147  28.856  1.00  0.00    -0.354 N 
ATOM     45  C   UNL A   1      44.502  27.297  26.492  1.00  0.00     0.074 A 
ATOM     46  C   UNL A   1      44.361  26.024  25.817  1.00  0.00     0.031 C 
ATOM     47  C   UNL A   1      39.004  27.767  29.743  1.00  0.00     0.029 A 
ATOM     48  C   UNL A   1      40.019  28.795  29.554  1.00  0.00     0.049 A 
ATOM     49  H   UNL A   1      41.845  28.592  28.566  1.00  0.00     0.167 HD
ATOM     50  C   UNL A   1      45.550  28.144  26.329  1.00  0.00     0.034 A 
ATOM     51  C   UNL A   1      39.936  30.053  30.036  1.00  0.00     0.034 A 
ATOM     52  C   UNL A   1      45.637  29.448  26.947  1.00  0.00     0.049 A 
ATOM     53  C   UNL A   1      41.124  30.966  29.869  1.00  0.00     0.074 A 
ATOM     54  C   UNL A   1      46.666  30.373  26.867  1.00  0.00     0.029 A 
ATOM     55  N   UNL A   1      44.652  30.028  27.737  1.00  0.00    -0.354 N 
ATOM     56  N   UNL A   1      42.247  30.761  29.220  1.00  0.00    -0.248 NA
ATOM     57  C   UNL A   1      41.052  32.271  30.541  1.00  0.00     0.031 C 
ATOM     58  C   UNL A   1      46.337  31.474  27.665  1.00  0.00     0.029 A 
ATOM     59  C   UNL A   1      45.063  31.283  28.171  1.00  0.00     0.049 A 
ATOM     60  H   UNL A   1      43.787  29.611  27.957  1.00  0.00     0.167 HD
ATOM     61  C   UNL A   1      43.007  31.912  29.402  1.00  0.00     0.074 A 
ATOM     62  C   UNL A   1      42.200  32.823  30.185  1.00  0.00     0.031 C 
ATOM     63  C   UNL A   1      44.267  32.183  28.973  1.00  0.00     0.034 A 
BRANCH  50  64
ATOM     64  C   UNL A   1      46.734  27.644  25.531  1.00  0.00     0.023 A 
ATOM     65  C   UNL A   1      46.990  28.050  24.210  1.00  0.00     0.031 A 
ATOM     66  C   UNL A   1      47.607  26.699  26.105  1.00  0.00     0.131 A 
ATOM     67  C   UNL A   1      48.035  27.454  23.485  1.00  0.00     0.055 A 
ATOM     68  C   UNL A   1      48.703  26.182  25.411  1.00  0.00     0.041 A 
ATOM     69  F   UNL A   1      47.404  26.251  27.355  1.00  0.00    -0.206 F 
ATOM     70  C   UNL A   1      48.911  26.545  24.086  1.00  0.00     0.022 A 
BRANCH  67  71
ATOM     71  S   UNL A   1      48.132  27.753  21.698  1.00  0.00     0.124 S 
ATOM     72  O   UNL A   1      49.203  28.744  21.624  1.00  0.00    -0.237 OA
ATOM     73  O   UNL A   1      48.449  26.431  21.173  1.00  0.00    -0.237 OA
ATOM     74  O   UNL A   1      46.802  28.258  21.363  1.00  0.00    -0.744 OA
ENDBRANCH  67  71
ENDBRANCH  50  64
BRANCH  51  75
ATOM     75  C   UNL A   1      38.740  30.502  30.820  1.00  0.00     0.023 A 
ATOM     76  C   UNL A   1      37.635  31.103  30.193  1.00  0.00     0.031 A 
ATOM     77  C   UNL A   1      38.714  30.400  32.225  1.00  0.00     0.131 A 
ATOM     78  C   UNL A   1      36.577  31.610  30.969  1.00  0.00     0.055 A 
ATOM     79  C   UNL A   1      37.624  30.828  32.982  1.00  0.00     0.041 A 
ATOM     80  F   UNL A   1      39.754  29.869  32.890  1.00  0.00    -0.206 F 
ATOM     81  C   UNL A   1      36.552  31.452  32.356  1.00  0.00     0.022 A 
BRANCH  78  82
ATOM     82  S   UNL A   1      35.284  32.591  30.155  1.00  0.00     0.124 S 
ATOM     83  O   UNL A   1      34.930  31.738  29.026  1.00  0.00    -0.237 OA
ATOM     84  O   UNL A   1      34.280  32.712  31.207  1.00  0.00    -0.237 OA
ATOM     85  O   UNL A   1      35.969  33.834  29.806  1.00  0.00    -0.744 OA
ENDBRANCH  78  82
ENDBRANCH  51  75
BRANCH  63  86
ATOM     86  C   UNL A   1      44.832  33.541  29.323  1.00  0.00     0.023 A 
ATOM     87  C   UNL A   1      45.566  33.755  30.505  1.00  0.00     0.031 A 
ATOM     88  C   UNL A   1      44.599  34.646  28.486  1.00  0.00     0.131 A 
ATOM     89  C   UNL A   1      45.969  35.053  30.854  1.00  0.00     0.055 A 
ATOM     90  C   UNL A   1      45.068  35.922  28.802  1.00  0.00     0.041 A 
ATOM     91  F   UNL A   1      43.902  34.506  27.346  1.00  0.00    -0.206 F 
ATOM     92  C   UNL A   1      45.741  36.135  30.001  1.00  0.00     0.022 A 
BRANCH  89  93
ATOM     93  S   UNL A   1      46.682  35.332  32.500  1.00  0.00     0.124 S 
ATOM     94  O   UNL A   1      47.002  33.973  32.926  1.00  0.00    -0.237 OA
ATOM     95  O   UNL A   1      47.821  36.194  32.205  1.00  0.00    -0.237 OA
ATOM     96  O   UNL A   1      45.596  35.972  33.240  1.00  0.00    -0.744 OA
ENDBRANCH  89  93
ENDBRANCH  63  86
ENDBRANCH  37  38
ENDBRANCH  30  32
ENDBRANCH  29  30
ENDBRANCH  28  29
ENDBRANCH   1  28
TORSDOF 17
ENDMDL
MODEL 3
REMARK VINA RESULT:     -12.4      2.048      2.762
REMARK SMILES Cc1cc(F)ccc1S(=O)(=O)Nc1ccc2oc(C)c(C(=O)OCCOC(=O)c3ccc(-c4c5nc(c(-c6cc(S(=O)(=O)[O-])ccc6F)c6ccc([nH]6)c(-c6cc(S(=O)(=O)[O-])ccc6F)c6nc(c(-c7cc(S(=O)(=O)[O-])ccc7F)c7ccc4[nH]7)C=C6)C=C5)cc3)c2c1
REMARK SMILES IDX 24 1 23 2 21 3 22 4 20 5 13 6 14 7 93 8 15 9 92 10 16 11
REMARK SMILES IDX 17 12 18 13 19 14 12 15 9 17 10 18 11 19 8 20 1 21 2 22 3 23
REMARK SMILES IDX 4 24 7 25 5 26 6 27 25 28 26 29 27 30 28 31 29 32 30 33
REMARK SMILES IDX 91 34 31 35 90 36 32 37 33 38 34 39 84 40 35 41 89 42 83 43
REMARK SMILES IDX 85 44 36 45 88 46 82 47 81 48 37 50 69 51 49 52 68 53 50 54
REMARK SMILES IDX 53 55 67 56 86 57 51 58 52 59 66 61 87 62 54 63 38 64 39 65
REMARK SMILES IDX 47 66 40 67 46 68 48 69 45 70 41 71 42 72 43 73 44 74 70 75
REMARK SMILES IDX 71 76 79 77 72 78 78 79 80 80 77 81 73 82 74 83 75 84 76 85
REMARK SMILES IDX 55 86 56 87 64 88 57 89 63 90 65 91 62 92 58 93 59 94 60 95
REMARK SMILES IDX 61 96
REMARK H PARENT 12 16 85 49 53 60
REMARK Flexibility Score: inf
ROOT
ATOM      1  C   UNL A   1      31.761  28.430  27.134  1.00  0.00     0.275 C 
ENDROOT
BRANCH   1   2
ATOM      2  O   UNL A   1      32.229  27.796  25.928  1.00  0.00    -0.458 OA
BRANCH   2   3
ATOM      3  C   UNL A   1      31.456  26.829  25.358  1.00  0.00     0.342 C 
ATOM      4  O   UNL A   1      30.353  26.483  25.780  1.00  0.00    -0.246 OA
BRANCH   3   5
ATOM      5  C   UNL A   1      32.071  26.271  24.171  1.00  0.00     0.109 A 
ATOM      6  C   UNL A   1      32.557  22.474  23.706  1.00  0.00     0.050 A 
ATOM      7  C   UNL A   1      32.984  22.569  22.382  1.00  0.00     0.030 A 
ATOM      8  C   UNL A   1      32.164  23.628  24.406  1.00  0.00     0.039 A 
ATOM      9  C   UNL A   1      33.153  23.813  21.765  1.00  0.00     0.050 A 
ATOM     10  C   UNL A   1      32.313  24.901  23.808  1.00  0.00     0.037 A 
ATOM     11  C   UNL A   1      32.837  24.939  22.522  1.00  0.00     0.135 A 
ATOM     12  O   UNL A   1      33.029  26.223  22.125  1.00  0.00    -0.460 OA
ATOM     13  C   UNL A   1      32.603  27.026  23.137  1.00  0.00     0.116 A 
ATOM     14  C   UNL A   1      32.854  28.471  22.949  1.00  0.00     0.088 C 
BRANCH   6  15
ATOM     15  N   UNL A   1      32.499  21.179  24.272  1.00  0.00    -0.280 N 
ATOM     16  H   UNL A   1      31.682  20.653  24.114  1.00  0.00     0.180 HD
BRANCH  15  17
ATOM     17  S   UNL A   1      33.707  20.466  25.192  1.00  0.00     0.262 S 
ATOM     18  O   UNL A   1      34.189  19.385  24.362  1.00  0.00    -0.201 OA
ATOM     19  O   UNL A   1      33.211  20.208  26.528  1.00  0.00    -0.201 OA
BRANCH  17  20
ATOM     20  C   UNL A   1      35.053  21.658  25.317  1.00  0.00     0.090 A 
ATOM     21  C   UNL A   1      34.040  22.975  27.305  1.00  0.00     0.046 C 
ATOM     22  C   UNL A   1      35.098  22.683  26.287  1.00  0.00    -0.028 A 
ATOM     23  C   UNL A   1      36.226  23.525  26.333  1.00  0.00     0.044 A 
ATOM     24  C   UNL A   1      37.327  23.290  25.520  1.00  0.00     0.123 A 
ATOM     25  C   UNL A   1      36.185  21.435  24.503  1.00  0.00     0.025 A 
ATOM     26  F   UNL A   1      38.405  24.078  25.636  1.00  0.00    -0.207 F 
ATOM     27  C   UNL A   1      37.325  22.240  24.620  1.00  0.00     0.040 A 
ENDBRANCH  17  20
ENDBRANCH  15  17
ENDBRANCH   6  15
ENDBRANCH   3   5
ENDBRANCH   2   3
ENDBRANCH   1   2
BRANCH   1  28
ATOM     28  C   UNL A   1      31.793  29.949  26.977  1.00  0.00     0.275 C 
BRANCH  28  29
ATOM     29  O   UNL A   1      33.111  30.357  26.569  1.00  0.00    -0.458 OA
BRANCH  29  30
ATOM     30  C   UNL A   1      33.676  31.340  27.307  1.00  0.00     0.338 C 
ATOM     31  O   UNL A   1      33.130  32.334  27.751  1.00  0.00    -0.246 OA
BRANCH  30  32
ATOM     32  C   UNL A   1      35.073  30.986  27.605  1.00  0.00     0.060 A 
ATOM     33  C   UNL A   1      35.394  29.641  27.711  1.00  0.00     0.016 A 
ATOM     34  C   UNL A   1      36.012  31.950  27.962  1.00  0.00     0.016 A 
ATOM     35  C   UNL A   1      36.582  29.262  28.327  1.00  0.00     0.010 A 
ATOM     36  C   UNL A   1      37.264  31.550  28.464  1.00  0.00     0.010 A 
ATOM     37  C   UNL A   1      37.541  30.197  28.732  1.00  0.00    -0.014 A 
BRANCH  37  38
ATOM     38  C   UNL A   1      38.733  29.744  29.533  1.00  0.00     0.031 A 
ATOM     39  C   UNL A   1      39.775  28.840  28.904  1.00  0.00     0.074 A 
ATOM     40  C   UNL A   1      38.974  30.216  30.778  1.00  0.00     0.049 A 
ATOM     41  N   UNL A   1      40.786  28.222  29.462  1.00  0.00    -0.248 NA
ATOM     42  C   UNL A   1      39.654  28.584  27.462  1.00  0.00     0.031 C 
ATOM     43  C   UNL A   1      38.132  31.171  31.501  1.00  0.00     0.029 A 
ATOM     44  N   UNL A   1      40.031  30.012  31.635  1.00  0.00    -0.354 N 
ATOM     45  C   UNL A   1      41.352  27.426  28.469  1.00  0.00     0.074 A 
ATOM     46  C   UNL A   1      40.575  27.653  27.269  1.00  0.00     0.031 C 
ATOM     47  C   UNL A   1      38.769  31.576  32.608  1.00  0.00     0.029 A 
ATOM     48  C   UNL A   1      39.982  30.786  32.777  1.00  0.00     0.049 A 
ATOM     49  H   UNL A   1      40.756  29.373  31.451  1.00  0.00     0.167 HD
ATOM     50  C   UNL A   1      42.408  26.578  28.555  1.00  0.00     0.034 A 
ATOM     51  C   UNL A   1      40.781  30.831  33.863  1.00  0.00     0.034 A 
ATOM     52  C   UNL A   1      43.225  26.423  29.737  1.00  0.00     0.049 A 
ATOM     53  C   UNL A   1      41.931  29.858  33.949  1.00  0.00     0.074 A 
ATOM     54  C   UNL A   1      44.302  25.574  29.936  1.00  0.00     0.029 A 
ATOM     55  N   UNL A   1      43.078  27.148  30.914  1.00  0.00    -0.354 N 
ATOM     56  N   UNL A   1      42.360  28.995  33.057  1.00  0.00    -0.248 NA
ATOM     57  C   UNL A   1      42.682  29.836  35.212  1.00  0.00     0.031 C 
ATOM     58  C   UNL A   1      44.755  25.730  31.251  1.00  0.00     0.029 A 
ATOM     59  C   UNL A   1      44.024  26.744  31.847  1.00  0.00     0.049 A 
ATOM     60  H   UNL A   1      42.401  27.847  31.064  1.00  0.00     0.167 HD
ATOM     61  C   UNL A   1      43.431  28.335  33.651  1.00  0.00     0.074 A 
ATOM     62  C   UNL A   1      43.610  28.928  34.959  1.00  0.00     0.031 C 
ATOM     63  C   UNL A   1      44.188  27.318  33.163  1.00  0.00     0.034 A 
BRANCH  50  64
ATOM     64  C   UNL A   1      42.678  25.677  27.370  1.00  0.00     0.023 A 
ATOM     65  C   UNL A   1      42.145  24.382  27.258  1.00  0.00     0.031 A 
ATOM     66  C   UNL A   1      43.531  26.123  26.340  1.00  0.00     0.131 A 
ATOM     67  C   UNL A   1      42.534  23.553  26.192  1.00  0.00     0.055 A 
ATOM     68  C   UNL A   1      43.837  25.329  25.233  1.00  0.00     0.041 A 
ATOM     69  F   UNL A   1      44.094  27.341  26.399  1.00  0.00    -0.206 F 
ATOM     70  C   UNL A   1      43.352  24.029  25.164  1.00  0.00     0.022 A 
BRANCH  67  71
ATOM     71  S   UNL A   1      42.093  21.795  26.255  1.00  0.00     0.124 S 
ATOM     72  O   UNL A   1      40.669  21.836  25.929  1.00  0.00    -0.237 OA
ATOM     73  O   UNL A   1      42.963  21.214  25.240  1.00  0.00    -0.237 OA
ATOM     74  O   UNL A   1      42.398  21.414  27.633  1.00  0.00    -0.744 OA
ENDBRANCH  67  71
ENDBRANCH  50  64
BRANCH  51  75
ATOM     75  C   UNL A   1      40.473  31.742  35.011  1.00  0.00     0.023 A 
ATOM     76  C   UNL A   1      39.477  31.427  35.951  1.00  0.00     0.031 A 
ATOM     77  C   UNL A   1      41.124  32.984  35.147  1.00  0.00     0.131 A 
ATOM     78  C   UNL A   1      39.138  32.354  36.953  1.00  0.00     0.055 A 
ATOM     79  C   UNL A   1      40.843  33.863  36.192  1.00  0.00     0.041 A 
ATOM     80  F   UNL A   1      42.060  33.364  34.261  1.00  0.00    -0.206 F 
ATOM     81  C   UNL A   1      39.833  33.556  37.096  1.00  0.00     0.022 A 
BRANCH  78  82
ATOM     82  S   UNL A   1      37.691  32.024  38.000  1.00  0.00     0.124 S 
ATOM     83  O   UNL A   1      38.216  32.312  39.331  1.00  0.00    -0.237 OA
ATOM     84  O   UNL A   1      36.711  32.972  37.478  1.00  0.00    -0.237 OA
ATOM     85  O   UNL A   1      37.394  30.618  37.738  1.00  0.00    -0.744 OA
ENDBRANCH  78  82
ENDBRANCH  51  75
BRANCH  63  86
ATOM     86  C   UNL A   1      45.301  26.807  34.049  1.00  0.00     0.023 A 
ATOM     87  C   UNL A   1      45.078  25.809  35.017  1.00  0.00     0.031 A 
ATOM     88  C   UNL A   1      46.592  27.354  33.955  1.00  0.00     0.131 A 
ATOM     89  C   UNL A   1      46.106  25.448  35.901  1.00  0.00     0.055 A 
ATOM     90  C   UNL A   1      47.632  26.936  34.788  1.00  0.00     0.041 A 
ATOM     91  F   UNL A   1      46.867  28.311  33.054  1.00  0.00    -0.206 F 
ATOM     92  C   UNL A   1      47.387  25.991  35.780  1.00  0.00     0.022 A 
BRANCH  89  93
ATOM     93  S   UNL A   1      45.713  24.354  37.294  1.00  0.00     0.124 S 
ATOM     94  O   UNL A   1      44.560  25.021  37.889  1.00  0.00    -0.237 OA
ATOM     95  O   UNL A   1      45.443  23.084  36.627  1.00  0.00    -0.237 OA
ATOM     96  O   UNL A   1      46.929  24.380  38.105  1.00  0.00    -0.744 OA
ENDBRANCH  89  93
ENDBRANCH  63  86
ENDBRANCH  37  38
ENDBRANCH  30  32
ENDBRANCH  29  30
ENDBRANCH  28  29
ENDBRANCH   1  28
TORSDOF 17
ENDMDL
