MODEL 1
REMARK VINA RESULT:     -10.7      0.000      0.000
REMARK SMILES O=C(COc1ncc(C(F)(F)F)cc1Cl)OCCOC(=O)c1ccc(-c2c3nc(c(-c4cc(S(=O)(=O)[O-])ccc4F)c4ccc([nH]4)c(-c4cc(S(=O)(=O)[O-])ccc4F)c4nc(c(-c5cc(S(=O)(=O)[O-])ccc5F)c5ccc2[nH]5)C=C4)C=C3)cc1
REMARK SMILES IDX 17 1 16 2 2 3 1 4 3 5 4 6 5 7 6 8 14 9 7 10 13 11 15 12 8 13
REMARK SMILES IDX 9 14 10 15 11 16 12 17 18 18 19 19 20 20 21 21 22 22 23 23
REMARK SMILES IDX 84 24 24 25 83 26 25 27 26 28 27 29 77 30 28 31 82 32 76 33
REMARK SMILES IDX 78 34 29 35 81 36 75 37 74 38 30 40 62 41 42 42 61 43 43 44
REMARK SMILES IDX 46 45 60 46 79 47 44 48 45 49 59 51 80 52 47 53 31 54 32 55
REMARK SMILES IDX 40 56 33 57 39 58 41 59 38 60 34 61 35 62 36 63 37 64 63 65
REMARK SMILES IDX 64 66 72 67 65 68 71 69 73 70 70 71 66 72 67 73 68 74 69 75
REMARK SMILES IDX 48 76 49 77 57 78 50 79 56 80 58 81 55 82 51 83 52 84 53 85
REMARK SMILES IDX 54 86
REMARK H PARENT 78 39 46 50
REMARK Flexibility Score: inf
ROOT
ATOM      1  C   UNL A   1      35.630  22.362  24.739  1.00  0.00     0.274 C 
ENDROOT
BRANCH   1   2
ATOM      2  O   UNL A   1      35.184  22.619  23.391  1.00  0.00    -0.460 OA
BRANCH   2   3
ATOM      3  C   UNL A   1      33.948  23.089  23.084  1.00  0.00     0.344 C 
ATOM      4  O   UNL A   1      33.686  23.453  21.939  1.00  0.00    -0.248 OA
BRANCH   3   5
ATOM      5  C   UNL A   1      32.886  23.085  24.167  1.00  0.00     0.353 C 
BRANCH   5   6
ATOM      6  O   UNL A   1      31.808  22.240  23.769  1.00  0.00    -0.465 OA
BRANCH   6   7
ATOM      7  C   UNL A   1      32.168  20.933  23.969  1.00  0.00     0.233 A 
ATOM      8  N   UNL A   1      32.531  20.625  25.235  1.00  0.00    -0.220 NA
ATOM      9  C   UNL A   1      32.205  20.032  22.910  1.00  0.00     0.103 A 
ATOM     10  C   UNL A   1      32.931  19.352  25.463  1.00  0.00     0.128 A 
ATOM     11  C   UNL A   1      32.601  18.727  23.180  1.00  0.00     0.041 A 
ATOM     12  Cl  UNL A   1      31.800  20.475  21.297  1.00  0.00    -0.078 Cl
ATOM     13  C   UNL A   1      32.979  18.370  24.481  1.00  0.00     0.076 A 
BRANCH  13  14
ATOM     14  C   UNL A   1      33.488  17.000  24.812  1.00  0.00     0.417 C 
ATOM     15  F   UNL A   1      34.770  16.822  24.391  1.00  0.00    -0.166 F 
ATOM     16  F   UNL A   1      33.481  16.732  26.141  1.00  0.00    -0.166 F 
ATOM     17  F   UNL A   1      32.765  16.009  24.219  1.00  0.00    -0.166 F 
ENDBRANCH  13  14
ENDBRANCH   6   7
ENDBRANCH   5   6
ENDBRANCH   3   5
ENDBRANCH   2   3
ENDBRANCH   1   2
BRANCH   1  18
ATOM     18  C   UNL A   1      36.958  21.602  24.727  1.00  0.00     0.275 C 
BRANCH  18  19
ATOM     19  O   UNL A   1      37.566  21.654  26.030  1.00  0.00    -0.458 OA
BRANCH  19  20
ATOM     20  C   UNL A   1      38.898  21.388  26.074  1.00  0.00     0.338 C 
ATOM     21  O   UNL A   1      39.459  20.396  25.648  1.00  0.00    -0.246 OA
BRANCH  20  22
ATOM     22  C   UNL A   1      39.591  22.599  26.559  1.00  0.00     0.060 A 
ATOM     23  C   UNL A   1      39.198  23.846  26.057  1.00  0.00     0.016 A 
ATOM     24  C   UNL A   1      40.599  22.511  27.523  1.00  0.00     0.016 A 
ATOM     25  C   UNL A   1      39.807  25.012  26.529  1.00  0.00     0.010 A 
ATOM     26  C   UNL A   1      41.217  23.676  27.981  1.00  0.00     0.010 A 
ATOM     27  C   UNL A   1      40.829  24.933  27.485  1.00  0.00    -0.014 A 
BRANCH  27  28
ATOM     28  C   UNL A   1      41.562  26.144  27.926  1.00  0.00     0.031 A 
ATOM     29  C   UNL A   1      40.811  27.239  28.627  1.00  0.00     0.074 A 
ATOM     30  C   UNL A   1      42.871  26.289  27.641  1.00  0.00     0.049 A 
ATOM     31  N   UNL A   1      41.219  28.430  28.974  1.00  0.00    -0.248 NA
ATOM     32  C   UNL A   1      39.410  26.954  28.975  1.00  0.00     0.031 C 
ATOM     33  C   UNL A   1      43.709  25.282  26.991  1.00  0.00     0.029 A 
ATOM     34  N   UNL A   1      43.716  27.354  27.835  1.00  0.00    -0.354 N 
ATOM     35  C   UNL A   1      40.127  29.044  29.577  1.00  0.00     0.074 A 
ATOM     36  C   UNL A   1      39.034  28.096  29.533  1.00  0.00     0.031 C 
ATOM     37  C   UNL A   1      44.939  25.794  26.806  1.00  0.00     0.029 A 
ATOM     38  C   UNL A   1      44.963  27.175  27.285  1.00  0.00     0.049 A 
ATOM     39  H   UNL A   1      43.452  28.169  28.321  1.00  0.00     0.167 HD
ATOM     40  C   UNL A   1      40.047  30.285  30.114  1.00  0.00     0.034 A 
ATOM     41  C   UNL A   1      45.989  28.040  27.144  1.00  0.00     0.034 A 
ATOM     42  C   UNL A   1      41.139  31.223  30.143  1.00  0.00     0.049 A 
ATOM     43  C   UNL A   1      45.837  29.452  27.662  1.00  0.00     0.074 A 
ATOM     44  C   UNL A   1      41.178  32.480  30.721  1.00  0.00     0.029 A 
ATOM     45  N   UNL A   1      42.375  31.023  29.546  1.00  0.00    -0.354 N 
ATOM     46  N   UNL A   1      44.815  30.001  28.279  1.00  0.00    -0.248 NA
ATOM     47  C   UNL A   1      46.973  30.363  27.461  1.00  0.00     0.031 C 
ATOM     48  C   UNL A   1      42.408  33.069  30.408  1.00  0.00     0.029 A 
ATOM     49  C   UNL A   1      43.164  32.153  29.695  1.00  0.00     0.049 A 
ATOM     50  H   UNL A   1      42.652  30.198  29.084  1.00  0.00     0.167 HD
ATOM     51  C   UNL A   1      45.200  31.310  28.561  1.00  0.00     0.074 A 
ATOM     52  C   UNL A   1      46.549  31.465  28.061  1.00  0.00     0.031 C 
ATOM     53  C   UNL A   1      44.503  32.298  29.178  1.00  0.00     0.034 A 
BRANCH  40  54
ATOM     54  C   UNL A   1      38.717  30.722  30.667  1.00  0.00     0.023 A 
ATOM     55  C   UNL A   1      37.770  31.398  29.878  1.00  0.00     0.031 A 
ATOM     56  C   UNL A   1      38.387  30.440  32.005  1.00  0.00     0.131 A 
ATOM     57  C   UNL A   1      36.553  31.804  30.447  1.00  0.00     0.055 A 
ATOM     58  C   UNL A   1      37.153  30.795  32.548  1.00  0.00     0.041 A 
ATOM     59  F   UNL A   1      39.265  29.816  32.806  1.00  0.00    -0.206 F 
ATOM     60  C   UNL A   1      36.230  31.488  31.768  1.00  0.00     0.022 A 
BRANCH  57  61
ATOM     61  S   UNL A   1      35.430  32.827  29.458  1.00  0.00     0.124 S 
ATOM     62  O   UNL A   1      35.465  32.144  28.168  1.00  0.00    -0.237 OA
ATOM     63  O   UNL A   1      34.178  32.730  30.200  1.00  0.00    -0.237 OA
ATOM     64  O   UNL A   1      36.062  34.145  29.475  1.00  0.00    -0.744 OA
ENDBRANCH  57  61
ENDBRANCH  40  54
BRANCH  41  65
ATOM     65  C   UNL A   1      47.228  27.645  26.411  1.00  0.00     0.023 A 
ATOM     66  C   UNL A   1      47.375  27.906  25.040  1.00  0.00     0.031 A 
ATOM     67  C   UNL A   1      48.241  26.909  27.052  1.00  0.00     0.131 A 
ATOM     68  C   UNL A   1      48.475  27.382  24.340  1.00  0.00     0.055 A 
ATOM     69  C   UNL A   1      49.363  26.441  26.365  1.00  0.00     0.041 A 
ATOM     70  F   UNL A   1      48.150  26.625  28.361  1.00  0.00    -0.206 F 
ATOM     71  C   UNL A   1      49.475  26.662  24.997  1.00  0.00     0.022 A 
BRANCH  68  72
ATOM     72  S   UNL A   1      48.515  27.550  22.535  1.00  0.00     0.124 S 
ATOM     73  O   UNL A   1      49.736  28.325  22.336  1.00  0.00    -0.237 OA
ATOM     74  O   UNL A   1      48.561  26.157  22.105  1.00  0.00    -0.237 OA
ATOM     75  O   UNL A   1      47.272  28.256  22.231  1.00  0.00    -0.744 OA
ENDBRANCH  68  72
ENDBRANCH  41  65
BRANCH  53  76
ATOM     76  C   UNL A   1      45.204  33.619  29.372  1.00  0.00     0.023 A 
ATOM     77  C   UNL A   1      45.086  34.661  28.436  1.00  0.00     0.031 A 
ATOM     78  C   UNL A   1      45.998  33.839  30.512  1.00  0.00     0.131 A 
ATOM     79  C   UNL A   1      45.786  35.861  28.636  1.00  0.00     0.055 A 
ATOM     80  C   UNL A   1      46.647  35.054  30.732  1.00  0.00     0.041 A 
ATOM     81  F   UNL A   1      46.146  32.877  31.438  1.00  0.00    -0.206 F 
ATOM     82  C   UNL A   1      46.551  36.070  29.786  1.00  0.00     0.022 A 
BRANCH  79  83
ATOM     83  S   UNL A   1      45.730  37.129  27.339  1.00  0.00     0.124 S 
ATOM     84  O   UNL A   1      44.321  37.116  26.961  1.00  0.00    -0.237 OA
ATOM     85  O   UNL A   1      46.189  38.322  28.046  1.00  0.00    -0.237 OA
ATOM     86  O   UNL A   1      46.650  36.621  26.323  1.00  0.00    -0.744 OA
ENDBRANCH  79  83
ENDBRANCH  53  76
ENDBRANCH  27  28
ENDBRANCH  20  22
ENDBRANCH  19  20
ENDBRANCH  18  19
ENDBRANCH   1  18
TORSDOF 17
ENDMDL
MODEL 2
REMARK VINA RESULT:     -10.7      6.338     10.641
REMARK SMILES O=C(COc1ncc(C(F)(F)F)cc1Cl)OCCOC(=O)c1ccc(-c2c3nc(c(-c4cc(S(=O)(=O)[O-])ccc4F)c4ccc([nH]4)c(-c4cc(S(=O)(=O)[O-])ccc4F)c4nc(c(-c5cc(S(=O)(=O)[O-])ccc5F)c5ccc2[nH]5)C=C4)C=C3)cc1
REMARK SMILES IDX 17 1 16 2 2 3 1 4 3 5 4 6 5 7 6 8 14 9 7 10 13 11 15 12 8 13
REMARK SMILES IDX 9 14 10 15 11 16 12 17 18 18 19 19 20 20 21 21 22 22 23 23
REMARK SMILES IDX 84 24 24 25 83 26 25 27 26 28 27 29 77 30 28 31 82 32 76 33
REMARK SMILES IDX 78 34 29 35 81 36 75 37 74 38 30 40 62 41 42 42 61 43 43 44
REMARK SMILES IDX 46 45 60 46 79 47 44 48 45 49 59 51 80 52 47 53 31 54 32 55
REMARK SMILES IDX 40 56 33 57 39 58 41 59 38 60 34 61 35 62 36 63 37 64 63 65
REMARK SMILES IDX 64 66 72 67 65 68 71 69 73 70 70 71 66 72 67 73 68 74 69 75
REMARK SMILES IDX 48 76 49 77 57 78 50 79 56 80 58 81 55 82 51 83 52 84 53 85
REMARK SMILES IDX 54 86
REMARK H PARENT 78 39 46 50
REMARK Flexibility Score: inf
ROOT
ATOM      1  C   UNL A   1      31.809  28.738  27.153  1.00  0.00     0.274 C 
ENDROOT
BRANCH   1   2
ATOM      2  O   UNL A   1      32.902  27.811  26.985  1.00  0.00    -0.460 OA
BRANCH   2   3
ATOM      3  C   UNL A   1      32.874  26.760  26.127  1.00  0.00     0.344 C 
ATOM      4  O   UNL A   1      32.340  25.702  26.452  1.00  0.00    -0.248 OA
BRANCH   3   5
ATOM      5  C   UNL A   1      33.454  26.949  24.737  1.00  0.00     0.353 C 
BRANCH   5   6
ATOM      6  O   UNL A   1      32.606  26.317  23.781  1.00  0.00    -0.465 OA
BRANCH   6   7
ATOM      7  C   UNL A   1      31.519  27.120  23.548  1.00  0.00     0.233 A 
ATOM      8  N   UNL A   1      30.320  26.547  23.795  1.00  0.00    -0.220 NA
ATOM      9  C   UNL A   1      31.676  28.403  23.034  1.00  0.00     0.103 A 
ATOM     10  C   UNL A   1      29.221  27.296  23.538  1.00  0.00     0.128 A 
ATOM     11  C   UNL A   1      30.530  29.154  22.800  1.00  0.00     0.041 A 
ATOM     12  Cl  UNL A   1      33.217  29.077  22.667  1.00  0.00    -0.078 Cl
ATOM     13  C   UNL A   1      29.270  28.595  23.049  1.00  0.00     0.076 A 
BRANCH  13  14
ATOM     14  C   UNL A   1      28.001  29.331  22.742  1.00  0.00     0.417 C 
ATOM     15  F   UNL A   1      26.901  28.565  22.983  1.00  0.00    -0.166 F 
ATOM     16  F   UNL A   1      27.846  30.463  23.473  1.00  0.00    -0.166 F 
ATOM     17  F   UNL A   1      27.909  29.706  21.435  1.00  0.00    -0.166 F 
ENDBRANCH  13  14
ENDBRANCH   6   7
ENDBRANCH   5   6
ENDBRANCH   3   5
ENDBRANCH   2   3
ENDBRANCH   1   2
BRANCH   1  18
ATOM     18  C   UNL A   1      32.092  30.039  26.402  1.00  0.00     0.275 C 
BRANCH  18  19
ATOM     19  O   UNL A   1      33.494  30.353  26.471  1.00  0.00    -0.458 OA
BRANCH  19  20
ATOM     20  C   UNL A   1      33.834  31.372  27.303  1.00  0.00     0.338 C 
ATOM     21  O   UNL A   1      33.137  32.318  27.621  1.00  0.00    -0.246 OA
BRANCH  20  22
ATOM     22  C   UNL A   1      35.136  31.047  27.919  1.00  0.00     0.060 A 
ATOM     23  C   UNL A   1      35.345  29.751  28.406  1.00  0.00     0.016 A 
ATOM     24  C   UNL A   1      36.155  32.001  27.990  1.00  0.00     0.016 A 
ATOM     25  C   UNL A   1      36.582  29.402  28.957  1.00  0.00     0.010 A 
ATOM     26  C   UNL A   1      37.384  31.655  28.555  1.00  0.00     0.010 A 
ATOM     27  C   UNL A   1      37.605  30.356  29.045  1.00  0.00    -0.014 A 
BRANCH  27  28
ATOM     28  C   UNL A   1      38.890  30.044  29.717  1.00  0.00     0.031 A 
ATOM     29  C   UNL A   1      39.792  29.002  29.121  1.00  0.00     0.074 A 
ATOM     30  C   UNL A   1      39.210  30.638  30.882  1.00  0.00     0.049 A 
ATOM     31  N   UNL A   1      40.885  28.479  29.608  1.00  0.00    -0.248 NA
ATOM     32  C   UNL A   1      39.403  28.475  27.803  1.00  0.00     0.031 C 
ATOM     33  C   UNL A   1      38.426  31.683  31.540  1.00  0.00     0.029 A 
ATOM     34  N   UNL A   1      40.265  30.423  31.735  1.00  0.00    -0.354 N 
ATOM     35  C   UNL A   1      41.317  27.556  28.662  1.00  0.00     0.074 A 
ATOM     36  C   UNL A   1      40.356  27.580  27.580  1.00  0.00     0.031 C 
ATOM     37  C   UNL A   1      39.009  31.990  32.712  1.00  0.00     0.029 A 
ATOM     38  C   UNL A   1      40.180  31.138  32.907  1.00  0.00     0.049 A 
ATOM     39  H   UNL A   1      41.011  29.815  31.526  1.00  0.00     0.167 HD
ATOM     40  C   UNL A   1      42.413  26.760  28.699  1.00  0.00     0.034 A 
ATOM     41  C   UNL A   1      40.933  31.076  34.025  1.00  0.00     0.034 A 
ATOM     42  C   UNL A   1      43.357  26.738  29.787  1.00  0.00     0.049 A 
ATOM     43  C   UNL A   1      42.092  30.105  34.079  1.00  0.00     0.074 A 
ATOM     44  C   UNL A   1      44.532  26.015  29.890  1.00  0.00     0.029 A 
ATOM     45  N   UNL A   1      43.221  27.446  30.972  1.00  0.00    -0.354 N 
ATOM     46  N   UNL A   1      42.520  29.276  33.153  1.00  0.00    -0.248 NA
ATOM     47  C   UNL A   1      42.866  30.058  35.328  1.00  0.00     0.031 C 
ATOM     48  C   UNL A   1      45.067  26.227  31.166  1.00  0.00     0.029 A 
ATOM     49  C   UNL A   1      44.262  27.136  31.834  1.00  0.00     0.049 A 
ATOM     50  H   UNL A   1      42.491  28.076  31.172  1.00  0.00     0.167 HD
ATOM     51  C   UNL A   1      43.626  28.633  33.704  1.00  0.00     0.074 A 
ATOM     52  C   UNL A   1      43.809  29.177  35.031  1.00  0.00     0.031 C 
ATOM     53  C   UNL A   1      44.423  27.676  33.162  1.00  0.00     0.034 A 
BRANCH  40  54
ATOM     54  C   UNL A   1      42.623  25.808  27.553  1.00  0.00     0.023 A 
ATOM     55  C   UNL A   1      42.103  24.503  27.566  1.00  0.00     0.031 A 
ATOM     56  C   UNL A   1      43.345  26.224  26.420  1.00  0.00     0.131 A 
ATOM     57  C   UNL A   1      42.345  23.646  26.482  1.00  0.00     0.055 A 
ATOM     58  C   UNL A   1      43.534  25.387  25.320  1.00  0.00     0.041 A 
ATOM     59  F   UNL A   1      43.881  27.454  26.367  1.00  0.00    -0.206 F 
ATOM     60  C   UNL A   1      43.038  24.086  25.351  1.00  0.00     0.022 A 
BRANCH  57  61
ATOM     61  S   UNL A   1      41.816  21.916  26.605  1.00  0.00     0.124 S 
ATOM     62  O   UNL A   1      42.434  21.332  25.417  1.00  0.00    -0.237 OA
ATOM     63  O   UNL A   1      42.377  21.504  27.886  1.00  0.00    -0.237 OA
ATOM     64  O   UNL A   1      40.357  22.001  26.562  1.00  0.00    -0.744 OA
ENDBRANCH  57  61
ENDBRANCH  40  54
BRANCH  41  65
ATOM     65  C   UNL A   1      40.584  31.886  35.229  1.00  0.00     0.023 A 
ATOM     66  C   UNL A   1      39.533  31.509  36.078  1.00  0.00     0.031 A 
ATOM     67  C   UNL A   1      41.235  33.107  35.488  1.00  0.00     0.131 A 
ATOM     68  C   UNL A   1      39.120  32.372  37.107  1.00  0.00     0.055 A 
ATOM     69  C   UNL A   1      40.860  33.933  36.550  1.00  0.00     0.041 A 
ATOM     70  F   UNL A   1      42.243  33.520  34.705  1.00  0.00    -0.206 F 
ATOM     71  C   UNL A   1      39.784  33.575  37.355  1.00  0.00     0.022 A 
BRANCH  68  72
ATOM     72  S   UNL A   1      37.621  31.955  38.040  1.00  0.00     0.124 S 
ATOM     73  O   UNL A   1      36.652  32.890  37.478  1.00  0.00    -0.237 OA
ATOM     74  O   UNL A   1      37.433  30.550  37.694  1.00  0.00    -0.237 OA
ATOM     75  O   UNL A   1      38.002  32.210  39.427  1.00  0.00    -0.744 OA
ENDBRANCH  68  72
ENDBRANCH  41  65
BRANCH  53  76
ATOM     76  C   UNL A   1      45.579  27.188  33.996  1.00  0.00     0.023 A 
ATOM     77  C   UNL A   1      45.448  26.095  34.870  1.00  0.00     0.031 A 
ATOM     78  C   UNL A   1      46.832  27.821  33.911  1.00  0.00     0.131 A 
ATOM     79  C   UNL A   1      46.539  25.695  35.658  1.00  0.00     0.055 A 
ATOM     80  C   UNL A   1      47.928  27.385  34.656  1.00  0.00     0.041 A 
ATOM     81  F   UNL A   1      47.013  28.870  33.092  1.00  0.00    -0.206 F 
ATOM     82  C   UNL A   1      47.782  26.323  35.543  1.00  0.00     0.022 A 
BRANCH  79  83
ATOM     83  S   UNL A   1      46.296  24.379  36.882  1.00  0.00     0.124 S 
ATOM     84  O   UNL A   1      47.662  23.923  37.113  1.00  0.00    -0.237 OA
ATOM     85  O   UNL A   1      45.666  25.092  37.990  1.00  0.00    -0.237 OA
ATOM     86  O   UNL A   1      45.431  23.423  36.192  1.00  0.00    -0.744 OA
ENDBRANCH  79  83
ENDBRANCH  53  76
ENDBRANCH  27  28
ENDBRANCH  20  22
ENDBRANCH  19  20
ENDBRANCH  18  19
ENDBRANCH   1  18
TORSDOF 17
ENDMDL
MODEL 3
REMARK VINA RESULT:     -10.6      2.648      3.494
REMARK SMILES O=C(COc1ncc(C(F)(F)F)cc1Cl)OCCOC(=O)c1ccc(-c2c3nc(c(-c4cc(S(=O)(=O)[O-])ccc4F)c4ccc([nH]4)c(-c4cc(S(=O)(=O)[O-])ccc4F)c4nc(c(-c5cc(S(=O)(=O)[O-])ccc5F)c5ccc2[nH]5)C=C4)C=C3)cc1
REMARK SMILES IDX 17 1 16 2 2 3 1 4 3 5 4 6 5 7 6 8 14 9 7 10 13 11 15 12 8 13
REMARK SMILES IDX 9 14 10 15 11 16 12 17 18 18 19 19 20 20 21 21 22 22 23 23
REMARK SMILES IDX 84 24 24 25 83 26 25 27 26 28 27 29 77 30 28 31 82 32 76 33
REMARK SMILES IDX 78 34 29 35 81 36 75 37 74 38 30 40 62 41 42 42 61 43 43 44
REMARK SMILES IDX 46 45 60 46 79 47 44 48 45 49 59 51 80 52 47 53 31 54 32 55
REMARK SMILES IDX 40 56 33 57 39 58 41 59 38 60 34 61 35 62 36 63 37 64 63 65
REMARK SMILES IDX 64 66 72 67 65 68 71 69 73 70 70 71 66 72 67 73 68 74 69 75
REMARK SMILES IDX 48 76 49 77 57 78 50 79 56 80 58 81 55 82 51 83 52 84 53 85
REMARK SMILES IDX 54 86
REMARK H PARENT 78 39 46 50
REMARK Flexibility Score: inf
ROOT
ATOM      1  C   UNL A   1      35.655  20.643  24.998  1.00  0.00     0.274 C 
ENDROOT
BRANCH   1   2
ATOM      2  O   UNL A   1      34.775  21.526  24.272  1.00  0.00    -0.460 OA
BRANCH   2   3
ATOM      3  C   UNL A   1      33.438  21.606  24.492  1.00  0.00     0.344 C 
ATOM      4  O   UNL A   1      32.849  20.708  25.091  1.00  0.00    -0.248 OA
BRANCH   3   5
ATOM      5  C   UNL A   1      32.707  22.859  24.044  1.00  0.00     0.353 C 
BRANCH   5   6
ATOM      6  O   UNL A   1      33.603  23.690  23.310  1.00  0.00    -0.465 OA
BRANCH   6   7
ATOM      7  C   UNL A   1      33.652  24.927  23.901  1.00  0.00     0.233 A 
ATOM      8  N   UNL A   1      33.894  24.917  25.231  1.00  0.00    -0.220 NA
ATOM      9  C   UNL A   1      33.402  26.080  23.165  1.00  0.00     0.103 A 
ATOM     10  C   UNL A   1      33.910  26.118  25.857  1.00  0.00     0.128 A 
ATOM     11  C   UNL A   1      33.445  27.299  23.833  1.00  0.00     0.041 A 
ATOM     12  Cl  UNL A   1      33.031  26.051  21.485  1.00  0.00    -0.078 Cl
ATOM     13  C   UNL A   1      33.699  27.328  25.210  1.00  0.00     0.076 A 
BRANCH  13  14
ATOM     14  C   UNL A   1      33.680  28.605  25.993  1.00  0.00     0.417 C 
ATOM     15  F   UNL A   1      33.328  29.668  25.219  1.00  0.00    -0.166 F 
ATOM     16  F   UNL A   1      32.810  28.585  27.034  1.00  0.00    -0.166 F 
ATOM     17  F   UNL A   1      34.896  28.922  26.521  1.00  0.00    -0.166 F 
ENDBRANCH  13  14
ENDBRANCH   6   7
ENDBRANCH   5   6
ENDBRANCH   3   5
ENDBRANCH   2   3
ENDBRANCH   1   2
BRANCH   1  18
ATOM     18  C   UNL A   1      37.116  20.972  24.690  1.00  0.00     0.275 C 
BRANCH  18  19
ATOM     19  O   UNL A   1      37.677  21.763  25.753  1.00  0.00    -0.458 OA
BRANCH  19  20
ATOM     20  C   UNL A   1      38.944  21.443  26.126  1.00  0.00     0.338 C 
ATOM     21  O   UNL A   1      39.513  20.383  25.942  1.00  0.00    -0.246 OA
BRANCH  20  22
ATOM     22  C   UNL A   1      39.596  22.668  26.631  1.00  0.00     0.060 A 
ATOM     23  C   UNL A   1      39.184  23.907  26.125  1.00  0.00     0.016 A 
ATOM     24  C   UNL A   1      40.586  22.600  27.616  1.00  0.00     0.016 A 
ATOM     25  C   UNL A   1      39.754  25.086  26.615  1.00  0.00     0.010 A 
ATOM     26  C   UNL A   1      41.165  23.778  28.091  1.00  0.00     0.010 A 
ATOM     27  C   UNL A   1      40.756  25.028  27.592  1.00  0.00    -0.014 A 
BRANCH  27  28
ATOM     28  C   UNL A   1      41.451  26.254  28.054  1.00  0.00     0.031 A 
ATOM     29  C   UNL A   1      40.656  27.332  28.734  1.00  0.00     0.074 A 
ATOM     30  C   UNL A   1      42.763  26.428  27.805  1.00  0.00     0.049 A 
ATOM     31  N   UNL A   1      41.029  28.531  29.093  1.00  0.00    -0.248 NA
ATOM     32  C   UNL A   1      39.253  27.015  29.043  1.00  0.00     0.031 C 
ATOM     33  C   UNL A   1      43.641  25.440  27.178  1.00  0.00     0.029 A 
ATOM     34  N   UNL A   1      43.578  27.512  28.023  1.00  0.00    -0.354 N 
ATOM     35  C   UNL A   1      39.907  29.120  29.666  1.00  0.00     0.074 A 
ATOM     36  C   UNL A   1      38.836  28.148  29.591  1.00  0.00     0.031 C 
ATOM     37  C   UNL A   1      44.864  25.980  27.027  1.00  0.00     0.029 A 
ATOM     38  C   UNL A   1      44.845  27.360  27.507  1.00  0.00     0.049 A 
ATOM     39  H   UNL A   1      43.284  28.320  28.501  1.00  0.00     0.167 HD
ATOM     40  C   UNL A   1      39.784  30.358  30.201  1.00  0.00     0.034 A 
ATOM     41  C   UNL A   1      45.854  28.248  27.395  1.00  0.00     0.034 A 
ATOM     42  C   UNL A   1      40.855  31.321  30.260  1.00  0.00     0.049 A 
ATOM     43  C   UNL A   1      45.657  29.656  27.909  1.00  0.00     0.074 A 
ATOM     44  C   UNL A   1      40.849  32.577  30.839  1.00  0.00     0.029 A 
ATOM     45  N   UNL A   1      42.111  31.148  29.697  1.00  0.00    -0.354 N 
ATOM     46  N   UNL A   1      44.606  30.182  28.498  1.00  0.00    -0.248 NA
ATOM     47  C   UNL A   1      46.778  30.593  27.740  1.00  0.00     0.031 C 
ATOM     48  C   UNL A   1      42.074  33.193  30.561  1.00  0.00     0.029 A 
ATOM     49  C   UNL A   1      42.870  32.296  29.868  1.00  0.00     0.049 A 
ATOM     50  H   UNL A   1      42.418  30.330  29.243  1.00  0.00     0.167 HD
ATOM     51  C   UNL A   1      44.955  31.499  28.791  1.00  0.00     0.074 A 
ATOM     52  C   UNL A   1      46.313  31.684  28.329  1.00  0.00     0.031 C 
ATOM     53  C   UNL A   1      44.219  32.471  29.388  1.00  0.00     0.034 A 
BRANCH  40  54
ATOM     54  C   UNL A   1      38.430  30.765  30.717  1.00  0.00     0.023 A 
ATOM     55  C   UNL A   1      37.486  31.408  29.898  1.00  0.00     0.031 A 
ATOM     56  C   UNL A   1      38.075  30.488  32.049  1.00  0.00     0.131 A 
ATOM     57  C   UNL A   1      36.245  31.788  30.433  1.00  0.00     0.055 A 
ATOM     58  C   UNL A   1      36.819  30.815  32.558  1.00  0.00     0.041 A 
ATOM     59  F   UNL A   1      38.949  29.894  32.878  1.00  0.00    -0.206 F 
ATOM     60  C   UNL A   1      35.898  31.476  31.750  1.00  0.00     0.022 A 
BRANCH  57  61
ATOM     61  S   UNL A   1      35.120  32.772  29.407  1.00  0.00     0.124 S 
ATOM     62  O   UNL A   1      36.010  33.820  28.913  1.00  0.00    -0.237 OA
ATOM     63  O   UNL A   1      34.663  31.802  28.419  1.00  0.00    -0.237 OA
ATOM     64  O   UNL A   1      34.101  33.224  30.353  1.00  0.00    -0.744 OA
ENDBRANCH  57  61
ENDBRANCH  40  54
BRANCH  41  65
ATOM     65  C   UNL A   1      47.121  27.881  26.696  1.00  0.00     0.023 A 
ATOM     66  C   UNL A   1      47.254  28.030  25.307  1.00  0.00     0.031 A 
ATOM     67  C   UNL A   1      48.183  27.281  27.398  1.00  0.00     0.131 A 
ATOM     68  C   UNL A   1      48.392  27.528  24.654  1.00  0.00     0.055 A 
ATOM     69  C   UNL A   1      49.339  26.838  26.752  1.00  0.00     0.041 A 
ATOM     70  F   UNL A   1      48.108  27.108  28.727  1.00  0.00    -0.206 F 
ATOM     71  C   UNL A   1      49.439  26.943  25.369  1.00  0.00     0.022 A 
BRANCH  68  72
ATOM     72  S   UNL A   1      48.426  27.538  22.840  1.00  0.00     0.124 S 
ATOM     73  O   UNL A   1      47.198  28.259  22.524  1.00  0.00    -0.237 OA
ATOM     74  O   UNL A   1      49.674  28.242  22.568  1.00  0.00    -0.237 OA
ATOM     75  O   UNL A   1      48.424  26.118  22.493  1.00  0.00    -0.744 OA
ENDBRANCH  68  72
ENDBRANCH  41  65
BRANCH  53  76
ATOM     76  C   UNL A   1      44.885  33.806  29.602  1.00  0.00     0.023 A 
ATOM     77  C   UNL A   1      44.859  34.809  28.618  1.00  0.00     0.031 A 
ATOM     78  C   UNL A   1      45.551  34.080  30.811  1.00  0.00     0.131 A 
ATOM     79  C   UNL A   1      45.524  36.025  28.842  1.00  0.00     0.055 A 
ATOM     80  C   UNL A   1      46.164  35.311  31.049  1.00  0.00     0.041 A 
ATOM     81  F   UNL A   1      45.607  33.157  31.785  1.00  0.00    -0.206 F 
ATOM     82  C   UNL A   1      46.161  36.288  30.058  1.00  0.00     0.022 A 
BRANCH  79  83
ATOM     83  S   UNL A   1      45.597  37.240  27.497  1.00  0.00     0.124 S 
ATOM     84  O   UNL A   1      46.593  36.651  26.609  1.00  0.00    -0.237 OA
ATOM     85  O   UNL A   1      44.224  37.244  27.001  1.00  0.00    -0.237 OA
ATOM     86  O   UNL A   1      46.015  38.470  28.168  1.00  0.00    -0.744 OA
ENDBRANCH  79  83
ENDBRANCH  53  76
ENDBRANCH  27  28
ENDBRANCH  20  22
ENDBRANCH  19  20
ENDBRANCH  18  19
ENDBRANCH   1  18
TORSDOF 17
ENDMDL
