MODEL 1
REMARK VINA RESULT:     -13.3      0.000      0.000
REMARK SMILES Cc1ccccc1OC1(C(=O)OCCOC(=O)c2ccc(-c3c4nc(c(-c5cc(S(=O)(=O)[O-])ccc5F)c5ccc([nH]5)c(-c5cc(S(=O)(=O)[O-])ccc5F)c5nc(c(-c6cc(S(=O)(=O)[O-])ccc6F)c6ccc3[nH]6)C=C5)C=C4)cc2)CCN(C(=O)[C@H]2CCCCO2)CC1
REMARK SMILES IDX 14 1 13 2 12 3 10 4 11 5 9 6 81 7 93 8 82 9 92 10 83 11
REMARK SMILES IDX 84 12 85 13 8 14 7 15 1 16 2 17 3 18 4 19 6 20 5 21 86 22
REMARK SMILES IDX 87 23 91 24 88 25 90 26 89 27 15 28 16 29 17 30 18 31 19 32
REMARK SMILES IDX 80 33 20 34 79 35 21 36 22 37 23 38 73 39 24 40 78 41 72 42
REMARK SMILES IDX 74 43 25 44 77 45 71 46 70 47 26 49 58 50 38 51 57 52 39 53
REMARK SMILES IDX 42 54 56 55 75 56 40 57 41 58 55 60 76 61 43 62 27 63 28 64
REMARK SMILES IDX 36 65 29 66 35 67 37 68 34 69 30 70 31 71 32 72 33 73 59 74
REMARK SMILES IDX 60 75 68 76 61 77 67 78 69 79 66 80 62 81 63 82 64 83 65 84
REMARK SMILES IDX 44 85 45 86 53 87 46 88 52 89 54 90 51 91 47 92 48 93 49 94
REMARK SMILES IDX 50 95
REMARK H PARENT 74 48 42 59
REMARK Flexibility Score: inf
ROOT
ATOM      1  C   UNL A   1      34.223  28.902  26.573  1.00  0.00     0.275 C 
ENDROOT
BRANCH   1   2
ATOM      2  C   UNL A   1      33.112  29.619  25.787  1.00  0.00     0.274 C 
BRANCH   2   3
ATOM      3  O   UNL A   1      32.264  28.711  25.058  1.00  0.00    -0.459 OA
BRANCH   3   4
ATOM      4  C   UNL A   1      32.647  28.552  23.754  1.00  0.00     0.350 C 
ATOM      5  O   UNL A   1      33.314  29.400  23.163  1.00  0.00    -0.247 OA
BRANCH   4   6
ATOM      6  C   UNL A   1      31.951  27.334  23.033  1.00  0.00     0.209 C 
ATOM      7  C   UNL A   1      33.113  26.849  22.161  1.00  0.00     0.082 C 
ATOM      8  C   UNL A   1      31.478  26.418  24.186  1.00  0.00     0.082 C 
ATOM      9  C   UNL A   1      33.954  25.788  22.833  1.00  0.00     0.124 C 
ATOM     10  C   UNL A   1      31.942  24.977  24.128  1.00  0.00     0.124 C 
ATOM     11  N   UNL A   1      33.215  24.701  23.467  1.00  0.00    -0.340 N 
ATOM     12  C   UNL A   1      33.828  23.440  23.464  1.00  0.00     0.251 C 
ATOM     13  O   UNL A   1      34.874  23.256  22.830  1.00  0.00    -0.272 OA
BRANCH   6  14
ATOM     14  O   UNL A   1      30.869  27.724  22.161  1.00  0.00    -0.475 OA
BRANCH  14  15
ATOM     15  C   UNL A   1      29.816  28.552  22.483  1.00  0.00     0.123 A 
ATOM     16  C   UNL A   1      28.046  27.033  23.698  1.00  0.00     0.048 C 
ATOM     17  C   UNL A   1      28.614  28.320  23.178  1.00  0.00    -0.009 A 
ATOM     18  C   UNL A   1      27.677  29.384  23.320  1.00  0.00     0.007 A 
ATOM     19  C   UNL A   1      27.883  30.639  22.766  1.00  0.00     0.001 A 
ATOM     20  C   UNL A   1      29.971  29.828  21.899  1.00  0.00     0.047 A 
ATOM     21  C   UNL A   1      29.033  30.859  22.039  1.00  0.00     0.004 A 
ENDBRANCH  14  15
ENDBRANCH   6  14
BRANCH  12  22
ATOM     22  C   UNL A   1      33.187  22.286  24.282  1.00  0.00     0.207 C 
ATOM     23  C   UNL A   1      32.709  21.152  23.369  1.00  0.00     0.042 C 
ATOM     24  O   UNL A   1      34.190  21.793  25.188  1.00  0.00    -0.368 OA
ATOM     25  C   UNL A   1      32.287  19.920  24.164  1.00  0.00     0.006 C 
ATOM     26  C   UNL A   1      33.739  20.727  26.013  1.00  0.00     0.161 C 
ATOM     27  C   UNL A   1      33.370  19.528  25.156  1.00  0.00     0.029 C 
ENDBRANCH  12  22
ENDBRANCH   4   6
ENDBRANCH   3   4
ENDBRANCH   2   3
ENDBRANCH   1   2
BRANCH   1  28
ATOM     28  O   UNL A   1      34.557  29.349  27.908  1.00  0.00    -0.458 OA
BRANCH  28  29
ATOM     29  C   UNL A   1      35.391  30.406  28.046  1.00  0.00     0.338 C 
ATOM     30  O   UNL A   1      35.000  31.564  28.218  1.00  0.00    -0.246 OA
BRANCH  29  31
ATOM     31  C   UNL A   1      36.789  29.937  28.210  1.00  0.00     0.060 A 
ATOM     32  C   UNL A   1      37.090  29.088  29.281  1.00  0.00     0.016 A 
ATOM     33  C   UNL A   1      37.704  30.102  27.170  1.00  0.00     0.016 A 
ATOM     34  C   UNL A   1      38.245  28.310  29.266  1.00  0.00     0.010 A 
ATOM     35  C   UNL A   1      38.814  29.283  27.113  1.00  0.00     0.010 A 
ATOM     36  C   UNL A   1      39.087  28.381  28.153  1.00  0.00    -0.014 A 
BRANCH  36  37
ATOM     37  C   UNL A   1      40.428  27.802  28.153  1.00  0.00     0.031 A 
ATOM     38  C   UNL A   1      40.736  26.406  27.786  1.00  0.00     0.074 A 
ATOM     39  C   UNL A   1      41.379  28.625  28.645  1.00  0.00     0.049 A 
ATOM     40  N   UNL A   1      41.641  25.690  28.368  1.00  0.00    -0.248 NA
ATOM     41  C   UNL A   1      40.028  25.686  26.731  1.00  0.00     0.031 C 
ATOM     42  C   UNL A   1      42.812  28.423  28.755  1.00  0.00     0.029 A 
ATOM     43  N   UNL A   1      41.138  29.769  29.410  1.00  0.00    -0.354 N 
ATOM     44  C   UNL A   1      41.835  24.557  27.604  1.00  0.00     0.074 A 
ATOM     45  C   UNL A   1      40.745  24.555  26.654  1.00  0.00     0.031 C 
ATOM     46  C   UNL A   1      43.254  29.178  29.779  1.00  0.00     0.029 A 
ATOM     47  C   UNL A   1      42.076  29.752  30.430  1.00  0.00     0.049 A 
ATOM     48  H   UNL A   1      40.442  30.450  29.257  1.00  0.00     0.167 HD
ATOM     49  C   UNL A   1      42.987  23.834  27.730  1.00  0.00     0.034 A 
ATOM     50  C   UNL A   1      41.736  29.625  31.745  1.00  0.00     0.034 A 
ATOM     51  C   UNL A   1      43.890  24.447  28.694  1.00  0.00     0.049 A 
ATOM     52  C   UNL A   1      42.516  28.503  32.376  1.00  0.00     0.074 A 
ATOM     53  C   UNL A   1      44.931  25.344  28.515  1.00  0.00     0.029 A 
ATOM     54  N   UNL A   1      43.607  24.424  30.053  1.00  0.00    -0.354 N 
ATOM     55  N   UNL A   1      42.833  27.398  31.757  1.00  0.00    -0.248 NA
ATOM     56  C   UNL A   1      43.033  28.580  33.733  1.00  0.00     0.031 C 
ATOM     57  C   UNL A   1      45.213  25.935  29.767  1.00  0.00     0.029 A 
ATOM     58  C   UNL A   1      44.379  25.359  30.712  1.00  0.00     0.049 A 
ATOM     59  H   UNL A   1      42.951  23.829  30.483  1.00  0.00     0.167 HD
ATOM     60  C   UNL A   1      43.673  26.674  32.568  1.00  0.00     0.074 A 
ATOM     61  C   UNL A   1      43.740  27.441  33.803  1.00  0.00     0.031 C 
ATOM     62  C   UNL A   1      44.303  25.537  32.151  1.00  0.00     0.034 A 
BRANCH  49  63
ATOM     63  C   UNL A   1      43.458  22.799  26.729  1.00  0.00     0.023 A 
ATOM     64  C   UNL A   1      42.898  21.500  26.758  1.00  0.00     0.031 A 
ATOM     65  C   UNL A   1      44.453  23.009  25.759  1.00  0.00     0.131 A 
ATOM     66  C   UNL A   1      43.389  20.464  25.945  1.00  0.00     0.055 A 
ATOM     67  C   UNL A   1      44.969  21.967  24.970  1.00  0.00     0.041 A 
ATOM     68  F   UNL A   1      44.942  24.236  25.519  1.00  0.00    -0.206 F 
ATOM     69  C   UNL A   1      44.451  20.682  25.073  1.00  0.00     0.022 A 
BRANCH  66  70
ATOM     70  S   UNL A   1      42.629  18.818  26.059  1.00  0.00     0.124 S 
ATOM     71  O   UNL A   1      43.376  18.059  25.061  1.00  0.00    -0.237 OA
ATOM     72  O   UNL A   1      42.872  18.463  27.453  1.00  0.00    -0.237 OA
ATOM     73  O   UNL A   1      41.229  19.064  25.720  1.00  0.00    -0.744 OA
ENDBRANCH  66  70
ENDBRANCH  49  63
BRANCH  50  74
ATOM     74  C   UNL A   1      40.345  30.002  32.157  1.00  0.00     0.023 A 
ATOM     75  C   UNL A   1      39.867  31.302  31.878  1.00  0.00     0.031 A 
ATOM     76  C   UNL A   1      39.407  29.064  32.617  1.00  0.00     0.131 A 
ATOM     77  C   UNL A   1      38.495  31.596  31.943  1.00  0.00     0.055 A 
ATOM     78  C   UNL A   1      38.043  29.374  32.730  1.00  0.00     0.041 A 
ATOM     79  F   UNL A   1      39.775  27.807  32.900  1.00  0.00    -0.206 F 
ATOM     80  C   UNL A   1      37.576  30.635  32.365  1.00  0.00     0.022 A 
BRANCH  77  81
ATOM     81  S   UNL A   1      37.899  33.174  31.261  1.00  0.00     0.124 S 
ATOM     82  O   UNL A   1      36.646  33.361  31.984  1.00  0.00    -0.237 OA
ATOM     83  O   UNL A   1      38.979  34.095  31.601  1.00  0.00    -0.237 OA
ATOM     84  O   UNL A   1      37.771  32.893  29.834  1.00  0.00    -0.744 OA
ENDBRANCH  77  81
ENDBRANCH  50  74
BRANCH  62  85
ATOM     85  C   UNL A   1      45.067  24.591  33.046  1.00  0.00     0.023 A 
ATOM     86  C   UNL A   1      46.373  24.853  33.477  1.00  0.00     0.031 A 
ATOM     87  C   UNL A   1      44.469  23.420  33.568  1.00  0.00     0.131 A 
ATOM     88  C   UNL A   1      47.074  23.932  34.271  1.00  0.00     0.055 A 
ATOM     89  C   UNL A   1      45.138  22.548  34.433  1.00  0.00     0.041 A 
ATOM     90  F   UNL A   1      43.206  23.076  33.276  1.00  0.00    -0.206 F 
ATOM     91  C   UNL A   1      46.460  22.789  34.772  1.00  0.00     0.022 A 
BRANCH  88  92
ATOM     92  S   UNL A   1      48.834  24.239  34.561  1.00  0.00     0.124 S 
ATOM     93  O   UNL A   1      48.806  24.942  35.841  1.00  0.00    -0.237 OA
ATOM     94  O   UNL A   1      49.386  22.888  34.592  1.00  0.00    -0.237 OA
ATOM     95  O   UNL A   1      49.236  25.050  33.414  1.00  0.00    -0.744 OA
ENDBRANCH  88  92
ENDBRANCH  62  85
ENDBRANCH  36  37
ENDBRANCH  29  31
ENDBRANCH  28  29
ENDBRANCH   1  28
TORSDOF 17
ENDMDL
MODEL 2
REMARK VINA RESULT:     -13.0      3.958     10.303
REMARK SMILES Cc1ccccc1OC1(C(=O)OCCOC(=O)c2ccc(-c3c4nc(c(-c5cc(S(=O)(=O)[O-])ccc5F)c5ccc([nH]5)c(-c5cc(S(=O)(=O)[O-])ccc5F)c5nc(c(-c6cc(S(=O)(=O)[O-])ccc6F)c6ccc3[nH]6)C=C5)C=C4)cc2)CCN(C(=O)[C@H]2CCCCO2)CC1
REMARK SMILES IDX 14 1 13 2 12 3 10 4 11 5 9 6 81 7 93 8 82 9 92 10 83 11
REMARK SMILES IDX 84 12 85 13 8 14 7 15 1 16 2 17 3 18 4 19 6 20 5 21 86 22
REMARK SMILES IDX 87 23 91 24 88 25 90 26 89 27 15 28 16 29 17 30 18 31 19 32
REMARK SMILES IDX 80 33 20 34 79 35 21 36 22 37 23 38 73 39 24 40 78 41 72 42
REMARK SMILES IDX 74 43 25 44 77 45 71 46 70 47 26 49 58 50 38 51 57 52 39 53
REMARK SMILES IDX 42 54 56 55 75 56 40 57 41 58 55 60 76 61 43 62 27 63 28 64
REMARK SMILES IDX 36 65 29 66 35 67 37 68 34 69 30 70 31 71 32 72 33 73 59 74
REMARK SMILES IDX 60 75 68 76 61 77 67 78 69 79 66 80 62 81 63 82 64 83 65 84
REMARK SMILES IDX 44 85 45 86 53 87 46 88 52 89 54 90 51 91 47 92 48 93 49 94
REMARK SMILES IDX 50 95
REMARK H PARENT 74 48 42 59
REMARK Flexibility Score: inf
ROOT
ATOM      1  C   UNL A   1      39.267  21.661  25.977  1.00  0.00     0.275 C 
ENDROOT
BRANCH   1   2
ATOM      2  C   UNL A   1      38.113  20.929  25.273  1.00  0.00     0.274 C 
BRANCH   2   3
ATOM      3  O   UNL A   1      36.815  21.389  25.695  1.00  0.00    -0.459 OA
BRANCH   3   4
ATOM      4  C   UNL A   1      36.023  21.786  24.653  1.00  0.00     0.350 C 
ATOM      5  O   UNL A   1      36.497  22.229  23.607  1.00  0.00    -0.247 OA
BRANCH   4   6
ATOM      6  C   UNL A   1      34.489  21.858  25.012  1.00  0.00     0.209 C 
ATOM      7  C   UNL A   1      34.550  22.785  26.229  1.00  0.00     0.082 C 
ATOM      8  C   UNL A   1      33.814  22.392  23.726  1.00  0.00     0.082 C 
ATOM      9  C   UNL A   1      34.389  24.245  25.869  1.00  0.00     0.124 C 
ATOM     10  C   UNL A   1      32.949  23.625  23.888  1.00  0.00     0.124 C 
ATOM     11  N   UNL A   1      33.291  24.557  24.959  1.00  0.00    -0.340 N 
ATOM     12  C   UNL A   1      32.666  25.799  25.132  1.00  0.00     0.251 C 
ATOM     13  O   UNL A   1      32.956  26.515  26.099  1.00  0.00    -0.272 OA
BRANCH   6  14
ATOM     14  O   UNL A   1      33.939  20.594  25.438  1.00  0.00    -0.475 OA
BRANCH  14  15
ATOM     15  C   UNL A   1      33.757  19.474  24.657  1.00  0.00     0.123 A 
ATOM     16  C   UNL A   1      35.969  18.069  24.882  1.00  0.00     0.048 C 
ATOM     17  C   UNL A   1      34.569  18.348  24.423  1.00  0.00    -0.009 A 
ATOM     18  C   UNL A   1      34.125  17.349  23.509  1.00  0.00     0.007 A 
ATOM     19  C   UNL A   1      32.935  17.458  22.805  1.00  0.00     0.001 A 
ATOM     20  C   UNL A   1      32.574  19.570  23.891  1.00  0.00     0.047 A 
ATOM     21  C   UNL A   1      32.159  18.583  22.988  1.00  0.00     0.004 A 
ENDBRANCH  14  15
ENDBRANCH   6  14
BRANCH  12  22
ATOM     22  C   UNL A   1      31.621  26.272  24.086  1.00  0.00     0.207 C 
ATOM     23  C   UNL A   1      30.189  26.080  24.598  1.00  0.00     0.042 C 
ATOM     24  O   UNL A   1      31.866  27.668  23.834  1.00  0.00    -0.368 OA
ATOM     25  C   UNL A   1      29.164  26.744  23.684  1.00  0.00     0.006 C 
ATOM     26  C   UNL A   1      30.979  28.240  22.883  1.00  0.00     0.161 C 
ATOM     27  C   UNL A   1      29.553  28.186  23.404  1.00  0.00     0.029 C 
ENDBRANCH  12  22
ENDBRANCH   4   6
ENDBRANCH   3   4
ENDBRANCH   2   3
ENDBRANCH   1   2
BRANCH   1  28
ATOM     28  O   UNL A   1      39.094  23.035  26.396  1.00  0.00    -0.458 OA
BRANCH  28  29
ATOM     29  C   UNL A   1      40.196  23.773  26.664  1.00  0.00     0.338 C 
ATOM     30  O   UNL A   1      41.317  23.510  26.220  1.00  0.00    -0.246 OA
BRANCH  29  31
ATOM     31  C   UNL A   1      39.812  25.040  27.333  1.00  0.00     0.060 A 
ATOM     32  C   UNL A   1      39.077  24.975  28.522  1.00  0.00     0.016 A 
ATOM     33  C   UNL A   1      40.413  26.239  26.947  1.00  0.00     0.016 A 
ATOM     34  C   UNL A   1      39.033  26.064  29.389  1.00  0.00     0.010 A 
ATOM     35  C   UNL A   1      40.433  27.299  27.833  1.00  0.00     0.010 A 
ATOM     36  C   UNL A   1      39.752  27.215  29.057  1.00  0.00    -0.014 A 
BRANCH  36  37
ATOM     37  C   UNL A   1      39.569  28.479  29.767  1.00  0.00     0.031 A 
ATOM     38  C   UNL A   1      38.671  29.564  29.325  1.00  0.00     0.074 A 
ATOM     39  C   UNL A   1      40.397  28.639  30.821  1.00  0.00     0.049 A 
ATOM     40  N   UNL A   1      38.943  30.822  29.449  1.00  0.00    -0.248 NA
ATOM     41  C   UNL A   1      37.384  29.319  28.680  1.00  0.00     0.031 C 
ATOM     42  C   UNL A   1      40.474  29.724  31.781  1.00  0.00     0.029 A 
ATOM     43  N   UNL A   1      41.556  27.894  31.056  1.00  0.00    -0.354 N 
ATOM     44  C   UNL A   1      37.787  31.528  29.184  1.00  0.00     0.074 A 
ATOM     45  C   UNL A   1      36.876  30.558  28.618  1.00  0.00     0.031 C 
ATOM     46  C   UNL A   1      41.737  29.766  32.250  1.00  0.00     0.029 A 
ATOM     47  C   UNL A   1      42.516  28.803  31.473  1.00  0.00     0.049 A 
ATOM     48  H   UNL A   1      41.668  26.921  30.947  1.00  0.00     0.167 HD
ATOM     49  C   UNL A   1      37.652  32.813  29.630  1.00  0.00     0.034 A 
ATOM     50  C   UNL A   1      43.645  29.066  30.754  1.00  0.00     0.034 A 
ATOM     51  C   UNL A   1      38.821  33.231  30.391  1.00  0.00     0.049 A 
ATOM     52  C   UNL A   1      43.788  30.549  30.541  1.00  0.00     0.074 A 
ATOM     53  C   UNL A   1      39.072  33.197  31.753  1.00  0.00     0.029 A 
ATOM     54  N   UNL A   1      40.035  33.470  29.762  1.00  0.00    -0.354 N 
ATOM     55  N   UNL A   1      42.782  31.357  30.343  1.00  0.00    -0.248 NA
ATOM     56  C   UNL A   1      45.076  31.222  30.586  1.00  0.00     0.031 C 
ATOM     57  C   UNL A   1      40.468  33.323  31.938  1.00  0.00     0.029 A 
ATOM     58  C   UNL A   1      41.054  33.485  30.693  1.00  0.00     0.049 A 
ATOM     59  H   UNL A   1      40.152  33.607  28.794  1.00  0.00     0.167 HD
ATOM     60  C   UNL A   1      43.256  32.646  30.346  1.00  0.00     0.074 A 
ATOM     61  C   UNL A   1      44.699  32.506  30.470  1.00  0.00     0.031 C 
ATOM     62  C   UNL A   1      42.433  33.735  30.314  1.00  0.00     0.034 A 
BRANCH  49  63
ATOM     63  C   UNL A   1      36.334  33.556  29.702  1.00  0.00     0.023 A 
ATOM     64  C   UNL A   1      35.822  33.940  30.964  1.00  0.00     0.031 A 
ATOM     65  C   UNL A   1      35.533  33.887  28.596  1.00  0.00     0.131 A 
ATOM     66  C   UNL A   1      34.545  34.512  31.102  1.00  0.00     0.055 A 
ATOM     67  C   UNL A   1      34.242  34.426  28.733  1.00  0.00     0.041 A 
ATOM     68  F   UNL A   1      35.981  33.728  27.341  1.00  0.00    -0.206 F 
ATOM     69  C   UNL A   1      33.734  34.724  29.992  1.00  0.00     0.022 A 
BRANCH  66  70
ATOM     70  S   UNL A   1      33.951  34.955  32.760  1.00  0.00     0.124 S 
ATOM     71  O   UNL A   1      35.148  35.512  33.382  1.00  0.00    -0.237 OA
ATOM     72  O   UNL A   1      32.881  35.900  32.462  1.00  0.00    -0.237 OA
ATOM     73  O   UNL A   1      33.509  33.678  33.317  1.00  0.00    -0.744 OA
ENDBRANCH  66  70
ENDBRANCH  49  63
BRANCH  50  74
ATOM     74  C   UNL A   1      44.117  28.037  29.772  1.00  0.00     0.023 A 
ATOM     75  C   UNL A   1      43.686  28.111  28.429  1.00  0.00     0.031 A 
ATOM     76  C   UNL A   1      45.142  27.122  30.062  1.00  0.00     0.131 A 
ATOM     77  C   UNL A   1      44.342  27.388  27.419  1.00  0.00     0.055 A 
ATOM     78  C   UNL A   1      45.763  26.362  29.059  1.00  0.00     0.041 A 
ATOM     79  F   UNL A   1      45.614  26.993  31.309  1.00  0.00    -0.206 F 
ATOM     80  C   UNL A   1      45.384  26.514  27.726  1.00  0.00     0.022 A 
BRANCH  77  81
ATOM     81  S   UNL A   1      43.967  27.766  25.680  1.00  0.00     0.124 S 
ATOM     82  O   UNL A   1      45.262  28.215  25.182  1.00  0.00    -0.237 OA
ATOM     83  O   UNL A   1      43.494  26.483  25.170  1.00  0.00    -0.237 OA
ATOM     84  O   UNL A   1      42.935  28.795  25.777  1.00  0.00    -0.744 OA
ENDBRANCH  77  81
ENDBRANCH  50  74
BRANCH  62  85
ATOM     85  C   UNL A   1      42.888  35.160  30.109  1.00  0.00     0.023 A 
ATOM     86  C   UNL A   1      42.632  35.870  28.930  1.00  0.00     0.031 A 
ATOM     87  C   UNL A   1      43.532  35.887  31.138  1.00  0.00     0.131 A 
ATOM     88  C   UNL A   1      43.108  37.178  28.751  1.00  0.00     0.055 A 
ATOM     89  C   UNL A   1      43.926  37.221  30.991  1.00  0.00     0.041 A 
ATOM     90  F   UNL A   1      43.795  35.343  32.335  1.00  0.00    -0.206 F 
ATOM     91  C   UNL A   1      43.736  37.869  29.782  1.00  0.00     0.022 A 
BRANCH  88  92
ATOM     92  S   UNL A   1      42.948  37.915  27.106  1.00  0.00     0.124 S 
ATOM     93  O   UNL A   1      44.272  38.501  26.914  1.00  0.00    -0.237 OA
ATOM     94  O   UNL A   1      42.642  36.757  26.272  1.00  0.00    -0.237 OA
ATOM     95  O   UNL A   1      41.859  38.876  27.263  1.00  0.00    -0.744 OA
ENDBRANCH  88  92
ENDBRANCH  62  85
ENDBRANCH  36  37
ENDBRANCH  29  31
ENDBRANCH  28  29
ENDBRANCH   1  28
TORSDOF 17
ENDMDL
MODEL 3
REMARK VINA RESULT:     -12.8      1.342      4.341
REMARK SMILES Cc1ccccc1OC1(C(=O)OCCOC(=O)c2ccc(-c3c4nc(c(-c5cc(S(=O)(=O)[O-])ccc5F)c5ccc([nH]5)c(-c5cc(S(=O)(=O)[O-])ccc5F)c5nc(c(-c6cc(S(=O)(=O)[O-])ccc6F)c6ccc3[nH]6)C=C5)C=C4)cc2)CCN(C(=O)[C@H]2CCCCO2)CC1
REMARK SMILES IDX 14 1 13 2 12 3 10 4 11 5 9 6 81 7 93 8 82 9 92 10 83 11
REMARK SMILES IDX 84 12 85 13 8 14 7 15 1 16 2 17 3 18 4 19 6 20 5 21 86 22
REMARK SMILES IDX 87 23 91 24 88 25 90 26 89 27 15 28 16 29 17 30 18 31 19 32
REMARK SMILES IDX 80 33 20 34 79 35 21 36 22 37 23 38 73 39 24 40 78 41 72 42
REMARK SMILES IDX 74 43 25 44 77 45 71 46 70 47 26 49 58 50 38 51 57 52 39 53
REMARK SMILES IDX 42 54 56 55 75 56 40 57 41 58 55 60 76 61 43 62 27 63 28 64
REMARK SMILES IDX 36 65 29 66 35 67 37 68 34 69 30 70 31 71 32 72 33 73 59 74
REMARK SMILES IDX 60 75 68 76 61 77 67 78 69 79 66 80 62 81 63 82 64 83 65 84
REMARK SMILES IDX 44 85 45 86 53 87 46 88 52 89 54 90 51 91 47 92 48 93 49 94
REMARK SMILES IDX 50 95
REMARK H PARENT 74 48 42 59
REMARK Flexibility Score: inf
ROOT
ATOM      1  C   UNL A   1      34.296  29.081  26.997  1.00  0.00     0.275 C 
ENDROOT
BRANCH   1   2
ATOM      2  C   UNL A   1      33.178  28.030  27.094  1.00  0.00     0.274 C 
BRANCH   2   3
ATOM      3  O   UNL A   1      33.421  26.873  26.273  1.00  0.00    -0.459 OA
BRANCH   3   4
ATOM      4  C   UNL A   1      32.271  26.276  25.835  1.00  0.00     0.350 C 
ATOM      5  O   UNL A   1      31.594  25.552  26.565  1.00  0.00    -0.247 OA
BRANCH   4   6
ATOM      6  C   UNL A   1      32.046  26.396  24.279  1.00  0.00     0.209 C 
ATOM      7  C   UNL A   1      30.594  25.918  24.188  1.00  0.00     0.082 C 
ATOM      8  C   UNL A   1      32.343  27.879  23.957  1.00  0.00     0.082 C 
ATOM      9  C   UNL A   1      29.593  27.048  24.277  1.00  0.00     0.124 C 
ATOM     10  C   UNL A   1      31.253  28.636  23.226  1.00  0.00     0.124 C 
ATOM     11  N   UNL A   1      29.872  28.210  23.440  1.00  0.00    -0.340 N 
ATOM     12  C   UNL A   1      28.762  28.905  22.940  1.00  0.00     0.251 C 
ATOM     13  O   UNL A   1      27.621  28.457  23.100  1.00  0.00    -0.272 OA
BRANCH   6  14
ATOM     14  O   UNL A   1      32.864  25.491  23.508  1.00  0.00    -0.475 OA
BRANCH  14  15
ATOM     15  C   UNL A   1      33.156  24.182  23.822  1.00  0.00     0.123 A 
ATOM     16  C   UNL A   1      35.380  24.252  25.224  1.00  0.00     0.048 C 
ATOM     17  C   UNL A   1      34.186  23.604  24.588  1.00  0.00    -0.009 A 
ATOM     18  C   UNL A   1      34.257  22.186  24.700  1.00  0.00     0.007 A 
ATOM     19  C   UNL A   1      33.370  21.340  24.051  1.00  0.00     0.001 A 
ATOM     20  C   UNL A   1      32.298  23.289  23.142  1.00  0.00     0.047 A 
ATOM     21  C   UNL A   1      32.390  21.896  23.256  1.00  0.00     0.004 A 
ENDBRANCH  14  15
ENDBRANCH   6  14
BRANCH  12  22
ATOM     22  C   UNL A   1      28.983  30.253  22.202  1.00  0.00     0.207 C 
ATOM     23  C   UNL A   1      27.987  30.431  21.051  1.00  0.00     0.042 C 
ATOM     24  O   UNL A   1      28.807  31.306  23.167  1.00  0.00    -0.368 OA
ATOM     25  C   UNL A   1      28.041  31.838  20.463  1.00  0.00     0.006 C 
ATOM     26  C   UNL A   1      28.987  32.609  22.629  1.00  0.00     0.161 C 
ATOM     27  C   UNL A   1      27.937  32.880  21.565  1.00  0.00     0.029 C 
ENDBRANCH  12  22
ENDBRANCH   4   6
ENDBRANCH   3   4
ENDBRANCH   2   3
ENDBRANCH   1   2
BRANCH   1  28
ATOM     28  O   UNL A   1      35.031  29.457  28.185  1.00  0.00    -0.458 OA
BRANCH  28  29
ATOM     29  C   UNL A   1      36.106  30.268  28.051  1.00  0.00     0.338 C 
ATOM     30  O   UNL A   1      36.054  31.494  28.180  1.00  0.00    -0.246 OA
BRANCH  29  31
ATOM     31  C   UNL A   1      37.350  29.462  27.985  1.00  0.00     0.060 A 
ATOM     32  C   UNL A   1      38.266  29.724  26.960  1.00  0.00     0.016 A 
ATOM     33  C   UNL A   1      37.725  28.674  29.073  1.00  0.00     0.016 A 
ATOM     34  C   UNL A   1      39.589  29.305  27.068  1.00  0.00     0.010 A 
ATOM     35  C   UNL A   1      39.050  28.316  29.222  1.00  0.00     0.010 A 
ATOM     36  C   UNL A   1      39.988  28.634  28.227  1.00  0.00    -0.014 A 
BRANCH  36  37
ATOM     37  C   UNL A   1      41.273  27.945  28.324  1.00  0.00     0.031 A 
ATOM     38  C   UNL A   1      41.512  26.556  27.886  1.00  0.00     0.074 A 
ATOM     39  C   UNL A   1      42.223  28.649  28.976  1.00  0.00     0.049 A 
ATOM     40  N   UNL A   1      42.288  25.728  28.504  1.00  0.00    -0.248 NA
ATOM     41  C   UNL A   1      40.873  25.972  26.710  1.00  0.00     0.031 C 
ATOM     42  C   UNL A   1      43.614  28.319  29.222  1.00  0.00     0.029 A 
ATOM     43  N   UNL A   1      41.986  29.755  29.797  1.00  0.00    -0.354 N 
ATOM     44  C   UNL A   1      42.479  24.637  27.680  1.00  0.00     0.074 A 
ATOM     45  C   UNL A   1      41.505  24.792  26.622  1.00  0.00     0.031 C 
ATOM     46  C   UNL A   1      43.996  28.963  30.342  1.00  0.00     0.029 A 
ATOM     47  C   UNL A   1      42.800  29.589  30.906  1.00  0.00     0.049 A 
ATOM     48  H   UNL A   1      41.366  30.501  29.623  1.00  0.00     0.167 HD
ATOM     49  C   UNL A   1      43.551  23.812  27.871  1.00  0.00     0.034 A 
ATOM     50  C   UNL A   1      42.306  29.402  32.164  1.00  0.00     0.034 A 
ATOM     51  C   UNL A   1      44.384  24.280  28.970  1.00  0.00     0.049 A 
ATOM     52  C   UNL A   1      42.923  28.178  32.786  1.00  0.00     0.074 A 
ATOM     53  C   UNL A   1      45.504  25.095  28.971  1.00  0.00     0.029 A 
ATOM     54  N   UNL A   1      43.949  24.189  30.286  1.00  0.00    -0.354 N 
ATOM     55  N   UNL A   1      43.221  27.095  32.121  1.00  0.00    -0.248 NA
ATOM     56  C   UNL A   1      43.288  28.118  34.192  1.00  0.00     0.031 C 
ATOM     57  C   UNL A   1      45.689  25.574  30.289  1.00  0.00     0.029 A 
ATOM     58  C   UNL A   1      44.713  25.008  31.092  1.00  0.00     0.049 A 
ATOM     59  H   UNL A   1      43.206  23.623  30.596  1.00  0.00     0.167 HD
ATOM     60  C   UNL A   1      43.906  26.249  32.958  1.00  0.00     0.074 A 
ATOM     61  C   UNL A   1      43.894  26.922  34.249  1.00  0.00     0.031 C 
ATOM     62  C   UNL A   1      44.490  25.093  32.525  1.00  0.00     0.034 A 
BRANCH  49  63
ATOM     63  C   UNL A   1      44.050  22.811  26.850  1.00  0.00     0.023 A 
ATOM     64  C   UNL A   1      43.388  21.568  26.716  1.00  0.00     0.031 A 
ATOM     65  C   UNL A   1      45.163  23.000  26.013  1.00  0.00     0.131 A 
ATOM     66  C   UNL A   1      43.885  20.552  25.882  1.00  0.00     0.055 A 
ATOM     67  C   UNL A   1      45.682  21.974  25.205  1.00  0.00     0.041 A 
ATOM     68  F   UNL A   1      45.772  24.193  25.925  1.00  0.00    -0.206 F 
ATOM     69  C   UNL A   1      45.054  20.735  25.151  1.00  0.00     0.022 A 
BRANCH  66  70
ATOM     70  S   UNL A   1      42.989  18.974  25.783  1.00  0.00     0.124 S 
ATOM     71  O   UNL A   1      43.848  18.180  24.910  1.00  0.00    -0.237 OA
ATOM     72  O   UNL A   1      42.934  18.563  27.182  1.00  0.00    -0.237 OA
ATOM     73  O   UNL A   1      41.702  19.350  25.200  1.00  0.00    -0.744 OA
ENDBRANCH  66  70
ENDBRANCH  49  63
BRANCH  50  74
ATOM     74  C   UNL A   1      40.911  29.867  32.454  1.00  0.00     0.023 A 
ATOM     75  C   UNL A   1      40.579  31.227  32.264  1.00  0.00     0.031 A 
ATOM     76  C   UNL A   1      39.850  28.981  32.701  1.00  0.00     0.131 A 
ATOM     77  C   UNL A   1      39.238  31.641  32.204  1.00  0.00     0.055 A 
ATOM     78  C   UNL A   1      38.512  29.406  32.691  1.00  0.00     0.041 A 
ATOM     79  F   UNL A   1      40.076  27.674  32.887  1.00  0.00    -0.206 F 
ATOM     80  C   UNL A   1      38.199  30.735  32.413  1.00  0.00     0.022 A 
BRANCH  77  81
ATOM     81  S   UNL A   1      38.862  33.327  31.633  1.00  0.00     0.124 S 
ATOM     82  O   UNL A   1      37.933  33.075  30.538  1.00  0.00    -0.237 OA
ATOM     83  O   UNL A   1      38.294  33.948  32.826  1.00  0.00    -0.237 OA
ATOM     84  O   UNL A   1      40.170  33.848  31.247  1.00  0.00    -0.744 OA
ENDBRANCH  77  81
ENDBRANCH  50  74
BRANCH  62  85
ATOM     85  C   UNL A   1      45.074  24.028  33.420  1.00  0.00     0.023 A 
ATOM     86  C   UNL A   1      46.404  24.058  33.858  1.00  0.00     0.031 A 
ATOM     87  C   UNL A   1      44.279  22.976  33.936  1.00  0.00     0.131 A 
ATOM     88  C   UNL A   1      46.931  23.029  34.652  1.00  0.00     0.055 A 
ATOM     89  C   UNL A   1      44.783  22.000  34.802  1.00  0.00     0.041 A 
ATOM     90  F   UNL A   1      42.978  22.857  33.637  1.00  0.00    -0.206 F 
ATOM     91  C   UNL A   1      46.125  22.008  35.147  1.00  0.00     0.022 A 
BRANCH  88  92
ATOM     92  S   UNL A   1      48.715  23.025  34.952  1.00  0.00     0.124 S 
ATOM     93  O   UNL A   1      48.782  23.431  36.353  1.00  0.00    -0.237 OA
ATOM     94  O   UNL A   1      49.077  21.638  34.677  1.00  0.00    -0.237 OA
ATOM     95  O   UNL A   1      49.227  24.004  33.995  1.00  0.00    -0.744 OA
ENDBRANCH  88  92
ENDBRANCH  62  85
ENDBRANCH  36  37
ENDBRANCH  29  31
ENDBRANCH  28  29
ENDBRANCH   1  28
TORSDOF 17
ENDMDL
