MODEL 1
REMARK VINA RESULT:     -12.1      0.000      0.000
REMARK SMILES CC1CCN(C(=O)N[C@@H]2C=C[C@H](C(=O)OCCOC(=O)c3ccc(-c4c5nc(c(-c6cc(S(=O)(=O)[O-])ccc6F)c6ccc([nH]6)c(-c6cc(S(=O)(=O)[O-])ccc6F)c6nc(c(-c7cc(S(=O)(=O)[O-])ccc7F)c7ccc4[nH]7)C=C6)C=C5)cc3)C2)CC1
REMARK SMILES IDX 17 1 16 2 15 3 13 4 14 5 12 6 9 7 10 8 84 9 11 10 8 11 1 12
REMARK SMILES IDX 2 13 3 14 86 15 4 16 85 17 5 18 6 19 7 20 18 22 19 23 20 24
REMARK SMILES IDX 21 25 22 26 83 27 23 28 82 29 24 30 25 31 26 32 76 33 27 34
REMARK SMILES IDX 81 35 75 36 77 37 28 38 80 39 74 40 73 41 29 43 61 44 41 45
REMARK SMILES IDX 60 46 42 47 45 48 59 49 78 50 43 51 44 52 58 54 79 55 46 56
REMARK SMILES IDX 30 57 31 58 39 59 32 60 38 61 40 62 37 63 33 64 34 65 35 66
REMARK SMILES IDX 36 67 62 68 63 69 71 70 64 71 70 72 72 73 69 74 65 75 66 76
REMARK SMILES IDX 67 77 68 78 47 79 48 80 56 81 49 82 55 83 57 84 54 85 50 86
REMARK SMILES IDX 51 87 52 88 53 89
REMARK H PARENT 8 21 77 42 45 53
REMARK Flexibility Score: inf
ROOT
ATOM      1  C   UNL A   1      31.638  30.445  25.691  1.00  0.00     0.275 C 
ENDROOT
BRANCH   1   2
ATOM      2  C   UNL A   1      31.426  29.083  24.873  1.00  0.00     0.274 C 
BRANCH   2   3
ATOM      3  O   UNL A   1      31.979  27.825  25.439  1.00  0.00    -0.462 OA
BRANCH   3   4
ATOM      4  C   UNL A   1      31.232  27.173  26.416  1.00  0.00     0.312 C 
ATOM      5  O   UNL A   1      31.322  27.471  27.604  1.00  0.00    -0.252 OA
BRANCH   4   6
ATOM      6  C   UNL A   1      30.380  25.940  25.903  1.00  0.00     0.124 C 
ATOM      7  C   UNL A   1      31.002  24.636  23.822  1.00  0.00     0.107 C 
ATOM      8  C   UNL A   1      29.826  25.540  23.607  1.00  0.00    -0.006 C 
ATOM      9  C   UNL A   1      31.017  24.643  25.354  1.00  0.00     0.048 C 
ATOM     10  C   UNL A   1      29.515  26.260  24.697  1.00  0.00    -0.014 C 
BRANCH   7  11
ATOM     11  N   UNL A   1      32.080  25.211  23.046  1.00  0.00    -0.332 N 
ATOM     12  C   UNL A   1      33.445  22.588  27.370  1.00  0.00     0.008 C 
ATOM     13  C   UNL A   1      34.320  22.870  26.134  1.00  0.00    -0.011 C 
ATOM     14  C   UNL A   1      34.514  24.324  25.685  1.00  0.00     0.025 C 
ATOM     15  C   UNL A   1      33.958  21.937  24.962  1.00  0.00     0.025 C 
ATOM     16  C   UNL A   1      35.093  24.472  24.308  1.00  0.00     0.121 C 
ATOM     17  C   UNL A   1      33.743  22.573  23.565  1.00  0.00     0.121 C 
ATOM     18  N   UNL A   1      34.036  23.992  23.474  1.00  0.00    -0.325 N 
ATOM     19  C   UNL A   1      33.373  24.952  22.787  1.00  0.00     0.317 C 
ATOM     20  O   UNL A   1      33.969  25.778  22.092  1.00  0.00    -0.249 OA
ATOM     21  H   UNL A   1      31.782  26.022  22.573  1.00  0.00     0.165 HD
ENDBRANCH   7  11
ENDBRANCH   4   6
ENDBRANCH   3   4
ENDBRANCH   2   3
ENDBRANCH   1   2
BRANCH   1  22
ATOM     22  O   UNL A   1      32.478  30.356  26.910  1.00  0.00    -0.458 OA
BRANCH  22  23
ATOM     23  C   UNL A   1      33.324  31.405  27.203  1.00  0.00     0.338 C 
ATOM     24  O   UNL A   1      32.982  32.574  27.245  1.00  0.00    -0.246 OA
BRANCH  23  25
ATOM     25  C   UNL A   1      34.680  30.941  27.706  1.00  0.00     0.060 A 
ATOM     26  C   UNL A   1      35.668  31.906  27.958  1.00  0.00     0.016 A 
ATOM     27  C   UNL A   1      35.015  29.613  27.968  1.00  0.00     0.016 A 
ATOM     28  C   UNL A   1      36.837  31.596  28.683  1.00  0.00     0.010 A 
ATOM     29  C   UNL A   1      36.268  29.285  28.565  1.00  0.00     0.010 A 
ATOM     30  C   UNL A   1      37.178  30.274  28.993  1.00  0.00    -0.014 A 
BRANCH  30  31
ATOM     31  C   UNL A   1      38.481  29.943  29.690  1.00  0.00     0.031 A 
ATOM     32  C   UNL A   1      39.458  28.947  29.084  1.00  0.00     0.074 A 
ATOM     33  C   UNL A   1      38.868  30.554  30.835  1.00  0.00     0.049 A 
ATOM     34  N   UNL A   1      40.572  28.461  29.582  1.00  0.00    -0.248 NA
ATOM     35  C   UNL A   1      39.159  28.462  27.731  1.00  0.00     0.031 C 
ATOM     36  C   UNL A   1      38.180  31.675  31.476  1.00  0.00     0.029 A 
ATOM     37  N   UNL A   1      39.949  30.322  31.668  1.00  0.00    -0.354 N 
ATOM     38  C   UNL A   1      41.116  27.645  28.593  1.00  0.00     0.074 A 
ATOM     39  C   UNL A   1      40.217  27.716  27.463  1.00  0.00     0.031 C 
ATOM     40  C   UNL A   1      38.821  31.997  32.615  1.00  0.00     0.029 A 
ATOM     41  C   UNL A   1      39.945  31.082  32.822  1.00  0.00     0.049 A 
ATOM     42  H   UNL A   1      40.658  29.673  31.457  1.00  0.00     0.167 HD
ATOM     43  C   UNL A   1      42.231  26.871  28.614  1.00  0.00     0.034 A 
ATOM     44  C   UNL A   1      40.713  31.024  33.937  1.00  0.00     0.034 A 
ATOM     45  C   UNL A   1      43.073  26.677  29.768  1.00  0.00     0.049 A 
ATOM     46  C   UNL A   1      41.819  29.989  34.038  1.00  0.00     0.074 A 
ATOM     47  C   UNL A   1      44.120  25.785  29.936  1.00  0.00     0.029 A 
ATOM     48  N   UNL A   1      42.948  27.368  30.963  1.00  0.00    -0.354 N 
ATOM     49  N   UNL A   1      42.238  29.133  33.135  1.00  0.00    -0.248 NA
ATOM     50  C   UNL A   1      42.542  29.901  35.318  1.00  0.00     0.031 C 
ATOM     51  C   UNL A   1      44.583  25.891  31.253  1.00  0.00     0.029 A 
ATOM     52  C   UNL A   1      43.877  26.902  31.882  1.00  0.00     0.049 A 
ATOM     53  H   UNL A   1      42.295  28.084  31.136  1.00  0.00     0.167 HD
ATOM     54  C   UNL A   1      43.279  28.423  33.735  1.00  0.00     0.074 A 
ATOM     55  C   UNL A   1      43.439  28.957  35.067  1.00  0.00     0.031 C 
ATOM     56  C   UNL A   1      44.034  27.419  33.221  1.00  0.00     0.034 A 
BRANCH  43  57
ATOM     57  C   UNL A   1      42.502  26.066  27.366  1.00  0.00     0.023 A 
ATOM     58  C   UNL A   1      42.049  24.741  27.235  1.00  0.00     0.031 A 
ATOM     59  C   UNL A   1      43.328  26.588  26.354  1.00  0.00     0.131 A 
ATOM     60  C   UNL A   1      42.501  23.955  26.163  1.00  0.00     0.055 A 
ATOM     61  C   UNL A   1      43.706  25.826  25.250  1.00  0.00     0.041 A 
ATOM     62  F   UNL A   1      43.813  27.836  26.446  1.00  0.00    -0.206 F 
ATOM     63  C   UNL A   1      43.310  24.495  25.160  1.00  0.00     0.022 A 
BRANCH  60  64
ATOM     64  S   UNL A   1      42.176  22.169  26.201  1.00  0.00     0.124 S 
ATOM     65  O   UNL A   1      42.635  21.813  27.541  1.00  0.00    -0.237 OA
ATOM     66  O   UNL A   1      40.737  22.105  25.978  1.00  0.00    -0.237 OA
ATOM     67  O   UNL A   1      43.001  21.648  25.113  1.00  0.00    -0.744 OA
ENDBRANCH  60  64
ENDBRANCH  43  57
BRANCH  44  68
ATOM     68  C   UNL A   1      40.399  31.873  35.134  1.00  0.00     0.023 A 
ATOM     69  C   UNL A   1      39.408  31.517  36.066  1.00  0.00     0.031 A 
ATOM     70  C   UNL A   1      41.016  33.130  35.286  1.00  0.00     0.131 A 
ATOM     71  C   UNL A   1      39.036  32.422  37.078  1.00  0.00     0.055 A 
ATOM     72  C   UNL A   1      40.683  34.001  36.325  1.00  0.00     0.041 A 
ATOM     73  F   UNL A   1      41.945  33.540  34.408  1.00  0.00    -0.206 F 
ATOM     74  C   UNL A   1      39.680  33.655  37.222  1.00  0.00     0.022 A 
BRANCH  71  75
ATOM     75  S   UNL A   1      37.628  32.019  38.155  1.00  0.00     0.124 S 
ATOM     76  O   UNL A   1      37.315  30.658  37.735  1.00  0.00    -0.237 OA
ATOM     77  O   UNL A   1      38.206  32.163  39.486  1.00  0.00    -0.237 OA
ATOM     78  O   UNL A   1      36.628  33.025  37.802  1.00  0.00    -0.744 OA
ENDBRANCH  71  75
ENDBRANCH  44  68
BRANCH  56  79
ATOM     79  C   UNL A   1      45.135  26.850  34.085  1.00  0.00     0.023 A 
ATOM     80  C   UNL A   1      44.950  25.693  34.864  1.00  0.00     0.031 A 
ATOM     81  C   UNL A   1      46.398  27.470  34.116  1.00  0.00     0.131 A 
ATOM     82  C   UNL A   1      46.000  25.211  35.664  1.00  0.00     0.055 A 
ATOM     83  C   UNL A   1      47.450  26.963  34.881  1.00  0.00     0.041 A 
ATOM     84  F   UNL A   1      46.633  28.577  33.393  1.00  0.00    -0.206 F 
ATOM     85  C   UNL A   1      47.252  25.833  35.668  1.00  0.00     0.022 A 
BRANCH  82  86
ATOM     86  S   UNL A   1      45.697  23.789  36.751  1.00  0.00     0.124 S 
ATOM     87  O   UNL A   1      44.976  22.877  35.869  1.00  0.00    -0.237 OA
ATOM     88  O   UNL A   1      47.049  23.384  37.121  1.00  0.00    -0.237 OA
ATOM     89  O   UNL A   1      44.901  24.353  37.841  1.00  0.00    -0.744 OA
ENDBRANCH  82  86
ENDBRANCH  56  79
ENDBRANCH  30  31
ENDBRANCH  23  25
ENDBRANCH  22  23
ENDBRANCH   1  22
TORSDOF 15
ENDMDL
MODEL 2
REMARK VINA RESULT:     -11.9      5.034     10.041
REMARK SMILES CC1CCN(C(=O)N[C@@H]2C=C[C@H](C(=O)OCCOC(=O)c3ccc(-c4c5nc(c(-c6cc(S(=O)(=O)[O-])ccc6F)c6ccc([nH]6)c(-c6cc(S(=O)(=O)[O-])ccc6F)c6nc(c(-c7cc(S(=O)(=O)[O-])ccc7F)c7ccc4[nH]7)C=C6)C=C5)cc3)C2)CC1
REMARK SMILES IDX 17 1 16 2 15 3 13 4 14 5 12 6 9 7 10 8 84 9 11 10 8 11 1 12
REMARK SMILES IDX 2 13 3 14 86 15 4 16 85 17 5 18 6 19 7 20 18 22 19 23 20 24
REMARK SMILES IDX 21 25 22 26 83 27 23 28 82 29 24 30 25 31 26 32 76 33 27 34
REMARK SMILES IDX 81 35 75 36 77 37 28 38 80 39 74 40 73 41 29 43 61 44 41 45
REMARK SMILES IDX 60 46 42 47 45 48 59 49 78 50 43 51 44 52 58 54 79 55 46 56
REMARK SMILES IDX 30 57 31 58 39 59 32 60 38 61 40 62 37 63 33 64 34 65 35 66
REMARK SMILES IDX 36 67 62 68 63 69 71 70 64 71 70 72 72 73 69 74 65 75 66 76
REMARK SMILES IDX 67 77 68 78 47 79 48 80 56 81 49 82 55 83 57 84 54 85 50 86
REMARK SMILES IDX 51 87 52 88 53 89
REMARK H PARENT 8 21 77 42 45 53
REMARK Flexibility Score: inf
ROOT
ATOM      1  C   UNL A   1      36.013  20.809  25.079  1.00  0.00     0.275 C 
ENDROOT
BRANCH   1   2
ATOM      2  C   UNL A   1      35.188  21.640  26.173  1.00  0.00     0.274 C 
BRANCH   2   3
ATOM      3  O   UNL A   1      34.186  22.631  25.701  1.00  0.00    -0.462 OA
BRANCH   3   4
ATOM      4  C   UNL A   1      34.587  23.540  24.725  1.00  0.00     0.312 C 
ATOM      5  O   UNL A   1      35.488  24.349  24.927  1.00  0.00    -0.252 OA
BRANCH   4   6
ATOM      6  C   UNL A   1      33.706  23.546  23.409  1.00  0.00     0.124 C 
ATOM      7  C   UNL A   1      31.353  24.483  23.358  1.00  0.00     0.107 C 
ATOM      8  C   UNL A   1      31.379  22.984  23.335  1.00  0.00    -0.006 C 
ATOM      9  C   UNL A   1      32.818  24.741  22.992  1.00  0.00     0.048 C 
ATOM     10  C   UNL A   1      32.622  22.483  23.399  1.00  0.00    -0.014 C 
BRANCH   7  11
ATOM     11  N   UNL A   1      30.814  24.842  24.653  1.00  0.00    -0.332 N 
ATOM     12  C   UNL A   1      34.027  28.315  22.404  1.00  0.00     0.008 C 
ATOM     13  C   UNL A   1      32.958  28.590  23.478  1.00  0.00    -0.011 C 
ATOM     14  C   UNL A   1      33.017  27.808  24.795  1.00  0.00     0.025 C 
ATOM     15  C   UNL A   1      31.541  28.612  22.871  1.00  0.00     0.025 C 
ATOM     16  C   UNL A   1      31.770  27.901  25.625  1.00  0.00     0.121 C 
ATOM     17  C   UNL A   1      30.434  27.791  23.579  1.00  0.00     0.121 C 
ATOM     18  N   UNL A   1      30.820  27.178  24.838  1.00  0.00    -0.325 N 
ATOM     19  C   UNL A   1      30.489  25.959  25.324  1.00  0.00     0.317 C 
ATOM     20  O   UNL A   1      30.110  25.809  26.488  1.00  0.00    -0.249 OA
ATOM     21  H   UNL A   1      30.637  24.040  25.197  1.00  0.00     0.165 HD
ENDBRANCH   7  11
ENDBRANCH   4   6
ENDBRANCH   3   4
ENDBRANCH   2   3
ENDBRANCH   1   2
BRANCH   1  22
ATOM     22  O   UNL A   1      37.353  21.338  24.723  1.00  0.00    -0.458 OA
BRANCH  22  23
ATOM     23  C   UNL A   1      38.414  21.052  25.557  1.00  0.00     0.338 C 
ATOM     24  O   UNL A   1      38.947  19.960  25.644  1.00  0.00    -0.246 OA
BRANCH  23  25
ATOM     25  C   UNL A   1      39.015  22.297  26.186  1.00  0.00     0.060 A 
ATOM     26  C   UNL A   1      40.211  22.172  26.910  1.00  0.00     0.016 A 
ATOM     27  C   UNL A   1      38.478  23.579  26.074  1.00  0.00     0.016 A 
ATOM     28  C   UNL A   1      40.974  23.299  27.279  1.00  0.00     0.010 A 
ATOM     29  C   UNL A   1      39.183  24.709  26.586  1.00  0.00     0.010 A 
ATOM     30  C   UNL A   1      40.474  24.600  27.142  1.00  0.00    -0.014 A 
BRANCH  30  31
ATOM     31  C   UNL A   1      41.262  25.798  27.627  1.00  0.00     0.031 A 
ATOM     32  C   UNL A   1      40.603  26.871  28.480  1.00  0.00     0.074 A 
ATOM     33  C   UNL A   1      42.587  25.942  27.385  1.00  0.00     0.049 A 
ATOM     34  N   UNL A   1      41.087  28.017  28.903  1.00  0.00    -0.248 NA
ATOM     35  C   UNL A   1      39.237  26.604  28.945  1.00  0.00     0.031 C 
ATOM     36  C   UNL A   1      43.452  24.941  26.762  1.00  0.00     0.029 A 
ATOM     37  N   UNL A   1      43.449  26.994  27.645  1.00  0.00    -0.354 N 
ATOM     38  C   UNL A   1      40.099  28.584  29.704  1.00  0.00     0.074 A 
ATOM     39  C   UNL A   1      38.997  27.648  29.720  1.00  0.00     0.031 C 
ATOM     40  C   UNL A   1      44.696  25.441  26.644  1.00  0.00     0.029 A 
ATOM     41  C   UNL A   1      44.722  26.817  27.140  1.00  0.00     0.049 A 
ATOM     42  H   UNL A   1      43.178  27.797  28.145  1.00  0.00     0.167 HD
ATOM     43  C   UNL A   1      40.072  29.783  30.340  1.00  0.00     0.034 A 
ATOM     44  C   UNL A   1      45.772  27.669  27.036  1.00  0.00     0.034 A 
ATOM     45  C   UNL A   1      41.097  30.791  30.235  1.00  0.00     0.049 A 
ATOM     46  C   UNL A   1      45.645  29.090  27.552  1.00  0.00     0.074 A 
ATOM     47  C   UNL A   1      41.080  32.095  30.702  1.00  0.00     0.029 A 
ATOM     48  N   UNL A   1      42.314  30.617  29.596  1.00  0.00    -0.354 N 
ATOM     49  N   UNL A   1      44.648  29.651  28.197  1.00  0.00    -0.248 NA
ATOM     50  C   UNL A   1      46.779  29.998  27.308  1.00  0.00     0.031 C 
ATOM     51  C   UNL A   1      42.258  32.728  30.288  1.00  0.00     0.029 A 
ATOM     52  C   UNL A   1      43.043  31.797  29.630  1.00  0.00     0.049 A 
ATOM     53  H   UNL A   1      42.618  29.779  29.178  1.00  0.00     0.167 HD
ATOM     54  C   UNL A   1      45.046  30.966  28.446  1.00  0.00     0.074 A 
ATOM     55  C   UNL A   1      46.375  31.113  27.900  1.00  0.00     0.031 C 
ATOM     56  C   UNL A   1      44.366  31.958  29.073  1.00  0.00     0.034 A 
BRANCH  43  57
ATOM     57  C   UNL A   1      38.803  30.104  31.093  1.00  0.00     0.023 A 
ATOM     58  C   UNL A   1      37.738  30.785  30.478  1.00  0.00     0.031 A 
ATOM     59  C   UNL A   1      38.713  29.837  32.471  1.00  0.00     0.131 A 
ATOM     60  C   UNL A   1      36.671  31.256  31.260  1.00  0.00     0.055 A 
ATOM     61  C   UNL A   1      37.611  30.237  33.226  1.00  0.00     0.041 A 
ATOM     62  F   UNL A   1      39.716  29.218  33.113  1.00  0.00    -0.206 F 
ATOM     63  C   UNL A   1      36.591  30.970  32.625  1.00  0.00     0.022 A 
BRANCH  60  64
ATOM     64  S   UNL A   1      35.490  32.412  30.507  1.00  0.00     0.124 S 
ATOM     65  O   UNL A   1      34.438  32.461  31.520  1.00  0.00    -0.237 OA
ATOM     66  O   UNL A   1      36.287  33.623  30.353  1.00  0.00    -0.237 OA
ATOM     67  O   UNL A   1      35.110  31.751  29.261  1.00  0.00    -0.744 OA
ENDBRANCH  60  64
ENDBRANCH  43  57
BRANCH  44  68
ATOM     68  C   UNL A   1      47.014  27.273  26.293  1.00  0.00     0.023 A 
ATOM     69  C   UNL A   1      47.250  27.668  24.963  1.00  0.00     0.031 A 
ATOM     70  C   UNL A   1      47.930  26.377  26.879  1.00  0.00     0.131 A 
ATOM     71  C   UNL A   1      48.346  27.137  24.255  1.00  0.00     0.055 A 
ATOM     72  C   UNL A   1      49.046  25.899  26.191  1.00  0.00     0.041 A 
ATOM     73  F   UNL A   1      47.740  25.937  28.133  1.00  0.00    -0.206 F 
ATOM     74  C   UNL A   1      49.253  26.268  24.867  1.00  0.00     0.022 A 
BRANCH  71  75
ATOM     75  S   UNL A   1      48.526  27.516  22.487  1.00  0.00     0.124 S 
ATOM     76  O   UNL A   1      49.778  28.263  22.470  1.00  0.00    -0.237 OA
ATOM     77  O   UNL A   1      48.563  26.186  21.888  1.00  0.00    -0.237 OA
ATOM     78  O   UNL A   1      47.330  28.299  22.181  1.00  0.00    -0.744 OA
ENDBRANCH  71  75
ENDBRANCH  44  68
BRANCH  56  79
ATOM     79  C   UNL A   1      45.058  33.290  29.244  1.00  0.00     0.023 A 
ATOM     80  C   UNL A   1      45.045  34.273  28.237  1.00  0.00     0.031 A 
ATOM     81  C   UNL A   1      45.729  33.586  30.445  1.00  0.00     0.131 A 
ATOM     82  C   UNL A   1      45.718  35.491  28.437  1.00  0.00     0.055 A 
ATOM     83  C   UNL A   1      46.360  34.815  30.654  1.00  0.00     0.041 A 
ATOM     84  F   UNL A   1      45.774  32.688  31.442  1.00  0.00    -0.206 F 
ATOM     85  C   UNL A   1      46.365  35.771  29.643  1.00  0.00     0.022 A 
BRANCH  82  86
ATOM     86  S   UNL A   1      45.788  36.691  27.076  1.00  0.00     0.124 S 
ATOM     87  O   UNL A   1      46.878  37.565  27.495  1.00  0.00    -0.237 OA
ATOM     88  O   UNL A   1      46.060  35.839  25.923  1.00  0.00    -0.237 OA
ATOM     89  O   UNL A   1      44.461  37.306  27.091  1.00  0.00    -0.744 OA
ENDBRANCH  82  86
ENDBRANCH  56  79
ENDBRANCH  30  31
ENDBRANCH  23  25
ENDBRANCH  22  23
ENDBRANCH   1  22
TORSDOF 15
ENDMDL
MODEL 3
REMARK VINA RESULT:     -11.9      1.593      1.840
REMARK SMILES CC1CCN(C(=O)N[C@@H]2C=C[C@H](C(=O)OCCOC(=O)c3ccc(-c4c5nc(c(-c6cc(S(=O)(=O)[O-])ccc6F)c6ccc([nH]6)c(-c6cc(S(=O)(=O)[O-])ccc6F)c6nc(c(-c7cc(S(=O)(=O)[O-])ccc7F)c7ccc4[nH]7)C=C6)C=C5)cc3)C2)CC1
REMARK SMILES IDX 17 1 16 2 15 3 13 4 14 5 12 6 9 7 10 8 84 9 11 10 8 11 1 12
REMARK SMILES IDX 2 13 3 14 86 15 4 16 85 17 5 18 6 19 7 20 18 22 19 23 20 24
REMARK SMILES IDX 21 25 22 26 83 27 23 28 82 29 24 30 25 31 26 32 76 33 27 34
REMARK SMILES IDX 81 35 75 36 77 37 28 38 80 39 74 40 73 41 29 43 61 44 41 45
REMARK SMILES IDX 60 46 42 47 45 48 59 49 78 50 43 51 44 52 58 54 79 55 46 56
REMARK SMILES IDX 30 57 31 58 39 59 32 60 38 61 40 62 37 63 33 64 34 65 35 66
REMARK SMILES IDX 36 67 62 68 63 69 71 70 64 71 70 72 72 73 69 74 65 75 66 76
REMARK SMILES IDX 67 77 68 78 47 79 48 80 56 81 49 82 55 83 57 84 54 85 50 86
REMARK SMILES IDX 51 87 52 88 53 89
REMARK H PARENT 8 21 77 42 45 53
REMARK Flexibility Score: inf
ROOT
ATOM      1  C   UNL A   1      31.510  30.206  25.275  1.00  0.00     0.275 C 
ENDROOT
BRANCH   1   2
ATOM      2  C   UNL A   1      32.566  29.236  24.560  1.00  0.00     0.274 C 
BRANCH   2   3
ATOM      3  O   UNL A   1      32.239  27.790  24.452  1.00  0.00    -0.462 OA
BRANCH   3   4
ATOM      4  C   UNL A   1      32.057  27.079  25.635  1.00  0.00     0.312 C 
ATOM      5  O   UNL A   1      32.801  27.230  26.600  1.00  0.00    -0.252 OA
BRANCH   4   6
ATOM      6  C   UNL A   1      30.926  25.971  25.588  1.00  0.00     0.124 C 
ATOM      7  C   UNL A   1      31.071  23.949  24.069  1.00  0.00     0.107 C 
ATOM      8  C   UNL A   1      30.093  24.972  23.577  1.00  0.00    -0.006 C 
ATOM      9  C   UNL A   1      31.228  24.458  25.506  1.00  0.00     0.048 C 
ATOM     10  C   UNL A   1      30.038  26.062  24.360  1.00  0.00    -0.014 C 
BRANCH   7  11
ATOM     11  N   UNL A   1      32.168  23.977  23.125  1.00  0.00    -0.332 N 
ATOM     12  C   UNL A   1      33.269  22.261  27.950  1.00  0.00     0.008 C 
ATOM     13  C   UNL A   1      34.043  21.960  26.653  1.00  0.00    -0.011 C 
ATOM     14  C   UNL A   1      34.562  23.134  25.815  1.00  0.00     0.025 C 
ATOM     15  C   UNL A   1      33.319  20.902  25.797  1.00  0.00     0.025 C 
ATOM     16  C   UNL A   1      35.002  22.758  24.430  1.00  0.00     0.121 C 
ATOM     17  C   UNL A   1      33.123  21.197  24.288  1.00  0.00     0.121 C 
ATOM     18  N   UNL A   1      33.769  22.403  23.799  1.00  0.00    -0.325 N 
ATOM     19  C   UNL A   1      33.309  23.305  22.900  1.00  0.00     0.317 C 
ATOM     20  O   UNL A   1      34.021  23.723  21.983  1.00  0.00    -0.249 OA
ATOM     21  H   UNL A   1      32.044  24.692  22.459  1.00  0.00     0.165 HD
ENDBRANCH   7  11
ENDBRANCH   4   6
ENDBRANCH   3   4
ENDBRANCH   2   3
ENDBRANCH   1   2
BRANCH   1  22
ATOM     22  O   UNL A   1      31.748  30.495  26.710  1.00  0.00    -0.458 OA
BRANCH  22  23
ATOM     23  C   UNL A   1      32.497  31.605  27.042  1.00  0.00     0.338 C 
ATOM     24  O   UNL A   1      32.061  32.742  27.082  1.00  0.00    -0.246 OA
BRANCH  23  25
ATOM     25  C   UNL A   1      33.867  31.244  27.589  1.00  0.00     0.060 A 
ATOM     26  C   UNL A   1      34.720  32.281  27.998  1.00  0.00     0.016 A 
ATOM     27  C   UNL A   1      34.340  29.941  27.744  1.00  0.00     0.016 A 
ATOM     28  C   UNL A   1      35.874  32.029  28.768  1.00  0.00     0.010 A 
ATOM     29  C   UNL A   1      35.587  29.694  28.390  1.00  0.00     0.010 A 
ATOM     30  C   UNL A   1      36.350  30.728  28.971  1.00  0.00    -0.014 A 
BRANCH  30  31
ATOM     31  C   UNL A   1      37.641  30.474  29.720  1.00  0.00     0.031 A 
ATOM     32  C   UNL A   1      38.716  29.571  29.134  1.00  0.00     0.074 A 
ATOM     33  C   UNL A   1      37.929  31.076  30.898  1.00  0.00     0.049 A 
ATOM     34  N   UNL A   1      39.841  29.153  29.670  1.00  0.00    -0.248 NA
ATOM     35  C   UNL A   1      38.516  29.107  27.756  1.00  0.00     0.031 C 
ATOM     36  C   UNL A   1      37.131  32.123  31.535  1.00  0.00     0.029 A 
ATOM     37  N   UNL A   1      38.986  30.900  31.774  1.00  0.00    -0.354 N 
ATOM     38  C   UNL A   1      40.488  28.410  28.686  1.00  0.00     0.074 A 
ATOM     39  C   UNL A   1      39.638  28.449  27.517  1.00  0.00     0.031 C 
ATOM     40  C   UNL A   1      37.695  32.457  32.711  1.00  0.00     0.029 A 
ATOM     41  C   UNL A   1      38.873  31.622  32.946  1.00  0.00     0.049 A 
ATOM     42  H   UNL A   1      39.750  30.311  31.579  1.00  0.00     0.167 HD
ATOM     43  C   UNL A   1      41.656  27.720  28.739  1.00  0.00     0.034 A 
ATOM     44  C   UNL A   1      39.593  31.586  34.095  1.00  0.00     0.034 A 
ATOM     45  C   UNL A   1      42.457  27.554  29.926  1.00  0.00     0.049 A 
ATOM     46  C   UNL A   1      40.767  30.634  34.220  1.00  0.00     0.074 A 
ATOM     47  C   UNL A   1      43.559  26.737  30.119  1.00  0.00     0.029 A 
ATOM     48  N   UNL A   1      42.227  28.198  31.132  1.00  0.00    -0.354 N 
ATOM     49  N   UNL A   1      41.289  29.838  33.314  1.00  0.00    -0.248 NA
ATOM     50  C   UNL A   1      41.437  30.560  35.529  1.00  0.00     0.031 C 
ATOM     51  C   UNL A   1      43.954  26.837  31.459  1.00  0.00     0.029 A 
ATOM     52  C   UNL A   1      43.147  27.774  32.080  1.00  0.00     0.049 A 
ATOM     53  H   UNL A   1      41.516  28.858  31.293  1.00  0.00     0.167 HD
ATOM     54  C   UNL A   1      42.353  29.189  33.943  1.00  0.00     0.074 A 
ATOM     55  C   UNL A   1      42.412  29.693  35.296  1.00  0.00     0.031 C 
ATOM     56  C   UNL A   1      43.204  28.260  33.439  1.00  0.00     0.034 A 
BRANCH  43  57
ATOM     57  C   UNL A   1      42.043  26.976  27.484  1.00  0.00     0.023 A 
ATOM     58  C   UNL A   1      41.746  25.611  27.320  1.00  0.00     0.031 A 
ATOM     59  C   UNL A   1      42.823  27.608  26.500  1.00  0.00     0.131 A 
ATOM     60  C   UNL A   1      42.307  24.902  26.246  1.00  0.00     0.055 A 
ATOM     61  C   UNL A   1      43.309  26.915  25.392  1.00  0.00     0.041 A 
ATOM     62  F   UNL A   1      43.162  28.901  26.624  1.00  0.00    -0.206 F 
ATOM     63  C   UNL A   1      43.069  25.549  25.270  1.00  0.00     0.022 A 
BRANCH  60  64
ATOM     64  S   UNL A   1      42.187  23.091  26.246  1.00  0.00     0.124 S 
ATOM     65  O   UNL A   1      43.044  22.737  27.375  1.00  0.00    -0.237 OA
ATOM     66  O   UNL A   1      40.759  22.868  26.432  1.00  0.00    -0.237 OA
ATOM     67  O   UNL A   1      42.713  22.712  24.936  1.00  0.00    -0.744 OA
ENDBRANCH  60  64
ENDBRANCH  43  57
BRANCH  44  68
ATOM     68  C   UNL A   1      39.162  32.373  35.297  1.00  0.00     0.023 A 
ATOM     69  C   UNL A   1      39.613  33.684  35.536  1.00  0.00     0.031 A 
ATOM     70  C   UNL A   1      38.380  31.761  36.296  1.00  0.00     0.131 A 
ATOM     71  C   UNL A   1      39.314  34.320  36.757  1.00  0.00     0.055 A 
ATOM     72  C   UNL A   1      38.039  32.416  37.480  1.00  0.00     0.041 A 
ATOM     73  F   UNL A   1      37.948  30.499  36.141  1.00  0.00    -0.206 F 
ATOM     74  C   UNL A   1      38.516  33.699  37.722  1.00  0.00     0.022 A 
BRANCH  71  75
ATOM     75  S   UNL A   1      40.061  35.936  37.120  1.00  0.00     0.124 S 
ATOM     76  O   UNL A   1      39.268  36.379  38.262  1.00  0.00    -0.237 OA
ATOM     77  O   UNL A   1      41.447  35.581  37.401  1.00  0.00    -0.237 OA
ATOM     78  O   UNL A   1      39.853  36.694  35.887  1.00  0.00    -0.744 OA
ENDBRANCH  71  75
ENDBRANCH  44  68
BRANCH  56  79
ATOM     79  C   UNL A   1      44.304  27.748  34.339  1.00  0.00     0.023 A 
ATOM     80  C   UNL A   1      44.168  26.562  35.083  1.00  0.00     0.031 A 
ATOM     81  C   UNL A   1      45.518  28.453  34.438  1.00  0.00     0.131 A 
ATOM     82  C   UNL A   1      45.215  26.135  35.919  1.00  0.00     0.055 A 
ATOM     83  C   UNL A   1      46.570  28.001  35.237  1.00  0.00     0.041 A 
ATOM     84  F   UNL A   1      45.705  29.590  33.749  1.00  0.00    -0.206 F 
ATOM     85  C   UNL A   1      46.418  26.841  35.991  1.00  0.00     0.022 A 
BRANCH  82  86
ATOM     86  S   UNL A   1      44.967  24.669  36.961  1.00  0.00     0.124 S 
ATOM     87  O   UNL A   1      46.338  24.263  37.250  1.00  0.00    -0.237 OA
ATOM     88  O   UNL A   1      44.210  25.210  38.086  1.00  0.00    -0.237 OA
ATOM     89  O   UNL A   1      44.220  23.755  36.097  1.00  0.00    -0.744 OA
ENDBRANCH  82  86
ENDBRANCH  56  79
ENDBRANCH  30  31
ENDBRANCH  23  25
ENDBRANCH  22  23
ENDBRANCH   1  22
TORSDOF 15
ENDMDL
