MODEL 1
REMARK VINA RESULT:     -11.9      0.000      0.000
REMARK SMILES Cc1nc([C@]2(C)CCCO2)nc(C)c1C(=O)OCCOC(=O)c1ccc(-c2c3nc(c(-c4cc(S(=O)(=O)[O-])ccc4F)c4ccc([nH]4)c(-c4cc(S(=O)(=O)[O-])ccc4F)c4nc(c(-c5cc(S(=O)(=O)[O-])ccc5F)c5ccc2[nH]5)C=C4)C=C3)cc1
REMARK SMILES IDX 19 1 18 2 17 3 15 4 16 5 14 6 1 7 2 8 3 9 4 10 12 11 11 12
REMARK SMILES IDX 13 13 5 14 7 15 10 16 6 17 8 18 9 19 20 20 21 21 22 22 23 23
REMARK SMILES IDX 24 24 85 25 25 26 84 27 26 28 27 29 28 30 78 31 29 32 83 33
REMARK SMILES IDX 77 34 79 35 30 36 82 37 76 38 75 39 31 41 63 42 43 43 62 44
REMARK SMILES IDX 44 45 47 46 61 47 80 48 45 49 46 50 60 52 81 53 48 54 32 55
REMARK SMILES IDX 33 56 41 57 34 58 40 59 42 60 39 61 35 62 36 63 37 64 38 65
REMARK SMILES IDX 64 66 65 67 73 68 66 69 72 70 74 71 71 72 67 73 68 74 69 75
REMARK SMILES IDX 70 76 49 77 50 78 58 79 51 80 57 81 59 82 56 83 52 84 53 85
REMARK SMILES IDX 54 86 55 87
REMARK H PARENT 79 40 47 51
REMARK Flexibility Score: inf
ROOT
ATOM      1  C   UNL A   1      31.766  29.926  25.499  1.00  0.00     0.275 C 
ENDROOT
BRANCH   1   2
ATOM      2  C   UNL A   1      32.790  29.272  24.574  1.00  0.00     0.275 C 
BRANCH   2   3
ATOM      3  O   UNL A   1      32.146  28.623  23.453  1.00  0.00    -0.458 OA
BRANCH   3   4
ATOM      4  C   UNL A   1      31.417  27.512  23.740  1.00  0.00     0.341 C 
ATOM      5  O   UNL A   1      30.203  27.462  23.781  1.00  0.00    -0.246 OA
BRANCH   4   6
ATOM      6  C   UNL A   1      32.271  26.331  24.011  1.00  0.00     0.102 A 
ATOM      7  C   UNL A   1      32.883  25.950  21.577  1.00  0.00     0.068 C 
ATOM      8  C   UNL A   1      32.968  25.623  23.038  1.00  0.00     0.056 A 
ATOM      9  N   UNL A   1      33.773  24.563  23.340  1.00  0.00    -0.234 NA
ATOM     10  C   UNL A   1      33.898  24.215  24.639  1.00  0.00     0.160 A 
ATOM     11  C   UNL A   1      32.499  25.914  25.316  1.00  0.00     0.056 A 
ATOM     12  N   UNL A   1      33.329  24.904  25.627  1.00  0.00    -0.234 NA
ATOM     13  C   UNL A   1      31.720  26.355  26.502  1.00  0.00     0.068 C 
BRANCH  10  14
ATOM     14  C   UNL A   1      34.691  22.973  25.064  1.00  0.00     0.125 C 
ATOM     15  C   UNL A   1      35.855  23.331  25.980  1.00  0.00     0.046 C 
ATOM     16  O   UNL A   1      35.299  22.340  23.916  1.00  0.00    -0.367 OA
ATOM     17  C   UNL A   1      33.767  21.939  25.731  1.00  0.00     0.051 C 
ATOM     18  C   UNL A   1      36.953  23.680  25.004  1.00  0.00     0.032 C 
ATOM     19  C   UNL A   1      36.641  22.820  23.793  1.00  0.00     0.161 C 
ENDBRANCH  10  14
ENDBRANCH   4   6
ENDBRANCH   3   4
ENDBRANCH   2   3
ENDBRANCH   1   2
BRANCH   1  20
ATOM     20  O   UNL A   1      32.303  30.022  26.830  1.00  0.00    -0.458 OA
BRANCH  20  21
ATOM     21  C   UNL A   1      32.883  31.205  27.137  1.00  0.00     0.338 C 
ATOM     22  O   UNL A   1      32.331  32.288  27.251  1.00  0.00    -0.246 OA
BRANCH  21  23
ATOM     23  C   UNL A   1      34.313  31.006  27.432  1.00  0.00     0.060 A 
ATOM     24  C   UNL A   1      34.760  29.710  27.626  1.00  0.00     0.016 A 
ATOM     25  C   UNL A   1      35.145  32.075  27.755  1.00  0.00     0.016 A 
ATOM     26  C   UNL A   1      35.941  29.492  28.337  1.00  0.00     0.010 A 
ATOM     27  C   UNL A   1      36.417  31.831  28.307  1.00  0.00     0.010 A 
ATOM     28  C   UNL A   1      36.813  30.533  28.683  1.00  0.00    -0.014 A 
BRANCH  28  29
ATOM     29  C   UNL A   1      38.064  30.265  29.482  1.00  0.00     0.031 A 
ATOM     30  C   UNL A   1      39.176  29.402  28.911  1.00  0.00     0.074 A 
ATOM     31  C   UNL A   1      38.267  30.820  30.701  1.00  0.00     0.049 A 
ATOM     32  N   UNL A   1      40.176  28.818  29.526  1.00  0.00    -0.248 NA
ATOM     33  C   UNL A   1      39.147  29.146  27.462  1.00  0.00     0.031 C 
ATOM     34  C   UNL A   1      37.362  31.751  31.383  1.00  0.00     0.029 A 
ATOM     35  N   UNL A   1      39.317  30.698  31.589  1.00  0.00    -0.354 N 
ATOM     36  C   UNL A   1      40.836  28.058  28.561  1.00  0.00     0.074 A 
ATOM     37  C   UNL A   1      40.121  28.259  27.319  1.00  0.00     0.031 C 
ATOM     38  C   UNL A   1      37.928  32.181  32.517  1.00  0.00     0.029 A 
ATOM     39  C   UNL A   1      39.141  31.415  32.754  1.00  0.00     0.049 A 
ATOM     40  H   UNL A   1      40.115  30.152  31.408  1.00  0.00     0.167 HD
ATOM     41  C   UNL A   1      41.932  27.266  28.701  1.00  0.00     0.034 A 
ATOM     42  C   UNL A   1      39.804  31.400  33.929  1.00  0.00     0.034 A 
ATOM     43  C   UNL A   1      42.684  27.143  29.930  1.00  0.00     0.049 A 
ATOM     44  C   UNL A   1      40.959  30.452  34.096  1.00  0.00     0.074 A 
ATOM     45  C   UNL A   1      43.804  26.366  30.182  1.00  0.00     0.029 A 
ATOM     46  N   UNL A   1      42.414  27.830  31.107  1.00  0.00    -0.354 N 
ATOM     47  N   UNL A   1      41.484  29.628  33.220  1.00  0.00    -0.248 NA
ATOM     48  C   UNL A   1      41.595  30.410  35.419  1.00  0.00     0.031 C 
ATOM     49  C   UNL A   1      44.165  26.529  31.524  1.00  0.00     0.029 A 
ATOM     50  C   UNL A   1      43.327  27.475  32.089  1.00  0.00     0.049 A 
ATOM     51  H   UNL A   1      41.680  28.476  31.225  1.00  0.00     0.167 HD
ATOM     52  C   UNL A   1      42.523  28.984  33.883  1.00  0.00     0.074 A 
ATOM     53  C   UNL A   1      42.567  29.533  35.221  1.00  0.00     0.031 C 
ATOM     54  C   UNL A   1      43.362  28.020  33.425  1.00  0.00     0.034 A 
BRANCH  41  55
ATOM     55  C   UNL A   1      42.343  26.409  27.524  1.00  0.00     0.023 A 
ATOM     56  C   UNL A   1      41.905  25.084  27.357  1.00  0.00     0.031 A 
ATOM     57  C   UNL A   1      43.203  26.940  26.542  1.00  0.00     0.131 A 
ATOM     58  C   UNL A   1      42.378  24.319  26.276  1.00  0.00     0.055 A 
ATOM     59  C   UNL A   1      43.603  26.203  25.426  1.00  0.00     0.041 A 
ATOM     60  F   UNL A   1      43.674  28.193  26.654  1.00  0.00    -0.206 F 
ATOM     61  C   UNL A   1      43.201  24.879  25.295  1.00  0.00     0.022 A 
BRANCH  58  62
ATOM     62  S   UNL A   1      42.017  22.543  26.240  1.00  0.00     0.124 S 
ATOM     63  O   UNL A   1      42.676  22.133  25.002  1.00  0.00    -0.237 OA
ATOM     64  O   UNL A   1      42.628  22.071  27.478  1.00  0.00    -0.237 OA
ATOM     65  O   UNL A   1      40.556  22.489  26.206  1.00  0.00    -0.744 OA
ENDBRANCH  58  62
ENDBRANCH  41  55
BRANCH  42  66
ATOM     66  C   UNL A   1      39.312  32.210  35.087  1.00  0.00     0.023 A 
ATOM     67  C   UNL A   1      39.799  33.503  35.335  1.00  0.00     0.031 A 
ATOM     68  C   UNL A   1      38.375  31.678  35.997  1.00  0.00     0.131 A 
ATOM     69  C   UNL A   1      39.379  34.201  36.480  1.00  0.00     0.055 A 
ATOM     70  C   UNL A   1      37.902  32.407  37.087  1.00  0.00     0.041 A 
ATOM     71  F   UNL A   1      37.886  30.439  35.826  1.00  0.00    -0.206 F 
ATOM     72  C   UNL A   1      38.416  33.672  37.343  1.00  0.00     0.022 A 
BRANCH  69  73
ATOM     73  S   UNL A   1      40.194  35.767  36.891  1.00  0.00     0.124 S 
ATOM     74  O   UNL A   1      41.603  35.414  36.751  1.00  0.00    -0.237 OA
ATOM     75  O   UNL A   1      39.653  36.667  35.878  1.00  0.00    -0.237 OA
ATOM     76  O   UNL A   1      39.750  36.033  38.258  1.00  0.00    -0.744 OA
ENDBRANCH  69  73
ENDBRANCH  42  66
BRANCH  54  77
ATOM     77  C   UNL A   1      44.437  27.547  34.372  1.00  0.00     0.023 A 
ATOM     78  C   UNL A   1      44.304  26.358  35.111  1.00  0.00     0.031 A 
ATOM     79  C   UNL A   1      45.599  28.316  34.560  1.00  0.00     0.131 A 
ATOM     80  C   UNL A   1      45.287  26.007  36.050  1.00  0.00     0.055 A 
ATOM     81  C   UNL A   1      46.604  27.926  35.445  1.00  0.00     0.041 A 
ATOM     82  F   UNL A   1      45.776  29.464  33.886  1.00  0.00    -0.206 F 
ATOM     83  C   UNL A   1      46.444  26.773  36.208  1.00  0.00     0.022 A 
BRANCH  80  84
ATOM     84  S   UNL A   1      44.981  24.590  37.140  1.00  0.00     0.124 S 
ATOM     85  O   UNL A   1      46.335  24.213  37.535  1.00  0.00    -0.237 OA
ATOM     86  O   UNL A   1      44.150  25.174  38.188  1.00  0.00    -0.237 OA
ATOM     87  O   UNL A   1      44.299  23.631  36.273  1.00  0.00    -0.744 OA
ENDBRANCH  80  84
ENDBRANCH  54  77
ENDBRANCH  28  29
ENDBRANCH  21  23
ENDBRANCH  20  21
ENDBRANCH   1  20
TORSDOF 15
ENDMDL
MODEL 2
REMARK VINA RESULT:     -11.9      1.582      1.916
REMARK SMILES Cc1nc([C@]2(C)CCCO2)nc(C)c1C(=O)OCCOC(=O)c1ccc(-c2c3nc(c(-c4cc(S(=O)(=O)[O-])ccc4F)c4ccc([nH]4)c(-c4cc(S(=O)(=O)[O-])ccc4F)c4nc(c(-c5cc(S(=O)(=O)[O-])ccc5F)c5ccc2[nH]5)C=C4)C=C3)cc1
REMARK SMILES IDX 19 1 18 2 17 3 15 4 16 5 14 6 1 7 2 8 3 9 4 10 12 11 11 12
REMARK SMILES IDX 13 13 5 14 7 15 10 16 6 17 8 18 9 19 20 20 21 21 22 22 23 23
REMARK SMILES IDX 24 24 85 25 25 26 84 27 26 28 27 29 28 30 78 31 29 32 83 33
REMARK SMILES IDX 77 34 79 35 30 36 82 37 76 38 75 39 31 41 63 42 43 43 62 44
REMARK SMILES IDX 44 45 47 46 61 47 80 48 45 49 46 50 60 52 81 53 48 54 32 55
REMARK SMILES IDX 33 56 41 57 34 58 40 59 42 60 39 61 35 62 36 63 37 64 38 65
REMARK SMILES IDX 64 66 65 67 73 68 66 69 72 70 74 71 71 72 67 73 68 74 69 75
REMARK SMILES IDX 70 76 49 77 50 78 58 79 51 80 57 81 59 82 56 83 52 84 53 85
REMARK SMILES IDX 54 86 55 87
REMARK H PARENT 79 40 47 51
REMARK Flexibility Score: inf
ROOT
ATOM      1  C   UNL A   1      31.756  30.393  26.311  1.00  0.00     0.275 C 
ENDROOT
BRANCH   1   2
ATOM      2  C   UNL A   1      32.103  29.632  25.033  1.00  0.00     0.275 C 
BRANCH   2   3
ATOM      3  O   UNL A   1      30.920  29.073  24.416  1.00  0.00    -0.458 OA
BRANCH   3   4
ATOM      4  C   UNL A   1      31.071  28.584  23.158  1.00  0.00     0.341 C 
ATOM      5  O   UNL A   1      30.676  29.125  22.144  1.00  0.00    -0.246 OA
BRANCH   4   6
ATOM      6  C   UNL A   1      31.784  27.284  23.140  1.00  0.00     0.102 A 
ATOM      7  C   UNL A   1      33.945  28.241  22.214  1.00  0.00     0.068 C 
ATOM      8  C   UNL A   1      33.104  27.115  22.737  1.00  0.00     0.056 A 
ATOM      9  N   UNL A   1      33.731  25.903  22.772  1.00  0.00    -0.234 NA
ATOM     10  C   UNL A   1      33.032  24.844  23.235  1.00  0.00     0.160 A 
ATOM     11  C   UNL A   1      31.170  26.140  23.631  1.00  0.00     0.056 A 
ATOM     12  N   UNL A   1      31.795  24.954  23.718  1.00  0.00    -0.234 NA
ATOM     13  C   UNL A   1      29.717  26.006  23.917  1.00  0.00     0.068 C 
BRANCH  10  14
ATOM     14  C   UNL A   1      33.614  23.426  23.209  1.00  0.00     0.125 C 
ATOM     15  C   UNL A   1      33.652  22.805  24.601  1.00  0.00     0.046 C 
ATOM     16  O   UNL A   1      34.990  23.448  22.770  1.00  0.00    -0.367 OA
ATOM     17  C   UNL A   1      32.828  22.533  22.233  1.00  0.00     0.051 C 
ATOM     18  C   UNL A   1      34.960  23.316  25.157  1.00  0.00     0.032 C 
ATOM     19  C   UNL A   1      35.832  23.480  23.926  1.00  0.00     0.161 C 
ENDBRANCH  10  14
ENDBRANCH   4   6
ENDBRANCH   3   4
ENDBRANCH   2   3
ENDBRANCH   1   2
BRANCH   1  20
ATOM     20  O   UNL A   1      32.835  30.279  27.254  1.00  0.00    -0.458 OA
BRANCH  20  21
ATOM     21  C   UNL A   1      33.525  31.419  27.487  1.00  0.00     0.338 C 
ATOM     22  O   UNL A   1      33.068  32.548  27.585  1.00  0.00    -0.246 OA
BRANCH  21  23
ATOM     23  C   UNL A   1      34.947  31.113  27.717  1.00  0.00     0.060 A 
ATOM     24  C   UNL A   1      35.298  29.791  27.931  1.00  0.00     0.016 A 
ATOM     25  C   UNL A   1      35.877  32.119  27.964  1.00  0.00     0.016 A 
ATOM     26  C   UNL A   1      36.493  29.497  28.590  1.00  0.00     0.010 A 
ATOM     27  C   UNL A   1      37.152  31.788  28.461  1.00  0.00     0.010 A 
ATOM     28  C   UNL A   1      37.462  30.473  28.859  1.00  0.00    -0.014 A 
BRANCH  28  29
ATOM     29  C   UNL A   1      38.727  30.126  29.604  1.00  0.00     0.031 A 
ATOM     30  C   UNL A   1      39.751  29.184  28.994  1.00  0.00     0.074 A 
ATOM     31  C   UNL A   1      39.022  30.675  30.807  1.00  0.00     0.049 A 
ATOM     32  N   UNL A   1      40.735  28.538  29.570  1.00  0.00    -0.248 NA
ATOM     33  C   UNL A   1      39.638  28.920  27.550  1.00  0.00     0.031 C 
ATOM     34  C   UNL A   1      38.215  31.670  31.518  1.00  0.00     0.029 A 
ATOM     35  N   UNL A   1      40.100  30.488  31.648  1.00  0.00    -0.354 N 
ATOM     36  C   UNL A   1      41.298  27.728  28.584  1.00  0.00     0.074 A 
ATOM     37  C   UNL A   1      40.542  27.967  27.373  1.00  0.00     0.031 C 
ATOM     38  C   UNL A   1      38.859  32.070  32.621  1.00  0.00     0.029 A 
ATOM     39  C   UNL A   1      40.027  31.225  32.813  1.00  0.00     0.049 A 
ATOM     40  H   UNL A   1      40.850  29.887  31.438  1.00  0.00     0.167 HD
ATOM     41  C   UNL A   1      42.343  26.864  28.684  1.00  0.00     0.034 A 
ATOM     42  C   UNL A   1      40.740  31.173  33.957  1.00  0.00     0.034 A 
ATOM     43  C   UNL A   1      43.139  26.699  29.879  1.00  0.00     0.049 A 
ATOM     44  C   UNL A   1      41.834  30.150  34.082  1.00  0.00     0.074 A 
ATOM     45  C   UNL A   1      44.215  25.849  30.088  1.00  0.00     0.029 A 
ATOM     46  N   UNL A   1      42.970  27.412  31.059  1.00  0.00    -0.354 N 
ATOM     47  N   UNL A   1      42.261  29.285  33.192  1.00  0.00    -0.248 NA
ATOM     48  C   UNL A   1      42.525  30.075  35.375  1.00  0.00     0.031 C 
ATOM     49  C   UNL A   1      44.646  25.998  31.411  1.00  0.00     0.029 A 
ATOM     50  C   UNL A   1      43.901  27.002  32.003  1.00  0.00     0.049 A 
ATOM     51  H   UNL A   1      42.288  28.107  31.203  1.00  0.00     0.167 HD
ATOM     52  C   UNL A   1      43.283  28.576  33.815  1.00  0.00     0.074 A 
ATOM     53  C   UNL A   1      43.425  29.131  35.144  1.00  0.00     0.031 C 
ATOM     54  C   UNL A   1      44.034  27.554  33.331  1.00  0.00     0.034 A 
BRANCH  41  55
ATOM     55  C   UNL A   1      42.641  25.971  27.498  1.00  0.00     0.023 A 
ATOM     56  C   UNL A   1      42.127  24.669  27.378  1.00  0.00     0.031 A 
ATOM     57  C   UNL A   1      43.468  26.445  26.461  1.00  0.00     0.131 A 
ATOM     58  C   UNL A   1      42.498  23.867  26.283  1.00  0.00     0.055 A 
ATOM     59  C   UNL A   1      43.765  25.674  25.335  1.00  0.00     0.041 A 
ATOM     60  F   UNL A   1      44.007  27.673  26.525  1.00  0.00    -0.206 F 
ATOM     61  C   UNL A   1      43.289  24.371  25.248  1.00  0.00     0.022 A 
BRANCH  58  62
ATOM     62  S   UNL A   1      42.045  22.111  26.297  1.00  0.00     0.124 S 
ATOM     63  O   UNL A   1      42.761  21.614  25.124  1.00  0.00    -0.237 OA
ATOM     64  O   UNL A   1      42.548  21.665  27.591  1.00  0.00    -0.237 OA
ATOM     65  O   UNL A   1      40.589  22.130  26.166  1.00  0.00    -0.744 OA
ENDBRANCH  58  62
ENDBRANCH  41  55
BRANCH  42  66
ATOM     66  C   UNL A   1      40.357  32.024  35.127  1.00  0.00     0.023 A 
ATOM     67  C   UNL A   1      39.414  31.588  36.071  1.00  0.00     0.031 A 
ATOM     68  C   UNL A   1      40.896  33.316  35.290  1.00  0.00     0.131 A 
ATOM     69  C   UNL A   1      39.014  32.447  37.108  1.00  0.00     0.055 A 
ATOM     70  C   UNL A   1      40.554  34.134  36.366  1.00  0.00     0.041 A 
ATOM     71  F   UNL A   1      41.787  33.799  34.409  1.00  0.00    -0.206 F 
ATOM     72  C   UNL A   1      39.595  33.707  37.275  1.00  0.00     0.022 A 
BRANCH  69  73
ATOM     73  S   UNL A   1      37.635  31.943  38.172  1.00  0.00     0.124 S 
ATOM     74  O   UNL A   1      37.330  30.614  37.652  1.00  0.00    -0.237 OA
ATOM     75  O   UNL A   1      38.242  31.990  39.498  1.00  0.00    -0.237 OA
ATOM     76  O   UNL A   1      36.618  32.961  37.917  1.00  0.00    -0.744 OA
ENDBRANCH  69  73
ENDBRANCH  42  66
BRANCH  54  77
ATOM     77  C   UNL A   1      45.116  27.016  34.233  1.00  0.00     0.023 A 
ATOM     78  C   UNL A   1      44.905  25.896  35.058  1.00  0.00     0.031 A 
ATOM     79  C   UNL A   1      46.367  27.654  34.291  1.00  0.00     0.131 A 
ATOM     80  C   UNL A   1      45.909  25.489  35.951  1.00  0.00     0.055 A 
ATOM     81  C   UNL A   1      47.385  27.203  35.132  1.00  0.00     0.041 A 
ATOM     82  F   UNL A   1      46.621  28.732  33.531  1.00  0.00    -0.206 F 
ATOM     83  C   UNL A   1      47.153  26.124  35.979  1.00  0.00     0.022 A 
BRANCH  80  84
ATOM     84  S   UNL A   1      45.528  24.185  37.152  1.00  0.00     0.124 S 
ATOM     85  O   UNL A   1      44.646  24.880  38.086  1.00  0.00    -0.237 OA
ATOM     86  O   UNL A   1      44.898  23.166  36.319  1.00  0.00    -0.237 OA
ATOM     87  O   UNL A   1      46.837  23.821  37.690  1.00  0.00    -0.744 OA
ENDBRANCH  80  84
ENDBRANCH  54  77
ENDBRANCH  28  29
ENDBRANCH  21  23
ENDBRANCH  20  21
ENDBRANCH   1  20
TORSDOF 15
ENDMDL
MODEL 3
REMARK VINA RESULT:     -11.7      5.008     10.030
REMARK SMILES Cc1nc([C@]2(C)CCCO2)nc(C)c1C(=O)OCCOC(=O)c1ccc(-c2c3nc(c(-c4cc(S(=O)(=O)[O-])ccc4F)c4ccc([nH]4)c(-c4cc(S(=O)(=O)[O-])ccc4F)c4nc(c(-c5cc(S(=O)(=O)[O-])ccc5F)c5ccc2[nH]5)C=C4)C=C3)cc1
REMARK SMILES IDX 19 1 18 2 17 3 15 4 16 5 14 6 1 7 2 8 3 9 4 10 12 11 11 12
REMARK SMILES IDX 13 13 5 14 7 15 10 16 6 17 8 18 9 19 20 20 21 21 22 22 23 23
REMARK SMILES IDX 24 24 85 25 25 26 84 27 26 28 27 29 28 30 78 31 29 32 83 33
REMARK SMILES IDX 77 34 79 35 30 36 82 37 76 38 75 39 31 41 63 42 43 43 62 44
REMARK SMILES IDX 44 45 47 46 61 47 80 48 45 49 46 50 60 52 81 53 48 54 32 55
REMARK SMILES IDX 33 56 41 57 34 58 40 59 42 60 39 61 35 62 36 63 37 64 38 65
REMARK SMILES IDX 64 66 65 67 73 68 66 69 72 70 74 71 71 72 67 73 68 74 69 75
REMARK SMILES IDX 70 76 49 77 50 78 58 79 51 80 57 81 59 82 56 83 52 84 53 85
REMARK SMILES IDX 54 86 55 87
REMARK H PARENT 79 40 47 51
REMARK Flexibility Score: inf
ROOT
ATOM      1  C   UNL A   1      36.454  20.730  25.071  1.00  0.00     0.275 C 
ENDROOT
BRANCH   1   2
ATOM      2  C   UNL A   1      35.082  21.225  25.524  1.00  0.00     0.275 C 
BRANCH   2   3
ATOM      3  O   UNL A   1      34.081  21.005  24.503  1.00  0.00    -0.458 OA
BRANCH   3   4
ATOM      4  C   UNL A   1      32.824  21.432  24.792  1.00  0.00     0.341 C 
ATOM      5  O   UNL A   1      31.896  20.714  25.111  1.00  0.00    -0.246 OA
BRANCH   4   6
ATOM      6  C   UNL A   1      32.685  22.903  24.671  1.00  0.00     0.102 A 
ATOM      7  C   UNL A   1      32.191  23.270  27.135  1.00  0.00     0.068 C 
ATOM      8  C   UNL A   1      32.423  23.759  25.736  1.00  0.00     0.056 A 
ATOM      9  N   UNL A   1      32.340  25.113  25.584  1.00  0.00    -0.234 NA
ATOM     10  C   UNL A   1      32.541  25.623  24.349  1.00  0.00     0.160 A 
ATOM     11  C   UNL A   1      32.911  23.533  23.455  1.00  0.00     0.056 A 
ATOM     12  N   UNL A   1      32.882  24.868  23.306  1.00  0.00    -0.234 NA
ATOM     13  C   UNL A   1      32.994  22.845  22.140  1.00  0.00     0.068 C 
BRANCH  10  14
ATOM     14  C   UNL A   1      32.360  27.117  24.059  1.00  0.00     0.125 C 
ATOM     15  C   UNL A   1      31.165  27.697  24.807  1.00  0.00     0.046 C 
ATOM     16  O   UNL A   1      32.069  27.334  22.661  1.00  0.00    -0.367 OA
ATOM     17  C   UNL A   1      33.645  27.895  24.393  1.00  0.00     0.051 C 
ATOM     18  C   UNL A   1      30.013  27.394  23.880  1.00  0.00     0.032 C 
ATOM     19  C   UNL A   1      30.649  27.410  22.502  1.00  0.00     0.161 C 
ENDBRANCH  10  14
ENDBRANCH   4   6
ENDBRANCH   3   4
ENDBRANCH   2   3
ENDBRANCH   1   2
BRANCH   1  20
ATOM     20  O   UNL A   1      37.412  21.799  25.161  1.00  0.00    -0.458 OA
BRANCH  20  21
ATOM     21  C   UNL A   1      38.610  21.461  25.690  1.00  0.00     0.338 C 
ATOM     22  O   UNL A   1      39.263  20.456  25.451  1.00  0.00    -0.246 OA
BRANCH  21  23
ATOM     23  C   UNL A   1      39.105  22.545  26.555  1.00  0.00     0.060 A 
ATOM     24  C   UNL A   1      38.579  23.812  26.371  1.00  0.00     0.016 A 
ATOM     25  C   UNL A   1      40.232  22.379  27.357  1.00  0.00     0.016 A 
ATOM     26  C   UNL A   1      39.300  24.924  26.808  1.00  0.00     0.010 A 
ATOM     27  C   UNL A   1      40.846  23.502  27.943  1.00  0.00     0.010 A 
ATOM     28  C   UNL A   1      40.439  24.810  27.618  1.00  0.00    -0.014 A 
BRANCH  28  29
ATOM     29  C   UNL A   1      41.214  26.032  28.043  1.00  0.00     0.031 A 
ATOM     30  C   UNL A   1      40.560  27.106  28.896  1.00  0.00     0.074 A 
ATOM     31  C   UNL A   1      42.523  26.193  27.732  1.00  0.00     0.049 A 
ATOM     32  N   UNL A   1      40.941  28.340  29.117  1.00  0.00    -0.248 NA
ATOM     33  C   UNL A   1      39.301  26.748  29.570  1.00  0.00     0.031 C 
ATOM     34  C   UNL A   1      43.356  25.234  27.001  1.00  0.00     0.029 A 
ATOM     35  N   UNL A   1      43.400  27.223  28.007  1.00  0.00    -0.354 N 
ATOM     36  C   UNL A   1      39.931  28.929  29.877  1.00  0.00     0.074 A 
ATOM     37  C   UNL A   1      38.920  27.912  30.077  1.00  0.00     0.031 C 
ATOM     38  C   UNL A   1      44.621  25.668  26.968  1.00  0.00     0.029 A 
ATOM     39  C   UNL A   1      44.665  27.024  27.493  1.00  0.00     0.049 A 
ATOM     40  H   UNL A   1      43.147  28.023  28.520  1.00  0.00     0.167 HD
ATOM     41  C   UNL A   1      39.853  30.199  30.356  1.00  0.00     0.034 A 
ATOM     42  C   UNL A   1      45.721  27.852  27.355  1.00  0.00     0.034 A 
ATOM     43  C   UNL A   1      40.909  31.177  30.219  1.00  0.00     0.049 A 
ATOM     44  C   UNL A   1      45.586  29.278  27.810  1.00  0.00     0.074 A 
ATOM     45  C   UNL A   1      40.932  32.490  30.662  1.00  0.00     0.029 A 
ATOM     46  N   UNL A   1      42.140  30.947  29.616  1.00  0.00    -0.354 N 
ATOM     47  N   UNL A   1      44.569  29.865  28.395  1.00  0.00    -0.248 NA
ATOM     48  C   UNL A   1      46.732  30.163  27.562  1.00  0.00     0.031 C 
ATOM     49  C   UNL A   1      42.142  33.071  30.266  1.00  0.00     0.029 A 
ATOM     50  C   UNL A   1      42.913  32.098  29.654  1.00  0.00     0.049 A 
ATOM     51  H   UNL A   1      42.421  30.091  29.221  1.00  0.00     0.167 HD
ATOM     52  C   UNL A   1      44.961  31.184  28.599  1.00  0.00     0.074 A 
ATOM     53  C   UNL A   1      46.315  31.298  28.100  1.00  0.00     0.031 C 
ATOM     54  C   UNL A   1      44.260  32.210  29.147  1.00  0.00     0.034 A 
BRANCH  41  55
ATOM     55  C   UNL A   1      38.557  30.634  31.007  1.00  0.00     0.023 A 
ATOM     56  C   UNL A   1      37.503  31.219  30.285  1.00  0.00     0.031 A 
ATOM     57  C   UNL A   1      38.380  30.457  32.393  1.00  0.00     0.131 A 
ATOM     58  C   UNL A   1      36.352  31.663  30.961  1.00  0.00     0.055 A 
ATOM     59  C   UNL A   1      37.201  30.824  33.045  1.00  0.00     0.041 A 
ATOM     60  F   UNL A   1      39.358  29.922  33.142  1.00  0.00    -0.206 F 
ATOM     61  C   UNL A   1      36.183  31.443  32.330  1.00  0.00     0.022 A 
BRANCH  58  62
ATOM     62  S   UNL A   1      35.137  32.657  30.052  1.00  0.00     0.124 S 
ATOM     63  O   UNL A   1      34.157  32.950  31.096  1.00  0.00    -0.237 OA
ATOM     64  O   UNL A   1      35.936  33.785  29.588  1.00  0.00    -0.237 OA
ATOM     65  O   UNL A   1      34.667  31.752  29.005  1.00  0.00    -0.744 OA
ENDBRANCH  58  62
ENDBRANCH  41  55
BRANCH  42  66
ATOM     66  C   UNL A   1      46.952  27.395  26.637  1.00  0.00     0.023 A 
ATOM     67  C   UNL A   1      47.172  27.713  25.288  1.00  0.00     0.031 A 
ATOM     68  C   UNL A   1      47.909  26.586  27.284  1.00  0.00     0.131 A 
ATOM     69  C   UNL A   1      48.295  27.195  24.622  1.00  0.00     0.055 A 
ATOM     70  C   UNL A   1      49.063  26.141  26.639  1.00  0.00     0.041 A 
ATOM     71  F   UNL A   1      47.746  26.232  28.568  1.00  0.00    -0.206 F 
ATOM     72  C   UNL A   1      49.254  26.432  25.294  1.00  0.00     0.022 A 
BRANCH  69  73
ATOM     73  S   UNL A   1      48.431  27.434  22.830  1.00  0.00     0.124 S 
ATOM     74  O   UNL A   1      49.691  28.161  22.723  1.00  0.00    -0.237 OA
ATOM     75  O   UNL A   1      48.438  26.060  22.339  1.00  0.00    -0.237 OA
ATOM     76  O   UNL A   1      47.235  28.206  22.498  1.00  0.00    -0.744 OA
ENDBRANCH  69  73
ENDBRANCH  42  66
BRANCH  54  77
ATOM     77  C   UNL A   1      44.979  33.529  29.286  1.00  0.00     0.023 A 
ATOM     78  C   UNL A   1      44.890  34.529  28.302  1.00  0.00     0.031 A 
ATOM     79  C   UNL A   1      45.792  33.774  30.407  1.00  0.00     0.131 A 
ATOM     80  C   UNL A   1      45.651  35.702  28.428  1.00  0.00     0.055 A 
ATOM     81  C   UNL A   1      46.494  34.971  30.559  1.00  0.00     0.041 A 
ATOM     82  F   UNL A   1      45.921  32.851  31.374  1.00  0.00    -0.206 F 
ATOM     83  C   UNL A   1      46.437  35.936  29.559  1.00  0.00     0.022 A 
BRANCH  80  84
ATOM     84  S   UNL A   1      45.684  36.871  27.042  1.00  0.00     0.124 S 
ATOM     85  O   UNL A   1      44.265  37.162  26.857  1.00  0.00    -0.237 OA
ATOM     86  O   UNL A   1      46.495  37.962  27.571  1.00  0.00    -0.237 OA
ATOM     87  O   UNL A   1      46.305  36.105  25.962  1.00  0.00    -0.744 OA
ENDBRANCH  80  84
ENDBRANCH  54  77
ENDBRANCH  28  29
ENDBRANCH  21  23
ENDBRANCH  20  21
ENDBRANCH   1  20
TORSDOF 15
ENDMDL
