MODEL 1
REMARK VINA RESULT:     -11.9      0.000      0.000
REMARK SMILES O=C(OCCOC(=O)c1cc(F)ccc1NS(=O)(=O)c1ccc(Cl)s1)c1ccc(-c2c3nc(c(-c4cc(S(=O)(=O)[O-])ccc4F)c4ccc([nH]4)c(-c4cc(S(=O)(=O)[O-])ccc4F)c4nc(c(-c5cc(S(=O)(=O)[O-])ccc5F)c5ccc2[nH]5)C=C4)C=C3)cc1
REMARK SMILES IDX 4 1 3 2 2 3 1 4 26 5 27 6 88 7 28 8 87 9 29 10 30 11 31 12
REMARK SMILES IDX 81 13 32 14 86 15 80 16 82 17 33 18 85 19 79 20 78 21 34 23
REMARK SMILES IDX 66 24 46 25 65 26 47 27 50 28 64 29 83 30 48 31 49 32 63 34
REMARK SMILES IDX 84 35 51 36 35 37 36 38 44 39 37 40 43 41 45 42 42 43 38 44
REMARK SMILES IDX 39 45 40 46 41 47 67 48 68 49 76 50 69 51 75 52 77 53 74 54
REMARK SMILES IDX 70 55 71 56 72 57 73 58 52 59 53 60 61 61 54 62 60 63 62 64
REMARK SMILES IDX 59 65 55 66 56 67 57 68 58 69 5 70 6 71 7 72 8 73 9 74 10 75
REMARK SMILES IDX 15 76 11 77 14 78 12 79 13 80 16 81 17 83 18 84 19 85 20 86
REMARK SMILES IDX 21 87 25 88 22 89 23 90 24 91
REMARK H PARENT 82 22 50 33 16 82
REMARK Flexibility Score: inf
ROOT
ATOM      1  C   UNL A   1      37.219  21.482  25.412  1.00  0.00     0.275 C 
ENDROOT
BRANCH   1   2
ATOM      2  O   UNL A   1      38.615  21.143  25.400  1.00  0.00    -0.458 OA
BRANCH   2   3
ATOM      3  C   UNL A   1      39.613  21.422  26.269  1.00  0.00     0.338 C 
ATOM      4  O   UNL A   1      40.239  20.474  26.738  1.00  0.00    -0.246 OA
BRANCH   3   5
ATOM      5  C   UNL A   1      39.953  22.799  26.761  1.00  0.00     0.060 A 
ATOM      6  C   UNL A   1      39.448  24.003  26.275  1.00  0.00     0.016 A 
ATOM      7  C   UNL A   1      40.907  22.872  27.792  1.00  0.00     0.016 A 
ATOM      8  C   UNL A   1      39.834  25.229  26.834  1.00  0.00     0.010 A 
ATOM      9  C   UNL A   1      41.278  24.086  28.377  1.00  0.00     0.010 A 
ATOM     10  C   UNL A   1      40.754  25.280  27.884  1.00  0.00    -0.014 A 
BRANCH  10  11
ATOM     11  C   UNL A   1      41.294  26.591  28.313  1.00  0.00     0.031 A 
ATOM     12  C   UNL A   1      42.733  26.902  28.014  1.00  0.00     0.074 A 
ATOM     13  C   UNL A   1      40.495  27.516  28.879  1.00  0.00     0.049 A 
ATOM     14  N   UNL A   1      43.388  28.018  28.192  1.00  0.00    -0.248 NA
ATOM     15  C   UNL A   1      43.536  25.821  27.417  1.00  0.00     0.031 C 
ATOM     16  C   UNL A   1      39.075  27.329  29.168  1.00  0.00     0.029 A 
ATOM     17  N   UNL A   1      40.748  28.796  29.297  1.00  0.00    -0.354 N 
ATOM     18  C   UNL A   1      44.662  27.786  27.688  1.00  0.00     0.074 A 
ATOM     19  C   UNL A   1      44.717  26.401  27.279  1.00  0.00     0.031 C 
ATOM     20  C   UNL A   1      38.584  28.444  29.733  1.00  0.00     0.029 A 
ATOM     21  C   UNL A   1      39.650  29.434  29.827  1.00  0.00     0.049 A 
ATOM     22  H   UNL A   1      41.634  29.220  29.224  1.00  0.00     0.167 HD
ATOM     23  C   UNL A   1      45.680  28.663  27.533  1.00  0.00     0.034 A 
ATOM     24  C   UNL A   1      39.517  30.684  30.316  1.00  0.00     0.034 A 
ATOM     25  C   UNL A   1      45.615  30.035  27.949  1.00  0.00     0.049 A 
ATOM     26  C   UNL A   1      40.701  31.610  30.242  1.00  0.00     0.074 A 
ATOM     27  C   UNL A   1      46.585  31.014  27.849  1.00  0.00     0.029 A 
ATOM     28  N   UNL A   1      44.511  30.620  28.556  1.00  0.00    -0.354 N 
ATOM     29  N   UNL A   1      41.892  31.378  29.740  1.00  0.00    -0.248 NA
ATOM     30  C   UNL A   1      40.526  32.966  30.781  1.00  0.00     0.031 C 
ATOM     31  C   UNL A   1      46.086  32.179  28.441  1.00  0.00     0.029 A 
ATOM     32  C   UNL A   1      44.787  31.939  28.865  1.00  0.00     0.049 A 
ATOM     33  H   UNL A   1      43.659  30.163  28.739  1.00  0.00     0.167 HD
ATOM     34  C   UNL A   1      42.601  32.565  29.879  1.00  0.00     0.074 A 
ATOM     35  C   UNL A   1      41.705  33.513  30.513  1.00  0.00     0.031 C 
ATOM     36  C   UNL A   1      43.873  32.851  29.508  1.00  0.00     0.034 A 
BRANCH  23  37
ATOM     37  C   UNL A   1      46.934  28.140  26.891  1.00  0.00     0.023 A 
ATOM     38  C   UNL A   1      47.099  28.172  25.495  1.00  0.00     0.031 A 
ATOM     39  C   UNL A   1      47.947  27.560  27.670  1.00  0.00     0.131 A 
ATOM     40  C   UNL A   1      48.228  27.578  24.914  1.00  0.00     0.055 A 
ATOM     41  C   UNL A   1      49.098  27.024  27.089  1.00  0.00     0.041 A 
ATOM     42  F   UNL A   1      47.823  27.483  29.004  1.00  0.00    -0.206 F 
ATOM     43  C   UNL A   1      49.238  27.022  25.704  1.00  0.00     0.022 A 
BRANCH  40  44
ATOM     44  S   UNL A   1      48.316  27.458  23.107  1.00  0.00     0.124 S 
ATOM     45  O   UNL A   1      47.121  28.197  22.706  1.00  0.00    -0.237 OA
ATOM     46  O   UNL A   1      49.591  28.100  22.805  1.00  0.00    -0.237 OA
ATOM     47  O   UNL A   1      48.268  26.020  22.857  1.00  0.00    -0.744 OA
ENDBRANCH  40  44
ENDBRANCH  23  37
BRANCH  24  48
ATOM     48  C   UNL A   1      38.224  31.128  30.909  1.00  0.00     0.023 A 
ATOM     49  C   UNL A   1      37.251  31.788  30.142  1.00  0.00     0.031 A 
ATOM     50  C   UNL A   1      37.950  30.900  32.270  1.00  0.00     0.131 A 
ATOM     51  C   UNL A   1      36.058  32.218  30.747  1.00  0.00     0.055 A 
ATOM     52  C   UNL A   1      36.751  31.304  32.860  1.00  0.00     0.041 A 
ATOM     53  F   UNL A   1      38.846  30.268  33.046  1.00  0.00    -0.206 F 
ATOM     54  C   UNL A   1      35.799  31.974  32.098  1.00  0.00     0.022 A 
BRANCH  51  55
ATOM     55  S   UNL A   1      34.851  33.131  29.746  1.00  0.00     0.124 S 
ATOM     56  O   UNL A   1      34.278  32.069  28.928  1.00  0.00    -0.237 OA
ATOM     57  O   UNL A   1      33.977  33.699  30.768  1.00  0.00    -0.237 OA
ATOM     58  O   UNL A   1      35.671  34.102  29.024  1.00  0.00    -0.744 OA
ENDBRANCH  51  55
ENDBRANCH  24  48
BRANCH  36  59
ATOM     59  C   UNL A   1      44.372  34.242  29.770  1.00  0.00     0.023 A 
ATOM     60  C   UNL A   1      44.208  35.258  28.816  1.00  0.00     0.031 A 
ATOM     61  C   UNL A   1      44.936  34.570  31.015  1.00  0.00     0.131 A 
ATOM     62  C   UNL A   1      44.619  36.562  29.119  1.00  0.00     0.055 A 
ATOM     63  C   UNL A   1      45.307  35.877  31.324  1.00  0.00     0.041 A 
ATOM     64  F   UNL A   1      45.102  33.628  31.957  1.00  0.00    -0.206 F 
ATOM     65  C   UNL A   1      45.149  36.883  30.372  1.00  0.00     0.022 A 
BRANCH  62  66
ATOM     66  S   UNL A   1      44.446  37.845  27.850  1.00  0.00     0.124 S 
ATOM     67  O   UNL A   1      44.258  39.045  28.659  1.00  0.00    -0.237 OA
ATOM     68  O   UNL A   1      45.711  37.755  27.130  1.00  0.00    -0.237 OA
ATOM     69  O   UNL A   1      43.272  37.418  27.091  1.00  0.00    -0.744 OA
ENDBRANCH  62  66
ENDBRANCH  36  59
ENDBRANCH  10  11
ENDBRANCH   3   5
ENDBRANCH   2   3
ENDBRANCH   1   2
BRANCH   1  70
ATOM     70  C   UNL A   1      36.746  22.246  24.178  1.00  0.00     0.275 C 
BRANCH  70  71
ATOM     71  O   UNL A   1      35.717  23.206  24.454  1.00  0.00    -0.458 OA
BRANCH  71  72
ATOM     72  C   UNL A   1      34.731  23.326  23.525  1.00  0.00     0.340 C 
ATOM     73  O   UNL A   1      34.860  23.301  22.312  1.00  0.00    -0.246 OA
BRANCH  72  74
ATOM     74  C   UNL A   1      33.423  23.349  24.216  1.00  0.00     0.087 A 
ATOM     75  C   UNL A   1      33.395  23.062  25.589  1.00  0.00     0.057 A 
ATOM     76  C   UNL A   1      32.231  23.598  23.496  1.00  0.00     0.064 A 
ATOM     77  C   UNL A   1      32.176  22.975  26.237  1.00  0.00     0.124 A 
ATOM     78  C   UNL A   1      31.021  23.375  24.166  1.00  0.00     0.030 A 
ATOM     79  F   UNL A   1      32.147  22.760  27.558  1.00  0.00    -0.207 F 
ATOM     80  C   UNL A   1      30.991  23.070  25.531  1.00  0.00     0.041 A 
BRANCH  76  81
ATOM     81  N   UNL A   1      32.293  24.309  22.243  1.00  0.00    -0.278 N 
ATOM     82  H   UNL A   1      32.275  23.763  21.424  1.00  0.00     0.180 HD
BRANCH  81  83
ATOM     83  S   UNL A   1      32.392  25.971  22.036  1.00  0.00     0.271 S 
ATOM     84  O   UNL A   1      33.738  26.271  21.598  1.00  0.00    -0.200 OA
ATOM     85  O   UNL A   1      31.243  26.420  21.284  1.00  0.00    -0.200 OA
BRANCH  83  86
ATOM     86  C   UNL A   1      32.222  26.851  23.571  1.00  0.00     0.141 A 
ATOM     87  C   UNL A   1      31.100  27.095  24.349  1.00  0.00     0.036 A 
ATOM     88  S   UNL A   1      33.640  27.471  24.301  1.00  0.00    -0.110 S 
ATOM     89  C   UNL A   1      31.438  27.632  25.623  1.00  0.00     0.034 A 
ATOM     90  C   UNL A   1      32.792  27.824  25.726  1.00  0.00     0.094 A 
ATOM     91  Cl  UNL A   1      33.644  28.355  27.119  1.00  0.00    -0.072 Cl
ENDBRANCH  83  86
ENDBRANCH  81  83
ENDBRANCH  76  81
ENDBRANCH  72  74
ENDBRANCH  71  72
ENDBRANCH  70  71
ENDBRANCH   1  70
TORSDOF 17
ENDMDL
MODEL 2
REMARK VINA RESULT:     -11.7      4.996     10.113
REMARK SMILES O=C(OCCOC(=O)c1cc(F)ccc1NS(=O)(=O)c1ccc(Cl)s1)c1ccc(-c2c3nc(c(-c4cc(S(=O)(=O)[O-])ccc4F)c4ccc([nH]4)c(-c4cc(S(=O)(=O)[O-])ccc4F)c4nc(c(-c5cc(S(=O)(=O)[O-])ccc5F)c5ccc2[nH]5)C=C4)C=C3)cc1
REMARK SMILES IDX 4 1 3 2 2 3 1 4 26 5 27 6 88 7 28 8 87 9 29 10 30 11 31 12
REMARK SMILES IDX 81 13 32 14 86 15 80 16 82 17 33 18 85 19 79 20 78 21 34 23
REMARK SMILES IDX 66 24 46 25 65 26 47 27 50 28 64 29 83 30 48 31 49 32 63 34
REMARK SMILES IDX 84 35 51 36 35 37 36 38 44 39 37 40 43 41 45 42 42 43 38 44
REMARK SMILES IDX 39 45 40 46 41 47 67 48 68 49 76 50 69 51 75 52 77 53 74 54
REMARK SMILES IDX 70 55 71 56 72 57 73 58 52 59 53 60 61 61 54 62 60 63 62 64
REMARK SMILES IDX 59 65 55 66 56 67 57 68 58 69 5 70 6 71 7 72 8 73 9 74 10 75
REMARK SMILES IDX 15 76 11 77 14 78 12 79 13 80 16 81 17 83 18 84 19 85 20 86
REMARK SMILES IDX 21 87 25 88 22 89 23 90 24 91
REMARK H PARENT 82 22 50 33 16 82
REMARK Flexibility Score: inf
ROOT
ATOM      1  C   UNL A   1      32.372  31.550  26.606  1.00  0.00     0.275 C 
ENDROOT
BRANCH   1   2
ATOM      2  O   UNL A   1      32.795  32.404  27.682  1.00  0.00    -0.458 OA
BRANCH   2   3
ATOM      3  C   UNL A   1      33.988  32.982  27.951  1.00  0.00     0.338 C 
ATOM      4  O   UNL A   1      34.094  34.188  27.739  1.00  0.00    -0.246 OA
BRANCH   3   5
ATOM      5  C   UNL A   1      35.209  32.240  28.411  1.00  0.00     0.060 A 
ATOM      6  C   UNL A   1      35.258  30.928  28.877  1.00  0.00     0.016 A 
ATOM      7  C   UNL A   1      36.414  32.964  28.403  1.00  0.00     0.016 A 
ATOM      8  C   UNL A   1      36.470  30.341  29.263  1.00  0.00     0.010 A 
ATOM      9  C   UNL A   1      37.635  32.381  28.759  1.00  0.00     0.010 A 
ATOM     10  C   UNL A   1      37.665  31.063  29.212  1.00  0.00    -0.014 A 
BRANCH  10  11
ATOM     11  C   UNL A   1      38.889  30.488  29.817  1.00  0.00     0.031 A 
ATOM     12  C   UNL A   1      39.292  30.950  31.188  1.00  0.00     0.074 A 
ATOM     13  C   UNL A   1      39.574  29.511  29.192  1.00  0.00     0.049 A 
ATOM     14  N   UNL A   1      40.252  30.509  31.956  1.00  0.00    -0.248 NA
ATOM     15  C   UNL A   1      38.498  32.040  31.781  1.00  0.00     0.031 C 
ATOM     16  C   UNL A   1      39.237  28.960  27.882  1.00  0.00     0.029 A 
ATOM     17  N   UNL A   1      40.680  28.796  29.573  1.00  0.00    -0.354 N 
ATOM     18  C   UNL A   1      40.147  31.234  33.136  1.00  0.00     0.074 A 
ATOM     19  C   UNL A   1      39.091  32.202  32.953  1.00  0.00     0.031 C 
ATOM     20  C   UNL A   1      40.126  28.007  27.556  1.00  0.00     0.029 A 
ATOM     21  C   UNL A   1      41.084  27.863  28.645  1.00  0.00     0.049 A 
ATOM     22  H   UNL A   1      41.141  28.937  30.431  1.00  0.00     0.167 HD
ATOM     23  C   UNL A   1      40.837  31.073  34.289  1.00  0.00     0.034 A 
ATOM     24  C   UNL A   1      42.103  26.981  28.680  1.00  0.00     0.034 A 
ATOM     25  C   UNL A   1      41.888  30.110  34.456  1.00  0.00     0.049 A 
ATOM     26  C   UNL A   1      42.935  26.900  29.931  1.00  0.00     0.074 A 
ATOM     27  C   UNL A   1      42.661  29.861  35.574  1.00  0.00     0.029 A 
ATOM     28  N   UNL A   1      42.321  29.240  33.464  1.00  0.00    -0.354 N 
ATOM     29  N   UNL A   1      42.805  27.579  31.047  1.00  0.00    -0.248 NA
ATOM     30  C   UNL A   1      44.037  25.928  29.941  1.00  0.00     0.031 C 
ATOM     31  C   UNL A   1      43.594  28.874  35.244  1.00  0.00     0.029 A 
ATOM     32  C   UNL A   1      43.371  28.474  33.935  1.00  0.00     0.049 A 
ATOM     33  H   UNL A   1      41.937  29.179  32.560  1.00  0.00     0.167 HD
ATOM     34  C   UNL A   1      43.791  27.100  31.901  1.00  0.00     0.074 A 
ATOM     35  C   UNL A   1      44.511  26.074  31.172  1.00  0.00     0.031 C 
ATOM     36  C   UNL A   1      44.073  27.467  33.175  1.00  0.00     0.034 A 
BRANCH  23  37
ATOM     37  C   UNL A   1      40.460  31.967  35.436  1.00  0.00     0.023 A 
ATOM     38  C   UNL A   1      39.389  31.640  36.286  1.00  0.00     0.031 A 
ATOM     39  C   UNL A   1      41.136  33.178  35.650  1.00  0.00     0.131 A 
ATOM     40  C   UNL A   1      38.987  32.545  37.279  1.00  0.00     0.055 A 
ATOM     41  C   UNL A   1      40.770  34.047  36.679  1.00  0.00     0.041 A 
ATOM     42  F   UNL A   1      42.147  33.547  34.848  1.00  0.00    -0.206 F 
ATOM     43  C   UNL A   1      39.684  33.737  37.494  1.00  0.00     0.022 A 
BRANCH  40  44
ATOM     44  S   UNL A   1      37.485  32.185  38.227  1.00  0.00     0.124 S 
ATOM     45  O   UNL A   1      37.304  30.760  37.961  1.00  0.00    -0.237 OA
ATOM     46  O   UNL A   1      37.874  32.533  39.589  1.00  0.00    -0.237 OA
ATOM     47  O   UNL A   1      36.482  33.060  37.624  1.00  0.00    -0.744 OA
ENDBRANCH  40  44
ENDBRANCH  23  37
BRANCH  24  48
ATOM     48  C   UNL A   1      42.387  26.110  27.504  1.00  0.00     0.023 A 
ATOM     49  C   UNL A   1      41.990  24.764  27.474  1.00  0.00     0.031 A 
ATOM     50  C   UNL A   1      43.075  26.622  26.389  1.00  0.00     0.131 A 
ATOM     51  C   UNL A   1      42.305  23.968  26.359  1.00  0.00     0.055 A 
ATOM     52  C   UNL A   1      43.360  25.835  25.271  1.00  0.00     0.041 A 
ATOM     53  F   UNL A   1      43.471  27.905  26.367  1.00  0.00    -0.206 F 
ATOM     54  C   UNL A   1      42.980  24.497  25.255  1.00  0.00     0.022 A 
BRANCH  51  55
ATOM     55  S   UNL A   1      41.841  22.214  26.379  1.00  0.00     0.124 S 
ATOM     56  O   UNL A   1      40.393  22.286  26.224  1.00  0.00    -0.237 OA
ATOM     57  O   UNL A   1      42.586  21.689  25.239  1.00  0.00    -0.237 OA
ATOM     58  O   UNL A   1      42.307  21.753  27.686  1.00  0.00    -0.744 OA
ENDBRANCH  51  55
ENDBRANCH  24  48
BRANCH  36  59
ATOM     59  C   UNL A   1      45.198  26.754  33.866  1.00  0.00     0.023 A 
ATOM     60  C   UNL A   1      44.973  25.554  34.558  1.00  0.00     0.031 A 
ATOM     61  C   UNL A   1      46.514  27.235  33.759  1.00  0.00     0.131 A 
ATOM     62  C   UNL A   1      46.055  24.875  35.131  1.00  0.00     0.055 A 
ATOM     63  C   UNL A   1      47.590  26.534  34.297  1.00  0.00     0.041 A 
ATOM     64  F   UNL A   1      46.770  28.375  33.098  1.00  0.00    -0.206 F 
ATOM     65  C   UNL A   1      47.364  25.346  34.989  1.00  0.00     0.022 A 
BRANCH  62  66
ATOM     66  S   UNL A   1      45.731  23.355  36.064  1.00  0.00     0.124 S 
ATOM     67  O   UNL A   1      45.371  23.880  37.378  1.00  0.00    -0.237 OA
ATOM     68  O   UNL A   1      44.648  22.739  35.306  1.00  0.00    -0.237 OA
ATOM     69  O   UNL A   1      47.006  22.642  36.009  1.00  0.00    -0.744 OA
ENDBRANCH  62  66
ENDBRANCH  36  59
ENDBRANCH  10  11
ENDBRANCH   3   5
ENDBRANCH   2   3
ENDBRANCH   1   2
BRANCH   1  70
ATOM     70  C   UNL A   1      32.446  30.058  26.920  1.00  0.00     0.275 C 
BRANCH  70  71
ATOM     71  O   UNL A   1      33.508  29.379  26.235  1.00  0.00    -0.458 OA
BRANCH  71  72
ATOM     72  C   UNL A   1      33.207  28.853  25.017  1.00  0.00     0.340 C 
ATOM     73  O   UNL A   1      33.380  29.377  23.929  1.00  0.00    -0.246 OA
BRANCH  72  74
ATOM     74  C   UNL A   1      32.755  27.456  25.198  1.00  0.00     0.087 A 
ATOM     75  C   UNL A   1      33.635  26.550  25.809  1.00  0.00     0.057 A 
ATOM     76  C   UNL A   1      31.494  27.037  24.713  1.00  0.00     0.064 A 
ATOM     77  C   UNL A   1      33.280  25.216  25.897  1.00  0.00     0.124 A 
ATOM     78  C   UNL A   1      31.235  25.660  24.712  1.00  0.00     0.030 A 
ATOM     79  F   UNL A   1      34.089  24.360  26.531  1.00  0.00    -0.207 F 
ATOM     80  C   UNL A   1      32.119  24.753  25.304  1.00  0.00     0.041 A 
BRANCH  76  81
ATOM     81  N   UNL A   1      30.452  28.013  24.506  1.00  0.00    -0.278 N 
ATOM     82  H   UNL A   1      30.286  28.643  25.243  1.00  0.00     0.180 HD
BRANCH  81  83
ATOM     83  S   UNL A   1      29.496  28.184  23.139  1.00  0.00     0.271 S 
ATOM     84  O   UNL A   1      30.338  27.929  21.989  1.00  0.00    -0.200 OA
ATOM     85  O   UNL A   1      28.261  27.461  23.335  1.00  0.00    -0.200 OA
BRANCH  83  86
ATOM     86  C   UNL A   1      28.938  29.856  22.913  1.00  0.00     0.141 A 
ATOM     87  C   UNL A   1      29.135  30.984  23.695  1.00  0.00     0.036 A 
ATOM     88  S   UNL A   1      28.064  30.225  21.488  1.00  0.00    -0.110 S 
ATOM     89  C   UNL A   1      28.722  32.175  23.033  1.00  0.00     0.034 A 
ATOM     90  C   UNL A   1      28.178  31.886  21.807  1.00  0.00     0.094 A 
ATOM     91  Cl  UNL A   1      27.646  33.021  20.635  1.00  0.00    -0.072 Cl
ENDBRANCH  83  86
ENDBRANCH  81  83
ENDBRANCH  76  81
ENDBRANCH  72  74
ENDBRANCH  71  72
ENDBRANCH  70  71
ENDBRANCH   1  70
TORSDOF 17
ENDMDL
MODEL 3
REMARK VINA RESULT:     -11.6      2.013      2.743
REMARK SMILES O=C(OCCOC(=O)c1cc(F)ccc1NS(=O)(=O)c1ccc(Cl)s1)c1ccc(-c2c3nc(c(-c4cc(S(=O)(=O)[O-])ccc4F)c4ccc([nH]4)c(-c4cc(S(=O)(=O)[O-])ccc4F)c4nc(c(-c5cc(S(=O)(=O)[O-])ccc5F)c5ccc2[nH]5)C=C4)C=C3)cc1
REMARK SMILES IDX 4 1 3 2 2 3 1 4 26 5 27 6 88 7 28 8 87 9 29 10 30 11 31 12
REMARK SMILES IDX 81 13 32 14 86 15 80 16 82 17 33 18 85 19 79 20 78 21 34 23
REMARK SMILES IDX 66 24 46 25 65 26 47 27 50 28 64 29 83 30 48 31 49 32 63 34
REMARK SMILES IDX 84 35 51 36 35 37 36 38 44 39 37 40 43 41 45 42 42 43 38 44
REMARK SMILES IDX 39 45 40 46 41 47 67 48 68 49 76 50 69 51 75 52 77 53 74 54
REMARK SMILES IDX 70 55 71 56 72 57 73 58 52 59 53 60 61 61 54 62 60 63 62 64
REMARK SMILES IDX 59 65 55 66 56 67 57 68 58 69 5 70 6 71 7 72 8 73 9 74 10 75
REMARK SMILES IDX 15 76 11 77 14 78 12 79 13 80 16 81 17 83 18 84 19 85 20 86
REMARK SMILES IDX 21 87 25 88 22 89 23 90 24 91
REMARK H PARENT 82 22 50 33 16 82
REMARK Flexibility Score: inf
ROOT
ATOM      1  C   UNL A   1      36.852  21.669  24.578  1.00  0.00     0.275 C 
ENDROOT
BRANCH   1   2
ATOM      2  O   UNL A   1      37.550  21.764  25.830  1.00  0.00    -0.458 OA
BRANCH   2   3
ATOM      3  C   UNL A   1      38.871  21.784  26.121  1.00  0.00     0.338 C 
ATOM      4  O   UNL A   1      39.494  20.731  26.001  1.00  0.00    -0.246 OA
BRANCH   3   5
ATOM      5  C   UNL A   1      39.607  22.977  26.656  1.00  0.00     0.060 A 
ATOM      6  C   UNL A   1      40.451  23.006  27.764  1.00  0.00     0.016 A 
ATOM      7  C   UNL A   1      39.387  24.194  25.986  1.00  0.00     0.016 A 
ATOM      8  C   UNL A   1      41.096  24.187  28.154  1.00  0.00     0.010 A 
ATOM      9  C   UNL A   1      40.047  25.373  26.348  1.00  0.00     0.010 A 
ATOM     10  C   UNL A   1      40.895  25.379  27.453  1.00  0.00    -0.014 A 
BRANCH  10  11
ATOM     11  C   UNL A   1      41.425  26.646  28.008  1.00  0.00     0.031 A 
ATOM     12  C   UNL A   1      42.873  26.973  27.780  1.00  0.00     0.074 A 
ATOM     13  C   UNL A   1      40.610  27.524  28.624  1.00  0.00     0.049 A 
ATOM     14  N   UNL A   1      43.526  28.067  28.072  1.00  0.00    -0.248 NA
ATOM     15  C   UNL A   1      43.692  25.942  27.121  1.00  0.00     0.031 C 
ATOM     16  C   UNL A   1      39.182  27.322  28.851  1.00  0.00     0.029 A 
ATOM     17  N   UNL A   1      40.854  28.764  29.155  1.00  0.00    -0.354 N 
ATOM     18  C   UNL A   1      44.814  27.871  27.590  1.00  0.00     0.074 A 
ATOM     19  C   UNL A   1      44.878  26.525  27.069  1.00  0.00     0.031 C 
ATOM     20  C   UNL A   1      38.676  28.389  29.492  1.00  0.00     0.029 A 
ATOM     21  C   UNL A   1      39.741  29.362  29.702  1.00  0.00     0.049 A 
ATOM     22  H   UNL A   1      41.743  29.188  29.146  1.00  0.00     0.167 HD
ATOM     23  C   UNL A   1      45.839  28.753  27.541  1.00  0.00     0.034 A 
ATOM     24  C   UNL A   1      39.596  30.567  30.289  1.00  0.00     0.034 A 
ATOM     25  C   UNL A   1      45.764  30.086  28.069  1.00  0.00     0.049 A 
ATOM     26  C   UNL A   1      40.785  31.489  30.331  1.00  0.00     0.074 A 
ATOM     27  C   UNL A   1      46.739  31.064  28.082  1.00  0.00     0.029 A 
ATOM     28  N   UNL A   1      44.643  30.623  28.688  1.00  0.00    -0.354 N 
ATOM     29  N   UNL A   1      41.990  31.294  29.848  1.00  0.00    -0.248 NA
ATOM     30  C   UNL A   1      40.596  32.796  30.975  1.00  0.00     0.031 C 
ATOM     31  C   UNL A   1      46.225  32.178  28.753  1.00  0.00     0.029 A 
ATOM     32  C   UNL A   1      44.913  31.910  29.115  1.00  0.00     0.049 A 
ATOM     33  H   UNL A   1      43.785  30.157  28.805  1.00  0.00     0.167 HD
ATOM     34  C   UNL A   1      42.697  32.462  30.108  1.00  0.00     0.074 A 
ATOM     35  C   UNL A   1      41.785  33.357  30.791  1.00  0.00     0.031 C 
ATOM     36  C   UNL A   1      43.982  32.771  29.803  1.00  0.00     0.034 A 
BRANCH  23  37
ATOM     37  C   UNL A   1      47.111  28.279  26.898  1.00  0.00     0.023 A 
ATOM     38  C   UNL A   1      47.243  28.242  25.499  1.00  0.00     0.031 A 
ATOM     39  C   UNL A   1      48.178  27.812  27.681  1.00  0.00     0.131 A 
ATOM     40  C   UNL A   1      48.397  27.692  24.922  1.00  0.00     0.055 A 
ATOM     41  C   UNL A   1      49.349  27.322  27.102  1.00  0.00     0.041 A 
ATOM     42  F   UNL A   1      48.088  27.803  29.020  1.00  0.00    -0.206 F 
ATOM     43  C   UNL A   1      49.460  27.250  25.716  1.00  0.00     0.022 A 
BRANCH  40  44
ATOM     44  S   UNL A   1      48.454  27.477  23.123  1.00  0.00     0.124 S 
ATOM     45  O   UNL A   1      47.266  28.217  22.702  1.00  0.00    -0.237 OA
ATOM     46  O   UNL A   1      49.735  28.076  22.769  1.00  0.00    -0.237 OA
ATOM     47  O   UNL A   1      48.375  26.028  22.950  1.00  0.00    -0.744 OA
ENDBRANCH  40  44
ENDBRANCH  23  37
BRANCH  24  48
ATOM     48  C   UNL A   1      38.287  30.966  30.877  1.00  0.00     0.023 A 
ATOM     49  C   UNL A   1      37.324  31.658  30.125  1.00  0.00     0.031 A 
ATOM     50  C   UNL A   1      37.985  30.662  32.217  1.00  0.00     0.131 A 
ATOM     51  C   UNL A   1      36.114  32.044  30.726  1.00  0.00     0.055 A 
ATOM     52  C   UNL A   1      36.770  31.023  32.802  1.00  0.00     0.041 A 
ATOM     53  F   UNL A   1      38.871  29.997  32.977  1.00  0.00    -0.206 F 
ATOM     54  C   UNL A   1      35.827  31.725  32.056  1.00  0.00     0.022 A 
BRANCH  51  55
ATOM     55  S   UNL A   1      34.919  33.000  29.749  1.00  0.00     0.124 S 
ATOM     56  O   UNL A   1      34.400  31.986  28.839  1.00  0.00    -0.237 OA
ATOM     57  O   UNL A   1      33.998  33.476  30.777  1.00  0.00    -0.237 OA
ATOM     58  O   UNL A   1      35.740  34.037  29.126  1.00  0.00    -0.744 OA
ENDBRANCH  51  55
ENDBRANCH  24  48
BRANCH  36  59
ATOM     59  C   UNL A   1      44.476  34.132  30.196  1.00  0.00     0.023 A 
ATOM     60  C   UNL A   1      44.299  35.235  29.347  1.00  0.00     0.031 A 
ATOM     61  C   UNL A   1      45.048  34.340  31.462  1.00  0.00     0.131 A 
ATOM     62  C   UNL A   1      44.706  36.506  29.773  1.00  0.00     0.055 A 
ATOM     63  C   UNL A   1      45.415  35.612  31.895  1.00  0.00     0.041 A 
ATOM     64  F   UNL A   1      45.226  33.311  32.307  1.00  0.00    -0.206 F 
ATOM     65  C   UNL A   1      45.245  36.705  31.047  1.00  0.00     0.022 A 
BRANCH  62  66
ATOM     66  S   UNL A   1      44.516  37.906  28.637  1.00  0.00     0.124 S 
ATOM     67  O   UNL A   1      43.370  38.605  29.211  1.00  0.00    -0.237 OA
ATOM     68  O   UNL A   1      45.800  38.587  28.751  1.00  0.00    -0.237 OA
ATOM     69  O   UNL A   1      44.269  37.267  27.346  1.00  0.00    -0.744 OA
ENDBRANCH  62  66
ENDBRANCH  36  59
ENDBRANCH  10  11
ENDBRANCH   3   5
ENDBRANCH   2   3
ENDBRANCH   1   2
BRANCH   1  70
ATOM     70  C   UNL A   1      36.645  23.006  23.869  1.00  0.00     0.275 C 
BRANCH  70  71
ATOM     71  O   UNL A   1      35.543  23.765  24.386  1.00  0.00    -0.458 OA
BRANCH  71  72
ATOM     72  C   UNL A   1      34.589  24.137  23.490  1.00  0.00     0.340 C 
ATOM     73  O   UNL A   1      34.196  23.496  22.530  1.00  0.00    -0.246 OA
BRANCH  72  74
ATOM     74  C   UNL A   1      33.978  25.407  23.942  1.00  0.00     0.087 A 
ATOM     75  C   UNL A   1      33.732  26.401  22.984  1.00  0.00     0.057 A 
ATOM     76  C   UNL A   1      33.705  25.628  25.313  1.00  0.00     0.064 A 
ATOM     77  C   UNL A   1      33.259  27.634  23.394  1.00  0.00     0.124 A 
ATOM     78  C   UNL A   1      33.348  26.929  25.691  1.00  0.00     0.030 A 
ATOM     79  F   UNL A   1      32.967  28.564  22.477  1.00  0.00    -0.207 F 
ATOM     80  C   UNL A   1      33.120  27.927  24.738  1.00  0.00     0.041 A 
BRANCH  76  81
ATOM     81  N   UNL A   1      33.537  24.500  26.196  1.00  0.00    -0.278 N 
ATOM     82  H   UNL A   1      34.290  24.293  26.794  1.00  0.00     0.180 HD
BRANCH  81  83
ATOM     83  S   UNL A   1      32.191  23.506  26.307  1.00  0.00     0.271 S 
ATOM     84  O   UNL A   1      32.047  23.130  27.698  1.00  0.00    -0.200 OA
ATOM     85  O   UNL A   1      31.099  24.110  25.579  1.00  0.00    -0.200 OA
BRANCH  83  86
ATOM     86  C   UNL A   1      32.421  21.963  25.456  1.00  0.00     0.141 A 
ATOM     87  C   UNL A   1      31.867  21.496  24.273  1.00  0.00     0.036 A 
ATOM     88  S   UNL A   1      33.545  20.848  26.106  1.00  0.00    -0.110 S 
ATOM     89  C   UNL A   1      32.500  20.306  23.818  1.00  0.00     0.034 A 
ATOM     90  C   UNL A   1      33.462  19.896  24.705  1.00  0.00     0.094 A 
ATOM     91  Cl  UNL A   1      34.536  18.572  24.506  1.00  0.00    -0.072 Cl
ENDBRANCH  83  86
ENDBRANCH  81  83
ENDBRANCH  76  81
ENDBRANCH  72  74
ENDBRANCH  71  72
ENDBRANCH  70  71
ENDBRANCH   1  70
TORSDOF 17
ENDMDL
