MODEL 1
REMARK VINA RESULT:      -9.7      0.000      0.000
REMARK SMILES O=C(OCCOC(=O)c1cccc(Nc2nc(-c3ccc(F)cc3F)cs2)c1)c1ccc(-c2c3nc(c(-c4cc(S(=O)(=O)[O-])ccc4F)c4ccc([nH]4)c(-c4cc(S(=O)(=O)[O-])ccc4F)c4nc(c(-c5cc(S(=O)(=O)[O-])ccc5F)c5ccc2[nH]5)C=C4)C=C3)cc1
REMARK SMILES IDX 4 1 3 2 2 3 1 4 29 5 30 6 91 7 31 8 90 9 32 10 33 11 34 12
REMARK SMILES IDX 84 13 35 14 89 15 83 16 85 17 36 18 88 19 82 20 81 21 37 23
REMARK SMILES IDX 69 24 49 25 68 26 50 27 53 28 67 29 86 30 51 31 52 32 66 34
REMARK SMILES IDX 87 35 54 36 38 37 39 38 47 39 40 40 46 41 48 42 45 43 41 44
REMARK SMILES IDX 42 45 43 46 44 47 70 48 71 49 79 50 72 51 78 52 80 53 77 54
REMARK SMILES IDX 73 55 74 56 75 57 76 58 55 59 56 60 64 61 57 62 63 63 65 64
REMARK SMILES IDX 62 65 58 66 59 67 60 68 61 69 5 70 6 71 7 72 8 73 9 74 10 75
REMARK SMILES IDX 28 76 11 77 13 78 12 79 14 80 15 82 16 83 27 84 17 85 26 86
REMARK SMILES IDX 18 87 19 88 24 89 20 90 23 91 25 92 21 93 22 94
REMARK H PARENT 85 22 53 33 14 81
REMARK Flexibility Score: inf
ROOT
ATOM      1  C   UNL A   1      33.491  33.521  28.162  1.00  0.00     0.275 C 
ENDROOT
BRANCH   1   2
ATOM      2  O   UNL A   1      34.302  32.580  27.436  1.00  0.00    -0.458 OA
BRANCH   2   3
ATOM      3  C   UNL A   1      34.401  31.234  27.562  1.00  0.00     0.338 C 
ATOM      4  O   UNL A   1      33.398  30.554  27.346  1.00  0.00    -0.246 OA
BRANCH   3   5
ATOM      5  C   UNL A   1      35.615  30.534  28.090  1.00  0.00     0.060 A 
ATOM      6  C   UNL A   1      35.663  29.721  29.223  1.00  0.00     0.016 A 
ATOM      7  C   UNL A   1      36.812  30.731  27.373  1.00  0.00     0.016 A 
ATOM      8  C   UNL A   1      36.843  29.072  29.594  1.00  0.00     0.010 A 
ATOM      9  C   UNL A   1      37.996  30.078  27.732  1.00  0.00     0.010 A 
ATOM     10  C   UNL A   1      38.014  29.251  28.857  1.00  0.00    -0.014 A 
BRANCH  10  11
ATOM     11  C   UNL A   1      39.274  28.700  29.399  1.00  0.00     0.031 A 
ATOM     12  C   UNL A   1      39.782  29.251  30.699  1.00  0.00     0.074 A 
ATOM     13  C   UNL A   1      39.873  27.653  28.806  1.00  0.00     0.049 A 
ATOM     14  N   UNL A   1      40.764  28.830  31.450  1.00  0.00    -0.248 NA
ATOM     15  C   UNL A   1      39.063  30.416  31.239  1.00  0.00     0.031 C 
ATOM     16  C   UNL A   1      39.409  27.008  27.578  1.00  0.00     0.029 A 
ATOM     17  N   UNL A   1      40.985  26.936  29.158  1.00  0.00    -0.354 N 
ATOM     18  C   UNL A   1      40.759  29.654  32.568  1.00  0.00     0.074 A 
ATOM     19  C   UNL A   1      39.719  30.639  32.366  1.00  0.00     0.031 C 
ATOM     20  C   UNL A   1      40.239  25.998  27.270  1.00  0.00     0.029 A 
ATOM     21  C   UNL A   1      41.298  25.931  28.271  1.00  0.00     0.049 A 
ATOM     22  H   UNL A   1      41.511  27.121  29.969  1.00  0.00     0.167 HD
ATOM     23  C   UNL A   1      41.537  29.577  33.674  1.00  0.00     0.034 A 
ATOM     24  C   UNL A   1      42.326  25.060  28.275  1.00  0.00     0.034 A 
ATOM     25  C   UNL A   1      42.604  28.618  33.821  1.00  0.00     0.049 A 
ATOM     26  C   UNL A   1      43.273  25.090  29.449  1.00  0.00     0.074 A 
ATOM     27  C   UNL A   1      43.486  28.457  34.873  1.00  0.00     0.029 A 
ATOM     28  N   UNL A   1      42.951  27.671  32.861  1.00  0.00    -0.354 N 
ATOM     29  N   UNL A   1      43.238  25.849  30.522  1.00  0.00    -0.248 NA
ATOM     30  C   UNL A   1      44.378  24.126  29.428  1.00  0.00     0.031 C 
ATOM     31  C   UNL A   1      44.407  27.463  34.520  1.00  0.00     0.029 A 
ATOM     32  C   UNL A   1      44.054  26.947  33.283  1.00  0.00     0.049 A 
ATOM     33  H   UNL A   1      42.479  27.535  32.008  1.00  0.00     0.167 HD
ATOM     34  C   UNL A   1      44.288  25.419  31.327  1.00  0.00     0.074 A 
ATOM     35  C   UNL A   1      44.932  24.332  30.614  1.00  0.00     0.031 C 
ATOM     36  C   UNL A   1      44.679  25.870  32.548  1.00  0.00     0.034 A 
BRANCH  23  37
ATOM     37  C   UNL A   1      41.284  30.603  34.751  1.00  0.00     0.023 A 
ATOM     38  C   UNL A   1      40.126  30.558  35.552  1.00  0.00     0.031 A 
ATOM     39  C   UNL A   1      42.154  31.692  34.912  1.00  0.00     0.131 A 
ATOM     40  C   UNL A   1      39.826  31.629  36.409  1.00  0.00     0.055 A 
ATOM     41  C   UNL A   1      41.890  32.716  35.825  1.00  0.00     0.041 A 
ATOM     42  F   UNL A   1      43.258  31.803  34.157  1.00  0.00    -0.206 F 
ATOM     43  C   UNL A   1      40.711  32.697  36.566  1.00  0.00     0.022 A 
BRANCH  40  44
ATOM     44  S   UNL A   1      38.185  31.688  37.184  1.00  0.00     0.124 S 
ATOM     45  O   UNL A   1      38.487  32.309  38.471  1.00  0.00    -0.237 OA
ATOM     46  O   UNL A   1      37.421  32.500  36.246  1.00  0.00    -0.237 OA
ATOM     47  O   UNL A   1      37.790  30.281  37.257  1.00  0.00    -0.744 OA
ENDBRANCH  40  44
ENDBRANCH  23  37
BRANCH  24  48
ATOM     48  C   UNL A   1      42.522  24.103  27.147  1.00  0.00     0.023 A 
ATOM     49  C   UNL A   1      41.997  22.803  27.183  1.00  0.00     0.031 A 
ATOM     50  C   UNL A   1      43.289  24.469  26.027  1.00  0.00     0.131 A 
ATOM     51  C   UNL A   1      42.279  21.904  26.140  1.00  0.00     0.055 A 
ATOM     52  C   UNL A   1      43.530  23.588  24.972  1.00  0.00     0.041 A 
ATOM     53  F   UNL A   1      43.817  25.699  25.941  1.00  0.00    -0.206 F 
ATOM     54  C   UNL A   1      43.033  22.292  25.030  1.00  0.00     0.022 A 
BRANCH  51  55
ATOM     55  S   UNL A   1      41.707  20.188  26.286  1.00  0.00     0.124 S 
ATOM     56  O   UNL A   1      42.189  19.822  27.612  1.00  0.00    -0.237 OA
ATOM     57  O   UNL A   1      40.262  20.340  26.147  1.00  0.00    -0.237 OA
ATOM     58  O   UNL A   1      42.369  19.512  25.172  1.00  0.00    -0.744 OA
ENDBRANCH  51  55
ENDBRANCH  24  48
BRANCH  36  59
ATOM     59  C   UNL A   1      45.821  25.136  33.203  1.00  0.00     0.023 A 
ATOM     60  C   UNL A   1      45.610  24.012  34.018  1.00  0.00     0.031 A 
ATOM     61  C   UNL A   1      47.141  25.588  33.023  1.00  0.00     0.131 A 
ATOM     62  C   UNL A   1      46.694  23.418  34.680  1.00  0.00     0.055 A 
ATOM     63  C   UNL A   1      48.224  24.951  33.629  1.00  0.00     0.041 A 
ATOM     64  F   UNL A   1      47.399  26.659  32.257  1.00  0.00    -0.206 F 
ATOM     65  C   UNL A   1      48.002  23.869  34.477  1.00  0.00     0.022 A 
BRANCH  62  66
ATOM     66  S   UNL A   1      46.361  22.116  35.899  1.00  0.00     0.124 S 
ATOM     67  O   UNL A   1      45.211  22.661  36.615  1.00  0.00    -0.237 OA
ATOM     68  O   UNL A   1      46.093  20.958  35.052  1.00  0.00    -0.237 OA
ATOM     69  O   UNL A   1      47.599  22.046  36.673  1.00  0.00    -0.744 OA
ENDBRANCH  62  66
ENDBRANCH  36  59
ENDBRANCH  10  11
ENDBRANCH   3   5
ENDBRANCH   2   3
ENDBRANCH   1   2
BRANCH   1  70
ATOM     70  C   UNL A   1      34.200  34.218  29.329  1.00  0.00     0.275 C 
BRANCH  70  71
ATOM     71  O   UNL A   1      35.493  33.670  29.624  1.00  0.00    -0.458 OA
BRANCH  71  72
ATOM     72  C   UNL A   1      35.624  33.168  30.879  1.00  0.00     0.338 C 
ATOM     73  O   UNL A   1      34.862  32.398  31.441  1.00  0.00    -0.246 OA
BRANCH  72  74
ATOM     74  C   UNL A   1      36.921  33.573  31.451  1.00  0.00     0.062 A 
ATOM     75  C   UNL A   1      36.975  33.797  32.827  1.00  0.00     0.016 A 
ATOM     76  C   UNL A   1      38.057  33.767  30.654  1.00  0.00     0.041 A 
ATOM     77  C   UNL A   1      38.182  34.150  33.419  1.00  0.00     0.003 A 
ATOM     78  C   UNL A   1      39.264  34.206  31.232  1.00  0.00     0.041 A 
ATOM     79  C   UNL A   1      39.315  34.341  32.626  1.00  0.00     0.026 A 
BRANCH  78  80
ATOM     80  N   UNL A   1      40.346  34.528  30.393  1.00  0.00    -0.332 N 
ATOM     81  H   UNL A   1      40.234  35.332  29.833  1.00  0.00     0.169 HD
BRANCH  80  82
ATOM     82  C   UNL A   1      41.525  33.870  30.256  1.00  0.00     0.187 A 
ATOM     83  N   UNL A   1      41.714  32.601  29.958  1.00  0.00    -0.220 NA
ATOM     84  S   UNL A   1      42.985  34.759  30.543  1.00  0.00    -0.105 S 
ATOM     85  C   UNL A   1      43.064  32.336  29.832  1.00  0.00     0.086 A 
ATOM     86  C   UNL A   1      43.907  33.358  30.214  1.00  0.00     0.097 A 
BRANCH  85  87
ATOM     87  C   UNL A   1      43.569  31.073  29.334  1.00  0.00     0.037 A 
ATOM     88  C   UNL A   1      43.491  30.759  27.971  1.00  0.00     0.016 A 
ATOM     89  C   UNL A   1      44.082  30.124  30.227  1.00  0.00     0.135 A 
ATOM     90  C   UNL A   1      43.910  29.502  27.524  1.00  0.00     0.040 A 
ATOM     91  C   UNL A   1      44.505  28.874  29.787  1.00  0.00     0.079 A 
ATOM     92  F   UNL A   1      44.141  30.390  31.539  1.00  0.00    -0.206 F 
ATOM     93  C   UNL A   1      44.409  28.573  28.435  1.00  0.00     0.126 A 
ATOM     94  F   UNL A   1      44.790  27.367  27.996  1.00  0.00    -0.207 F 
ENDBRANCH  85  87
ENDBRANCH  80  82
ENDBRANCH  78  80
ENDBRANCH  72  74
ENDBRANCH  71  72
ENDBRANCH  70  71
ENDBRANCH   1  70
TORSDOF 17
ENDMDL
MODEL 2
REMARK VINA RESULT:      -9.7      4.336      7.292
REMARK SMILES O=C(OCCOC(=O)c1cccc(Nc2nc(-c3ccc(F)cc3F)cs2)c1)c1ccc(-c2c3nc(c(-c4cc(S(=O)(=O)[O-])ccc4F)c4ccc([nH]4)c(-c4cc(S(=O)(=O)[O-])ccc4F)c4nc(c(-c5cc(S(=O)(=O)[O-])ccc5F)c5ccc2[nH]5)C=C4)C=C3)cc1
REMARK SMILES IDX 4 1 3 2 2 3 1 4 29 5 30 6 91 7 31 8 90 9 32 10 33 11 34 12
REMARK SMILES IDX 84 13 35 14 89 15 83 16 85 17 36 18 88 19 82 20 81 21 37 23
REMARK SMILES IDX 69 24 49 25 68 26 50 27 53 28 67 29 86 30 51 31 52 32 66 34
REMARK SMILES IDX 87 35 54 36 38 37 39 38 47 39 40 40 46 41 48 42 45 43 41 44
REMARK SMILES IDX 42 45 43 46 44 47 70 48 71 49 79 50 72 51 78 52 80 53 77 54
REMARK SMILES IDX 73 55 74 56 75 57 76 58 55 59 56 60 64 61 57 62 63 63 65 64
REMARK SMILES IDX 62 65 58 66 59 67 60 68 61 69 5 70 6 71 7 72 8 73 9 74 10 75
REMARK SMILES IDX 28 76 11 77 13 78 12 79 14 80 15 82 16 83 27 84 17 85 26 86
REMARK SMILES IDX 18 87 19 88 24 89 20 90 23 91 25 92 21 93 22 94
REMARK H PARENT 85 22 53 33 14 81
REMARK Flexibility Score: inf
ROOT
ATOM      1  C   UNL A   1      31.591  32.284  26.863  1.00  0.00     0.275 C 
ENDROOT
BRANCH   1   2
ATOM      2  O   UNL A   1      32.634  33.265  27.004  1.00  0.00    -0.458 OA
BRANCH   2   3
ATOM      3  C   UNL A   1      33.198  33.785  28.120  1.00  0.00     0.338 C 
ATOM      4  O   UNL A   1      32.701  34.801  28.606  1.00  0.00    -0.246 OA
BRANCH   3   5
ATOM      5  C   UNL A   1      34.479  33.285  28.716  1.00  0.00     0.060 A 
ATOM      6  C   UNL A   1      35.759  33.748  28.410  1.00  0.00     0.016 A 
ATOM      7  C   UNL A   1      34.365  32.247  29.662  1.00  0.00     0.016 A 
ATOM      8  C   UNL A   1      36.883  33.245  29.069  1.00  0.00     0.010 A 
ATOM      9  C   UNL A   1      35.485  31.744  30.333  1.00  0.00     0.010 A 
ATOM     10  C   UNL A   1      36.754  32.239  30.027  1.00  0.00    -0.014 A 
BRANCH  10  11
ATOM     11  C   UNL A   1      37.984  31.608  30.551  1.00  0.00     0.031 A 
ATOM     12  C   UNL A   1      38.432  31.979  31.934  1.00  0.00     0.074 A 
ATOM     13  C   UNL A   1      38.606  30.641  29.854  1.00  0.00     0.049 A 
ATOM     14  N   UNL A   1      39.375  31.452  32.668  1.00  0.00    -0.248 NA
ATOM     15  C   UNL A   1      37.694  33.072  32.587  1.00  0.00     0.031 C 
ATOM     16  C   UNL A   1      38.197  30.167  28.532  1.00  0.00     0.029 A 
ATOM     17  N   UNL A   1      39.696  29.871  30.161  1.00  0.00    -0.354 N 
ATOM     18  C   UNL A   1      39.320  32.124  33.883  1.00  0.00     0.074 A 
ATOM     19  C   UNL A   1      38.296  33.138  33.763  1.00  0.00     0.031 C 
ATOM     20  C   UNL A   1      39.036  29.197  28.133  1.00  0.00     0.029 A 
ATOM     21  C   UNL A   1      40.046  28.988  29.165  1.00  0.00     0.049 A 
ATOM     22  H   UNL A   1      40.183  29.944  31.013  1.00  0.00     0.167 HD
ATOM     23  C   UNL A   1      40.044  31.894  35.005  1.00  0.00     0.034 A 
ATOM     24  C   UNL A   1      41.069  28.113  29.104  1.00  0.00     0.034 A 
ATOM     25  C   UNL A   1      41.098  30.913  35.074  1.00  0.00     0.049 A 
ATOM     26  C   UNL A   1      41.958  27.978  30.314  1.00  0.00     0.074 A 
ATOM     27  C   UNL A   1      41.928  30.606  36.136  1.00  0.00     0.029 A 
ATOM     28  N   UNL A   1      41.486  30.095  34.016  1.00  0.00    -0.354 N 
ATOM     29  N   UNL A   1      41.876  28.591  31.474  1.00  0.00    -0.248 NA
ATOM     30  C   UNL A   1      43.059  27.013  30.219  1.00  0.00     0.031 C 
ATOM     31  C   UNL A   1      42.861  29.657  35.700  1.00  0.00     0.029 A 
ATOM     32  C   UNL A   1      42.565  29.310  34.390  1.00  0.00     0.049 A 
ATOM     33  H   UNL A   1      41.054  30.077  33.132  1.00  0.00     0.167 HD
ATOM     34  C   UNL A   1      42.884  28.049  32.264  1.00  0.00     0.074 A 
ATOM     35  C   UNL A   1      43.556  27.057  31.446  1.00  0.00     0.031 C 
ATOM     36  C   UNL A   1      43.218  28.331  33.550  1.00  0.00     0.034 A 
BRANCH  23  37
ATOM     37  C   UNL A   1      39.744  32.773  36.194  1.00  0.00     0.023 A 
ATOM     38  C   UNL A   1      38.943  32.321  37.260  1.00  0.00     0.031 A 
ATOM     39  C   UNL A   1      40.178  34.108  36.216  1.00  0.00     0.131 A 
ATOM     40  C   UNL A   1      38.526  33.221  38.253  1.00  0.00     0.055 A 
ATOM     41  C   UNL A   1      39.825  34.979  37.250  1.00  0.00     0.041 A 
ATOM     42  F   UNL A   1      40.919  34.604  35.213  1.00  0.00    -0.206 F 
ATOM     43  C   UNL A   1      38.979  34.542  38.266  1.00  0.00     0.022 A 
BRANCH  40  44
ATOM     44  S   UNL A   1      37.249  32.688  39.428  1.00  0.00     0.124 S 
ATOM     45  O   UNL A   1      36.041  32.768  38.611  1.00  0.00    -0.237 OA
ATOM     46  O   UNL A   1      37.689  31.345  39.787  1.00  0.00    -0.237 OA
ATOM     47  O   UNL A   1      37.334  33.679  40.500  1.00  0.00    -0.744 OA
ENDBRANCH  40  44
ENDBRANCH  23  37
BRANCH  24  48
ATOM     48  C   UNL A   1      41.314  27.309  27.870  1.00  0.00     0.023 A 
ATOM     49  C   UNL A   1      41.085  25.925  27.833  1.00  0.00     0.031 A 
ATOM     50  C   UNL A   1      41.834  27.918  26.714  1.00  0.00     0.131 A 
ATOM     51  C   UNL A   1      41.412  25.192  26.680  1.00  0.00     0.055 A 
ATOM     52  C   UNL A   1      42.116  27.193  25.556  1.00  0.00     0.041 A 
ATOM     53  F   UNL A   1      42.074  29.238  26.695  1.00  0.00    -0.206 F 
ATOM     54  C   UNL A   1      41.916  25.818  25.538  1.00  0.00     0.022 A 
BRANCH  51  55
ATOM     55  S   UNL A   1      41.239  23.385  26.716  1.00  0.00     0.124 S 
ATOM     56  O   UNL A   1      41.697  23.066  28.062  1.00  0.00    -0.237 OA
ATOM     57  O   UNL A   1      39.811  23.216  26.465  1.00  0.00    -0.237 OA
ATOM     58  O   UNL A   1      42.115  22.938  25.635  1.00  0.00    -0.744 OA
ENDBRANCH  51  55
ENDBRANCH  24  48
BRANCH  36  59
ATOM     59  C   UNL A   1      44.325  27.506  34.157  1.00  0.00     0.023 A 
ATOM     60  C   UNL A   1      44.088  26.229  34.693  1.00  0.00     0.031 A 
ATOM     61  C   UNL A   1      45.633  28.020  34.216  1.00  0.00     0.131 A 
ATOM     62  C   UNL A   1      45.130  25.538  35.329  1.00  0.00     0.055 A 
ATOM     63  C   UNL A   1      46.680  27.298  34.788  1.00  0.00     0.041 A 
ATOM     64  F   UNL A   1      45.913  29.236  33.721  1.00  0.00    -0.206 F 
ATOM     65  C   UNL A   1      46.427  26.055  35.364  1.00  0.00     0.022 A 
BRANCH  62  66
ATOM     66  S   UNL A   1      44.740  24.000  36.208  1.00  0.00     0.124 S 
ATOM     67  O   UNL A   1      45.990  23.256  36.085  1.00  0.00    -0.237 OA
ATOM     68  O   UNL A   1      44.414  24.480  37.547  1.00  0.00    -0.237 OA
ATOM     69  O   UNL A   1      43.614  23.451  35.456  1.00  0.00    -0.744 OA
ENDBRANCH  62  66
ENDBRANCH  36  59
ENDBRANCH  10  11
ENDBRANCH   3   5
ENDBRANCH   2   3
ENDBRANCH   1   2
BRANCH   1  70
ATOM     70  C   UNL A   1      32.070  30.888  26.450  1.00  0.00     0.275 C 
BRANCH  70  71
ATOM     71  O   UNL A   1      32.701  30.160  27.514  1.00  0.00    -0.458 OA
BRANCH  71  72
ATOM     72  C   UNL A   1      33.651  29.277  27.112  1.00  0.00     0.338 C 
ATOM     73  O   UNL A   1      34.861  29.416  27.194  1.00  0.00    -0.246 OA
BRANCH  72  74
ATOM     74  C   UNL A   1      33.017  28.020  26.675  1.00  0.00     0.062 A 
ATOM     75  C   UNL A   1      31.665  27.843  26.977  1.00  0.00     0.016 A 
ATOM     76  C   UNL A   1      33.735  27.013  26.017  1.00  0.00     0.041 A 
ATOM     77  C   UNL A   1      31.014  26.689  26.559  1.00  0.00     0.003 A 
ATOM     78  C   UNL A   1      33.105  25.805  25.664  1.00  0.00     0.041 A 
ATOM     79  C   UNL A   1      31.729  25.687  25.900  1.00  0.00     0.026 A 
BRANCH  78  80
ATOM     80  N   UNL A   1      33.882  24.759  25.133  1.00  0.00    -0.332 N 
ATOM     81  H   UNL A   1      34.506  25.007  24.413  1.00  0.00     0.169 HD
BRANCH  80  82
ATOM     82  C   UNL A   1      33.877  23.449  25.489  1.00  0.00     0.187 A 
ATOM     83  N   UNL A   1      33.619  22.404  24.729  1.00  0.00    -0.220 NA
ATOM     84  S   UNL A   1      34.205  23.060  27.146  1.00  0.00    -0.105 S 
ATOM     85  C   UNL A   1      33.800  21.236  25.445  1.00  0.00     0.086 A 
ATOM     86  C   UNL A   1      34.016  21.398  26.797  1.00  0.00     0.097 A 
BRANCH  85  87
ATOM     87  C   UNL A   1      33.765  19.928  24.826  1.00  0.00     0.037 A 
ATOM     88  C   UNL A   1      32.555  19.376  24.387  1.00  0.00     0.016 A 
ATOM     89  C   UNL A   1      34.940  19.173  24.720  1.00  0.00     0.135 A 
ATOM     90  C   UNL A   1      32.533  18.078  23.866  1.00  0.00     0.040 A 
ATOM     91  C   UNL A   1      34.924  17.883  24.199  1.00  0.00     0.079 A 
ATOM     92  F   UNL A   1      36.106  19.667  25.159  1.00  0.00    -0.206 F 
ATOM     93  C   UNL A   1      33.715  17.345  23.781  1.00  0.00     0.126 A 
ATOM     94  F   UNL A   1      33.676  16.097  23.297  1.00  0.00    -0.207 F 
ENDBRANCH  85  87
ENDBRANCH  80  82
ENDBRANCH  78  80
ENDBRANCH  72  74
ENDBRANCH  71  72
ENDBRANCH  70  71
ENDBRANCH   1  70
TORSDOF 17
ENDMDL
MODEL 3
REMARK VINA RESULT:      -9.6      5.872     12.507
REMARK SMILES O=C(OCCOC(=O)c1cccc(Nc2nc(-c3ccc(F)cc3F)cs2)c1)c1ccc(-c2c3nc(c(-c4cc(S(=O)(=O)[O-])ccc4F)c4ccc([nH]4)c(-c4cc(S(=O)(=O)[O-])ccc4F)c4nc(c(-c5cc(S(=O)(=O)[O-])ccc5F)c5ccc2[nH]5)C=C4)C=C3)cc1
REMARK SMILES IDX 4 1 3 2 2 3 1 4 29 5 30 6 91 7 31 8 90 9 32 10 33 11 34 12
REMARK SMILES IDX 84 13 35 14 89 15 83 16 85 17 36 18 88 19 82 20 81 21 37 23
REMARK SMILES IDX 69 24 49 25 68 26 50 27 53 28 67 29 86 30 51 31 52 32 66 34
REMARK SMILES IDX 87 35 54 36 38 37 39 38 47 39 40 40 46 41 48 42 45 43 41 44
REMARK SMILES IDX 42 45 43 46 44 47 70 48 71 49 79 50 72 51 78 52 80 53 77 54
REMARK SMILES IDX 73 55 74 56 75 57 76 58 55 59 56 60 64 61 57 62 63 63 65 64
REMARK SMILES IDX 62 65 58 66 59 67 60 68 61 69 5 70 6 71 7 72 8 73 9 74 10 75
REMARK SMILES IDX 28 76 11 77 13 78 12 79 14 80 15 82 16 83 27 84 17 85 26 86
REMARK SMILES IDX 18 87 19 88 24 89 20 90 23 91 25 92 21 93 22 94
REMARK H PARENT 85 22 53 33 14 81
REMARK Flexibility Score: inf
ROOT
ATOM      1  C   UNL A   1      37.647  21.165  25.359  1.00  0.00     0.275 C 
ENDROOT
BRANCH   1   2
ATOM      2  O   UNL A   1      38.979  21.704  25.432  1.00  0.00    -0.458 OA
BRANCH   2   3
ATOM      3  C   UNL A   1      39.742  22.003  26.511  1.00  0.00     0.338 C 
ATOM      4  O   UNL A   1      40.124  21.078  27.229  1.00  0.00    -0.246 OA
BRANCH   3   5
ATOM      5  C   UNL A   1      40.025  23.400  26.969  1.00  0.00     0.060 A 
ATOM      6  C   UNL A   1      39.516  24.568  26.400  1.00  0.00     0.016 A 
ATOM      7  C   UNL A   1      40.896  23.533  28.069  1.00  0.00     0.016 A 
ATOM      8  C   UNL A   1      39.806  25.820  26.946  1.00  0.00     0.010 A 
ATOM      9  C   UNL A   1      41.185  24.782  28.627  1.00  0.00     0.010 A 
ATOM     10  C   UNL A   1      40.644  25.936  28.055  1.00  0.00    -0.014 A 
BRANCH  10  11
ATOM     11  C   UNL A   1      41.073  27.287  28.472  1.00  0.00     0.031 A 
ATOM     12  C   UNL A   1      42.506  27.673  28.248  1.00  0.00     0.074 A 
ATOM     13  C   UNL A   1      40.174  28.181  28.920  1.00  0.00     0.049 A 
ATOM     14  N   UNL A   1      43.080  28.838  28.380  1.00  0.00    -0.248 NA
ATOM     15  C   UNL A   1      43.404  26.603  27.783  1.00  0.00     0.031 C 
ATOM     16  C   UNL A   1      38.747  27.915  29.101  1.00  0.00     0.029 A 
ATOM     17  N   UNL A   1      40.317  29.493  29.287  1.00  0.00    -0.354 N 
ATOM     18  C   UNL A   1      44.397  28.652  27.979  1.00  0.00     0.074 A 
ATOM     19  C   UNL A   1      44.552  27.249  27.663  1.00  0.00     0.031 C 
ATOM     20  C   UNL A   1      38.147  29.025  29.561  1.00  0.00     0.029 A 
ATOM     21  C   UNL A   1      39.147  30.076  29.716  1.00  0.00     0.049 A 
ATOM     22  H   UNL A   1      41.175  29.972  29.248  1.00  0.00     0.167 HD
ATOM     23  C   UNL A   1      45.380  29.577  27.862  1.00  0.00     0.034 A 
ATOM     24  C   UNL A   1      38.918  31.321  30.179  1.00  0.00     0.034 A 
ATOM     25  C   UNL A   1      45.210  30.958  28.240  1.00  0.00     0.049 A 
ATOM     26  C   UNL A   1      40.067  32.297  30.180  1.00  0.00     0.074 A 
ATOM     27  C   UNL A   1      46.134  31.986  28.204  1.00  0.00     0.029 A 
ATOM     28  N   UNL A   1      44.035  31.496  28.755  1.00  0.00    -0.354 N 
ATOM     29  N   UNL A   1      41.302  32.123  29.763  1.00  0.00    -0.248 NA
ATOM     30  C   UNL A   1      39.786  33.646  30.684  1.00  0.00     0.031 C 
ATOM     31  C   UNL A   1      45.539  33.125  28.762  1.00  0.00     0.029 A 
ATOM     32  C   UNL A   1      44.220  32.832  29.073  1.00  0.00     0.049 A 
ATOM     33  H   UNL A   1      43.193  30.999  28.874  1.00  0.00     0.167 HD
ATOM     34  C   UNL A   1      41.931  33.355  29.909  1.00  0.00     0.074 A 
ATOM     35  C   UNL A   1      40.935  34.261  30.448  1.00  0.00     0.031 C 
ATOM     36  C   UNL A   1      43.208  33.711  29.614  1.00  0.00     0.034 A 
BRANCH  23  37
ATOM     37  C   UNL A   1      46.718  29.082  27.371  1.00  0.00     0.023 A 
ATOM     38  C   UNL A   1      46.890  28.606  26.056  1.00  0.00     0.031 A 
ATOM     39  C   UNL A   1      47.808  28.990  28.252  1.00  0.00     0.131 A 
ATOM     40  C   UNL A   1      48.090  27.977  25.690  1.00  0.00     0.055 A 
ATOM     41  C   UNL A   1      49.027  28.435  27.857  1.00  0.00     0.041 A 
ATOM     42  F   UNL A   1      47.695  29.401  29.524  1.00  0.00    -0.206 F 
ATOM     43  C   UNL A   1      49.167  27.908  26.576  1.00  0.00     0.022 A 
BRANCH  40  44
ATOM     44  S   UNL A   1      48.162  27.101  24.102  1.00  0.00     0.124 S 
ATOM     45  O   UNL A   1      48.098  28.207  23.149  1.00  0.00    -0.237 OA
ATOM     46  O   UNL A   1      49.439  26.402  24.183  1.00  0.00    -0.237 OA
ATOM     47  O   UNL A   1      46.978  26.243  24.130  1.00  0.00    -0.744 OA
ENDBRANCH  40  44
ENDBRANCH  23  37
BRANCH  24  48
ATOM     48  C   UNL A   1      37.569  31.713  30.681  1.00  0.00     0.023 A 
ATOM     49  C   UNL A   1      36.648  32.392  29.869  1.00  0.00     0.031 A 
ATOM     50  C   UNL A   1      37.201  31.454  32.013  1.00  0.00     0.131 A 
ATOM     51  C   UNL A   1      35.423  32.822  30.407  1.00  0.00     0.055 A 
ATOM     52  C   UNL A   1      35.965  31.843  32.531  1.00  0.00     0.041 A 
ATOM     53  F   UNL A   1      38.043  30.810  32.834  1.00  0.00    -0.206 F 
ATOM     54  C   UNL A   1      35.071  32.543  31.730  1.00  0.00     0.022 A 
BRANCH  51  55
ATOM     55  S   UNL A   1      34.316  33.822  29.372  1.00  0.00     0.124 S 
ATOM     56  O   UNL A   1      33.717  32.811  28.510  1.00  0.00    -0.237 OA
ATOM     57  O   UNL A   1      33.435  34.422  30.369  1.00  0.00    -0.237 OA
ATOM     58  O   UNL A   1      35.223  34.754  28.706  1.00  0.00    -0.744 OA
ENDBRANCH  51  55
ENDBRANCH  24  48
BRANCH  36  59
ATOM     59  C   UNL A   1      43.568  35.162  29.817  1.00  0.00     0.023 A 
ATOM     60  C   UNL A   1      43.438  36.109  28.788  1.00  0.00     0.031 A 
ATOM     61  C   UNL A   1      44.069  35.594  31.059  1.00  0.00     0.131 A 
ATOM     62  C   UNL A   1      43.872  37.426  28.995  1.00  0.00     0.055 A 
ATOM     63  C   UNL A   1      44.434  36.921  31.281  1.00  0.00     0.041 A 
ATOM     64  F   UNL A   1      44.216  34.730  32.075  1.00  0.00    -0.206 F 
ATOM     65  C   UNL A   1      44.351  37.843  30.241  1.00  0.00     0.022 A 
BRANCH  62  66
ATOM     66  S   UNL A   1      43.903  38.563  27.582  1.00  0.00     0.124 S 
ATOM     67  O   UNL A   1      44.045  39.858  28.239  1.00  0.00    -0.237 OA
ATOM     68  O   UNL A   1      45.066  38.097  26.833  1.00  0.00    -0.237 OA
ATOM     69  O   UNL A   1      42.614  38.334  26.931  1.00  0.00    -0.744 OA
ENDBRANCH  62  66
ENDBRANCH  36  59
ENDBRANCH  10  11
ENDBRANCH   3   5
ENDBRANCH   2   3
ENDBRANCH   1   2
BRANCH   1  70
ATOM     70  C   UNL A   1      36.537  22.208  25.200  1.00  0.00     0.275 C 
BRANCH  70  71
ATOM     71  O   UNL A   1      35.516  21.822  24.268  1.00  0.00    -0.458 OA
BRANCH  71  72
ATOM     72  C   UNL A   1      34.509  21.085  24.804  1.00  0.00     0.338 C 
ATOM     73  O   UNL A   1      34.482  19.871  24.937  1.00  0.00    -0.246 OA
BRANCH  72  74
ATOM     74  C   UNL A   1      33.471  21.975  25.355  1.00  0.00     0.062 A 
ATOM     75  C   UNL A   1      33.412  22.110  26.743  1.00  0.00     0.016 A 
ATOM     76  C   UNL A   1      32.547  22.636  24.536  1.00  0.00     0.041 A 
ATOM     77  C   UNL A   1      32.471  22.962  27.310  1.00  0.00     0.003 A 
ATOM     78  C   UNL A   1      31.537  23.435  25.106  1.00  0.00     0.041 A 
ATOM     79  C   UNL A   1      31.552  23.624  26.495  1.00  0.00     0.026 A 
BRANCH  78  80
ATOM     80  N   UNL A   1      30.539  23.972  24.273  1.00  0.00    -0.332 N 
ATOM     81  H   UNL A   1      29.755  23.397  24.111  1.00  0.00     0.169 HD
BRANCH  80  82
ATOM     82  C   UNL A   1      30.520  25.184  23.663  1.00  0.00     0.187 A 
ATOM     83  N   UNL A   1      29.664  26.169  23.844  1.00  0.00    -0.220 NA
ATOM     84  S   UNL A   1      31.727  25.503  22.460  1.00  0.00    -0.105 S 
ATOM     85  C   UNL A   1      30.035  27.269  23.095  1.00  0.00     0.086 A 
ATOM     86  C   UNL A   1      31.067  27.059  22.205  1.00  0.00     0.097 A 
BRANCH  85  87
ATOM     87  C   UNL A   1      29.390  28.558  23.227  1.00  0.00     0.037 A 
ATOM     88  C   UNL A   1      28.104  28.771  22.715  1.00  0.00     0.016 A 
ATOM     89  C   UNL A   1      30.078  29.628  23.816  1.00  0.00     0.135 A 
ATOM     90  C   UNL A   1      27.532  30.045  22.783  1.00  0.00     0.040 A 
ATOM     91  C   UNL A   1      29.513  30.896  23.889  1.00  0.00     0.079 A 
ATOM     92  F   UNL A   1      31.321  29.457  24.288  1.00  0.00    -0.206 F 
ATOM     93  C   UNL A   1      28.242  31.094  23.365  1.00  0.00     0.126 A 
ATOM     94  F   UNL A   1      27.690  32.313  23.406  1.00  0.00    -0.207 F 
ENDBRANCH  85  87
ENDBRANCH  80  82
ENDBRANCH  78  80
ENDBRANCH  72  74
ENDBRANCH  71  72
ENDBRANCH  70  71
ENDBRANCH   1  70
TORSDOF 17
ENDMDL
