MODEL 1
REMARK VINA RESULT:     -14.1      0.000      0.000
REMARK SMILES CC[C@@](C)(NC(=O)Nc1c(C)cccc1Cl)C(=O)OCCOC(=O)c1ccc(-c2c3nc(c(-c4cc(S(=O)(=O)[O-])ccc4F)c4ccc([nH]4)c(-c4cc(S(=O)(=O)[O-])ccc4F)c4nc(c(-c5cc(S(=O)(=O)[O-])ccc5F)c5ccc2[nH]5)C=C4)C=C3)cc1
REMARK SMILES IDX 21 1 20 2 19 3 17 4 18 5 3 6 4 7 2 8 1 9 5 10 6 11 7 13 8 14
REMARK SMILES IDX 9 16 10 17 15 18 11 19 12 20 14 21 16 22 13 23 22 24 23 25
REMARK SMILES IDX 24 26 25 27 26 28 87 29 27 30 86 31 28 32 29 33 30 34 80 35
REMARK SMILES IDX 31 36 85 37 79 38 81 39 32 40 84 41 78 42 77 43 33 45 65 46
REMARK SMILES IDX 45 47 64 48 46 49 49 50 63 51 82 52 47 53 48 54 62 56 83 57
REMARK SMILES IDX 50 58 34 59 35 60 43 61 36 62 42 63 44 64 41 65 37 66 38 67
REMARK SMILES IDX 39 68 40 69 66 70 67 71 75 72 68 73 74 74 76 75 73 76 69 77
REMARK SMILES IDX 70 78 71 79 72 80 51 81 52 82 60 83 53 84 59 85 61 86 58 87
REMARK SMILES IDX 54 88 55 89 56 90 57 91
REMARK H PARENT 5 12 8 15 81 44 49 55
REMARK Flexibility Score: inf
ROOT
ATOM      1  C   UNL A   1      30.822  30.043  24.539  1.00  0.00     0.275 C 
ENDROOT
BRANCH   1   2
ATOM      2  C   UNL A   1      30.368  28.375  23.956  1.00  0.00     0.274 C 
BRANCH   2   3
ATOM      3  O   UNL A   1      30.983  26.830  24.173  1.00  0.00    -0.460 OA
BRANCH   3   4
ATOM      4  C   UNL A   1      30.857  25.703  25.119  1.00  0.00     0.331 C 
ATOM      5  O   UNL A   1      30.814  25.930  26.334  1.00  0.00    -0.249 OA
BRANCH   4   6
ATOM      6  C   UNL A   1      31.035  24.014  24.590  1.00  0.00     0.136 C 
ATOM      7  C   UNL A   1      30.407  23.849  23.192  1.00  0.00     0.047 C 
BRANCH   6   8
ATOM      8  C   UNL A   1      32.179  22.857  24.580  1.00  0.00     0.037 C 
ATOM      9  C   UNL A   1      32.511  21.937  23.415  1.00  0.00     0.007 C 
ENDBRANCH   6   8
BRANCH   6  10
ATOM     10  N   UNL A   1      30.172  23.527  25.605  1.00  0.00    -0.322 N 
ATOM     11  C   UNL A   1      30.754  23.283  26.797  1.00  0.00     0.320 C 
ATOM     12  H   UNL A   1      29.213  23.376  25.448  1.00  0.00     0.166 HD
ATOM     13  O   UNL A   1      30.098  22.875  27.725  1.00  0.00    -0.248 OA
ATOM     14  N   UNL A   1      32.114  23.523  26.937  1.00  0.00    -0.306 N 
ATOM     15  H   UNL A   1      32.310  23.485  27.901  1.00  0.00     0.171 HD
BRANCH  14  16
ATOM     16  C   UNL A   1      33.415  23.819  26.245  1.00  0.00     0.064 A 
ATOM     17  C   UNL A   1      34.160  24.908  25.604  1.00  0.00    -0.026 A 
ATOM     18  C   UNL A   1      34.201  22.750  26.566  1.00  0.00     0.064 A 
ATOM     19  C   UNL A   1      33.945  26.391  25.340  1.00  0.00     0.046 C 
ATOM     20  C   UNL A   1      35.534  24.734  25.218  1.00  0.00     0.005 A 
ATOM     21  C   UNL A   1      35.633  22.900  26.575  1.00  0.00     0.023 A 
ATOM     22  Cl  UNL A   1      33.137  21.315  27.281  1.00  0.00    -0.082 Cl
ATOM     23  C   UNL A   1      36.305  23.794  25.803  1.00  0.00     0.002 A 
ENDBRANCH  14  16
ENDBRANCH   6  10
ENDBRANCH   4   6
ENDBRANCH   3   4
ENDBRANCH   2   3
ENDBRANCH   1   2
BRANCH   1  24
ATOM     24  O   UNL A   1      31.862  30.502  25.661  1.00  0.00    -0.458 OA
BRANCH  24  25
ATOM     25  C   UNL A   1      32.427  29.894  26.843  1.00  0.00     0.338 C 
ATOM     26  O   UNL A   1      31.756  29.111  27.510  1.00  0.00    -0.246 OA
BRANCH  25  27
ATOM     27  C   UNL A   1      34.051  30.181  27.311  1.00  0.00     0.060 A 
ATOM     28  C   UNL A   1      35.017  29.212  27.601  1.00  0.00     0.016 A 
ATOM     29  C   UNL A   1      34.632  31.425  27.587  1.00  0.00     0.016 A 
ATOM     30  C   UNL A   1      36.149  29.261  28.394  1.00  0.00     0.010 A 
ATOM     31  C   UNL A   1      35.966  31.550  28.224  1.00  0.00     0.010 A 
ATOM     32  C   UNL A   1      36.723  30.442  28.666  1.00  0.00    -0.014 A 
BRANCH  32  33
ATOM     33  C   UNL A   1      37.968  30.294  29.481  1.00  0.00     0.031 A 
ATOM     34  C   UNL A   1      39.132  29.594  28.857  1.00  0.00     0.074 A 
ATOM     35  C   UNL A   1      38.219  31.016  30.611  1.00  0.00     0.049 A 
ATOM     36  N   UNL A   1      40.185  29.076  29.424  1.00  0.00    -0.248 NA
ATOM     37  C   UNL A   1      39.112  29.489  27.390  1.00  0.00     0.031 C 
ATOM     38  C   UNL A   1      37.375  32.083  31.186  1.00  0.00     0.029 A 
ATOM     39  N   UNL A   1      39.288  30.980  31.483  1.00  0.00    -0.354 N 
ATOM     40  C   UNL A   1      40.890  28.461  28.399  1.00  0.00     0.074 A 
ATOM     41  C   UNL A   1      40.181  28.739  27.167  1.00  0.00     0.031 C 
ATOM     42  C   UNL A   1      37.938  32.554  32.310  1.00  0.00     0.029 A 
ATOM     43  C   UNL A   1      39.103  31.743  32.620  1.00  0.00     0.049 A 
ATOM     44  H   UNL A   1      40.106  30.459  31.312  1.00  0.00     0.167 HD
ATOM     45  C   UNL A   1      41.992  27.684  28.516  1.00  0.00     0.034 A 
ATOM     46  C   UNL A   1      39.725  31.709  33.818  1.00  0.00     0.034 A 
ATOM     47  C   UNL A   1      42.681  27.487  29.768  1.00  0.00     0.049 A 
ATOM     48  C   UNL A   1      40.827  30.697  34.005  1.00  0.00     0.074 A 
ATOM     49  C   UNL A   1      43.753  26.660  30.049  1.00  0.00     0.029 A 
ATOM     50  N   UNL A   1      42.370  28.145  30.953  1.00  0.00    -0.354 N 
ATOM     51  N   UNL A   1      41.360  29.889  33.118  1.00  0.00    -0.248 NA
ATOM     52  C   UNL A   1      41.390  30.568  35.353  1.00  0.00     0.031 C 
ATOM     53  C   UNL A   1      44.040  26.763  31.415  1.00  0.00     0.029 A 
ATOM     54  C   UNL A   1      43.207  27.721  31.972  1.00  0.00     0.049 A 
ATOM     55  H   UNL A   1      41.656  28.816  31.053  1.00  0.00     0.167 HD
ATOM     56  C   UNL A   1      42.346  29.179  33.795  1.00  0.00     0.074 A 
ATOM     57  C   UNL A   1      42.338  29.664  35.162  1.00  0.00     0.031 C 
ATOM     58  C   UNL A   1      43.185  28.217  33.330  1.00  0.00     0.034 A 
BRANCH  45  59
ATOM     59  C   UNL A   1      42.386  26.874  27.308  1.00  0.00     0.023 A 
ATOM     60  C   UNL A   1      42.055  25.519  27.152  1.00  0.00     0.031 A 
ATOM     61  C   UNL A   1      43.198  27.472  26.324  1.00  0.00     0.131 A 
ATOM     62  C   UNL A   1      42.595  24.790  26.080  1.00  0.00     0.055 A 
ATOM     63  C   UNL A   1      43.660  26.763  25.216  1.00  0.00     0.041 A 
ATOM     64  F   UNL A   1      43.580  28.754  26.440  1.00  0.00    -0.206 F 
ATOM     65  C   UNL A   1      43.373  25.409  25.098  1.00  0.00     0.022 A 
BRANCH  62  66
ATOM     66  S   UNL A   1      42.407  22.985  26.075  1.00  0.00     0.124 S 
ATOM     67  O   UNL A   1      42.898  22.643  24.743  1.00  0.00    -0.237 OA
ATOM     68  O   UNL A   1      43.250  22.579  27.194  1.00  0.00    -0.237 OA
ATOM     69  O   UNL A   1      40.972  22.789  26.271  1.00  0.00    -0.744 OA
ENDBRANCH  62  66
ENDBRANCH  45  59
BRANCH  46  70
ATOM     70  C   UNL A   1      39.233  32.518  34.981  1.00  0.00     0.023 A 
ATOM     71  C   UNL A   1      39.723  33.810  35.235  1.00  0.00     0.031 A 
ATOM     72  C   UNL A   1      38.328  31.972  35.915  1.00  0.00     0.131 A 
ATOM     73  C   UNL A   1      39.339  34.492  36.404  1.00  0.00     0.055 A 
ATOM     74  C   UNL A   1      37.906  32.677  37.045  1.00  0.00     0.041 A 
ATOM     75  F   UNL A   1      37.839  30.734  35.745  1.00  0.00    -0.206 F 
ATOM     76  C   UNL A   1      38.423  33.941  37.302  1.00  0.00     0.022 A 
BRANCH  73  77
ATOM     77  S   UNL A   1      40.128  36.083  36.785  1.00  0.00     0.124 S 
ATOM     78  O   UNL A   1      41.481  35.667  37.134  1.00  0.00    -0.237 OA
ATOM     79  O   UNL A   1      39.979  36.802  35.524  1.00  0.00    -0.237 OA
ATOM     80  O   UNL A   1      39.328  36.604  37.892  1.00  0.00    -0.744 OA
ENDBRANCH  73  77
ENDBRANCH  46  70
BRANCH  58  81
ATOM     81  C   UNL A   1      44.214  27.688  34.298  1.00  0.00     0.023 A 
ATOM     82  C   UNL A   1      43.975  26.557  35.097  1.00  0.00     0.031 A 
ATOM     83  C   UNL A   1      45.446  28.352  34.439  1.00  0.00     0.131 A 
ATOM     84  C   UNL A   1      44.928  26.164  36.049  1.00  0.00     0.055 A 
ATOM     85  C   UNL A   1      46.418  27.914  35.339  1.00  0.00     0.041 A 
ATOM     86  F   UNL A   1      45.724  29.441  33.705  1.00  0.00    -0.206 F 
ATOM     87  C   UNL A   1      46.154  26.823  36.162  1.00  0.00     0.022 A 
BRANCH  84  88
ATOM     88  S   UNL A   1      44.496  24.847  37.220  1.00  0.00     0.124 S 
ATOM     89  O   UNL A   1      44.669  23.648  36.405  1.00  0.00    -0.237 OA
ATOM     90  O   UNL A   1      45.476  25.040  38.283  1.00  0.00    -0.237 OA
ATOM     91  O   UNL A   1      43.114  25.153  37.587  1.00  0.00    -0.744 OA
ENDBRANCH  84  88
ENDBRANCH  58  81
ENDBRANCH  32  33
ENDBRANCH  25  27
ENDBRANCH  24  25
ENDBRANCH   1  24
TORSDOF 17
ENDMDL
MODEL 2
REMARK VINA RESULT:     -13.9      1.935      2.721
REMARK SMILES CC[C@@](C)(NC(=O)Nc1c(C)cccc1Cl)C(=O)OCCOC(=O)c1ccc(-c2c3nc(c(-c4cc(S(=O)(=O)[O-])ccc4F)c4ccc([nH]4)c(-c4cc(S(=O)(=O)[O-])ccc4F)c4nc(c(-c5cc(S(=O)(=O)[O-])ccc5F)c5ccc2[nH]5)C=C4)C=C3)cc1
REMARK SMILES IDX 21 1 20 2 19 3 17 4 18 5 3 6 4 7 2 8 1 9 5 10 6 11 7 13 8 14
REMARK SMILES IDX 9 16 10 17 15 18 11 19 12 20 14 21 16 22 13 23 22 24 23 25
REMARK SMILES IDX 24 26 25 27 26 28 87 29 27 30 86 31 28 32 29 33 30 34 80 35
REMARK SMILES IDX 31 36 85 37 79 38 81 39 32 40 84 41 78 42 77 43 33 45 65 46
REMARK SMILES IDX 45 47 64 48 46 49 49 50 63 51 82 52 47 53 48 54 62 56 83 57
REMARK SMILES IDX 50 58 34 59 35 60 43 61 36 62 42 63 44 64 41 65 37 66 38 67
REMARK SMILES IDX 39 68 40 69 66 70 67 71 75 72 68 73 74 74 76 75 73 76 69 77
REMARK SMILES IDX 70 78 71 79 72 80 51 81 52 82 60 83 53 84 59 85 61 86 58 87
REMARK SMILES IDX 54 88 55 89 56 90 57 91
REMARK H PARENT 5 12 8 15 81 44 49 55
REMARK Flexibility Score: inf
ROOT
ATOM      1  C   UNL A   1      30.559  31.495  25.253  1.00  0.00     0.275 C 
ENDROOT
BRANCH   1   2
ATOM      2  C   UNL A   1      30.036  30.360  23.926  1.00  0.00     0.274 C 
BRANCH   2   3
ATOM      3  O   UNL A   1      30.266  28.733  23.590  1.00  0.00    -0.460 OA
BRANCH   3   4
ATOM      4  C   UNL A   1      31.098  27.882  22.715  1.00  0.00     0.331 C 
ATOM      5  O   UNL A   1      30.588  27.352  21.720  1.00  0.00    -0.249 OA
BRANCH   4   6
ATOM      6  C   UNL A   1      32.736  27.375  23.185  1.00  0.00     0.136 C 
ATOM      7  C   UNL A   1      33.493  28.582  23.774  1.00  0.00     0.047 C 
BRANCH   6   8
ATOM      8  C   UNL A   1      33.451  26.128  23.949  1.00  0.00     0.037 C 
ATOM      9  C   UNL A   1      34.189  26.197  25.277  1.00  0.00     0.007 C 
ENDBRANCH   6   8
BRANCH   6  10
ATOM     10  N   UNL A   1      33.125  27.125  21.845  1.00  0.00    -0.322 N 
ATOM     11  C   UNL A   1      32.785  25.915  21.356  1.00  0.00     0.320 C 
ATOM     12  H   UNL A   1      33.611  27.791  21.308  1.00  0.00     0.166 HD
ATOM     13  O   UNL A   1      33.066  25.614  20.220  1.00  0.00    -0.248 OA
ATOM     14  N   UNL A   1      32.098  25.033  22.177  1.00  0.00    -0.306 N 
ATOM     15  H   UNL A   1      31.767  24.308  21.599  1.00  0.00     0.171 HD
BRANCH  14  16
ATOM     16  C   UNL A   1      31.641  24.712  23.573  1.00  0.00     0.064 A 
ATOM     17  C   UNL A   1      30.639  25.091  24.575  1.00  0.00    -0.026 A 
ATOM     18  C   UNL A   1      32.238  23.513  23.840  1.00  0.00     0.064 A 
ATOM     19  C   UNL A   1      29.472  26.064  24.660  1.00  0.00     0.046 C 
ATOM     20  C   UNL A   1      30.478  24.328  25.782  1.00  0.00     0.005 A 
ATOM     21  C   UNL A   1      31.643  22.625  24.804  1.00  0.00     0.023 A 
ATOM     22  Cl  UNL A   1      33.626  23.146  22.560  1.00  0.00    -0.082 Cl
ATOM     23  C   UNL A   1      30.880  23.042  25.849  1.00  0.00     0.002 A 
ENDBRANCH  14  16
ENDBRANCH   6  10
ENDBRANCH   4   6
ENDBRANCH   3   4
ENDBRANCH   2   3
ENDBRANCH   1   2
BRANCH   1  24
ATOM     24  O   UNL A   1      31.619  31.294  26.431  1.00  0.00    -0.458 OA
BRANCH  24  25
ATOM     25  C   UNL A   1      32.401  30.185  26.927  1.00  0.00     0.338 C 
ATOM     26  O   UNL A   1      31.908  29.061  26.977  1.00  0.00    -0.246 OA
BRANCH  25  27
ATOM     27  C   UNL A   1      34.041  30.378  27.387  1.00  0.00     0.060 A 
ATOM     28  C   UNL A   1      34.931  29.358  27.740  1.00  0.00     0.016 A 
ATOM     29  C   UNL A   1      34.713  31.589  27.591  1.00  0.00     0.016 A 
ATOM     30  C   UNL A   1      36.063  29.371  28.536  1.00  0.00     0.010 A 
ATOM     31  C   UNL A   1      36.051  31.653  28.228  1.00  0.00     0.010 A 
ATOM     32  C   UNL A   1      36.723  30.520  28.740  1.00  0.00    -0.014 A 
BRANCH  32  33
ATOM     33  C   UNL A   1      37.952  30.329  29.571  1.00  0.00     0.031 A 
ATOM     34  C   UNL A   1      39.102  29.596  28.958  1.00  0.00     0.074 A 
ATOM     35  C   UNL A   1      38.210  31.037  30.707  1.00  0.00     0.049 A 
ATOM     36  N   UNL A   1      40.130  29.043  29.535  1.00  0.00    -0.248 NA
ATOM     37  C   UNL A   1      39.097  29.499  27.490  1.00  0.00     0.031 C 
ATOM     38  C   UNL A   1      37.393  32.127  31.277  1.00  0.00     0.029 A 
ATOM     39  N   UNL A   1      39.266  30.963  31.593  1.00  0.00    -0.354 N 
ATOM     40  C   UNL A   1      40.829  28.411  28.516  1.00  0.00     0.074 A 
ATOM     41  C   UNL A   1      40.145  28.718  27.276  1.00  0.00     0.031 C 
ATOM     42  C   UNL A   1      37.956  32.574  32.411  1.00  0.00     0.029 A 
ATOM     43  C   UNL A   1      39.090  31.726  32.731  1.00  0.00     0.049 A 
ATOM     44  H   UNL A   1      40.070  30.418  31.429  1.00  0.00     0.167 HD
ATOM     45  C   UNL A   1      41.905  27.600  28.643  1.00  0.00     0.034 A 
ATOM     46  C   UNL A   1      39.695  31.667  33.937  1.00  0.00     0.034 A 
ATOM     47  C   UNL A   1      42.571  27.375  29.903  1.00  0.00     0.049 A 
ATOM     48  C   UNL A   1      40.763  30.620  34.133  1.00  0.00     0.074 A 
ATOM     49  C   UNL A   1      43.613  26.513  30.192  1.00  0.00     0.029 A 
ATOM     50  N   UNL A   1      42.265  28.036  31.087  1.00  0.00    -0.354 N 
ATOM     51  N   UNL A   1      41.283  29.800  33.248  1.00  0.00    -0.248 NA
ATOM     52  C   UNL A   1      41.304  30.467  35.487  1.00  0.00     0.031 C 
ATOM     53  C   UNL A   1      43.886  26.601  31.563  1.00  0.00     0.029 A 
ATOM     54  C   UNL A   1      43.076  27.581  32.114  1.00  0.00     0.049 A 
ATOM     55  H   UNL A   1      41.571  28.728  31.182  1.00  0.00     0.167 HD
ATOM     56  C   UNL A   1      42.237  29.056  33.934  1.00  0.00     0.074 A 
ATOM     57  C   UNL A   1      42.226  29.534  35.303  1.00  0.00     0.031 C 
ATOM     58  C   UNL A   1      43.051  28.070  33.475  1.00  0.00     0.034 A 
BRANCH  45  59
ATOM     59  C   UNL A   1      42.289  26.784  27.435  1.00  0.00     0.023 A 
ATOM     60  C   UNL A   1      41.926  25.438  27.273  1.00  0.00     0.031 A 
ATOM     61  C   UNL A   1      43.123  27.365  26.460  1.00  0.00     0.131 A 
ATOM     62  C   UNL A   1      42.457  24.699  26.203  1.00  0.00     0.055 A 
ATOM     63  C   UNL A   1      43.577  26.648  25.354  1.00  0.00     0.041 A 
ATOM     64  F   UNL A   1      43.535  28.637  26.583  1.00  0.00    -0.206 F 
ATOM     65  C   UNL A   1      43.258  25.302  25.229  1.00  0.00     0.022 A 
BRANCH  62  66
ATOM     66  S   UNL A   1      42.226  22.899  26.190  1.00  0.00     0.124 S 
ATOM     67  O   UNL A   1      42.766  22.543  24.881  1.00  0.00    -0.237 OA
ATOM     68  O   UNL A   1      43.010  22.474  27.345  1.00  0.00    -0.237 OA
ATOM     69  O   UNL A   1      40.779  22.738  26.325  1.00  0.00    -0.744 OA
ENDBRANCH  62  66
ENDBRANCH  45  59
BRANCH  46  70
ATOM     70  C   UNL A   1      39.214  32.485  35.098  1.00  0.00     0.023 A 
ATOM     71  C   UNL A   1      39.713  33.775  35.343  1.00  0.00     0.031 A 
ATOM     72  C   UNL A   1      38.311  31.949  36.040  1.00  0.00     0.131 A 
ATOM     73  C   UNL A   1      39.339  34.466  36.510  1.00  0.00     0.055 A 
ATOM     74  C   UNL A   1      37.898  32.663  37.168  1.00  0.00     0.041 A 
ATOM     75  F   UNL A   1      37.814  30.713  35.879  1.00  0.00    -0.206 F 
ATOM     76  C   UNL A   1      38.424  33.925  37.415  1.00  0.00     0.022 A 
BRANCH  73  77
ATOM     77  S   UNL A   1      40.139  36.054  36.878  1.00  0.00     0.124 S 
ATOM     78  O   UNL A   1      41.506  35.638  37.166  1.00  0.00    -0.237 OA
ATOM     79  O   UNL A   1      39.937  36.788  35.633  1.00  0.00    -0.237 OA
ATOM     80  O   UNL A   1      39.383  36.558  38.024  1.00  0.00    -0.744 OA
ENDBRANCH  73  77
ENDBRANCH  46  70
BRANCH  58  81
ATOM     81  C   UNL A   1      44.050  27.505  34.453  1.00  0.00     0.023 A 
ATOM     82  C   UNL A   1      45.327  28.067  34.626  1.00  0.00     0.031 A 
ATOM     83  C   UNL A   1      43.722  26.362  35.204  1.00  0.00     0.131 A 
ATOM     84  C   UNL A   1      46.251  27.446  35.478  1.00  0.00     0.055 A 
ATOM     85  C   UNL A   1      44.622  25.790  36.103  1.00  0.00     0.041 A 
ATOM     86  F   UNL A   1      42.519  25.780  35.074  1.00  0.00    -0.206 F 
ATOM     87  C   UNL A   1      45.901  26.322  36.231  1.00  0.00     0.022 A 
BRANCH  84  88
ATOM     88  S   UNL A   1      47.959  28.058  35.504  1.00  0.00     0.124 S 
ATOM     89  O   UNL A   1      48.716  26.832  35.734  1.00  0.00    -0.237 OA
ATOM     90  O   UNL A   1      48.097  28.653  34.179  1.00  0.00    -0.237 OA
ATOM     91  O   UNL A   1      47.966  29.009  36.614  1.00  0.00    -0.744 OA
ENDBRANCH  84  88
ENDBRANCH  58  81
ENDBRANCH  32  33
ENDBRANCH  25  27
ENDBRANCH  24  25
ENDBRANCH   1  24
TORSDOF 17
ENDMDL
MODEL 3
REMARK VINA RESULT:     -13.8      1.936      2.752
REMARK SMILES CC[C@@](C)(NC(=O)Nc1c(C)cccc1Cl)C(=O)OCCOC(=O)c1ccc(-c2c3nc(c(-c4cc(S(=O)(=O)[O-])ccc4F)c4ccc([nH]4)c(-c4cc(S(=O)(=O)[O-])ccc4F)c4nc(c(-c5cc(S(=O)(=O)[O-])ccc5F)c5ccc2[nH]5)C=C4)C=C3)cc1
REMARK SMILES IDX 21 1 20 2 19 3 17 4 18 5 3 6 4 7 2 8 1 9 5 10 6 11 7 13 8 14
REMARK SMILES IDX 9 16 10 17 15 18 11 19 12 20 14 21 16 22 13 23 22 24 23 25
REMARK SMILES IDX 24 26 25 27 26 28 87 29 27 30 86 31 28 32 29 33 30 34 80 35
REMARK SMILES IDX 31 36 85 37 79 38 81 39 32 40 84 41 78 42 77 43 33 45 65 46
REMARK SMILES IDX 45 47 64 48 46 49 49 50 63 51 82 52 47 53 48 54 62 56 83 57
REMARK SMILES IDX 50 58 34 59 35 60 43 61 36 62 42 63 44 64 41 65 37 66 38 67
REMARK SMILES IDX 39 68 40 69 66 70 67 71 75 72 68 73 74 74 76 75 73 76 69 77
REMARK SMILES IDX 70 78 71 79 72 80 51 81 52 82 60 83 53 84 59 85 61 86 58 87
REMARK SMILES IDX 54 88 55 89 56 90 57 91
REMARK H PARENT 5 12 8 15 81 44 49 55
REMARK Flexibility Score: inf
ROOT
ATOM      1  C   UNL A   1      30.706  31.471  25.573  1.00  0.00     0.275 C 
ENDROOT
BRANCH   1   2
ATOM      2  C   UNL A   1      30.238  30.455  24.133  1.00  0.00     0.274 C 
BRANCH   2   3
ATOM      3  O   UNL A   1      30.361  28.832  23.729  1.00  0.00    -0.460 OA
BRANCH   3   4
ATOM      4  C   UNL A   1      31.159  27.962  22.841  1.00  0.00     0.331 C 
ATOM      5  O   UNL A   1      30.624  27.451  21.850  1.00  0.00    -0.249 OA
BRANCH   4   6
ATOM      6  C   UNL A   1      32.786  27.406  23.293  1.00  0.00     0.136 C 
ATOM      7  C   UNL A   1      33.573  28.580  23.910  1.00  0.00     0.047 C 
BRANCH   6   8
ATOM      8  C   UNL A   1      33.476  26.124  24.021  1.00  0.00     0.037 C 
ATOM      9  C   UNL A   1      34.195  26.137  25.362  1.00  0.00     0.007 C 
ENDBRANCH   6   8
BRANCH   6  10
ATOM     10  N   UNL A   1      33.165  27.182  21.945  1.00  0.00    -0.322 N 
ATOM     11  C   UNL A   1      32.804  25.990  21.428  1.00  0.00     0.320 C 
ATOM     12  H   UNL A   1      33.660  27.852  21.421  1.00  0.00     0.166 HD
ATOM     13  O   UNL A   1      33.074  25.712  20.285  1.00  0.00    -0.248 OA
ATOM     14  N   UNL A   1      32.106  25.099  22.232  1.00  0.00    -0.306 N 
ATOM     15  H   UNL A   1      31.760  24.394  21.638  1.00  0.00     0.171 HD
BRANCH  14  16
ATOM     16  C   UNL A   1      31.650  24.753  23.621  1.00  0.00     0.064 A 
ATOM     17  C   UNL A   1      30.656  25.122  24.636  1.00  0.00    -0.026 A 
ATOM     18  C   UNL A   1      32.233  23.541  23.860  1.00  0.00     0.064 A 
ATOM     19  C   UNL A   1      29.502  26.107  24.748  1.00  0.00     0.046 C 
ATOM     20  C   UNL A   1      30.490  24.333  25.826  1.00  0.00     0.005 A 
ATOM     21  C   UNL A   1      31.630  22.639  24.805  1.00  0.00     0.023 A 
ATOM     22  Cl  UNL A   1      33.611  23.186  22.566  1.00  0.00    -0.082 Cl
ATOM     23  C   UNL A   1      30.876  23.041  25.862  1.00  0.00     0.002 A 
ENDBRANCH  14  16
ENDBRANCH   6  10
ENDBRANCH   4   6
ENDBRANCH   3   4
ENDBRANCH   2   3
ENDBRANCH   1   2
BRANCH   1  24
ATOM     24  O   UNL A   1      31.936  31.333  26.583  1.00  0.00    -0.458 OA
BRANCH  24  25
ATOM     25  C   UNL A   1      32.692  30.232  27.131  1.00  0.00     0.338 C 
ATOM     26  O   UNL A   1      32.154  29.139  27.294  1.00  0.00    -0.246 OA
BRANCH  25  27
ATOM     27  C   UNL A   1      34.359  30.382  27.502  1.00  0.00     0.060 A 
ATOM     28  C   UNL A   1      35.235  29.343  27.833  1.00  0.00     0.016 A 
ATOM     29  C   UNL A   1      35.078  31.576  27.641  1.00  0.00     0.016 A 
ATOM     30  C   UNL A   1      36.406  29.339  28.570  1.00  0.00     0.010 A 
ATOM     31  C   UNL A   1      36.449  31.612  28.206  1.00  0.00     0.010 A 
ATOM     32  C   UNL A   1      37.111  30.470  28.710  1.00  0.00    -0.014 A 
BRANCH  32  33
ATOM     33  C   UNL A   1      38.375  30.260  29.481  1.00  0.00     0.031 A 
ATOM     34  C   UNL A   1      39.445  29.425  28.853  1.00  0.00     0.074 A 
ATOM     35  C   UNL A   1      38.740  31.021  30.552  1.00  0.00     0.049 A 
ATOM     36  N   UNL A   1      40.474  28.849  29.407  1.00  0.00    -0.248 NA
ATOM     37  C   UNL A   1      39.346  29.237  27.398  1.00  0.00     0.031 C 
ATOM     38  C   UNL A   1      38.019  32.190  31.095  1.00  0.00     0.029 A 
ATOM     39  N   UNL A   1      39.842  30.940  31.380  1.00  0.00    -0.354 N 
ATOM     40  C   UNL A   1      41.074  28.115  28.393  1.00  0.00     0.074 A 
ATOM     41  C   UNL A   1      40.336  28.383  27.177  1.00  0.00     0.031 C 
ATOM     42  C   UNL A   1      38.673  32.673  32.164  1.00  0.00     0.029 A 
ATOM     43  C   UNL A   1      39.776  31.781  32.474  1.00  0.00     0.049 A 
ATOM     44  H   UNL A   1      40.603  30.340  31.207  1.00  0.00     0.167 HD
ATOM     45  C   UNL A   1      42.110  27.252  28.512  1.00  0.00     0.034 A 
ATOM     46  C   UNL A   1      40.449  31.762  33.646  1.00  0.00     0.034 A 
ATOM     47  C   UNL A   1      42.837  27.067  29.745  1.00  0.00     0.049 A 
ATOM     48  C   UNL A   1      41.467  30.669  33.848  1.00  0.00     0.074 A 
ATOM     49  C   UNL A   1      43.846  26.165  30.031  1.00  0.00     0.029 A 
ATOM     50  N   UNL A   1      42.640  27.817  30.899  1.00  0.00    -0.354 N 
ATOM     51  N   UNL A   1      41.887  29.766  32.991  1.00  0.00    -0.248 NA
ATOM     52  C   UNL A   1      42.079  30.569  35.177  1.00  0.00     0.031 C 
ATOM     53  C   UNL A   1      44.205  26.322  31.375  1.00  0.00     0.029 A 
ATOM     54  C   UNL A   1      43.484  27.381  31.906  1.00  0.00     0.049 A 
ATOM     55  H   UNL A   1      41.992  28.553  30.986  1.00  0.00     0.167 HD
ATOM     56  C   UNL A   1      42.838  29.011  33.670  1.00  0.00     0.074 A 
ATOM     57  C   UNL A   1      42.936  29.574  35.003  1.00  0.00     0.031 C 
ATOM     58  C   UNL A   1      43.568  27.954  33.230  1.00  0.00     0.034 A 
BRANCH  45  59
ATOM     59  C   UNL A   1      42.376  26.341  27.341  1.00  0.00     0.023 A 
ATOM     60  C   UNL A   1      41.885  25.028  27.264  1.00  0.00     0.031 A 
ATOM     61  C   UNL A   1      43.226  26.789  26.311  1.00  0.00     0.131 A 
ATOM     62  C   UNL A   1      42.309  24.188  26.221  1.00  0.00     0.055 A 
ATOM     63  C   UNL A   1      43.574  25.976  25.233  1.00  0.00     0.041 A 
ATOM     64  F   UNL A   1      43.757  28.021  26.351  1.00  0.00    -0.206 F 
ATOM     65  C   UNL A   1      43.128  24.661  25.192  1.00  0.00     0.022 A 
BRANCH  62  66
ATOM     66  S   UNL A   1      41.912  22.420  26.315  1.00  0.00     0.124 S 
ATOM     67  O   UNL A   1      42.610  21.900  25.143  1.00  0.00    -0.237 OA
ATOM     68  O   UNL A   1      42.465  22.043  27.611  1.00  0.00    -0.237 OA
ATOM     69  O   UNL A   1      40.453  22.390  26.227  1.00  0.00    -0.744 OA
ENDBRANCH  62  66
ENDBRANCH  45  59
BRANCH  46  70
ATOM     70  C   UNL A   1      40.083  32.678  34.775  1.00  0.00     0.023 A 
ATOM     71  C   UNL A   1      39.188  32.280  35.782  1.00  0.00     0.031 A 
ATOM     72  C   UNL A   1      40.555  34.006  34.815  1.00  0.00     0.131 A 
ATOM     73  C   UNL A   1      38.766  33.204  36.755  1.00  0.00     0.055 A 
ATOM     74  C   UNL A   1      40.177  34.903  35.817  1.00  0.00     0.041 A 
ATOM     75  F   UNL A   1      41.395  34.458  33.870  1.00  0.00    -0.206 F 
ATOM     76  C   UNL A   1      39.266  34.507  36.788  1.00  0.00     0.022 A 
BRANCH  73  77
ATOM     77  S   UNL A   1      37.476  32.704  37.932  1.00  0.00     0.124 S 
ATOM     78  O   UNL A   1      37.949  33.316  39.167  1.00  0.00    -0.237 OA
ATOM     79  O   UNL A   1      36.281  33.294  37.336  1.00  0.00    -0.237 OA
ATOM     80  O   UNL A   1      37.529  31.243  37.896  1.00  0.00    -0.744 OA
ENDBRANCH  73  77
ENDBRANCH  46  70
BRANCH  58  81
ATOM     81  C   UNL A   1      44.592  27.392  34.186  1.00  0.00     0.023 A 
ATOM     82  C   UNL A   1      44.277  26.380  35.107  1.00  0.00     0.031 A 
ATOM     83  C   UNL A   1      45.902  27.907  34.187  1.00  0.00     0.131 A 
ATOM     84  C   UNL A   1      45.240  25.960  36.037  1.00  0.00     0.055 A 
ATOM     85  C   UNL A   1      46.875  27.436  35.068  1.00  0.00     0.041 A 
ATOM     86  F   UNL A   1      46.255  28.879  33.332  1.00  0.00    -0.206 F 
ATOM     87  C   UNL A   1      46.541  26.468  36.012  1.00  0.00     0.022 A 
BRANCH  84  88
ATOM     88  S   UNL A   1      44.737  24.823  37.358  1.00  0.00     0.124 S 
ATOM     89  O   UNL A   1      43.306  25.092  37.461  1.00  0.00    -0.237 OA
ATOM     90  O   UNL A   1      45.101  23.522  36.806  1.00  0.00    -0.237 OA
ATOM     91  O   UNL A   1      45.533  25.255  38.505  1.00  0.00    -0.744 OA
ENDBRANCH  84  88
ENDBRANCH  58  81
ENDBRANCH  32  33
ENDBRANCH  25  27
ENDBRANCH  24  25
ENDBRANCH   1  24
TORSDOF 17
ENDMDL
