MODEL 1
REMARK VINA RESULT:     -13.6      0.000      0.000
REMARK SMILES Cc1ccc2[nH]cc([C@@H](C(=O)OCCOC(=O)c3ccc(-c4c5nc(c(-c6cc(S(=O)(=O)[O-])ccc6F)c6ccc([nH]6)c(-c6cc(S(=O)(=O)[O-])ccc6F)c6nc(c(-c7cc(S(=O)(=O)[O-])ccc7F)c7ccc4[nH]7)C=C6)C=C5)cc3)[NH+]3CCN(c4cccc(Cl)c4)CC3)c2c1
REMARK SMILES IDX 14 1 13 2 12 3 10 4 11 5 9 6 8 7 1 8 2 9 3 10 95 11 4 12
REMARK SMILES IDX 94 13 5 14 6 15 7 16 81 18 82 19 93 20 83 22 92 23 84 24
REMARK SMILES IDX 85 25 86 26 91 27 87 28 89 29 88 30 90 31 15 32 16 33 17 34
REMARK SMILES IDX 18 35 19 36 80 37 20 38 79 39 21 40 22 41 23 42 73 43 24 44
REMARK SMILES IDX 78 45 72 46 74 47 25 48 77 49 71 50 70 51 26 53 58 54 38 55
REMARK SMILES IDX 57 56 39 57 42 58 56 59 75 60 40 61 41 62 55 64 76 65 43 66
REMARK SMILES IDX 27 67 28 68 36 69 29 70 35 71 37 72 34 73 30 74 31 75 32 76
REMARK SMILES IDX 33 77 59 78 60 79 68 80 61 81 67 82 69 83 66 84 62 85 63 86
REMARK SMILES IDX 64 87 65 88 44 89 45 90 53 91 46 92 52 93 54 94 51 95 47 96
REMARK SMILES IDX 48 97 49 98 50 99
REMARK H PARENT 6 17 81 21 74 52 42 63
REMARK Flexibility Score: inf
ROOT
ATOM      1  C   UNL A   1      31.723  29.867  27.011  1.00  0.00     0.275 C 
ENDROOT
BRANCH   1   2
ATOM      2  C   UNL A   1      31.601  28.459  27.585  1.00  0.00     0.274 C 
BRANCH   2   3
ATOM      3  O   UNL A   1      32.214  27.500  26.699  1.00  0.00    -0.457 OA
BRANCH   3   4
ATOM      4  C   UNL A   1      31.367  26.751  25.933  1.00  0.00     0.370 C 
ATOM      5  O   UNL A   1      30.323  26.267  26.366  1.00  0.00    -0.245 OA
BRANCH   4   6
ATOM      6  C   UNL A   1      31.896  26.493  24.501  1.00  0.00     0.328 C 
BRANCH   6   7
ATOM      7  C   UNL A   1      31.671  27.592  23.496  1.00  0.00     0.046 A 
ATOM      8  C   UNL A   1      26.599  28.234  23.418  1.00  0.00     0.044 C 
ATOM      9  C   UNL A   1      28.003  28.626  23.069  1.00  0.00    -0.050 A 
ATOM     10  C   UNL A   1      28.270  29.748  22.281  1.00  0.00     0.005 A 
ATOM     11  C   UNL A   1      29.066  27.836  23.532  1.00  0.00     0.014 A 
ATOM     12  C   UNL A   1      29.577  30.082  21.903  1.00  0.00     0.027 A 
ATOM     13  C   UNL A   1      30.392  28.151  23.166  1.00  0.00     0.009 A 
ATOM     14  C   UNL A   1      30.611  29.248  22.337  1.00  0.00     0.046 A 
ATOM     15  N   UNL A   1      31.961  29.304  22.091  1.00  0.00    -0.361 N 
ATOM     16  C   UNL A   1      32.598  28.269  22.722  1.00  0.00     0.094 A 
ATOM     17  H   UNL A   1      32.406  29.989  21.541  1.00  0.00     0.166 HD
ENDBRANCH   6   7
BRANCH   6  18
ATOM     18  N   UNL A   1      31.464  25.171  23.999  1.00  0.00    -0.316 N 
ATOM     19  C   UNL A   1      32.283  24.533  22.964  1.00  0.00     0.284 C 
ATOM     20  C   UNL A   1      31.010  24.195  25.002  1.00  0.00     0.284 C 
ATOM     21  H   UNL A   1      30.626  25.488  23.512  1.00  0.00     0.349 HD
ATOM     22  C   UNL A   1      33.315  23.470  23.384  1.00  0.00     0.178 C 
ATOM     23  C   UNL A   1      32.043  23.145  25.489  1.00  0.00     0.178 C 
ATOM     24  N   UNL A   1      32.742  22.541  24.352  1.00  0.00    -0.360 N 
BRANCH  24  25
ATOM     25  C   UNL A   1      33.403  21.334  24.539  1.00  0.00     0.038 A 
ATOM     26  C   UNL A   1      34.765  21.270  24.872  1.00  0.00     0.026 A 
ATOM     27  C   UNL A   1      32.725  20.133  24.307  1.00  0.00     0.046 A 
ATOM     28  C   UNL A   1      35.444  20.049  24.912  1.00  0.00     0.004 A 
ATOM     29  C   UNL A   1      33.403  18.913  24.343  1.00  0.00     0.043 A 
ATOM     30  C   UNL A   1      34.764  18.869  24.630  1.00  0.00     0.020 A 
ATOM     31  Cl  UNL A   1      32.548  17.457  24.015  1.00  0.00    -0.084 Cl
ENDBRANCH  24  25
ENDBRANCH   6  18
ENDBRANCH   4   6
ENDBRANCH   3   4
ENDBRANCH   2   3
ENDBRANCH   1   2
BRANCH   1  32
ATOM     32  O   UNL A   1      33.098  30.128  26.684  1.00  0.00    -0.458 OA
BRANCH  32  33
ATOM     33  C   UNL A   1      33.661  31.207  27.271  1.00  0.00     0.338 C 
ATOM     34  O   UNL A   1      33.132  32.300  27.435  1.00  0.00    -0.246 OA
BRANCH  33  35
ATOM     35  C   UNL A   1      35.031  30.889  27.739  1.00  0.00     0.060 A 
ATOM     36  C   UNL A   1      35.420  29.574  28.000  1.00  0.00     0.016 A 
ATOM     37  C   UNL A   1      35.906  31.933  28.048  1.00  0.00     0.016 A 
ATOM     38  C   UNL A   1      36.621  29.316  28.666  1.00  0.00     0.010 A 
ATOM     39  C   UNL A   1      37.159  31.657  28.609  1.00  0.00     0.010 A 
ATOM     40  C   UNL A   1      37.525  30.345  28.958  1.00  0.00    -0.014 A 
BRANCH  40  41
ATOM     41  C   UNL A   1      38.834  30.077  29.629  1.00  0.00     0.031 A 
ATOM     42  C   UNL A   1      39.825  29.122  29.009  1.00  0.00     0.074 A 
ATOM     43  C   UNL A   1      39.140  30.655  30.810  1.00  0.00     0.049 A 
ATOM     44  N   UNL A   1      40.826  28.484  29.562  1.00  0.00    -0.248 NA
ATOM     45  C   UNL A   1      39.648  28.831  27.579  1.00  0.00     0.031 C 
ATOM     46  C   UNL A   1      38.335  31.662  31.505  1.00  0.00     0.029 A 
ATOM     47  N   UNL A   1      40.216  30.467  31.647  1.00  0.00    -0.354 N 
ATOM     48  C   UNL A   1      41.351  27.659  28.570  1.00  0.00     0.074 A 
ATOM     49  C   UNL A   1      40.559  27.887  27.379  1.00  0.00     0.031 C 
ATOM     50  C   UNL A   1      38.955  32.026  32.635  1.00  0.00     0.029 A 
ATOM     51  C   UNL A   1      40.130  31.185  32.818  1.00  0.00     0.049 A 
ATOM     52  H   UNL A   1      40.974  29.878  31.429  1.00  0.00     0.167 HD
ATOM     53  C   UNL A   1      42.386  26.784  28.659  1.00  0.00     0.034 A 
ATOM     54  C   UNL A   1      40.854  31.124  33.953  1.00  0.00     0.034 A 
ATOM     55  C   UNL A   1      43.199  26.622  29.844  1.00  0.00     0.049 A 
ATOM     56  C   UNL A   1      41.957  30.109  34.058  1.00  0.00     0.074 A 
ATOM     57  C   UNL A   1      44.273  25.770  30.047  1.00  0.00     0.029 A 
ATOM     58  N   UNL A   1      43.043  27.342  31.022  1.00  0.00    -0.354 N 
ATOM     59  N   UNL A   1      42.357  29.231  33.169  1.00  0.00    -0.248 NA
ATOM     60  C   UNL A   1      42.690  30.061  35.330  1.00  0.00     0.031 C 
ATOM     61  C   UNL A   1      44.730  25.937  31.361  1.00  0.00     0.029 A 
ATOM     62  C   UNL A   1      43.986  26.941  31.959  1.00  0.00     0.049 A 
ATOM     63  H   UNL A   1      42.361  28.036  31.173  1.00  0.00     0.167 HD
ATOM     64  C   UNL A   1      43.392  28.527  33.773  1.00  0.00     0.074 A 
ATOM     65  C   UNL A   1      43.568  29.098  35.093  1.00  0.00     0.031 C 
ATOM     66  C   UNL A   1      44.132  27.502  33.281  1.00  0.00     0.034 A 
BRANCH  53  67
ATOM     67  C   UNL A   1      42.646  25.877  27.476  1.00  0.00     0.023 A 
ATOM     68  C   UNL A   1      42.131  24.572  27.385  1.00  0.00     0.031 A 
ATOM     69  C   UNL A   1      43.446  26.342  26.413  1.00  0.00     0.131 A 
ATOM     70  C   UNL A   1      42.465  23.762  26.285  1.00  0.00     0.055 A 
ATOM     71  C   UNL A   1      43.714  25.559  25.289  1.00  0.00     0.041 A 
ATOM     72  F   UNL A   1      43.987  27.570  26.451  1.00  0.00    -0.206 F 
ATOM     73  C   UNL A   1      43.231  24.256  25.226  1.00  0.00     0.022 A 
BRANCH  70  74
ATOM     74  S   UNL A   1      41.986  22.011  26.304  1.00  0.00     0.124 S 
ATOM     75  O   UNL A   1      42.358  21.608  27.658  1.00  0.00    -0.237 OA
ATOM     76  O   UNL A   1      40.557  22.068  26.021  1.00  0.00    -0.237 OA
ATOM     77  O   UNL A   1      42.804  21.419  25.246  1.00  0.00    -0.744 OA
ENDBRANCH  70  74
ENDBRANCH  53  67
BRANCH  54  78
ATOM     78  C   UNL A   1      40.481  31.973  35.121  1.00  0.00     0.023 A 
ATOM     79  C   UNL A   1      39.450  31.596  35.992  1.00  0.00     0.031 A 
ATOM     80  C   UNL A   1      41.152  33.185  35.374  1.00  0.00     0.131 A 
ATOM     81  C   UNL A   1      39.104  32.431  37.066  1.00  0.00     0.055 A 
ATOM     82  C   UNL A   1      40.842  33.984  36.474  1.00  0.00     0.041 A 
ATOM     83  F   UNL A   1      42.145  33.593  34.568  1.00  0.00    -0.206 F 
ATOM     84  C   UNL A   1      39.806  33.613  37.323  1.00  0.00     0.022 A 
BRANCH  81  85
ATOM     85  S   UNL A   1      37.677  31.986  38.091  1.00  0.00     0.124 S 
ATOM     86  O   UNL A   1      37.373  30.642  37.613  1.00  0.00    -0.237 OA
ATOM     87  O   UNL A   1      38.229  32.078  39.439  1.00  0.00    -0.237 OA
ATOM     88  O   UNL A   1      36.685  33.007  37.757  1.00  0.00    -0.744 OA
ENDBRANCH  81  85
ENDBRANCH  54  78
BRANCH  66  89
ATOM     89  C   UNL A   1      45.223  26.972  34.174  1.00  0.00     0.023 A 
ATOM     90  C   UNL A   1      45.002  25.889  35.044  1.00  0.00     0.031 A 
ATOM     91  C   UNL A   1      46.487  27.585  34.183  1.00  0.00     0.131 A 
ATOM     92  C   UNL A   1      46.016  25.486  35.926  1.00  0.00     0.055 A 
ATOM     93  C   UNL A   1      47.507  27.149  35.028  1.00  0.00     0.041 A 
ATOM     94  F   UNL A   1      46.746  28.626  33.375  1.00  0.00    -0.206 F 
ATOM     95  C   UNL A   1      47.271  26.102  35.915  1.00  0.00     0.022 A 
BRANCH  92  96
ATOM     96  S   UNL A   1      45.649  24.199  37.150  1.00  0.00     0.124 S 
ATOM     97  O   UNL A   1      46.967  23.929  37.713  1.00  0.00    -0.237 OA
ATOM     98  O   UNL A   1      44.701  24.868  38.035  1.00  0.00    -0.237 OA
ATOM     99  O   UNL A   1      45.085  23.113  36.349  1.00  0.00    -0.744 OA
ENDBRANCH  92  96
ENDBRANCH  66  89
ENDBRANCH  40  41
ENDBRANCH  33  35
ENDBRANCH  32  33
ENDBRANCH   1  32
TORSDOF 17
ENDMDL
MODEL 2
REMARK VINA RESULT:     -13.5      5.171     10.080
REMARK SMILES Cc1ccc2[nH]cc([C@@H](C(=O)OCCOC(=O)c3ccc(-c4c5nc(c(-c6cc(S(=O)(=O)[O-])ccc6F)c6ccc([nH]6)c(-c6cc(S(=O)(=O)[O-])ccc6F)c6nc(c(-c7cc(S(=O)(=O)[O-])ccc7F)c7ccc4[nH]7)C=C6)C=C5)cc3)[NH+]3CCN(c4cccc(Cl)c4)CC3)c2c1
REMARK SMILES IDX 14 1 13 2 12 3 10 4 11 5 9 6 8 7 1 8 2 9 3 10 95 11 4 12
REMARK SMILES IDX 94 13 5 14 6 15 7 16 81 18 82 19 93 20 83 22 92 23 84 24
REMARK SMILES IDX 85 25 86 26 91 27 87 28 89 29 88 30 90 31 15 32 16 33 17 34
REMARK SMILES IDX 18 35 19 36 80 37 20 38 79 39 21 40 22 41 23 42 73 43 24 44
REMARK SMILES IDX 78 45 72 46 74 47 25 48 77 49 71 50 70 51 26 53 58 54 38 55
REMARK SMILES IDX 57 56 39 57 42 58 56 59 75 60 40 61 41 62 55 64 76 65 43 66
REMARK SMILES IDX 27 67 28 68 36 69 29 70 35 71 37 72 34 73 30 74 31 75 32 76
REMARK SMILES IDX 33 77 59 78 60 79 68 80 61 81 67 82 69 83 66 84 62 85 63 86
REMARK SMILES IDX 64 87 65 88 44 89 45 90 53 91 46 92 52 93 54 94 51 95 47 96
REMARK SMILES IDX 48 97 49 98 50 99
REMARK H PARENT 6 17 81 21 74 52 42 63
REMARK Flexibility Score: inf
ROOT
ATOM      1  C   UNL A   1      35.624  21.327  24.708  1.00  0.00     0.275 C 
ENDROOT
BRANCH   1   2
ATOM      2  C   UNL A   1      34.450  22.292  24.577  1.00  0.00     0.274 C 
BRANCH   2   3
ATOM      3  O   UNL A   1      34.886  23.542  24.007  1.00  0.00    -0.457 OA
BRANCH   3   4
ATOM      4  C   UNL A   1      34.038  24.134  23.114  1.00  0.00     0.370 C 
ATOM      5  O   UNL A   1      33.734  23.621  22.038  1.00  0.00    -0.245 OA
BRANCH   4   6
ATOM      6  C   UNL A   1      33.575  25.547  23.546  1.00  0.00     0.328 C 
BRANCH   6   7
ATOM      7  C   UNL A   1      32.749  25.626  24.802  1.00  0.00     0.046 A 
ATOM      8  C   UNL A   1      34.110  30.060  26.953  1.00  0.00     0.044 C 
ATOM      9  C   UNL A   1      33.246  28.841  26.831  1.00  0.00    -0.050 A 
ATOM     10  C   UNL A   1      32.189  28.608  27.714  1.00  0.00     0.005 A 
ATOM     11  C   UNL A   1      33.519  27.911  25.817  1.00  0.00     0.014 A 
ATOM     12  C   UNL A   1      31.418  27.442  27.640  1.00  0.00     0.027 A 
ATOM     13  C   UNL A   1      32.757  26.727  25.721  1.00  0.00     0.009 A 
ATOM     14  C   UNL A   1      31.746  26.509  26.652  1.00  0.00     0.046 A 
ATOM     15  N   UNL A   1      31.200  25.279  26.374  1.00  0.00    -0.361 N 
ATOM     16  C   UNL A   1      31.846  24.707  25.311  1.00  0.00     0.094 A 
ATOM     17  H   UNL A   1      30.454  24.869  26.868  1.00  0.00     0.166 HD
ENDBRANCH   6   7
BRANCH   6  18
ATOM     18  N   UNL A   1      32.960  26.278  22.418  1.00  0.00    -0.316 N 
ATOM     19  C   UNL A   1      31.511  26.157  22.234  1.00  0.00     0.284 C 
ATOM     20  C   UNL A   1      33.416  27.660  22.194  1.00  0.00     0.284 C 
ATOM     21  H   UNL A   1      33.367  25.721  21.667  1.00  0.00     0.349 HD
ATOM     22  C   UNL A   1      30.598  27.266  22.788  1.00  0.00     0.178 C 
ATOM     23  C   UNL A   1      32.547  28.799  22.789  1.00  0.00     0.178 C 
ATOM     24  N   UNL A   1      31.132  28.587  22.476  1.00  0.00    -0.360 N 
BRANCH  24  25
ATOM     25  C   UNL A   1      30.258  29.663  22.572  1.00  0.00     0.038 A 
ATOM     26  C   UNL A   1      29.931  30.255  23.801  1.00  0.00     0.026 A 
ATOM     27  C   UNL A   1      29.609  30.127  21.424  1.00  0.00     0.046 A 
ATOM     28  C   UNL A   1      28.942  31.237  23.892  1.00  0.00     0.004 A 
ATOM     29  C   UNL A   1      28.617  31.106  21.513  1.00  0.00     0.043 A 
ATOM     30  C   UNL A   1      28.271  31.652  22.746  1.00  0.00     0.020 A 
ATOM     31  Cl  UNL A   1      27.809  31.628  20.087  1.00  0.00    -0.084 Cl
ENDBRANCH  24  25
ENDBRANCH   6  18
ENDBRANCH   4   6
ENDBRANCH   3   4
ENDBRANCH   2   3
ENDBRANCH   1   2
BRANCH   1  32
ATOM     32  O   UNL A   1      36.854  22.071  24.672  1.00  0.00    -0.458 OA
BRANCH  32  33
ATOM     33  C   UNL A   1      37.890  21.552  25.368  1.00  0.00     0.338 C 
ATOM     34  O   UNL A   1      38.226  20.375  25.397  1.00  0.00    -0.246 OA
BRANCH  33  35
ATOM     35  C   UNL A   1      38.617  22.623  26.091  1.00  0.00     0.060 A 
ATOM     36  C   UNL A   1      38.165  23.943  26.076  1.00  0.00     0.016 A 
ATOM     37  C   UNL A   1      39.845  22.329  26.689  1.00  0.00     0.016 A 
ATOM     38  C   UNL A   1      38.984  24.971  26.551  1.00  0.00     0.010 A 
ATOM     39  C   UNL A   1      40.607  23.351  27.268  1.00  0.00     0.010 A 
ATOM     40  C   UNL A   1      40.205  24.696  27.180  1.00  0.00    -0.014 A 
BRANCH  40  41
ATOM     41  C   UNL A   1      41.069  25.783  27.734  1.00  0.00     0.031 A 
ATOM     42  C   UNL A   1      40.482  26.827  28.654  1.00  0.00     0.074 A 
ATOM     43  C   UNL A   1      42.374  25.871  27.400  1.00  0.00     0.049 A 
ATOM     44  N   UNL A   1      40.932  28.019  28.956  1.00  0.00    -0.248 NA
ATOM     45  C   UNL A   1      39.205  26.488  29.299  1.00  0.00     0.031 C 
ATOM     46  C   UNL A   1      43.118  24.902  26.593  1.00  0.00     0.029 A 
ATOM     47  N   UNL A   1      43.310  26.835  27.694  1.00  0.00    -0.354 N 
ATOM     48  C   UNL A   1      39.960  28.603  29.765  1.00  0.00     0.074 A 
ATOM     49  C   UNL A   1      38.899  27.626  29.910  1.00  0.00     0.031 C 
ATOM     50  C   UNL A   1      44.393  25.298  26.484  1.00  0.00     0.029 A 
ATOM     51  C   UNL A   1      44.529  26.614  27.094  1.00  0.00     0.049 A 
ATOM     52  H   UNL A   1      43.127  27.607  28.277  1.00  0.00     0.167 HD
ATOM     53  C   UNL A   1      39.952  29.844  30.316  1.00  0.00     0.034 A 
ATOM     54  C   UNL A   1      45.614  27.404  26.967  1.00  0.00     0.034 A 
ATOM     55  C   UNL A   1      41.053  30.776  30.205  1.00  0.00     0.049 A 
ATOM     56  C   UNL A   1      45.569  28.797  27.530  1.00  0.00     0.074 A 
ATOM     57  C   UNL A   1      41.158  32.057  30.724  1.00  0.00     0.029 A 
ATOM     58  N   UNL A   1      42.250  30.522  29.547  1.00  0.00    -0.354 N 
ATOM     59  N   UNL A   1      44.591  29.397  28.169  1.00  0.00    -0.248 NA
ATOM     60  C   UNL A   1      46.763  29.627  27.332  1.00  0.00     0.031 C 
ATOM     61  C   UNL A   1      42.393  32.594  30.335  1.00  0.00     0.029 A 
ATOM     62  C   UNL A   1      43.089  31.624  29.631  1.00  0.00     0.049 A 
ATOM     63  H   UNL A   1      42.472  29.680  29.087  1.00  0.00     0.167 HD
ATOM     64  C   UNL A   1      45.056  30.675  28.453  1.00  0.00     0.074 A 
ATOM     65  C   UNL A   1      46.407  30.752  27.935  1.00  0.00     0.031 C 
ATOM     66  C   UNL A   1      44.424  31.695  29.087  1.00  0.00     0.034 A 
BRANCH  53  67
ATOM     67  C   UNL A   1      38.690  30.298  31.015  1.00  0.00     0.023 A 
ATOM     68  C   UNL A   1      37.721  31.107  30.394  1.00  0.00     0.031 A 
ATOM     69  C   UNL A   1      38.462  29.911  32.350  1.00  0.00     0.131 A 
ATOM     70  C   UNL A   1      36.601  31.544  31.123  1.00  0.00     0.055 A 
ATOM     71  C   UNL A   1      37.312  30.287  33.046  1.00  0.00     0.041 A 
ATOM     72  F   UNL A   1      39.361  29.159  33.006  1.00  0.00    -0.206 F 
ATOM     73  C   UNL A   1      36.379  31.118  32.435  1.00  0.00     0.022 A 
BRANCH  70  74
ATOM     74  S   UNL A   1      35.491  32.774  30.380  1.00  0.00     0.124 S 
ATOM     75  O   UNL A   1      34.300  32.653  31.218  1.00  0.00    -0.237 OA
ATOM     76  O   UNL A   1      36.248  34.011  30.517  1.00  0.00    -0.237 OA
ATOM     77  O   UNL A   1      35.320  32.298  29.008  1.00  0.00    -0.744 OA
ENDBRANCH  70  74
ENDBRANCH  53  67
BRANCH  54  78
ATOM     78  C   UNL A   1      46.789  26.935  26.178  1.00  0.00     0.023 A 
ATOM     79  C   UNL A   1      47.048  27.439  24.895  1.00  0.00     0.031 A 
ATOM     80  C   UNL A   1      47.666  25.965  26.698  1.00  0.00     0.131 A 
ATOM     81  C   UNL A   1      48.147  26.957  24.167  1.00  0.00     0.055 A 
ATOM     82  C   UNL A   1      48.787  25.530  25.993  1.00  0.00     0.041 A 
ATOM     83  F   UNL A   1      47.460  25.449  27.920  1.00  0.00    -0.206 F 
ATOM     84  C   UNL A   1      49.028  26.019  24.714  1.00  0.00     0.022 A 
BRANCH  81  85
ATOM     85  S   UNL A   1      48.375  27.524  22.460  1.00  0.00     0.124 S 
ATOM     86  O   UNL A   1      47.187  28.344  22.256  1.00  0.00    -0.237 OA
ATOM     87  O   UNL A   1      49.643  28.241  22.545  1.00  0.00    -0.237 OA
ATOM     88  O   UNL A   1      48.416  26.281  21.690  1.00  0.00    -0.744 OA
ENDBRANCH  81  85
ENDBRANCH  54  78
BRANCH  66  89
ATOM     89  C   UNL A   1      45.218  32.961  29.281  1.00  0.00     0.023 A 
ATOM     90  C   UNL A   1      45.211  33.989  28.323  1.00  0.00     0.031 A 
ATOM     91  C   UNL A   1      46.022  33.118  30.422  1.00  0.00     0.131 A 
ATOM     92  C   UNL A   1      46.037  35.110  28.498  1.00  0.00     0.055 A 
ATOM     93  C   UNL A   1      46.805  34.257  30.615  1.00  0.00     0.041 A 
ATOM     94  F   UNL A   1      46.067  32.163  31.364  1.00  0.00    -0.206 F 
ATOM     95  C   UNL A   1      46.825  35.255  29.644  1.00  0.00     0.022 A 
BRANCH  92  96
ATOM     96  S   UNL A   1      46.135  36.340  27.169  1.00  0.00     0.124 S 
ATOM     97  O   UNL A   1      47.249  37.173  27.607  1.00  0.00    -0.237 OA
ATOM     98  O   UNL A   1      46.380  35.512  25.992  1.00  0.00    -0.237 OA
ATOM     99  O   UNL A   1      44.825  36.990  27.205  1.00  0.00    -0.744 OA
ENDBRANCH  92  96
ENDBRANCH  66  89
ENDBRANCH  40  41
ENDBRANCH  33  35
ENDBRANCH  32  33
ENDBRANCH   1  32
TORSDOF 17
ENDMDL
MODEL 3
REMARK VINA RESULT:     -13.4      5.029     10.270
REMARK SMILES Cc1ccc2[nH]cc([C@@H](C(=O)OCCOC(=O)c3ccc(-c4c5nc(c(-c6cc(S(=O)(=O)[O-])ccc6F)c6ccc([nH]6)c(-c6cc(S(=O)(=O)[O-])ccc6F)c6nc(c(-c7cc(S(=O)(=O)[O-])ccc7F)c7ccc4[nH]7)C=C6)C=C5)cc3)[NH+]3CCN(c4cccc(Cl)c4)CC3)c2c1
REMARK SMILES IDX 14 1 13 2 12 3 10 4 11 5 9 6 8 7 1 8 2 9 3 10 95 11 4 12
REMARK SMILES IDX 94 13 5 14 6 15 7 16 81 18 82 19 93 20 83 22 92 23 84 24
REMARK SMILES IDX 85 25 86 26 91 27 87 28 89 29 88 30 90 31 15 32 16 33 17 34
REMARK SMILES IDX 18 35 19 36 80 37 20 38 79 39 21 40 22 41 23 42 73 43 24 44
REMARK SMILES IDX 78 45 72 46 74 47 25 48 77 49 71 50 70 51 26 53 58 54 38 55
REMARK SMILES IDX 57 56 39 57 42 58 56 59 75 60 40 61 41 62 55 64 76 65 43 66
REMARK SMILES IDX 27 67 28 68 36 69 29 70 35 71 37 72 34 73 30 74 31 75 32 76
REMARK SMILES IDX 33 77 59 78 60 79 68 80 61 81 67 82 69 83 66 84 62 85 63 86
REMARK SMILES IDX 64 87 65 88 44 89 45 90 53 91 46 92 52 93 54 94 51 95 47 96
REMARK SMILES IDX 48 97 49 98 50 99
REMARK H PARENT 6 17 81 21 74 52 42 63
REMARK Flexibility Score: inf
ROOT
ATOM      1  C   UNL A   1      37.287  21.856  24.466  1.00  0.00     0.275 C 
ENDROOT
BRANCH   1   2
ATOM      2  C   UNL A   1      36.353  22.972  24.007  1.00  0.00     0.274 C 
BRANCH   2   3
ATOM      3  O   UNL A   1      35.004  22.478  23.878  1.00  0.00    -0.457 OA
BRANCH   3   4
ATOM      4  C   UNL A   1      34.158  22.740  24.918  1.00  0.00     0.370 C 
ATOM      5  O   UNL A   1      34.541  23.196  25.994  1.00  0.00    -0.245 OA
BRANCH   4   6
ATOM      6  C   UNL A   1      32.694  22.320  24.644  1.00  0.00     0.328 C 
BRANCH   6   7
ATOM      7  C   UNL A   1      32.479  21.333  23.527  1.00  0.00     0.046 A 
ATOM      8  C   UNL A   1      34.416  16.948  25.305  1.00  0.00     0.044 C 
ATOM      9  C   UNL A   1      33.641  17.764  24.315  1.00  0.00    -0.050 A 
ATOM     10  C   UNL A   1      33.073  17.184  23.179  1.00  0.00     0.005 A 
ATOM     11  C   UNL A   1      33.499  19.144  24.532  1.00  0.00     0.014 A 
ATOM     12  C   UNL A   1      32.400  17.954  22.222  1.00  0.00     0.027 A 
ATOM     13  C   UNL A   1      32.826  19.942  23.584  1.00  0.00     0.009 A 
ATOM     14  C   UNL A   1      32.319  19.333  22.440  1.00  0.00     0.046 A 
ATOM     15  N   UNL A   1      31.766  20.324  21.666  1.00  0.00    -0.361 N 
ATOM     16  C   UNL A   1      31.923  21.540  22.275  1.00  0.00     0.094 A 
ATOM     17  H   UNL A   1      31.322  20.180  20.799  1.00  0.00     0.166 HD
ENDBRANCH   6   7
BRANCH   6  18
ATOM     18  N   UNL A   1      31.808  23.498  24.535  1.00  0.00    -0.316 N 
ATOM     19  C   UNL A   1      31.270  24.065  25.775  1.00  0.00     0.284 C 
ATOM     20  C   UNL A   1      32.219  24.554  23.595  1.00  0.00     0.284 C 
ATOM     21  H   UNL A   1      31.018  23.023  24.099  1.00  0.00     0.349 HD
ATOM     22  C   UNL A   1      31.972  25.285  26.399  1.00  0.00     0.178 C 
ATOM     23  C   UNL A   1      32.979  25.771  24.185  1.00  0.00     0.178 C 
ATOM     24  N   UNL A   1      32.300  26.277  25.380  1.00  0.00    -0.360 N 
BRANCH  24  25
ATOM     25  C   UNL A   1      32.585  27.564  25.817  1.00  0.00     0.038 A 
ATOM     26  C   UNL A   1      31.787  28.666  25.474  1.00  0.00     0.026 A 
ATOM     27  C   UNL A   1      33.750  27.798  26.555  1.00  0.00     0.046 A 
ATOM     28  C   UNL A   1      32.172  29.969  25.802  1.00  0.00     0.004 A 
ATOM     29  C   UNL A   1      34.138  29.099  26.880  1.00  0.00     0.043 A 
ATOM     30  C   UNL A   1      33.360  30.187  26.493  1.00  0.00     0.020 A 
ATOM     31  Cl  UNL A   1      35.597  29.357  27.754  1.00  0.00    -0.084 Cl
ENDBRANCH  24  25
ENDBRANCH   6  18
ENDBRANCH   4   6
ENDBRANCH   3   4
ENDBRANCH   2   3
ENDBRANCH   1   2
BRANCH   1  32
ATOM     32  O   UNL A   1      37.613  22.051  25.852  1.00  0.00    -0.458 OA
BRANCH  32  33
ATOM     33  C   UNL A   1      38.906  21.864  26.197  1.00  0.00     0.338 C 
ATOM     34  O   UNL A   1      39.571  20.856  25.992  1.00  0.00    -0.246 OA
BRANCH  33  35
ATOM     35  C   UNL A   1      39.453  23.080  26.846  1.00  0.00     0.060 A 
ATOM     36  C   UNL A   1      38.983  24.351  26.513  1.00  0.00     0.016 A 
ATOM     37  C   UNL A   1      40.544  22.960  27.709  1.00  0.00     0.016 A 
ATOM     38  C   UNL A   1      39.668  25.488  26.948  1.00  0.00     0.010 A 
ATOM     39  C   UNL A   1      41.154  24.106  28.234  1.00  0.00     0.010 A 
ATOM     40  C   UNL A   1      40.746  25.392  27.836  1.00  0.00    -0.014 A 
BRANCH  40  41
ATOM     41  C   UNL A   1      41.459  26.604  28.345  1.00  0.00     0.031 A 
ATOM     42  C   UNL A   1      40.713  27.647  29.142  1.00  0.00     0.074 A 
ATOM     43  C   UNL A   1      42.767  26.804  28.077  1.00  0.00     0.049 A 
ATOM     44  N   UNL A   1      41.020  28.899  29.369  1.00  0.00    -0.248 NA
ATOM     45  C   UNL A   1      39.439  27.225  29.743  1.00  0.00     0.031 C 
ATOM     46  C   UNL A   1      43.655  25.860  27.394  1.00  0.00     0.029 A 
ATOM     47  N   UNL A   1      43.581  27.882  28.341  1.00  0.00    -0.354 N 
ATOM     48  C   UNL A   1      39.945  29.437  30.073  1.00  0.00     0.074 A 
ATOM     49  C   UNL A   1      38.981  28.368  30.240  1.00  0.00     0.031 C 
ATOM     50  C   UNL A   1      44.887  26.381  27.322  1.00  0.00     0.029 A 
ATOM     51  C   UNL A   1      44.851  27.745  27.829  1.00  0.00     0.049 A 
ATOM     52  H   UNL A   1      43.284  28.672  28.847  1.00  0.00     0.167 HD
ATOM     53  C   UNL A   1      39.777  30.709  30.519  1.00  0.00     0.034 A 
ATOM     54  C   UNL A   1      45.855  28.635  27.697  1.00  0.00     0.034 A 
ATOM     55  C   UNL A   1      40.782  31.741  30.392  1.00  0.00     0.049 A 
ATOM     56  C   UNL A   1      45.634  30.054  28.140  1.00  0.00     0.074 A 
ATOM     57  C   UNL A   1      40.724  33.062  30.808  1.00  0.00     0.029 A 
ATOM     58  N   UNL A   1      42.038  31.566  29.824  1.00  0.00    -0.354 N 
ATOM     59  N   UNL A   1      44.563  30.593  28.672  1.00  0.00    -0.248 NA
ATOM     60  C   UNL A   1      46.748  30.988  27.939  1.00  0.00     0.031 C 
ATOM     61  C   UNL A   1      41.920  33.695  30.445  1.00  0.00     0.029 A 
ATOM     62  C   UNL A   1      42.754  32.754  29.862  1.00  0.00     0.049 A 
ATOM     63  H   UNL A   1      42.373  30.720  29.447  1.00  0.00     0.167 HD
ATOM     64  C   UNL A   1      44.877  31.932  28.875  1.00  0.00     0.074 A 
ATOM     65  C   UNL A   1      46.243  32.112  28.427  1.00  0.00     0.031 C 
ATOM     66  C   UNL A   1      44.106  32.924  29.387  1.00  0.00     0.034 A 
BRANCH  53  67
ATOM     67  C   UNL A   1      38.433  31.079  31.108  1.00  0.00     0.023 A 
ATOM     68  C   UNL A   1      37.415  31.698  30.360  1.00  0.00     0.031 A 
ATOM     69  C   UNL A   1      38.177  30.807  32.466  1.00  0.00     0.131 A 
ATOM     70  C   UNL A   1      36.213  32.071  30.988  1.00  0.00     0.055 A 
ATOM     71  C   UNL A   1      36.953  31.112  33.065  1.00  0.00     0.041 A 
ATOM     72  F   UNL A   1      39.116  30.239  33.239  1.00  0.00    -0.206 F 
ATOM     73  C   UNL A   1      35.968  31.759  32.328  1.00  0.00     0.022 A 
BRANCH  70  74
ATOM     74  S   UNL A   1      35.014  33.075  30.068  1.00  0.00     0.124 S 
ATOM     75  O   UNL A   1      34.352  32.073  29.236  1.00  0.00    -0.237 OA
ATOM     76  O   UNL A   1      34.206  33.661  31.130  1.00  0.00    -0.237 OA
ATOM     77  O   UNL A   1      35.851  34.021  29.331  1.00  0.00    -0.744 OA
ENDBRANCH  70  74
ENDBRANCH  53  67
BRANCH  54  78
ATOM     78  C   UNL A   1      47.119  28.234  27.014  1.00  0.00     0.023 A 
ATOM     79  C   UNL A   1      47.182  28.110  25.619  1.00  0.00     0.031 A 
ATOM     80  C   UNL A   1      48.284  27.961  27.756  1.00  0.00     0.131 A 
ATOM     81  C   UNL A   1      48.379  27.704  25.009  1.00  0.00     0.055 A 
ATOM     82  C   UNL A   1      49.485  27.611  27.141  1.00  0.00     0.041 A 
ATOM     83  F   UNL A   1      48.276  28.062  29.095  1.00  0.00    -0.206 F 
ATOM     84  C   UNL A   1      49.535  27.472  25.759  1.00  0.00     0.022 A 
BRANCH  81  85
ATOM     85  S   UNL A   1      48.390  27.417  23.218  1.00  0.00     0.124 S 
ATOM     86  O   UNL A   1      48.519  25.966  23.149  1.00  0.00    -0.237 OA
ATOM     87  O   UNL A   1      47.099  27.967  22.814  1.00  0.00    -0.237 OA
ATOM     88  O   UNL A   1      49.556  28.170  22.759  1.00  0.00    -0.744 OA
ENDBRANCH  81  85
ENDBRANCH  54  78
BRANCH  66  89
ATOM     89  C   UNL A   1      44.754  34.278  29.520  1.00  0.00     0.023 A 
ATOM     90  C   UNL A   1      44.685  35.232  28.489  1.00  0.00     0.031 A 
ATOM     91  C   UNL A   1      45.483  34.599  30.677  1.00  0.00     0.131 A 
ATOM     92  C   UNL A   1      45.381  36.444  28.615  1.00  0.00     0.055 A 
ATOM     93  C   UNL A   1      46.133  35.826  30.816  1.00  0.00     0.041 A 
ATOM     94  F   UNL A   1      45.582  33.720  31.687  1.00  0.00    -0.206 F 
ATOM     95  C   UNL A   1      46.094  36.751  29.777  1.00  0.00     0.022 A 
BRANCH  92  96
ATOM     96  S   UNL A   1      45.412  37.584  27.203  1.00  0.00     0.124 S 
ATOM     97  O   UNL A   1      46.290  36.887  26.269  1.00  0.00    -0.237 OA
ATOM     98  O   UNL A   1      44.004  37.654  26.826  1.00  0.00    -0.237 OA
ATOM     99  O   UNL A   1      45.962  38.815  27.769  1.00  0.00    -0.744 OA
ENDBRANCH  92  96
ENDBRANCH  66  89
ENDBRANCH  40  41
ENDBRANCH  33  35
ENDBRANCH  32  33
ENDBRANCH   1  32
TORSDOF 17
ENDMDL
