MODEL 1
REMARK VINA RESULT:     -10.0      0.000      0.000
REMARK SMILES C[C@H](CNC(=O)c1ccc(Br)nc1)C(=O)OCCOC(=O)c1ccc(-c2c3nc(c(-c4cc(S(=O)(=O)[O-])ccc4F)c4ccc([nH]4)c(-c4cc(S(=O)(=O)[O-])ccc4F)c4nc(c(-c5cc(S(=O)(=O)[O-])ccc5F)c5ccc2[nH]5)C=C4)C=C3)cc1
REMARK SMILES IDX 17 1 16 2 14 3 15 4 2 5 1 6 3 7 4 8 5 9 6 11 7 12 8 13 13 14
REMARK SMILES IDX 9 15 12 16 10 17 11 18 18 19 19 20 20 21 21 22 22 23 23 24
REMARK SMILES IDX 84 25 24 26 83 27 25 28 26 29 27 30 77 31 28 32 82 33 76 34
REMARK SMILES IDX 78 35 29 36 81 37 75 38 74 39 30 41 62 42 42 43 61 44 43 45
REMARK SMILES IDX 46 46 60 47 79 48 44 49 45 50 59 52 80 53 47 54 31 55 32 56
REMARK SMILES IDX 40 57 33 58 39 59 41 60 38 61 34 62 35 63 36 64 37 65 63 66
REMARK SMILES IDX 64 67 72 68 65 69 71 70 73 71 70 72 66 73 67 74 68 75 69 76
REMARK SMILES IDX 48 77 49 78 57 79 50 80 56 81 58 82 55 83 51 84 52 85 53 86
REMARK SMILES IDX 54 87
REMARK H PARENT 4 10 78 40 46 51
REMARK Flexibility Score: inf
ROOT
ATOM      1  C   UNL A   1      41.943  20.052  26.709  1.00  0.00     0.274 C 
ENDROOT
BRANCH   1   2
ATOM      2  O   UNL A   1      42.716  20.269  25.510  1.00  0.00    -0.462 OA
BRANCH   2   3
ATOM      3  C   UNL A   1      43.637  19.314  25.212  1.00  0.00     0.310 C 
ATOM      4  O   UNL A   1      43.417  18.109  25.216  1.00  0.00    -0.252 OA
BRANCH   3   5
ATOM      5  C   UNL A   1      45.010  19.883  24.912  1.00  0.00     0.115 C 
ATOM      6  C   UNL A   1      46.082  18.828  25.153  1.00  0.00     0.022 C 
BRANCH   5   7
ATOM      7  C   UNL A   1      45.306  21.225  25.589  1.00  0.00     0.131 C 
BRANCH   7   8
ATOM      8  N   UNL A   1      44.685  22.370  24.938  1.00  0.00    -0.351 N 
ATOM      9  C   UNL A   1      44.056  23.455  25.490  1.00  0.00     0.252 C 
ATOM     10  H   UNL A   1      44.721  22.364  23.954  1.00  0.00     0.163 HD
ATOM     11  O   UNL A   1      43.422  24.240  24.793  1.00  0.00    -0.269 OA
BRANCH   9  12
ATOM     12  C   UNL A   1      44.111  23.664  26.944  1.00  0.00     0.058 A 
ATOM     13  C   UNL A   1      43.015  23.430  27.775  1.00  0.00     0.018 A 
ATOM     14  C   UNL A   1      45.300  24.085  27.516  1.00  0.00     0.126 A 
ATOM     15  C   UNL A   1      43.137  23.688  29.139  1.00  0.00     0.037 A 
ATOM     16  N   UNL A   1      45.447  24.342  28.839  1.00  0.00    -0.249 NA
ATOM     17  C   UNL A   1      44.358  24.146  29.620  1.00  0.00     0.106 A 
ATOM     18  Br  UNL A   1      44.528  24.527  31.469  1.00  0.00    -0.029 Br
ENDBRANCH   9  12
ENDBRANCH   7   8
ENDBRANCH   5   7
ENDBRANCH   3   5
ENDBRANCH   2   3
ENDBRANCH   1   2
BRANCH   1  19
ATOM     19  C   UNL A   1      40.474  20.435  26.505  1.00  0.00     0.275 C 
BRANCH  19  20
ATOM     20  O   UNL A   1      40.157  21.677  27.159  1.00  0.00    -0.458 OA
BRANCH  20  21
ATOM     21  C   UNL A   1      39.314  22.482  26.473  1.00  0.00     0.338 C 
ATOM     22  O   UNL A   1      38.439  22.142  25.696  1.00  0.00    -0.246 OA
BRANCH  21  23
ATOM     23  C   UNL A   1      39.520  23.879  26.882  1.00  0.00     0.060 A 
ATOM     24  C   UNL A   1      40.064  24.773  25.956  1.00  0.00     0.016 A 
ATOM     25  C   UNL A   1      39.279  24.273  28.198  1.00  0.00     0.016 A 
ATOM     26  C   UNL A   1      40.385  26.070  26.345  1.00  0.00     0.010 A 
ATOM     27  C   UNL A   1      39.596  25.578  28.585  1.00  0.00     0.010 A 
ATOM     28  C   UNL A   1      40.167  26.478  27.666  1.00  0.00    -0.014 A 
BRANCH  28  29
ATOM     29  C   UNL A   1      40.606  27.819  28.120  1.00  0.00     0.031 A 
ATOM     30  C   UNL A   1      42.074  28.115  28.229  1.00  0.00     0.074 A 
ATOM     31  C   UNL A   1      39.697  28.757  28.442  1.00  0.00     0.049 A 
ATOM     32  N   UNL A   1      42.677  29.149  28.754  1.00  0.00    -0.248 NA
ATOM     33  C   UNL A   1      42.981  27.099  27.678  1.00  0.00     0.031 C 
ATOM     34  C   UNL A   1      38.247  28.604  28.319  1.00  0.00     0.029 A 
ATOM     35  N   UNL A   1      39.860  30.019  28.954  1.00  0.00    -0.354 N 
ATOM     36  C   UNL A   1      44.039  28.899  28.622  1.00  0.00     0.074 A 
ATOM     37  C   UNL A   1      44.167  27.605  27.984  1.00  0.00     0.031 C 
ATOM     38  C   UNL A   1      37.651  29.724  28.762  1.00  0.00     0.029 A 
ATOM     39  C   UNL A   1      38.673  30.646  29.250  1.00  0.00     0.049 A 
ATOM     40  H   UNL A   1      40.741  30.435  29.095  1.00  0.00     0.167 HD
ATOM     41  C   UNL A   1      45.083  29.680  29.001  1.00  0.00     0.034 A 
ATOM     42  C   UNL A   1      38.438  31.810  29.887  1.00  0.00     0.034 A 
ATOM     43  C   UNL A   1      44.930  30.964  29.639  1.00  0.00     0.049 A 
ATOM     44  C   UNL A   1      39.607  32.629  30.369  1.00  0.00     0.074 A 
ATOM     45  C   UNL A   1      45.912  31.839  30.072  1.00  0.00     0.029 A 
ATOM     46  N   UNL A   1      43.710  31.559  29.945  1.00  0.00    -0.354 N 
ATOM     47  N   UNL A   1      40.892  32.368  30.276  1.00  0.00    -0.248 NA
ATOM     48  C   UNL A   1      39.296  33.895  31.044  1.00  0.00     0.031 C 
ATOM     49  C   UNL A   1      45.289  32.931  30.688  1.00  0.00     0.029 A 
ATOM     50  C   UNL A   1      43.917  32.774  30.580  1.00  0.00     0.049 A 
ATOM     51  H   UNL A   1      42.829  31.173  29.740  1.00  0.00     0.167 HD
ATOM     52  C   UNL A   1      41.542  33.451  30.861  1.00  0.00     0.074 A 
ATOM     53  C   UNL A   1      40.508  34.370  31.296  1.00  0.00     0.031 C 
ATOM     54  C   UNL A   1      42.872  33.671  31.017  1.00  0.00     0.034 A 
BRANCH  41  55
ATOM     55  C   UNL A   1      46.469  29.121  28.790  1.00  0.00     0.023 A 
ATOM     56  C   UNL A   1      47.047  29.033  27.512  1.00  0.00     0.031 A 
ATOM     57  C   UNL A   1      47.200  28.612  29.879  1.00  0.00     0.131 A 
ATOM     58  C   UNL A   1      48.277  28.379  27.343  1.00  0.00     0.055 A 
ATOM     59  C   UNL A   1      48.460  28.035  29.714  1.00  0.00     0.041 A 
ATOM     60  F   UNL A   1      46.690  28.648  31.120  1.00  0.00    -0.206 F 
ATOM     61  C   UNL A   1      48.998  27.899  28.438  1.00  0.00     0.022 A 
BRANCH  58  62
ATOM     62  S   UNL A   1      48.843  28.019  25.656  1.00  0.00     0.124 S 
ATOM     63  O   UNL A   1      49.165  26.597  25.748  1.00  0.00    -0.237 OA
ATOM     64  O   UNL A   1      47.674  28.359  24.853  1.00  0.00    -0.237 OA
ATOM     65  O   UNL A   1      49.996  28.901  25.486  1.00  0.00    -0.744 OA
ENDBRANCH  58  62
ENDBRANCH  41  55
BRANCH  42  66
ATOM     66  C   UNL A   1      37.039  32.241  30.162  1.00  0.00     0.023 A 
ATOM     67  C   UNL A   1      36.279  32.909  29.189  1.00  0.00     0.031 A 
ATOM     68  C   UNL A   1      36.450  32.008  31.418  1.00  0.00     0.131 A 
ATOM     69  C   UNL A   1      34.982  33.347  29.499  1.00  0.00     0.055 A 
ATOM     70  C   UNL A   1      35.145  32.406  31.705  1.00  0.00     0.041 A 
ATOM     71  F   UNL A   1      37.135  31.371  32.381  1.00  0.00    -0.206 F 
ATOM     72  C   UNL A   1      34.406  33.090  30.745  1.00  0.00     0.022 A 
BRANCH  69  73
ATOM     73  S   UNL A   1      34.074  34.314  28.262  1.00  0.00     0.124 S 
ATOM     74  O   UNL A   1      35.110  34.574  27.268  1.00  0.00    -0.237 OA
ATOM     75  O   UNL A   1      33.021  33.387  27.864  1.00  0.00    -0.237 OA
ATOM     76  O   UNL A   1      33.620  35.485  29.011  1.00  0.00    -0.744 OA
ENDBRANCH  69  73
ENDBRANCH  42  66
BRANCH  54  77
ATOM     77  C   UNL A   1      43.276  34.982  31.641  1.00  0.00     0.023 A 
ATOM     78  C   UNL A   1      43.315  35.159  33.035  1.00  0.00     0.031 A 
ATOM     79  C   UNL A   1      43.621  36.072  30.822  1.00  0.00     0.131 A 
ATOM     80  C   UNL A   1      43.647  36.415  33.568  1.00  0.00     0.055 A 
ATOM     81  C   UNL A   1      43.998  37.303  31.359  1.00  0.00     0.041 A 
ATOM     82  F   UNL A   1      43.600  35.954  29.485  1.00  0.00    -0.206 F 
ATOM     83  C   UNL A   1      44.001  37.483  32.739  1.00  0.00     0.022 A 
BRANCH  80  84
ATOM     84  S   UNL A   1      43.540  36.656  35.363  1.00  0.00     0.124 S 
ATOM     85  O   UNL A   1      43.801  38.085  35.493  1.00  0.00    -0.237 OA
ATOM     86  O   UNL A   1      42.176  36.227  35.655  1.00  0.00    -0.237 OA
ATOM     87  O   UNL A   1      44.589  35.784  35.889  1.00  0.00    -0.744 OA
ENDBRANCH  80  84
ENDBRANCH  54  77
ENDBRANCH  28  29
ENDBRANCH  21  23
ENDBRANCH  20  21
ENDBRANCH  19  20
ENDBRANCH   1  19
TORSDOF 17
ENDMDL
MODEL 2
REMARK VINA RESULT:      -9.9      4.512      9.852
REMARK SMILES C[C@H](CNC(=O)c1ccc(Br)nc1)C(=O)OCCOC(=O)c1ccc(-c2c3nc(c(-c4cc(S(=O)(=O)[O-])ccc4F)c4ccc([nH]4)c(-c4cc(S(=O)(=O)[O-])ccc4F)c4nc(c(-c5cc(S(=O)(=O)[O-])ccc5F)c5ccc2[nH]5)C=C4)C=C3)cc1
REMARK SMILES IDX 17 1 16 2 14 3 15 4 2 5 1 6 3 7 4 8 5 9 6 11 7 12 8 13 13 14
REMARK SMILES IDX 9 15 12 16 10 17 11 18 18 19 19 20 20 21 21 22 22 23 23 24
REMARK SMILES IDX 84 25 24 26 83 27 25 28 26 29 27 30 77 31 28 32 82 33 76 34
REMARK SMILES IDX 78 35 29 36 81 37 75 38 74 39 30 41 62 42 42 43 61 44 43 45
REMARK SMILES IDX 46 46 60 47 79 48 44 49 45 50 59 52 80 53 47 54 31 55 32 56
REMARK SMILES IDX 40 57 33 58 39 59 41 60 38 61 34 62 35 63 36 64 37 65 63 66
REMARK SMILES IDX 64 67 72 68 65 69 71 70 73 71 70 72 66 73 67 74 68 75 69 76
REMARK SMILES IDX 48 77 49 78 57 79 50 80 56 81 58 82 55 83 51 84 52 85 53 86
REMARK SMILES IDX 54 87
REMARK H PARENT 4 10 78 40 46 51
REMARK Flexibility Score: inf
ROOT
ATOM      1  C   UNL A   1      35.843  21.287  24.534  1.00  0.00     0.274 C 
ENDROOT
BRANCH   1   2
ATOM      2  O   UNL A   1      34.879  20.315  24.989  1.00  0.00    -0.462 OA
BRANCH   2   3
ATOM      3  C   UNL A   1      33.897  20.783  25.804  1.00  0.00     0.310 C 
ATOM      4  O   UNL A   1      34.089  21.311  26.892  1.00  0.00    -0.252 OA
BRANCH   3   5
ATOM      5  C   UNL A   1      32.503  20.547  25.255  1.00  0.00     0.115 C 
ATOM      6  C   UNL A   1      32.565  19.638  24.033  1.00  0.00     0.022 C 
BRANCH   5   7
ATOM      7  C   UNL A   1      31.682  21.820  25.031  1.00  0.00     0.131 C 
BRANCH   7   8
ATOM      8  N   UNL A   1      30.635  22.036  26.020  1.00  0.00    -0.351 N 
ATOM      9  C   UNL A   1      30.297  23.175  26.701  1.00  0.00     0.252 C 
ATOM     10  H   UNL A   1      30.089  21.245  26.231  1.00  0.00     0.163 HD
ATOM     11  O   UNL A   1      29.508  23.140  27.639  1.00  0.00    -0.269 OA
BRANCH   9  12
ATOM     12  C   UNL A   1      30.915  24.456  26.327  1.00  0.00     0.058 A 
ATOM     13  C   UNL A   1      30.172  25.532  25.844  1.00  0.00     0.018 A 
ATOM     14  C   UNL A   1      32.283  24.611  26.486  1.00  0.00     0.126 A 
ATOM     15  C   UNL A   1      30.837  26.701  25.477  1.00  0.00     0.037 A 
ATOM     16  N   UNL A   1      32.955  25.736  26.140  1.00  0.00    -0.249 NA
ATOM     17  C   UNL A   1      32.218  26.753  25.634  1.00  0.00     0.106 A 
ATOM     18  Br  UNL A   1      33.138  28.326  25.114  1.00  0.00    -0.029 Br
ENDBRANCH   9  12
ENDBRANCH   7   8
ENDBRANCH   5   7
ENDBRANCH   3   5
ENDBRANCH   2   3
ENDBRANCH   1   2
BRANCH   1  19
ATOM     19  C   UNL A   1      37.278  20.816  24.790  1.00  0.00     0.275 C 
BRANCH  19  20
ATOM     20  O   UNL A   1      37.784  21.318  26.039  1.00  0.00    -0.458 OA
BRANCH  20  21
ATOM     21  C   UNL A   1      39.122  21.205  26.198  1.00  0.00     0.338 C 
ATOM     22  O   UNL A   1      39.829  20.277  25.849  1.00  0.00    -0.246 OA
BRANCH  21  23
ATOM     23  C   UNL A   1      39.660  22.448  26.769  1.00  0.00     0.060 A 
ATOM     24  C   UNL A   1      39.186  23.668  26.278  1.00  0.00     0.016 A 
ATOM     25  C   UNL A   1      40.695  22.408  27.702  1.00  0.00     0.016 A 
ATOM     26  C   UNL A   1      39.759  24.862  26.708  1.00  0.00     0.010 A 
ATOM     27  C   UNL A   1      41.264  23.609  28.138  1.00  0.00     0.010 A 
ATOM     28  C   UNL A   1      40.811  24.840  27.631  1.00  0.00    -0.014 A 
BRANCH  28  29
ATOM     29  C   UNL A   1      41.501  26.096  28.013  1.00  0.00     0.031 A 
ATOM     30  C   UNL A   1      40.738  27.159  28.750  1.00  0.00     0.074 A 
ATOM     31  C   UNL A   1      42.793  26.285  27.691  1.00  0.00     0.049 A 
ATOM     32  N   UNL A   1      41.087  28.386  29.034  1.00  0.00    -0.248 NA
ATOM     33  C   UNL A   1      39.397  26.784  29.220  1.00  0.00     0.031 C 
ATOM     34  C   UNL A   1      43.650  25.300  27.030  1.00  0.00     0.029 A 
ATOM     35  N   UNL A   1      43.605  27.376  27.864  1.00  0.00    -0.354 N 
ATOM     36  C   UNL A   1      39.998  28.944  29.695  1.00  0.00     0.074 A 
ATOM     37  C   UNL A   1      38.972  27.923  29.749  1.00  0.00     0.031 C 
ATOM     38  C   UNL A   1      44.865  25.840  26.836  1.00  0.00     0.029 A 
ATOM     39  C   UNL A   1      44.852  27.223  27.307  1.00  0.00     0.049 A 
ATOM     40  H   UNL A   1      43.322  28.190  28.340  1.00  0.00     0.167 HD
ATOM     41  C   UNL A   1      39.869  30.195  30.207  1.00  0.00     0.034 A 
ATOM     42  C   UNL A   1      45.853  28.112  27.151  1.00  0.00     0.034 A 
ATOM     43  C   UNL A   1      40.904  31.198  30.136  1.00  0.00     0.049 A 
ATOM     44  C   UNL A   1      45.665  29.519  27.657  1.00  0.00     0.074 A 
ATOM     45  C   UNL A   1      40.885  32.497  30.613  1.00  0.00     0.029 A 
ATOM     46  N   UNL A   1      42.149  31.014  29.544  1.00  0.00    -0.354 N 
ATOM     47  N   UNL A   1      44.618  30.052  28.245  1.00  0.00    -0.248 NA
ATOM     48  C   UNL A   1      46.790  30.444  27.475  1.00  0.00     0.031 C 
ATOM     49  C   UNL A   1      42.091  33.115  30.259  1.00  0.00     0.029 A 
ATOM     50  C   UNL A   1      42.892  32.181  29.622  1.00  0.00     0.049 A 
ATOM     51  H   UNL A   1      42.456  30.176  29.129  1.00  0.00     0.167 HD
ATOM     52  C   UNL A   1      44.969  31.369  28.525  1.00  0.00     0.074 A 
ATOM     53  C   UNL A   1      46.327  31.547  28.047  1.00  0.00     0.031 C 
ATOM     54  C   UNL A   1      44.240  32.342  29.128  1.00  0.00     0.034 A 
BRANCH  41  55
ATOM     55  C   UNL A   1      38.536  30.552  30.820  1.00  0.00     0.023 A 
ATOM     56  C   UNL A   1      37.514  31.157  30.069  1.00  0.00     0.031 A 
ATOM     57  C   UNL A   1      38.309  30.338  32.191  1.00  0.00     0.131 A 
ATOM     58  C   UNL A   1      36.346  31.602  30.709  1.00  0.00     0.055 A 
ATOM     59  C   UNL A   1      37.111  30.710  32.805  1.00  0.00     0.041 A 
ATOM     60  F   UNL A   1      39.258  29.785  32.963  1.00  0.00    -0.206 F 
ATOM     61  C   UNL A   1      36.128  31.361  32.067  1.00  0.00     0.022 A 
BRANCH  58  62
ATOM     62  S   UNL A   1      35.188  32.641  29.775  1.00  0.00     0.124 S 
ATOM     63  O   UNL A   1      36.077  33.674  29.246  1.00  0.00    -0.237 OA
ATOM     64  O   UNL A   1      34.644  31.706  28.797  1.00  0.00    -0.237 OA
ATOM     65  O   UNL A   1      34.245  33.103  30.790  1.00  0.00    -0.744 OA
ENDBRANCH  58  62
ENDBRANCH  41  55
BRANCH  42  66
ATOM     66  C   UNL A   1      47.096  27.719  26.432  1.00  0.00     0.023 A 
ATOM     67  C   UNL A   1      47.219  27.887  25.044  1.00  0.00     0.031 A 
ATOM     68  C   UNL A   1      48.176  27.146  27.128  1.00  0.00     0.131 A 
ATOM     69  C   UNL A   1      48.385  27.458  24.391  1.00  0.00     0.055 A 
ATOM     70  C   UNL A   1      49.350  26.762  26.480  1.00  0.00     0.041 A 
ATOM     71  F   UNL A   1      48.109  26.966  28.457  1.00  0.00    -0.206 F 
ATOM     72  C   UNL A   1      49.455  26.908  25.101  1.00  0.00     0.022 A 
BRANCH  69  73
ATOM     73  S   UNL A   1      48.460  27.576  22.583  1.00  0.00     0.124 S 
ATOM     74  O   UNL A   1      49.695  28.326  22.385  1.00  0.00    -0.237 OA
ATOM     75  O   UNL A   1      48.490  26.173  22.187  1.00  0.00    -0.237 OA
ATOM     76  O   UNL A   1      47.233  28.292  22.238  1.00  0.00    -0.744 OA
ENDBRANCH  69  73
ENDBRANCH  42  66
BRANCH  54  77
ATOM     77  C   UNL A   1      44.924  33.667  29.348  1.00  0.00     0.023 A 
ATOM     78  C   UNL A   1      44.780  34.735  28.447  1.00  0.00     0.031 A 
ATOM     79  C   UNL A   1      45.740  33.857  30.478  1.00  0.00     0.131 A 
ATOM     80  C   UNL A   1      45.478  35.932  28.667  1.00  0.00     0.055 A 
ATOM     81  C   UNL A   1      46.394  35.066  30.718  1.00  0.00     0.041 A 
ATOM     82  F   UNL A   1      45.912  32.868  31.370  1.00  0.00    -0.206 F 
ATOM     83  C   UNL A   1      46.273  36.109  29.803  1.00  0.00     0.022 A 
BRANCH  80  84
ATOM     84  S   UNL A   1      45.393  37.237  27.409  1.00  0.00     0.124 S 
ATOM     85  O   UNL A   1      43.995  37.171  26.997  1.00  0.00    -0.237 OA
ATOM     86  O   UNL A   1      45.780  38.425  28.164  1.00  0.00    -0.237 OA
ATOM     87  O   UNL A   1      46.358  36.804  26.400  1.00  0.00    -0.744 OA
ENDBRANCH  80  84
ENDBRANCH  54  77
ENDBRANCH  28  29
ENDBRANCH  21  23
ENDBRANCH  20  21
ENDBRANCH  19  20
ENDBRANCH   1  19
TORSDOF 17
ENDMDL
MODEL 3
REMARK VINA RESULT:      -9.8      5.737      9.209
REMARK SMILES C[C@H](CNC(=O)c1ccc(Br)nc1)C(=O)OCCOC(=O)c1ccc(-c2c3nc(c(-c4cc(S(=O)(=O)[O-])ccc4F)c4ccc([nH]4)c(-c4cc(S(=O)(=O)[O-])ccc4F)c4nc(c(-c5cc(S(=O)(=O)[O-])ccc5F)c5ccc2[nH]5)C=C4)C=C3)cc1
REMARK SMILES IDX 17 1 16 2 14 3 15 4 2 5 1 6 3 7 4 8 5 9 6 11 7 12 8 13 13 14
REMARK SMILES IDX 9 15 12 16 10 17 11 18 18 19 19 20 20 21 21 22 22 23 23 24
REMARK SMILES IDX 84 25 24 26 83 27 25 28 26 29 27 30 77 31 28 32 82 33 76 34
REMARK SMILES IDX 78 35 29 36 81 37 75 38 74 39 30 41 62 42 42 43 61 44 43 45
REMARK SMILES IDX 46 46 60 47 79 48 44 49 45 50 59 52 80 53 47 54 31 55 32 56
REMARK SMILES IDX 40 57 33 58 39 59 41 60 38 61 34 62 35 63 36 64 37 65 63 66
REMARK SMILES IDX 64 67 72 68 65 69 71 70 73 71 70 72 66 73 67 74 68 75 69 76
REMARK SMILES IDX 48 77 49 78 57 79 50 80 56 81 58 82 55 83 51 84 52 85 53 86
REMARK SMILES IDX 54 87
REMARK H PARENT 4 10 78 40 46 51
REMARK Flexibility Score: inf
ROOT
ATOM      1  C   UNL A   1      32.076  28.965  25.061  1.00  0.00     0.274 C 
ENDROOT
BRANCH   1   2
ATOM      2  O   UNL A   1      32.748  28.054  25.955  1.00  0.00    -0.462 OA
BRANCH   2   3
ATOM      3  C   UNL A   1      32.012  27.001  26.400  1.00  0.00     0.310 C 
ATOM      4  O   UNL A   1      31.017  27.098  27.109  1.00  0.00    -0.252 OA
BRANCH   3   5
ATOM      5  C   UNL A   1      32.569  25.658  25.969  1.00  0.00     0.115 C 
ATOM      6  C   UNL A   1      34.060  25.776  25.675  1.00  0.00     0.022 C 
BRANCH   5   7
ATOM      7  C   UNL A   1      31.778  24.968  24.854  1.00  0.00     0.131 C 
BRANCH   7   8
ATOM      8  N   UNL A   1      32.384  25.080  23.535  1.00  0.00    -0.351 N 
ATOM      9  C   UNL A   1      33.038  24.134  22.791  1.00  0.00     0.252 C 
ATOM     10  H   UNL A   1      32.315  25.967  23.116  1.00  0.00     0.163 HD
ATOM     11  O   UNL A   1      33.655  24.444  21.776  1.00  0.00    -0.269 OA
BRANCH   9  12
ATOM     12  C   UNL A   1      33.035  22.732  23.230  1.00  0.00     0.058 A 
ATOM     13  C   UNL A   1      32.113  21.800  22.752  1.00  0.00     0.018 A 
ATOM     14  C   UNL A   1      33.997  22.310  24.134  1.00  0.00     0.126 A 
ATOM     15  C   UNL A   1      32.153  20.498  23.246  1.00  0.00     0.037 A 
ATOM     16  N   UNL A   1      34.060  21.051  24.629  1.00  0.00    -0.249 NA
ATOM     17  C   UNL A   1      33.130  20.174  24.182  1.00  0.00     0.106 A 
ATOM     18  Br  UNL A   1      33.177  18.414  24.882  1.00  0.00    -0.029 Br
ENDBRANCH   9  12
ENDBRANCH   7   8
ENDBRANCH   5   7
ENDBRANCH   3   5
ENDBRANCH   2   3
ENDBRANCH   1   2
BRANCH   1  19
ATOM     19  C   UNL A   1      31.770  30.299  25.746  1.00  0.00     0.275 C 
BRANCH  19  20
ATOM     20  O   UNL A   1      32.403  30.389  27.035  1.00  0.00    -0.458 OA
BRANCH  20  21
ATOM     21  C   UNL A   1      33.093  31.532  27.252  1.00  0.00     0.338 C 
ATOM     22  O   UNL A   1      32.684  32.673  27.133  1.00  0.00    -0.246 OA
BRANCH  21  23
ATOM     23  C   UNL A   1      34.427  31.212  27.780  1.00  0.00     0.060 A 
ATOM     24  C   UNL A   1      34.695  29.894  28.161  1.00  0.00     0.016 A 
ATOM     25  C   UNL A   1      35.363  32.222  27.998  1.00  0.00     0.016 A 
ATOM     26  C   UNL A   1      35.903  29.579  28.778  1.00  0.00     0.010 A 
ATOM     27  C   UNL A   1      36.578  31.902  28.611  1.00  0.00     0.010 A 
ATOM     28  C   UNL A   1      36.847  30.583  29.020  1.00  0.00    -0.014 A 
BRANCH  28  29
ATOM     29  C   UNL A   1      38.088  30.281  29.773  1.00  0.00     0.031 A 
ATOM     30  C   UNL A   1      39.086  29.320  29.192  1.00  0.00     0.074 A 
ATOM     31  C   UNL A   1      38.312  30.854  30.969  1.00  0.00     0.049 A 
ATOM     32  N   UNL A   1      40.145  28.789  29.742  1.00  0.00    -0.248 NA
ATOM     33  C   UNL A   1      38.844  28.897  27.805  1.00  0.00     0.031 C 
ATOM     34  C   UNL A   1      37.444  31.846  31.604  1.00  0.00     0.029 A 
ATOM     35  N   UNL A   1      39.329  30.670  31.870  1.00  0.00    -0.354 N 
ATOM     36  C   UNL A   1      40.688  27.945  28.779  1.00  0.00     0.074 A 
ATOM     37  C   UNL A   1      39.824  28.025  27.619  1.00  0.00     0.031 C 
ATOM     38  C   UNL A   1      37.958  32.170  32.803  1.00  0.00     0.029 A 
ATOM     39  C   UNL A   1      39.155  31.368  33.041  1.00  0.00     0.049 A 
ATOM     40  H   UNL A   1      40.108  30.093  31.695  1.00  0.00     0.167 HD
ATOM     41  C   UNL A   1      41.803  27.175  28.860  1.00  0.00     0.034 A 
ATOM     42  C   UNL A   1      39.855  31.329  34.192  1.00  0.00     0.034 A 
ATOM     43  C   UNL A   1      42.645  27.109  30.029  1.00  0.00     0.049 A 
ATOM     44  C   UNL A   1      41.046  30.412  34.291  1.00  0.00     0.074 A 
ATOM     45  C   UNL A   1      43.794  26.362  30.228  1.00  0.00     0.029 A 
ATOM     46  N   UNL A   1      42.425  27.815  31.207  1.00  0.00    -0.354 N 
ATOM     47  N   UNL A   1      41.530  29.587  33.390  1.00  0.00    -0.248 NA
ATOM     48  C   UNL A   1      41.782  30.417  35.561  1.00  0.00     0.031 C 
ATOM     49  C   UNL A   1      44.234  26.571  31.541  1.00  0.00     0.029 A 
ATOM     50  C   UNL A   1      43.401  27.502  32.141  1.00  0.00     0.049 A 
ATOM     51  H   UNL A   1      41.684  28.445  31.356  1.00  0.00     0.167 HD
ATOM     52  C   UNL A   1      42.643  28.993  33.979  1.00  0.00     0.074 A 
ATOM     53  C   UNL A   1      42.761  29.560  35.309  1.00  0.00     0.031 C 
ATOM     54  C   UNL A   1      43.495  28.069  33.466  1.00  0.00     0.034 A 
BRANCH  41  55
ATOM     55  C   UNL A   1      42.121  26.300  27.671  1.00  0.00     0.023 A 
ATOM     56  C   UNL A   1      41.640  24.984  27.570  1.00  0.00     0.031 A 
ATOM     57  C   UNL A   1      42.968  26.772  26.652  1.00  0.00     0.131 A 
ATOM     58  C   UNL A   1      42.075  24.159  26.520  1.00  0.00     0.055 A 
ATOM     59  C   UNL A   1      43.331  25.972  25.568  1.00  0.00     0.041 A 
ATOM     60  F   UNL A   1      43.476  28.014  26.707  1.00  0.00    -0.206 F 
ATOM     61  C   UNL A   1      42.898  24.651  25.507  1.00  0.00     0.022 A 
BRANCH  58  62
ATOM     62  S   UNL A   1      41.678  22.389  26.588  1.00  0.00     0.124 S 
ATOM     63  O   UNL A   1      42.335  21.985  27.830  1.00  0.00    -0.237 OA
ATOM     64  O   UNL A   1      40.220  22.394  26.611  1.00  0.00    -0.237 OA
ATOM     65  O   UNL A   1      42.283  21.854  25.371  1.00  0.00    -0.744 OA
ENDBRANCH  58  62
ENDBRANCH  41  55
BRANCH  42  66
ATOM     66  C   UNL A   1      39.412  32.135  35.363  1.00  0.00     0.023 A 
ATOM     67  C   UNL A   1      38.687  31.555  36.414  1.00  0.00     0.031 A 
ATOM     68  C   UNL A   1      39.693  33.513  35.433  1.00  0.00     0.131 A 
ATOM     69  C   UNL A   1      38.241  32.355  37.478  1.00  0.00     0.055 A 
ATOM     70  C   UNL A   1      39.285  34.294  36.514  1.00  0.00     0.041 A 
ATOM     71  F   UNL A   1      40.385  34.115  34.453  1.00  0.00    -0.206 F 
ATOM     72  C   UNL A   1      38.546  33.716  37.541  1.00  0.00     0.022 A 
BRANCH  69  73
ATOM     73  S   UNL A   1      37.203  31.597  38.758  1.00  0.00     0.124 S 
ATOM     74  O   UNL A   1      37.021  30.248  38.233  1.00  0.00    -0.237 OA
ATOM     75  O   UNL A   1      38.045  31.717  39.943  1.00  0.00    -0.237 OA
ATOM     76  O   UNL A   1      36.004  32.433  38.761  1.00  0.00    -0.744 OA
ENDBRANCH  69  73
ENDBRANCH  42  66
BRANCH  54  77
ATOM     77  C   UNL A   1      44.657  27.659  34.334  1.00  0.00     0.023 A 
ATOM     78  C   UNL A   1      44.627  26.486  35.108  1.00  0.00     0.031 A 
ATOM     79  C   UNL A   1      45.809  28.463  34.390  1.00  0.00     0.131 A 
ATOM     80  C   UNL A   1      45.713  26.174  35.941  1.00  0.00     0.055 A 
ATOM     81  C   UNL A   1      46.905  28.122  35.183  1.00  0.00     0.041 A 
ATOM     82  F   UNL A   1      45.888  29.594  33.671  1.00  0.00    -0.206 F 
ATOM     83  C   UNL A   1      46.856  26.977  35.973  1.00  0.00     0.022 A 
BRANCH  80  84
ATOM     84  S   UNL A   1      45.583  24.737  37.041  1.00  0.00     0.124 S 
ATOM     85  O   UNL A   1      45.566  25.364  38.358  1.00  0.00    -0.237 OA
ATOM     86  O   UNL A   1      44.330  24.125  36.609  1.00  0.00    -0.237 OA
ATOM     87  O   UNL A   1      46.785  23.963  36.738  1.00  0.00    -0.744 OA
ENDBRANCH  80  84
ENDBRANCH  54  77
ENDBRANCH  28  29
ENDBRANCH  21  23
ENDBRANCH  20  21
ENDBRANCH  19  20
ENDBRANCH   1  19
TORSDOF 17
ENDMDL
