MODEL 1
REMARK VINA RESULT:     -10.2      0.000      0.000
REMARK SMILES COc1ccc(Br)cc1CNc1ccc(N2CCOCC2)c(C(=O)OCCOC(=O)c2ccc(-c3c4nc(c(-c5cc(S(=O)(=O)[O-])ccc5F)c5ccc([nH]5)c(-c5cc(S(=O)(=O)[O-])ccc5F)c5nc(c(-c6cc(S(=O)(=O)[O-])ccc6F)c6ccc3[nH]6)C=C5)C=C4)cc2)c1
REMARK SMILES IDX 26 1 25 2 23 3 24 4 22 5 12 6 13 7 94 8 14 9 15 10 11 11
REMARK SMILES IDX 10 13 9 14 3 15 4 16 5 17 8 18 6 19 7 20 2 21 1 22 16 23
REMARK SMILES IDX 17 24 21 25 18 26 20 27 19 28 27 29 28 30 29 31 30 32 31 33
REMARK SMILES IDX 32 34 93 35 33 36 92 37 34 38 35 39 36 40 86 41 37 42 91 43
REMARK SMILES IDX 85 44 87 45 38 46 90 47 84 48 83 49 39 51 71 52 51 53 70 54
REMARK SMILES IDX 52 55 55 56 69 57 88 58 53 59 54 60 68 62 89 63 56 64 40 65
REMARK SMILES IDX 41 66 49 67 42 68 48 69 50 70 47 71 43 72 44 73 45 74 46 75
REMARK SMILES IDX 72 76 73 77 81 78 74 79 80 80 82 81 79 82 75 83 76 84 77 85
REMARK SMILES IDX 78 86 57 87 58 88 66 89 59 90 65 91 67 92 64 93 60 94 61 95
REMARK SMILES IDX 62 96 63 97
REMARK H PARENT 11 12 87 50 55 61
REMARK Flexibility Score: inf
ROOT
ATOM      1  C   UNL A   1      42.926  21.887  26.156  1.00  0.00     0.275 C 
ENDROOT
BRANCH   1   2
ATOM      2  O   UNL A   1      41.541  21.933  25.757  1.00  0.00    -0.458 OA
BRANCH   2   3
ATOM      3  C   UNL A   1      40.621  21.884  26.757  1.00  0.00     0.340 C 
ATOM      4  O   UNL A   1      40.720  21.238  27.788  1.00  0.00    -0.246 OA
BRANCH   3   5
ATOM      5  C   UNL A   1      39.391  22.570  26.311  1.00  0.00     0.085 A 
ATOM      6  C   UNL A   1      37.116  21.972  25.661  1.00  0.00     0.035 A 
ATOM      7  C   UNL A   1      36.768  23.312  25.836  1.00  0.00     0.028 A 
ATOM      8  C   UNL A   1      38.447  21.639  25.846  1.00  0.00     0.043 A 
ATOM      9  C   UNL A   1      37.720  24.273  26.234  1.00  0.00     0.029 A 
ATOM     10  C   UNL A   1      39.049  23.925  26.516  1.00  0.00     0.052 A 
BRANCH   6  11
ATOM     11  N   UNL A   1      36.151  21.007  25.454  1.00  0.00    -0.381 N 
ATOM     12  H   UNL A   1      36.434  20.124  25.123  1.00  0.00     0.160 HD
BRANCH  11  13
ATOM     13  C   UNL A   1      34.733  21.235  25.704  1.00  0.00     0.152 C 
BRANCH  13  14
ATOM     14  C   UNL A   1      33.913  20.391  24.763  1.00  0.00     0.014 A 
ATOM     15  C   UNL A   1      32.881  20.934  23.986  1.00  0.00     0.123 A 
ATOM     16  C   UNL A   1      32.136  20.111  23.136  1.00  0.00     0.048 A 
ATOM     17  C   UNL A   1      32.417  18.743  23.057  1.00  0.00     0.019 A 
ATOM     18  C   UNL A   1      34.212  19.020  24.645  1.00  0.00     0.025 A 
ATOM     19  C   UNL A   1      33.462  18.206  23.802  1.00  0.00     0.018 A 
ATOM     20  Br  UNL A   1      33.875  16.369  23.660  1.00  0.00    -0.051 Br
BRANCH  15  21
ATOM     21  O   UNL A   1      32.707  22.291  24.009  1.00  0.00    -0.496 OA
ATOM     22  C   UNL A   1      32.648  22.875  22.711  1.00  0.00     0.278 C 
ENDBRANCH  15  21
ENDBRANCH  13  14
ENDBRANCH  11  13
ENDBRANCH   6  11
BRANCH  10  23
ATOM     23  N   UNL A   1      39.843  24.897  27.137  1.00  0.00    -0.366 N 
ATOM     24  C   UNL A   1      39.391  25.615  28.809  1.00  0.00     0.145 C 
ATOM     25  C   UNL A   1      40.792  25.783  26.023  1.00  0.00     0.145 C 
ATOM     26  C   UNL A   1      39.770  27.787  28.985  1.00  0.00     0.181 C 
ATOM     27  C   UNL A   1      41.049  27.595  26.193  1.00  0.00     0.181 C 
ATOM     28  O   UNL A   1      40.603  28.529  27.532  1.00  0.00    -0.378 OA
ENDBRANCH  10  23
ENDBRANCH   3   5
ENDBRANCH   2   3
ENDBRANCH   1   2
BRANCH   1  29
ATOM     29  C   UNL A   1      43.751  22.653  25.130  1.00  0.00     0.275 C 
BRANCH  29  30
ATOM     30  O   UNL A   1      44.949  23.090  25.791  1.00  0.00    -0.458 OA
BRANCH  30  31
ATOM     31  C   UNL A   1      45.710  23.899  25.032  1.00  0.00     0.338 C 
ATOM     32  O   UNL A   1      46.182  23.676  23.931  1.00  0.00    -0.246 OA
BRANCH  31  33
ATOM     33  C   UNL A   1      45.894  25.185  25.690  1.00  0.00     0.060 A 
ATOM     34  C   UNL A   1      46.968  25.446  27.055  1.00  0.00     0.016 A 
ATOM     35  C   UNL A   1      44.740  26.407  25.357  1.00  0.00     0.016 A 
ATOM     36  C   UNL A   1      46.726  27.069  28.139  1.00  0.00     0.010 A 
ATOM     37  C   UNL A   1      44.574  27.851  26.274  1.00  0.00     0.010 A 
ATOM     38  C   UNL A   1      45.511  28.258  27.667  1.00  0.00    -0.014 A 
BRANCH  38  39
ATOM     39  C   UNL A   1      45.388  29.607  28.315  1.00  0.00     0.031 A 
ATOM     40  C   UNL A   1      44.324  29.884  29.357  1.00  0.00     0.074 A 
ATOM     41  C   UNL A   1      46.178  30.629  27.916  1.00  0.00     0.049 A 
ATOM     42  N   UNL A   1      43.931  31.033  29.854  1.00  0.00    -0.248 NA
ATOM     43  C   UNL A   1      43.559  28.736  29.859  1.00  0.00     0.031 C 
ATOM     44  C   UNL A   1      47.167  30.563  26.845  1.00  0.00     0.029 A 
ATOM     45  N   UNL A   1      46.291  31.929  28.354  1.00  0.00    -0.354 N 
ATOM     46  C   UNL A   1      42.832  30.750  30.663  1.00  0.00     0.074 A 
ATOM     47  C   UNL A   1      42.595  29.328  30.552  1.00  0.00     0.031 C 
ATOM     48  C   UNL A   1      47.883  31.689  26.804  1.00  0.00     0.029 A 
ATOM     49  C   UNL A   1      47.292  32.642  27.724  1.00  0.00     0.049 A 
ATOM     50  H   UNL A   1      45.712  32.315  29.049  1.00  0.00     0.167 HD
ATOM     51  C   UNL A   1      42.102  31.596  31.437  1.00  0.00     0.034 A 
ATOM     52  C   UNL A   1      47.671  33.933  27.811  1.00  0.00     0.034 A 
ATOM     53  C   UNL A   1      42.411  33.000  31.598  1.00  0.00     0.049 A 
ATOM     54  C   UNL A   1      46.878  34.837  28.707  1.00  0.00     0.074 A 
ATOM     55  C   UNL A   1      41.788  33.933  32.409  1.00  0.00     0.029 A 
ATOM     56  N   UNL A   1      43.443  33.669  30.949  1.00  0.00    -0.354 N 
ATOM     57  N   UNL A   1      45.828  34.549  29.440  1.00  0.00    -0.248 NA
ATOM     58  C   UNL A   1      47.301  36.239  28.770  1.00  0.00     0.031 C 
ATOM     59  C   UNL A   1      42.400  35.174  32.206  1.00  0.00     0.029 A 
ATOM     60  C   UNL A   1      43.458  35.005  31.328  1.00  0.00     0.049 A 
ATOM     61  H   UNL A   1      44.071  33.257  30.313  1.00  0.00     0.167 HD
ATOM     62  C   UNL A   1      45.462  35.740  30.053  1.00  0.00     0.074 A 
ATOM     63  C   UNL A   1      46.428  36.737  29.633  1.00  0.00     0.031 C 
ATOM     64  C   UNL A   1      44.415  35.989  30.881  1.00  0.00     0.034 A 
BRANCH  51  65
ATOM     65  C   UNL A   1      40.886  31.037  32.151  1.00  0.00     0.023 A 
ATOM     66  C   UNL A   1      39.619  30.978  31.543  1.00  0.00     0.031 A 
ATOM     67  C   UNL A   1      40.996  30.564  33.472  1.00  0.00     0.131 A 
ATOM     68  C   UNL A   1      38.505  30.537  32.278  1.00  0.00     0.055 A 
ATOM     69  C   UNL A   1      39.900  30.044  34.168  1.00  0.00     0.041 A 
ATOM     70  F   UNL A   1      42.171  30.607  34.119  1.00  0.00    -0.206 F 
ATOM     71  C   UNL A   1      38.642  30.044  33.577  1.00  0.00     0.022 A 
BRANCH  68  72
ATOM     72  S   UNL A   1      36.852  30.758  31.564  1.00  0.00     0.124 S 
ATOM     73  O   UNL A   1      37.137  31.636  30.430  1.00  0.00    -0.237 OA
ATOM     74  O   UNL A   1      36.466  29.392  31.232  1.00  0.00    -0.237 OA
ATOM     75  O   UNL A   1      36.089  31.378  32.646  1.00  0.00    -0.744 OA
ENDBRANCH  68  72
ENDBRANCH  51  65
BRANCH  52  76
ATOM     76  C   UNL A   1      48.807  34.450  26.987  1.00  0.00     0.023 A 
ATOM     77  C   UNL A   1      50.116  34.477  27.491  1.00  0.00     0.031 A 
ATOM     78  C   UNL A   1      48.602  34.915  25.673  1.00  0.00     0.131 A 
ATOM     79  C   UNL A   1      51.164  34.973  26.697  1.00  0.00     0.055 A 
ATOM     80  C   UNL A   1      49.656  35.341  24.864  1.00  0.00     0.041 A 
ATOM     81  F   UNL A   1      47.370  34.922  25.139  1.00  0.00    -0.206 F 
ATOM     82  C   UNL A   1      50.947  35.382  25.379  1.00  0.00     0.022 A 
BRANCH  79  83
ATOM     83  S   UNL A   1      52.811  35.155  27.438  1.00  0.00     0.124 S 
ATOM     84  O   UNL A   1      52.488  35.278  28.854  1.00  0.00    -0.237 OA
ATOM     85  O   UNL A   1      53.465  33.916  27.033  1.00  0.00    -0.237 OA
ATOM     86  O   UNL A   1      53.333  36.368  26.810  1.00  0.00    -0.744 OA
ENDBRANCH  79  83
ENDBRANCH  52  76
BRANCH  64  87
ATOM     87  C   UNL A   1      44.303  37.397  31.404  1.00  0.00     0.023 A 
ATOM     88  C   UNL A   1      43.618  38.394  30.687  1.00  0.00     0.031 A 
ATOM     89  C   UNL A   1      44.935  37.756  32.607  1.00  0.00     0.131 A 
ATOM     90  C   UNL A   1      43.643  39.718  31.143  1.00  0.00     0.055 A 
ATOM     91  C   UNL A   1      44.897  39.063  33.090  1.00  0.00     0.041 A 
ATOM     92  F   UNL A   1      45.608  36.842  33.324  1.00  0.00    -0.206 F 
ATOM     93  C   UNL A   1      44.263  40.057  32.349  1.00  0.00     0.022 A 
BRANCH  90  94
ATOM     94  S   UNL A   1      42.955  41.014  30.078  1.00  0.00     0.124 S 
ATOM     95  O   UNL A   1      43.981  42.049  30.160  1.00  0.00    -0.237 OA
ATOM     96  O   UNL A   1      42.837  40.334  28.792  1.00  0.00    -0.237 OA
ATOM     97  O   UNL A   1      41.685  41.348  30.721  1.00  0.00    -0.744 OA
ENDBRANCH  90  94
ENDBRANCH  64  87
ENDBRANCH  38  39
ENDBRANCH  31  33
ENDBRANCH  30  31
ENDBRANCH  29  30
ENDBRANCH   1  29
TORSDOF 19
ENDMDL
MODEL 2
REMARK VINA RESULT:     -10.0      0.512      7.589
REMARK SMILES COc1ccc(Br)cc1CNc1ccc(N2CCOCC2)c(C(=O)OCCOC(=O)c2ccc(-c3c4nc(c(-c5cc(S(=O)(=O)[O-])ccc5F)c5ccc([nH]5)c(-c5cc(S(=O)(=O)[O-])ccc5F)c5nc(c(-c6cc(S(=O)(=O)[O-])ccc6F)c6ccc3[nH]6)C=C5)C=C4)cc2)c1
REMARK SMILES IDX 26 1 25 2 23 3 24 4 22 5 12 6 13 7 94 8 14 9 15 10 11 11
REMARK SMILES IDX 10 13 9 14 3 15 4 16 5 17 8 18 6 19 7 20 2 21 1 22 16 23
REMARK SMILES IDX 17 24 21 25 18 26 20 27 19 28 27 29 28 30 29 31 30 32 31 33
REMARK SMILES IDX 32 34 93 35 33 36 92 37 34 38 35 39 36 40 86 41 37 42 91 43
REMARK SMILES IDX 85 44 87 45 38 46 90 47 84 48 83 49 39 51 71 52 51 53 70 54
REMARK SMILES IDX 52 55 55 56 69 57 88 58 53 59 54 60 68 62 89 63 56 64 40 65
REMARK SMILES IDX 41 66 49 67 42 68 48 69 50 70 47 71 43 72 44 73 45 74 46 75
REMARK SMILES IDX 72 76 73 77 81 78 74 79 80 80 82 81 79 82 75 83 76 84 77 85
REMARK SMILES IDX 78 86 57 87 58 88 66 89 59 90 65 91 67 92 64 93 60 94 61 95
REMARK SMILES IDX 62 96 63 97
REMARK H PARENT 11 12 87 50 55 61
REMARK Flexibility Score: inf
ROOT
ATOM      1  C   UNL A   1      42.974  21.966  26.263  1.00  0.00     0.275 C 
ENDROOT
BRANCH   1   2
ATOM      2  O   UNL A   1      41.615  21.987  25.779  1.00  0.00    -0.458 OA
BRANCH   2   3
ATOM      3  C   UNL A   1      40.638  21.839  26.713  1.00  0.00     0.340 C 
ATOM      4  O   UNL A   1      40.693  21.119  27.696  1.00  0.00    -0.246 OA
BRANCH   3   5
ATOM      5  C   UNL A   1      39.418  22.528  26.244  1.00  0.00     0.085 A 
ATOM      6  C   UNL A   1      37.155  21.935  25.546  1.00  0.00     0.035 A 
ATOM      7  C   UNL A   1      36.806  23.275  25.717  1.00  0.00     0.028 A 
ATOM      8  C   UNL A   1      38.482  21.600  25.757  1.00  0.00     0.043 A 
ATOM      9  C   UNL A   1      37.751  24.233  26.136  1.00  0.00     0.029 A 
ATOM     10  C   UNL A   1      39.074  23.884  26.445  1.00  0.00     0.052 A 
BRANCH   6  11
ATOM     11  N   UNL A   1      36.194  20.971  25.318  1.00  0.00    -0.381 N 
ATOM     12  H   UNL A   1      36.481  20.095  24.972  1.00  0.00     0.160 HD
BRANCH  11  13
ATOM     13  C   UNL A   1      34.774  21.193  25.564  1.00  0.00     0.152 C 
BRANCH  13  14
ATOM     14  C   UNL A   1      33.961  20.271  24.691  1.00  0.00     0.014 A 
ATOM     15  C   UNL A   1      32.893  20.736  23.913  1.00  0.00     0.123 A 
ATOM     16  C   UNL A   1      32.156  19.843  23.129  1.00  0.00     0.048 A 
ATOM     17  C   UNL A   1      32.483  18.484  23.115  1.00  0.00     0.019 A 
ATOM     18  C   UNL A   1      34.305  18.906  24.639  1.00  0.00     0.025 A 
ATOM     19  C   UNL A   1      33.564  18.023  23.860  1.00  0.00     0.018 A 
ATOM     20  Br  UNL A   1      34.038  16.196  23.806  1.00  0.00    -0.051 Br
BRANCH  15  21
ATOM     21  O   UNL A   1      32.671  22.086  23.868  1.00  0.00    -0.496 OA
ATOM     22  C   UNL A   1      33.377  22.739  22.818  1.00  0.00     0.278 C 
ENDBRANCH  15  21
ENDBRANCH  13  14
ENDBRANCH  11  13
ENDBRANCH   6  11
BRANCH  10  23
ATOM     23  N   UNL A   1      39.857  24.853  27.084  1.00  0.00    -0.366 N 
ATOM     24  C   UNL A   1      39.362  25.581  28.740  1.00  0.00     0.145 C 
ATOM     25  C   UNL A   1      40.842  25.727  25.993  1.00  0.00     0.145 C 
ATOM     26  C   UNL A   1      39.750  27.750  28.917  1.00  0.00     0.181 C 
ATOM     27  C   UNL A   1      41.106  27.539  26.163  1.00  0.00     0.181 C 
ATOM     28  O   UNL A   1      40.628  28.482  27.486  1.00  0.00    -0.378 OA
ENDBRANCH  10  23
ENDBRANCH   3   5
ENDBRANCH   2   3
ENDBRANCH   1   2
BRANCH   1  29
ATOM     29  C   UNL A   1      43.851  22.718  25.271  1.00  0.00     0.275 C 
BRANCH  29  30
ATOM     30  O   UNL A   1      44.929  23.305  26.019  1.00  0.00    -0.458 OA
BRANCH  30  31
ATOM     31  C   UNL A   1      45.725  24.094  25.275  1.00  0.00     0.338 C 
ATOM     32  O   UNL A   1      46.296  23.821  24.233  1.00  0.00    -0.246 OA
BRANCH  31  33
ATOM     33  C   UNL A   1      45.812  25.422  25.862  1.00  0.00     0.060 A 
ATOM     34  C   UNL A   1      46.749  25.804  27.298  1.00  0.00     0.016 A 
ATOM     35  C   UNL A   1      44.660  26.582  25.349  1.00  0.00     0.016 A 
ATOM     36  C   UNL A   1      46.363  27.482  28.249  1.00  0.00     0.010 A 
ATOM     37  C   UNL A   1      44.370  28.074  26.152  1.00  0.00     0.010 A 
ATOM     38  C   UNL A   1      45.164  28.598  27.594  1.00  0.00    -0.014 A 
BRANCH  38  39
ATOM     39  C   UNL A   1      44.944  29.980  28.140  1.00  0.00     0.031 A 
ATOM     40  C   UNL A   1      45.809  31.143  27.704  1.00  0.00     0.074 A 
ATOM     41  C   UNL A   1      44.017  30.192  29.101  1.00  0.00     0.049 A 
ATOM     42  N   UNL A   1      45.909  32.342  28.226  1.00  0.00    -0.248 NA
ATOM     43  C   UNL A   1      46.725  30.916  26.579  1.00  0.00     0.031 C 
ATOM     44  C   UNL A   1      43.187  29.162  29.716  1.00  0.00     0.029 A 
ATOM     45  N   UNL A   1      43.601  31.339  29.739  1.00  0.00    -0.354 N 
ATOM     46  C   UNL A   1      46.945  32.978  27.544  1.00  0.00     0.074 A 
ATOM     47  C   UNL A   1      47.469  32.013  26.602  1.00  0.00     0.031 C 
ATOM     48  C   UNL A   1      42.271  29.718  30.513  1.00  0.00     0.029 A 
ATOM     49  C   UNL A   1      42.556  31.137  30.618  1.00  0.00     0.049 A 
ATOM     50  H   UNL A   1      44.011  32.220  29.584  1.00  0.00     0.167 HD
ATOM     51  C   UNL A   1      47.402  34.251  27.680  1.00  0.00     0.034 A 
ATOM     52  C   UNL A   1      41.922  31.967  31.471  1.00  0.00     0.034 A 
ATOM     53  C   UNL A   1      46.806  35.223  28.569  1.00  0.00     0.049 A 
ATOM     54  C   UNL A   1      42.415  33.379  31.571  1.00  0.00     0.074 A 
ATOM     55  C   UNL A   1      47.137  36.557  28.737  1.00  0.00     0.029 A 
ATOM     56  N   UNL A   1      45.741  34.972  29.428  1.00  0.00    -0.354 N 
ATOM     57  N   UNL A   1      43.413  33.945  30.933  1.00  0.00    -0.248 NA
ATOM     58  C   UNL A   1      41.719  34.255  32.517  1.00  0.00     0.031 C 
ATOM     59  C   UNL A   1      46.318  37.094  29.735  1.00  0.00     0.029 A 
ATOM     60  C   UNL A   1      45.420  36.120  30.139  1.00  0.00     0.049 A 
ATOM     61  H   UNL A   1      45.282  34.106  29.519  1.00  0.00     0.167 HD
ATOM     62  C   UNL A   1      43.465  35.250  31.405  1.00  0.00     0.074 A 
ATOM     63  C   UNL A   1      42.374  35.394  32.350  1.00  0.00     0.031 C 
ATOM     64  C   UNL A   1      44.343  36.238  31.094  1.00  0.00     0.034 A 
BRANCH  51  65
ATOM     65  C   UNL A   1      48.618  34.661  26.871  1.00  0.00     0.023 A 
ATOM     66  C   UNL A   1      49.922  34.611  27.394  1.00  0.00     0.031 A 
ATOM     67  C   UNL A   1      48.465  35.123  25.550  1.00  0.00     0.131 A 
ATOM     68  C   UNL A   1      51.004  35.088  26.636  1.00  0.00     0.055 A 
ATOM     69  C   UNL A   1      49.557  35.514  24.769  1.00  0.00     0.041 A 
ATOM     70  F   UNL A   1      47.247  35.214  24.993  1.00  0.00    -0.206 F 
ATOM     71  C   UNL A   1      50.835  35.515  25.318  1.00  0.00     0.022 A 
BRANCH  68  72
ATOM     72  S   UNL A   1      52.613  35.286  27.451  1.00  0.00     0.124 S 
ATOM     73  O   UNL A   1      53.534  35.096  26.332  1.00  0.00    -0.237 OA
ATOM     74  O   UNL A   1      52.532  36.638  27.988  1.00  0.00    -0.237 OA
ATOM     75  O   UNL A   1      52.628  34.217  28.449  1.00  0.00    -0.744 OA
ENDBRANCH  68  72
ENDBRANCH  51  65
BRANCH  52  76
ATOM     76  C   UNL A   1      40.805  31.466  32.331  1.00  0.00     0.023 A 
ATOM     77  C   UNL A   1      39.478  31.475  31.876  1.00  0.00     0.031 A 
ATOM     78  C   UNL A   1      41.050  30.959  33.622  1.00  0.00     0.131 A 
ATOM     79  C   UNL A   1      38.447  31.004  32.707  1.00  0.00     0.055 A 
ATOM     80  C   UNL A   1      40.033  30.428  34.416  1.00  0.00     0.041 A 
ATOM     81  F   UNL A   1      42.298  30.934  34.116  1.00  0.00    -0.206 F 
ATOM     82  C   UNL A   1      38.719  30.458  33.963  1.00  0.00     0.022 A 
BRANCH  79  83
ATOM     83  S   UNL A   1      36.728  31.188  32.156  1.00  0.00     0.124 S 
ATOM     84  O   UNL A   1      36.895  31.885  30.887  1.00  0.00    -0.237 OA
ATOM     85  O   UNL A   1      36.284  29.801  32.074  1.00  0.00    -0.237 OA
ATOM     86  O   UNL A   1      36.112  31.975  33.223  1.00  0.00    -0.744 OA
ENDBRANCH  79  83
ENDBRANCH  52  76
BRANCH  64  87
ATOM     87  C   UNL A   1      44.116  37.566  31.767  1.00  0.00     0.023 A 
ATOM     88  C   UNL A   1      43.499  38.635  31.093  1.00  0.00     0.031 A 
ATOM     89  C   UNL A   1      44.571  37.780  33.079  1.00  0.00     0.131 A 
ATOM     90  C   UNL A   1      43.419  39.890  31.708  1.00  0.00     0.055 A 
ATOM     91  C   UNL A   1      44.427  39.015  33.710  1.00  0.00     0.041 A 
ATOM     92  F   UNL A   1      45.174  36.794  33.762  1.00  0.00    -0.206 F 
ATOM     93  C   UNL A   1      43.864  40.084  33.019  1.00  0.00     0.022 A 
BRANCH  90  94
ATOM     94  S   UNL A   1      42.835  41.300  30.728  1.00  0.00     0.124 S 
ATOM     95  O   UNL A   1      41.969  40.649  29.750  1.00  0.00    -0.237 OA
ATOM     96  O   UNL A   1      42.162  42.121  31.729  1.00  0.00    -0.237 OA
ATOM     97  O   UNL A   1      44.066  41.871  30.183  1.00  0.00    -0.744 OA
ENDBRANCH  90  94
ENDBRANCH  64  87
ENDBRANCH  38  39
ENDBRANCH  31  33
ENDBRANCH  30  31
ENDBRANCH  29  30
ENDBRANCH   1  29
TORSDOF 19
ENDMDL
MODEL 3
REMARK VINA RESULT:      -9.8      3.680      6.798
REMARK SMILES COc1ccc(Br)cc1CNc1ccc(N2CCOCC2)c(C(=O)OCCOC(=O)c2ccc(-c3c4nc(c(-c5cc(S(=O)(=O)[O-])ccc5F)c5ccc([nH]5)c(-c5cc(S(=O)(=O)[O-])ccc5F)c5nc(c(-c6cc(S(=O)(=O)[O-])ccc6F)c6ccc3[nH]6)C=C5)C=C4)cc2)c1
REMARK SMILES IDX 26 1 25 2 23 3 24 4 22 5 12 6 13 7 94 8 14 9 15 10 11 11
REMARK SMILES IDX 10 13 9 14 3 15 4 16 5 17 8 18 6 19 7 20 2 21 1 22 16 23
REMARK SMILES IDX 17 24 21 25 18 26 20 27 19 28 27 29 28 30 29 31 30 32 31 33
REMARK SMILES IDX 32 34 93 35 33 36 92 37 34 38 35 39 36 40 86 41 37 42 91 43
REMARK SMILES IDX 85 44 87 45 38 46 90 47 84 48 83 49 39 51 71 52 51 53 70 54
REMARK SMILES IDX 52 55 55 56 69 57 88 58 53 59 54 60 68 62 89 63 56 64 40 65
REMARK SMILES IDX 41 66 49 67 42 68 48 69 50 70 47 71 43 72 44 73 45 74 46 75
REMARK SMILES IDX 72 76 73 77 81 78 74 79 80 80 82 81 79 82 75 83 76 84 77 85
REMARK SMILES IDX 78 86 57 87 58 88 66 89 59 90 65 91 67 92 64 93 60 94 61 95
REMARK SMILES IDX 62 96 63 97
REMARK H PARENT 11 12 87 50 55 61
REMARK Flexibility Score: inf
ROOT
ATOM      1  C   UNL A   1      42.743  20.778  25.959  1.00  0.00     0.275 C 
ENDROOT
BRANCH   1   2
ATOM      2  O   UNL A   1      41.339  21.026  25.743  1.00  0.00    -0.458 OA
BRANCH   2   3
ATOM      3  C   UNL A   1      40.641  21.512  26.804  1.00  0.00     0.340 C 
ATOM      4  O   UNL A   1      40.824  21.221  27.975  1.00  0.00    -0.246 OA
BRANCH   3   5
ATOM      5  C   UNL A   1      39.490  22.292  26.304  1.00  0.00     0.085 A 
ATOM      6  C   UNL A   1      37.205  21.874  25.553  1.00  0.00     0.035 A 
ATOM      7  C   UNL A   1      36.958  23.237  25.711  1.00  0.00     0.028 A 
ATOM      8  C   UNL A   1      38.497  21.438  25.797  1.00  0.00     0.043 A 
ATOM      9  C   UNL A   1      37.964  24.121  26.152  1.00  0.00     0.029 A 
ATOM     10  C   UNL A   1      39.248  23.671  26.493  1.00  0.00     0.052 A 
BRANCH   6  11
ATOM     11  N   UNL A   1      36.178  20.987  25.303  1.00  0.00    -0.381 N 
ATOM     12  H   UNL A   1      36.401  20.102  24.933  1.00  0.00     0.160 HD
BRANCH  11  13
ATOM     13  C   UNL A   1      34.778  21.301  25.562  1.00  0.00     0.152 C 
BRANCH  13  14
ATOM     14  C   UNL A   1      33.900  20.470  24.662  1.00  0.00     0.014 A 
ATOM     15  C   UNL A   1      32.945  21.048  23.816  1.00  0.00     0.123 A 
ATOM     16  C   UNL A   1      32.141  20.239  23.008  1.00  0.00     0.048 A 
ATOM     17  C   UNL A   1      32.287  18.848  23.039  1.00  0.00     0.019 A 
ATOM     18  C   UNL A   1      34.064  19.071  24.656  1.00  0.00     0.025 A 
ATOM     19  C   UNL A   1      33.257  18.272  23.853  1.00  0.00     0.018 A 
ATOM     20  Br  UNL A   1      33.490  16.397  23.861  1.00  0.00    -0.051 Br
BRANCH  15  21
ATOM     21  O   UNL A   1      32.905  22.414  23.733  1.00  0.00    -0.496 OA
ATOM     22  C   UNL A   1      31.622  22.921  23.379  1.00  0.00     0.278 C 
ENDBRANCH  15  21
ENDBRANCH  13  14
ENDBRANCH  11  13
ENDBRANCH   6  11
BRANCH  10  23
ATOM     23  N   UNL A   1      40.088  24.579  27.149  1.00  0.00    -0.366 N 
ATOM     24  C   UNL A   1      39.519  25.530  28.662  1.00  0.00     0.145 C 
ATOM     25  C   UNL A   1      41.316  25.195  26.130  1.00  0.00     0.145 C 
ATOM     26  C   UNL A   1      40.207  27.630  28.713  1.00  0.00     0.181 C 
ATOM     27  C   UNL A   1      41.829  26.959  26.186  1.00  0.00     0.181 C 
ATOM     28  O   UNL A   1      41.348  28.086  27.354  1.00  0.00    -0.378 OA
ENDBRANCH  10  23
ENDBRANCH   3   5
ENDBRANCH   2   3
ENDBRANCH   1   2
BRANCH   1  29
ATOM     29  C   UNL A   1      43.521  22.024  25.558  1.00  0.00     0.275 C 
BRANCH  29  30
ATOM     30  O   UNL A   1      44.550  22.216  26.541  1.00  0.00    -0.458 OA
BRANCH  30  31
ATOM     31  C   UNL A   1      44.243  23.150  27.459  1.00  0.00     0.338 C 
ATOM     32  O   UNL A   1      43.316  23.153  28.251  1.00  0.00    -0.246 OA
BRANCH  31  33
ATOM     33  C   UNL A   1      45.226  24.223  27.439  1.00  0.00     0.060 A 
ATOM     34  C   UNL A   1      46.140  24.746  28.845  1.00  0.00     0.016 A 
ATOM     35  C   UNL A   1      45.224  25.262  26.076  1.00  0.00     0.016 A 
ATOM     36  C   UNL A   1      47.024  26.502  28.786  1.00  0.00     0.010 A 
ATOM     37  C   UNL A   1      46.048  26.768  26.011  1.00  0.00     0.010 A 
ATOM     38  C   UNL A   1      46.959  27.460  27.305  1.00  0.00    -0.014 A 
BRANCH  38  39
ATOM     39  C   UNL A   1      47.761  28.714  27.104  1.00  0.00     0.031 A 
ATOM     40  C   UNL A   1      47.097  30.074  27.065  1.00  0.00     0.074 A 
ATOM     41  C   UNL A   1      49.091  28.641  26.869  1.00  0.00     0.049 A 
ATOM     42  N   UNL A   1      47.593  31.227  26.685  1.00  0.00    -0.248 NA
ATOM     43  C   UNL A   1      45.678  30.141  27.439  1.00  0.00     0.031 C 
ATOM     44  C   UNL A   1      49.861  27.407  26.754  1.00  0.00     0.029 A 
ATOM     45  N   UNL A   1      50.047  29.614  26.685  1.00  0.00    -0.354 N 
ATOM     46  C   UNL A   1      46.532  32.131  26.703  1.00  0.00     0.074 A 
ATOM     47  C   UNL A   1      45.358  31.379  27.088  1.00  0.00     0.031 C 
ATOM     48  C   UNL A   1      51.166  27.680  26.675  1.00  0.00     0.029 A 
ATOM     49  C   UNL A   1      51.327  29.116  26.549  1.00  0.00     0.049 A 
ATOM     50  H   UNL A   1      49.836  30.575  26.652  1.00  0.00     0.167 HD
ATOM     51  C   UNL A   1      46.542  33.464  26.440  1.00  0.00     0.034 A 
ATOM     52  C   UNL A   1      52.505  29.718  26.287  1.00  0.00     0.034 A 
ATOM     53  C   UNL A   1      47.744  34.210  26.139  1.00  0.00     0.049 A 
ATOM     54  C   UNL A   1      52.498  31.197  26.044  1.00  0.00     0.074 A 
ATOM     55  C   UNL A   1      47.885  35.571  25.927  1.00  0.00     0.029 A 
ATOM     56  N   UNL A   1      49.016  33.662  26.026  1.00  0.00    -0.354 N 
ATOM     57  N   UNL A   1      51.477  32.022  26.042  1.00  0.00    -0.248 NA
ATOM     58  C   UNL A   1      53.789  31.823  25.745  1.00  0.00     0.031 C 
ATOM     59  C   UNL A   1      49.225  35.836  25.627  1.00  0.00     0.029 A 
ATOM     60  C   UNL A   1      49.940  34.654  25.728  1.00  0.00     0.049 A 
ATOM     61  H   UNL A   1      49.232  32.708  26.139  1.00  0.00     0.167 HD
ATOM     62  C   UNL A   1      52.005  33.270  25.739  1.00  0.00     0.074 A 
ATOM     63  C   UNL A   1      53.439  33.092  25.605  1.00  0.00     0.031 C 
ATOM     64  C   UNL A   1      51.362  34.454  25.576  1.00  0.00     0.034 A 
BRANCH  51  65
ATOM     65  C   UNL A   1      45.215  34.200  26.440  1.00  0.00     0.023 A 
ATOM     66  C   UNL A   1      44.750  34.913  27.559  1.00  0.00     0.031 A 
ATOM     67  C   UNL A   1      44.393  34.176  25.297  1.00  0.00     0.131 A 
ATOM     68  C   UNL A   1      43.474  35.500  27.540  1.00  0.00     0.055 A 
ATOM     69  C   UNL A   1      43.162  34.836  25.255  1.00  0.00     0.041 A 
ATOM     70  F   UNL A   1      44.766  33.499  24.199  1.00  0.00    -0.206 F 
ATOM     71  C   UNL A   1      42.688  35.490  26.387  1.00  0.00     0.022 A 
BRANCH  68  72
ATOM     72  S   UNL A   1      42.794  36.146  29.093  1.00  0.00     0.124 S 
ATOM     73  O   UNL A   1      43.010  37.583  28.933  1.00  0.00    -0.237 OA
ATOM     74  O   UNL A   1      41.407  35.699  29.041  1.00  0.00    -0.237 OA
ATOM     75  O   UNL A   1      43.617  35.510  30.121  1.00  0.00    -0.744 OA
ENDBRANCH  68  72
ENDBRANCH  51  65
BRANCH  52  76
ATOM     76  C   UNL A   1      53.762  28.915  26.181  1.00  0.00     0.023 A 
ATOM     77  C   UNL A   1      54.522  28.601  27.319  1.00  0.00     0.031 A 
ATOM     78  C   UNL A   1      54.220  28.437  24.938  1.00  0.00     0.131 A 
ATOM     79  C   UNL A   1      55.702  27.849  27.190  1.00  0.00     0.055 A 
ATOM     80  C   UNL A   1      55.354  27.632  24.824  1.00  0.00     0.041 A 
ATOM     81  F   UNL A   1      53.541  28.712  23.813  1.00  0.00    -0.206 F 
ATOM     82  C   UNL A   1      56.110  27.342  25.954  1.00  0.00     0.022 A 
BRANCH  79  83
ATOM     83  S   UNL A   1      56.749  27.609  28.653  1.00  0.00     0.124 S 
ATOM     84  O   UNL A   1      56.484  26.214  28.983  1.00  0.00    -0.237 OA
ATOM     85  O   UNL A   1      58.077  27.904  28.128  1.00  0.00    -0.237 OA
ATOM     86  O   UNL A   1      56.228  28.586  29.608  1.00  0.00    -0.744 OA
ENDBRANCH  79  83
ENDBRANCH  52  76
BRANCH  64  87
ATOM     87  C   UNL A   1      52.231  35.646  25.270  1.00  0.00     0.023 A 
ATOM     88  C   UNL A   1      52.712  36.484  26.292  1.00  0.00     0.031 A 
ATOM     89  C   UNL A   1      52.536  35.975  23.939  1.00  0.00     0.131 A 
ATOM     90  C   UNL A   1      53.410  37.652  25.959  1.00  0.00     0.055 A 
ATOM     91  C   UNL A   1      53.290  37.103  23.619  1.00  0.00     0.041 A 
ATOM     92  F   UNL A   1      52.094  35.211  22.928  1.00  0.00    -0.206 F 
ATOM     93  C   UNL A   1      53.718  37.959  24.631  1.00  0.00     0.022 A 
BRANCH  90  94
ATOM     94  S   UNL A   1      53.808  38.829  27.281  1.00  0.00     0.124 S 
ATOM     95  O   UNL A   1      52.708  38.616  28.216  1.00  0.00    -0.237 OA
ATOM     96  O   UNL A   1      55.120  38.370  27.725  1.00  0.00    -0.237 OA
ATOM     97  O   UNL A   1      53.803  40.123  26.600  1.00  0.00    -0.744 OA
ENDBRANCH  90  94
ENDBRANCH  64  87
ENDBRANCH  38  39
ENDBRANCH  31  33
ENDBRANCH  30  31
ENDBRANCH  29  30
ENDBRANCH   1  29
TORSDOF 19
ENDMDL
