MODEL 1
REMARK VINA RESULT:      -9.4      0.000      0.000
REMARK SMILES C[NH2+][C@H](CC(=O)OCCOC(=O)c1ccc(-c2c3nc(c(-c4cc(S(=O)(=O)[O-])ccc4F)c4ccc([nH]4)c(-c4cc(S(=O)(=O)[O-])ccc4F)c4nc(c(-c5cc(S(=O)(=O)[O-])ccc5F)c5ccc2[nH]5)C=C4)C=C3)cc1)c1cccc(C2CC2)c1
REMARK SMILES IDX 8 1 7 2 5 3 6 4 4 5 3 6 2 7 1 8 76 11 77 12 84 13 78 14
REMARK SMILES IDX 80 15 79 16 81 17 82 18 83 19 9 20 10 21 11 22 12 23 13 24
REMARK SMILES IDX 14 25 75 26 15 27 74 28 16 29 17 30 18 31 68 32 19 33 73 34
REMARK SMILES IDX 67 35 69 36 20 37 72 38 66 39 65 40 21 42 53 43 33 44 52 45
REMARK SMILES IDX 34 46 37 47 51 48 70 49 35 50 36 51 50 53 71 54 38 55 22 56
REMARK SMILES IDX 23 57 31 58 24 59 30 60 32 61 29 62 25 63 26 64 27 65 28 66
REMARK SMILES IDX 54 67 55 68 63 69 56 70 62 71 64 72 61 73 57 74 58 75 59 76
REMARK SMILES IDX 60 77 39 78 40 79 48 80 41 81 47 82 49 83 46 84 42 85 43 86
REMARK SMILES IDX 44 87 45 88
REMARK H PARENT 2 9 2 10 69 41 37 52
REMARK Flexibility Score: inf
ROOT
ATOM      1  C   UNL A   1      33.393  35.160  28.892  1.00  0.00     0.274 C 
ENDROOT
BRANCH   1   2
ATOM      2  O   UNL A   1      32.868  34.999  30.222  1.00  0.00    -0.462 OA
BRANCH   2   3
ATOM      3  C   UNL A   1      33.658  35.345  31.264  1.00  0.00     0.312 C 
ATOM      4  O   UNL A   1      33.351  36.170  32.119  1.00  0.00    -0.252 OA
BRANCH   3   5
ATOM      5  C   UNL A   1      35.000  34.637  31.286  1.00  0.00     0.192 C 
BRANCH   5   6
ATOM      6  C   UNL A   1      35.589  34.207  32.654  1.00  0.00     0.224 C 
BRANCH   6   7
ATOM      7  N   UNL A   1      35.083  32.855  32.920  1.00  0.00    -0.342 N 
ATOM      8  C   UNL A   1      35.032  31.950  31.785  1.00  0.00     0.331 C 
ATOM      9  H   UNL A   1      35.685  32.432  33.627  1.00  0.00     0.346 HD
ATOM     10  H   UNL A   1      34.114  32.980  33.211  1.00  0.00     0.346 HD
ENDBRANCH   6   7
BRANCH   6  11
ATOM     11  C   UNL A   1      37.100  34.415  32.759  1.00  0.00     0.010 A 
ATOM     12  C   UNL A   1      37.779  34.564  33.972  1.00  0.00     0.010 A 
ATOM     13  C   UNL A   1      37.878  34.405  31.581  1.00  0.00     0.014 A 
ATOM     14  C   UNL A   1      39.171  34.643  34.005  1.00  0.00     0.001 A 
ATOM     15  C   UNL A   1      39.284  34.398  31.579  1.00  0.00    -0.044 A 
ATOM     16  C   UNL A   1      39.910  34.540  32.826  1.00  0.00     0.004 A 
BRANCH  15  17
ATOM     17  C   UNL A   1      40.105  34.184  30.321  1.00  0.00     0.019 C 
ATOM     18  C   UNL A   1      41.599  34.437  30.325  1.00  0.00     0.009 C 
ATOM     19  C   UNL A   1      41.074  33.035  30.194  1.00  0.00     0.009 C 
ENDBRANCH  15  17
ENDBRANCH   6  11
ENDBRANCH   5   6
ENDBRANCH   3   5
ENDBRANCH   2   3
ENDBRANCH   1   2
BRANCH   1  20
ATOM     20  C   UNL A   1      33.116  33.897  28.081  1.00  0.00     0.275 C 
BRANCH  20  21
ATOM     21  O   UNL A   1      34.354  33.221  27.801  1.00  0.00    -0.458 OA
BRANCH  21  22
ATOM     22  C   UNL A   1      34.255  31.878  27.677  1.00  0.00     0.338 C 
ATOM     23  O   UNL A   1      33.360  31.244  27.138  1.00  0.00    -0.246 OA
BRANCH  22  24
ATOM     24  C   UNL A   1      35.482  31.269  28.200  1.00  0.00     0.060 A 
ATOM     25  C   UNL A   1      35.457  29.919  28.562  1.00  0.00     0.016 A 
ATOM     26  C   UNL A   1      36.627  32.037  28.392  1.00  0.00     0.016 A 
ATOM     27  C   UNL A   1      36.578  29.331  29.138  1.00  0.00     0.010 A 
ATOM     28  C   UNL A   1      37.760  31.440  28.949  1.00  0.00     0.010 A 
ATOM     29  C   UNL A   1      37.739  30.087  29.337  1.00  0.00    -0.014 A 
BRANCH  29  30
ATOM     30  C   UNL A   1      38.922  29.481  29.993  1.00  0.00     0.031 A 
ATOM     31  C   UNL A   1      39.339  29.959  31.355  1.00  0.00     0.074 A 
ATOM     32  C   UNL A   1      39.622  28.521  29.362  1.00  0.00     0.049 A 
ATOM     33  N   UNL A   1      40.424  29.690  32.032  1.00  0.00    -0.248 NA
ATOM     34  C   UNL A   1      38.408  30.870  32.037  1.00  0.00     0.031 C 
ATOM     35  C   UNL A   1      39.278  27.942  28.062  1.00  0.00     0.029 A 
ATOM     36  N   UNL A   1      40.775  27.872  29.721  1.00  0.00    -0.354 N 
ATOM     37  C   UNL A   1      40.322  30.418  33.212  1.00  0.00     0.074 A 
ATOM     38  C   UNL A   1      39.077  31.155  33.144  1.00  0.00     0.031 C 
ATOM     39  C   UNL A   1      40.206  27.032  27.728  1.00  0.00     0.029 A 
ATOM     40  C   UNL A   1      41.240  27.008  28.758  1.00  0.00     0.049 A 
ATOM     41  H   UNL A   1      41.226  28.011  30.585  1.00  0.00     0.167 HD
ATOM     42  C   UNL A   1      41.192  30.464  34.253  1.00  0.00     0.034 A 
ATOM     43  C   UNL A   1      42.392  26.311  28.693  1.00  0.00     0.034 A 
ATOM     44  C   UNL A   1      42.427  29.718  34.295  1.00  0.00     0.049 A 
ATOM     45  C   UNL A   1      43.377  26.432  29.827  1.00  0.00     0.074 A 
ATOM     46  C   UNL A   1      43.386  29.688  35.294  1.00  0.00     0.029 A 
ATOM     47  N   UNL A   1      42.879  28.871  33.290  1.00  0.00    -0.354 N 
ATOM     48  N   UNL A   1      43.293  27.154  30.921  1.00  0.00    -0.248 NA
ATOM     49  C   UNL A   1      44.612  25.646  29.716  1.00  0.00     0.031 C 
ATOM     50  C   UNL A   1      44.441  28.871  34.867  1.00  0.00     0.029 A 
ATOM     51  C   UNL A   1      44.110  28.334  33.633  1.00  0.00     0.049 A 
ATOM     52  H   UNL A   1      42.394  28.680  32.455  1.00  0.00     0.167 HD
ATOM     53  C   UNL A   1      44.457  26.894  31.637  1.00  0.00     0.074 A 
ATOM     54  C   UNL A   1      45.218  25.937  30.857  1.00  0.00     0.031 C 
ATOM     55  C   UNL A   1      44.862  27.396  32.831  1.00  0.00     0.034 A 
BRANCH  42  56
ATOM     56  C   UNL A   1      40.859  31.400  35.389  1.00  0.00     0.023 A 
ATOM     57  C   UNL A   1      39.733  31.205  36.209  1.00  0.00     0.031 A 
ATOM     58  C   UNL A   1      41.659  32.532  35.629  1.00  0.00     0.131 A 
ATOM     59  C   UNL A   1      39.400  32.162  37.180  1.00  0.00     0.055 A 
ATOM     60  C   UNL A   1      41.364  33.441  36.647  1.00  0.00     0.041 A 
ATOM     61  F   UNL A   1      42.733  32.783  34.864  1.00  0.00    -0.206 F 
ATOM     62  C   UNL A   1      40.220  33.266  37.420  1.00  0.00     0.022 A 
BRANCH  59  63
ATOM     63  S   UNL A   1      37.805  32.017  38.033  1.00  0.00     0.124 S 
ATOM     64  O   UNL A   1      38.178  32.324  39.413  1.00  0.00    -0.237 OA
ATOM     65  O   UNL A   1      36.992  33.018  37.353  1.00  0.00    -0.237 OA
ATOM     66  O   UNL A   1      37.413  30.629  37.797  1.00  0.00    -0.744 OA
ENDBRANCH  59  63
ENDBRANCH  42  56
BRANCH  43  67
ATOM     67  C   UNL A   1      42.707  25.493  27.489  1.00  0.00     0.023 A 
ATOM     68  C   UNL A   1      42.434  24.117  27.452  1.00  0.00     0.031 A 
ATOM     69  C   UNL A   1      43.316  26.077  26.363  1.00  0.00     0.131 A 
ATOM     70  C   UNL A   1      42.801  23.363  26.327  1.00  0.00     0.055 A 
ATOM     71  C   UNL A   1      43.633  25.332  25.227  1.00  0.00     0.041 A 
ATOM     72  F   UNL A   1      43.597  27.389  26.347  1.00  0.00    -0.206 F 
ATOM     73  C   UNL A   1      43.385  23.963  25.209  1.00  0.00     0.022 A 
BRANCH  70  74
ATOM     74  S   UNL A   1      42.564  21.566  26.370  1.00  0.00     0.124 S 
ATOM     75  O   UNL A   1      41.364  21.403  25.558  1.00  0.00    -0.237 OA
ATOM     76  O   UNL A   1      43.809  21.082  25.779  1.00  0.00    -0.237 OA
ATOM     77  O   UNL A   1      42.399  21.277  27.793  1.00  0.00    -0.744 OA
ENDBRANCH  70  74
ENDBRANCH  43  67
BRANCH  55  78
ATOM     78  C   UNL A   1      46.170  26.880  33.373  1.00  0.00     0.023 A 
ATOM     79  C   UNL A   1      46.244  25.688  34.114  1.00  0.00     0.031 A 
ATOM     80  C   UNL A   1      47.356  27.607  33.164  1.00  0.00     0.131 A 
ATOM     81  C   UNL A   1      47.469  25.285  34.666  1.00  0.00     0.055 A 
ATOM     82  C   UNL A   1      48.581  27.173  33.671  1.00  0.00     0.041 A 
ATOM     83  F   UNL A   1      47.340  28.754  32.466  1.00  0.00    -0.206 F 
ATOM     84  C   UNL A   1      48.640  26.012  34.437  1.00  0.00     0.022 A 
BRANCH  81  85
ATOM     85  S   UNL A   1      47.499  23.836  35.758  1.00  0.00     0.124 S 
ATOM     86  O   UNL A   1      46.557  24.226  36.804  1.00  0.00    -0.237 OA
ATOM     87  O   UNL A   1      47.059  22.766  34.871  1.00  0.00    -0.237 OA
ATOM     88  O   UNL A   1      48.895  23.755  36.181  1.00  0.00    -0.744 OA
ENDBRANCH  81  85
ENDBRANCH  55  78
ENDBRANCH  29  30
ENDBRANCH  22  24
ENDBRANCH  21  22
ENDBRANCH  20  21
ENDBRANCH   1  20
TORSDOF 18
ENDMDL
MODEL 2
REMARK VINA RESULT:      -9.3      6.237     10.300
REMARK SMILES C[NH2+][C@H](CC(=O)OCCOC(=O)c1ccc(-c2c3nc(c(-c4cc(S(=O)(=O)[O-])ccc4F)c4ccc([nH]4)c(-c4cc(S(=O)(=O)[O-])ccc4F)c4nc(c(-c5cc(S(=O)(=O)[O-])ccc5F)c5ccc2[nH]5)C=C4)C=C3)cc1)c1cccc(C2CC2)c1
REMARK SMILES IDX 8 1 7 2 5 3 6 4 4 5 3 6 2 7 1 8 76 11 77 12 84 13 78 14
REMARK SMILES IDX 80 15 79 16 81 17 82 18 83 19 9 20 10 21 11 22 12 23 13 24
REMARK SMILES IDX 14 25 75 26 15 27 74 28 16 29 17 30 18 31 68 32 19 33 73 34
REMARK SMILES IDX 67 35 69 36 20 37 72 38 66 39 65 40 21 42 53 43 33 44 52 45
REMARK SMILES IDX 34 46 37 47 51 48 70 49 35 50 36 51 50 53 71 54 38 55 22 56
REMARK SMILES IDX 23 57 31 58 24 59 30 60 32 61 29 62 25 63 26 64 27 65 28 66
REMARK SMILES IDX 54 67 55 68 63 69 56 70 62 71 64 72 61 73 57 74 58 75 59 76
REMARK SMILES IDX 60 77 39 78 40 79 48 80 41 81 47 82 49 83 46 84 42 85 43 86
REMARK SMILES IDX 44 87 45 88
REMARK H PARENT 2 9 2 10 69 41 37 52
REMARK Flexibility Score: inf
ROOT
ATOM      1  C   UNL A   1      35.767  20.736  25.123  1.00  0.00     0.274 C 
ENDROOT
BRANCH   1   2
ATOM      2  O   UNL A   1      35.568  21.799  26.072  1.00  0.00    -0.462 OA
BRANCH   2   3
ATOM      3  C   UNL A   1      34.975  22.935  25.640  1.00  0.00     0.312 C 
ATOM      4  O   UNL A   1      35.347  23.581  24.666  1.00  0.00    -0.252 OA
BRANCH   3   5
ATOM      5  C   UNL A   1      33.797  23.379  26.488  1.00  0.00     0.192 C 
BRANCH   5   6
ATOM      6  C   UNL A   1      32.474  22.577  26.397  1.00  0.00     0.224 C 
BRANCH   6   7
ATOM      7  N   UNL A   1      31.408  23.475  26.854  1.00  0.00    -0.342 N 
ATOM      8  C   UNL A   1      30.064  22.924  26.875  1.00  0.00     0.331 C 
ATOM      9  H   UNL A   1      31.637  23.771  27.803  1.00  0.00     0.346 HD
ATOM     10  H   UNL A   1      31.379  24.232  26.170  1.00  0.00     0.346 HD
ENDBRANCH   6   7
BRANCH   6  11
ATOM     11  C   UNL A   1      32.269  21.889  25.047  1.00  0.00     0.010 A 
ATOM     12  C   UNL A   1      32.087  22.579  23.845  1.00  0.00     0.010 A 
ATOM     13  C   UNL A   1      32.318  20.479  24.981  1.00  0.00     0.014 A 
ATOM     14  C   UNL A   1      32.013  21.893  22.633  1.00  0.00     0.001 A 
ATOM     15  C   UNL A   1      32.331  19.759  23.773  1.00  0.00    -0.044 A 
ATOM     16  C   UNL A   1      32.155  20.505  22.600  1.00  0.00     0.004 A 
BRANCH  15  17
ATOM     17  C   UNL A   1      32.586  18.264  23.709  1.00  0.00     0.019 C 
ATOM     18  C   UNL A   1      33.834  17.669  24.327  1.00  0.00     0.009 C 
ATOM     19  C   UNL A   1      32.489  17.392  24.936  1.00  0.00     0.009 C 
ENDBRANCH  15  17
ENDBRANCH   6  11
ENDBRANCH   5   6
ENDBRANCH   3   5
ENDBRANCH   2   3
ENDBRANCH   1   2
BRANCH   1  20
ATOM     20  C   UNL A   1      37.259  20.436  25.002  1.00  0.00     0.275 C 
BRANCH  20  21
ATOM     21  O   UNL A   1      38.019  21.563  25.470  1.00  0.00    -0.458 OA
BRANCH  21  22
ATOM     22  C   UNL A   1      39.157  21.248  26.130  1.00  0.00     0.338 C 
ATOM     23  O   UNL A   1      39.691  20.152  26.213  1.00  0.00    -0.246 OA
BRANCH  22  24
ATOM     24  C   UNL A   1      39.748  22.482  26.657  1.00  0.00     0.060 A 
ATOM     25  C   UNL A   1      39.305  23.706  26.149  1.00  0.00     0.016 A 
ATOM     26  C   UNL A   1      40.774  22.430  27.598  1.00  0.00     0.016 A 
ATOM     27  C   UNL A   1      39.901  24.892  26.566  1.00  0.00     0.010 A 
ATOM     28  C   UNL A   1      41.355  23.623  28.034  1.00  0.00     0.010 A 
ATOM     29  C   UNL A   1      40.932  24.859  27.513  1.00  0.00    -0.014 A 
BRANCH  29  30
ATOM     30  C   UNL A   1      41.605  26.113  27.928  1.00  0.00     0.031 A 
ATOM     31  C   UNL A   1      40.829  27.153  28.684  1.00  0.00     0.074 A 
ATOM     32  C   UNL A   1      42.897  26.318  27.614  1.00  0.00     0.049 A 
ATOM     33  N   UNL A   1      41.167  28.377  28.995  1.00  0.00    -0.248 NA
ATOM     34  C   UNL A   1      39.488  26.760  29.141  1.00  0.00     0.031 C 
ATOM     35  C   UNL A   1      43.762  25.355  26.931  1.00  0.00     0.029 A 
ATOM     36  N   UNL A   1      43.704  27.408  27.816  1.00  0.00    -0.354 N 
ATOM     37  C   UNL A   1      40.072  28.913  29.664  1.00  0.00     0.074 A 
ATOM     38  C   UNL A   1      39.053  27.883  29.692  1.00  0.00     0.031 C 
ATOM     39  C   UNL A   1      44.976  25.902  26.760  1.00  0.00     0.029 A 
ATOM     40  C   UNL A   1      44.957  27.271  27.265  1.00  0.00     0.049 A 
ATOM     41  H   UNL A   1      43.415  28.210  28.308  1.00  0.00     0.167 HD
ATOM     42  C   UNL A   1      39.934  30.151  30.201  1.00  0.00     0.034 A 
ATOM     43  C   UNL A   1      45.958  28.164  27.141  1.00  0.00     0.034 A 
ATOM     44  C   UNL A   1      40.967  31.159  30.160  1.00  0.00     0.049 A 
ATOM     45  C   UNL A   1      45.758  29.557  27.682  1.00  0.00     0.074 A 
ATOM     46  C   UNL A   1      40.940  32.447  30.667  1.00  0.00     0.029 A 
ATOM     47  N   UNL A   1      42.215  30.994  29.571  1.00  0.00    -0.354 N 
ATOM     48  N   UNL A   1      44.705  30.068  28.276  1.00  0.00    -0.248 NA
ATOM     49  C   UNL A   1      46.881  30.491  27.533  1.00  0.00     0.031 C 
ATOM     50  C   UNL A   1      42.146  33.077  30.335  1.00  0.00     0.029 A 
ATOM     51  C   UNL A   1      42.955  32.162  29.681  1.00  0.00     0.049 A 
ATOM     52  H   UNL A   1      42.529  30.167  29.138  1.00  0.00     0.167 HD
ATOM     53  C   UNL A   1      45.047  31.381  28.588  1.00  0.00     0.074 A 
ATOM     54  C   UNL A   1      46.409  31.575  28.130  1.00  0.00     0.031 C 
ATOM     55  C   UNL A   1      44.306  32.340  29.199  1.00  0.00     0.034 A 
BRANCH  42  56
ATOM     56  C   UNL A   1      38.599  30.493  30.816  1.00  0.00     0.023 A 
ATOM     57  C   UNL A   1      37.571  31.101  30.071  1.00  0.00     0.031 A 
ATOM     58  C   UNL A   1      38.364  30.244  32.179  1.00  0.00     0.131 A 
ATOM     59  C   UNL A   1      36.388  31.502  30.711  1.00  0.00     0.055 A 
ATOM     60  C   UNL A   1      37.155  30.578  32.793  1.00  0.00     0.041 A 
ATOM     61  F   UNL A   1      39.316  29.687  32.945  1.00  0.00    -0.206 F 
ATOM     62  C   UNL A   1      36.164  31.225  32.061  1.00  0.00     0.022 A 
BRANCH  59  63
ATOM     63  S   UNL A   1      35.201  32.518  29.787  1.00  0.00     0.124 S 
ATOM     64  O   UNL A   1      34.733  31.576  28.772  1.00  0.00    -0.237 OA
ATOM     65  O   UNL A   1      34.234  32.885  30.814  1.00  0.00    -0.237 OA
ATOM     66  O   UNL A   1      36.016  33.618  29.274  1.00  0.00    -0.744 OA
ENDBRANCH  59  63
ENDBRANCH  42  56
BRANCH  43  67
ATOM     67  C   UNL A   1      47.209  27.793  26.422  1.00  0.00     0.023 A 
ATOM     68  C   UNL A   1      47.320  27.938  25.031  1.00  0.00     0.031 A 
ATOM     69  C   UNL A   1      48.307  27.258  27.121  1.00  0.00     0.131 A 
ATOM     70  C   UNL A   1      48.489  27.521  24.377  1.00  0.00     0.055 A 
ATOM     71  C   UNL A   1      49.485  26.890  26.472  1.00  0.00     0.041 A 
ATOM     72  F   UNL A   1      48.252  27.099  28.453  1.00  0.00    -0.206 F 
ATOM     73  C   UNL A   1      49.577  27.011  25.089  1.00  0.00     0.022 A 
BRANCH  70  74
ATOM     74  S   UNL A   1      48.544  27.590  22.566  1.00  0.00     0.124 S 
ATOM     75  O   UNL A   1      47.297  28.279  22.256  1.00  0.00    -0.237 OA
ATOM     76  O   UNL A   1      49.770  28.345  22.328  1.00  0.00    -0.237 OA
ATOM     77  O   UNL A   1      48.594  26.183  22.172  1.00  0.00    -0.744 OA
ENDBRANCH  70  74
ENDBRANCH  43  67
BRANCH  55  78
ATOM     78  C   UNL A   1      44.980  33.667  29.437  1.00  0.00     0.023 A 
ATOM     79  C   UNL A   1      44.859  34.731  28.527  1.00  0.00     0.031 A 
ATOM     80  C   UNL A   1      45.774  33.858  30.582  1.00  0.00     0.131 A 
ATOM     81  C   UNL A   1      45.565  35.922  28.749  1.00  0.00     0.055 A 
ATOM     82  C   UNL A   1      46.432  35.065  30.824  1.00  0.00     0.041 A 
ATOM     83  F   UNL A   1      45.925  32.873  31.482  1.00  0.00    -0.206 F 
ATOM     84  C   UNL A   1      46.340  36.100  29.899  1.00  0.00     0.022 A 
BRANCH  81  85
ATOM     85  S   UNL A   1      45.525  37.211  27.473  1.00  0.00     0.124 S 
ATOM     86  O   UNL A   1      46.044  38.369  28.196  1.00  0.00    -0.237 OA
ATOM     87  O   UNL A   1      46.397  36.659  26.443  1.00  0.00    -0.237 OA
ATOM     88  O   UNL A   1      44.112  37.291  27.110  1.00  0.00    -0.744 OA
ENDBRANCH  81  85
ENDBRANCH  55  78
ENDBRANCH  29  30
ENDBRANCH  22  24
ENDBRANCH  21  22
ENDBRANCH  20  21
ENDBRANCH   1  20
TORSDOF 18
ENDMDL
MODEL 3
REMARK VINA RESULT:      -9.2      5.289      8.977
REMARK SMILES C[NH2+][C@H](CC(=O)OCCOC(=O)c1ccc(-c2c3nc(c(-c4cc(S(=O)(=O)[O-])ccc4F)c4ccc([nH]4)c(-c4cc(S(=O)(=O)[O-])ccc4F)c4nc(c(-c5cc(S(=O)(=O)[O-])ccc5F)c5ccc2[nH]5)C=C4)C=C3)cc1)c1cccc(C2CC2)c1
REMARK SMILES IDX 8 1 7 2 5 3 6 4 4 5 3 6 2 7 1 8 76 11 77 12 84 13 78 14
REMARK SMILES IDX 80 15 79 16 81 17 82 18 83 19 9 20 10 21 11 22 12 23 13 24
REMARK SMILES IDX 14 25 75 26 15 27 74 28 16 29 17 30 18 31 68 32 19 33 73 34
REMARK SMILES IDX 67 35 69 36 20 37 72 38 66 39 65 40 21 42 53 43 33 44 52 45
REMARK SMILES IDX 34 46 37 47 51 48 70 49 35 50 36 51 50 53 71 54 38 55 22 56
REMARK SMILES IDX 23 57 31 58 24 59 30 60 32 61 29 62 25 63 26 64 27 65 28 66
REMARK SMILES IDX 54 67 55 68 63 69 56 70 62 71 64 72 61 73 57 74 58 75 59 76
REMARK SMILES IDX 60 77 39 78 40 79 48 80 41 81 47 82 49 83 46 84 42 85 43 86
REMARK SMILES IDX 44 87 45 88
REMARK H PARENT 2 9 2 10 69 41 37 52
REMARK Flexibility Score: inf
ROOT
ATOM      1  C   UNL A   1      35.335  20.668  25.076  1.00  0.00     0.274 C 
ENDROOT
BRANCH   1   2
ATOM      2  O   UNL A   1      34.630  21.643  24.289  1.00  0.00    -0.462 OA
BRANCH   2   3
ATOM      3  C   UNL A   1      34.380  22.851  24.845  1.00  0.00     0.312 C 
ATOM      4  O   UNL A   1      33.859  23.011  25.944  1.00  0.00    -0.252 OA
BRANCH   3   5
ATOM      5  C   UNL A   1      34.780  24.028  23.974  1.00  0.00     0.192 C 
BRANCH   5   6
ATOM      6  C   UNL A   1      33.665  24.829  23.253  1.00  0.00     0.224 C 
BRANCH   6   7
ATOM      7  N   UNL A   1      32.415  24.092  23.466  1.00  0.00    -0.342 N 
ATOM      8  C   UNL A   1      31.197  24.744  23.018  1.00  0.00     0.331 C 
ATOM      9  H   UNL A   1      32.491  23.203  22.971  1.00  0.00     0.346 HD
ATOM     10  H   UNL A   1      32.319  24.005  24.477  1.00  0.00     0.346 HD
ENDBRANCH   6   7
BRANCH   6  11
ATOM     11  C   UNL A   1      33.660  26.317  23.605  1.00  0.00     0.010 A 
ATOM     12  C   UNL A   1      33.698  27.339  22.651  1.00  0.00     0.010 A 
ATOM     13  C   UNL A   1      33.558  26.702  24.960  1.00  0.00     0.014 A 
ATOM     14  C   UNL A   1      33.583  28.675  23.033  1.00  0.00     0.001 A 
ATOM     15  C   UNL A   1      33.356  28.030  25.376  1.00  0.00    -0.044 A 
ATOM     16  C   UNL A   1      33.394  29.010  24.374  1.00  0.00     0.004 A 
BRANCH  15  17
ATOM     17  C   UNL A   1      33.047  28.404  26.814  1.00  0.00     0.019 C 
ATOM     18  C   UNL A   1      32.039  29.490  27.126  1.00  0.00     0.009 C 
ATOM     19  C   UNL A   1      31.727  28.058  27.455  1.00  0.00     0.009 C 
ENDBRANCH  15  17
ENDBRANCH   6  11
ENDBRANCH   5   6
ENDBRANCH   3   5
ENDBRANCH   2   3
ENDBRANCH   1   2
BRANCH   1  20
ATOM     20  C   UNL A   1      36.830  20.762  24.782  1.00  0.00     0.275 C 
BRANCH  20  21
ATOM     21  O   UNL A   1      37.458  21.633  25.738  1.00  0.00    -0.458 OA
BRANCH  21  22
ATOM     22  C   UNL A   1      38.751  21.343  26.010  1.00  0.00     0.338 C 
ATOM     23  O   UNL A   1      39.351  20.308  25.759  1.00  0.00    -0.246 OA
BRANCH  22  24
ATOM     24  C   UNL A   1      39.390  22.540  26.566  1.00  0.00     0.060 A 
ATOM     25  C   UNL A   1      38.943  23.795  26.145  1.00  0.00     0.016 A 
ATOM     26  C   UNL A   1      40.464  22.424  27.446  1.00  0.00     0.016 A 
ATOM     27  C   UNL A   1      39.581  24.948  26.590  1.00  0.00     0.010 A 
ATOM     28  C   UNL A   1      41.089  23.583  27.910  1.00  0.00     0.010 A 
ATOM     29  C   UNL A   1      40.661  24.851  27.476  1.00  0.00    -0.014 A 
BRANCH  29  30
ATOM     30  C   UNL A   1      41.376  26.072  27.918  1.00  0.00     0.031 A 
ATOM     31  C   UNL A   1      40.635  27.127  28.687  1.00  0.00     0.074 A 
ATOM     32  C   UNL A   1      42.678  26.234  27.615  1.00  0.00     0.049 A 
ATOM     33  N   UNL A   1      41.016  28.331  29.022  1.00  0.00    -0.248 NA
ATOM     34  C   UNL A   1      39.277  26.775  29.129  1.00  0.00     0.031 C 
ATOM     35  C   UNL A   1      43.511  25.251  26.921  1.00  0.00     0.029 A 
ATOM     36  N   UNL A   1      43.523  27.289  27.842  1.00  0.00    -0.354 N 
ATOM     37  C   UNL A   1      39.937  28.896  29.693  1.00  0.00     0.074 A 
ATOM     38  C   UNL A   1      38.880  27.905  29.697  1.00  0.00     0.031 C 
ATOM     39  C   UNL A   1      44.745  25.755  26.767  1.00  0.00     0.029 A 
ATOM     40  C   UNL A   1      44.774  27.115  27.296  1.00  0.00     0.049 A 
ATOM     41  H   UNL A   1      43.261  28.093  28.345  1.00  0.00     0.167 HD
ATOM     42  C   UNL A   1      39.842  30.129  30.251  1.00  0.00     0.034 A 
ATOM     43  C   UNL A   1      45.808  27.973  27.194  1.00  0.00     0.034 A 
ATOM     44  C   UNL A   1      40.912  31.099  30.233  1.00  0.00     0.049 A 
ATOM     45  C   UNL A   1      45.657  29.362  27.758  1.00  0.00     0.074 A 
ATOM     46  C   UNL A   1      40.929  32.378  30.763  1.00  0.00     0.029 A 
ATOM     47  N   UNL A   1      42.157  30.897  29.649  1.00  0.00    -0.354 N 
ATOM     48  N   UNL A   1      44.619  29.902  28.354  1.00  0.00    -0.248 NA
ATOM     49  C   UNL A   1      46.815  30.256  27.632  1.00  0.00     0.031 C 
ATOM     50  C   UNL A   1      42.160  32.968  30.450  1.00  0.00     0.029 A 
ATOM     51  C   UNL A   1      42.939  32.034  29.785  1.00  0.00     0.049 A 
ATOM     52  H   UNL A   1      42.443  30.067  29.204  1.00  0.00     0.167 HD
ATOM     53  C   UNL A   1      45.008  31.195  28.691  1.00  0.00     0.074 A 
ATOM     54  C   UNL A   1      46.378  31.346  28.245  1.00  0.00     0.031 C 
ATOM     55  C   UNL A   1      44.298  32.170  29.314  1.00  0.00     0.034 A 
BRANCH  42  56
ATOM     56  C   UNL A   1      38.516  30.509  30.863  1.00  0.00     0.023 A 
ATOM     57  C   UNL A   1      37.506  31.143  30.116  1.00  0.00     0.031 A 
ATOM     58  C   UNL A   1      38.273  30.272  32.227  1.00  0.00     0.131 A 
ATOM     59  C   UNL A   1      36.334  31.579  30.753  1.00  0.00     0.055 A 
ATOM     60  C   UNL A   1      37.073  30.641  32.839  1.00  0.00     0.041 A 
ATOM     61  F   UNL A   1      39.209  29.692  32.996  1.00  0.00    -0.206 F 
ATOM     62  C   UNL A   1      36.101  31.313  32.104  1.00  0.00     0.022 A 
BRANCH  59  63
ATOM     63  S   UNL A   1      35.176  32.624  29.824  1.00  0.00     0.124 S 
ATOM     64  O   UNL A   1      34.238  33.028  30.870  1.00  0.00    -0.237 OA
ATOM     65  O   UNL A   1      36.045  33.673  29.304  1.00  0.00    -0.237 OA
ATOM     66  O   UNL A   1      34.623  31.717  28.820  1.00  0.00    -0.744 OA
ENDBRANCH  59  63
ENDBRANCH  42  56
BRANCH  43  67
ATOM     67  C   UNL A   1      47.050  27.568  26.476  1.00  0.00     0.023 A 
ATOM     68  C   UNL A   1      47.195  27.779  25.097  1.00  0.00     0.031 A 
ATOM     69  C   UNL A   1      48.101  26.933  27.163  1.00  0.00     0.131 A 
ATOM     70  C   UNL A   1      48.350  27.329  24.440  1.00  0.00     0.055 A 
ATOM     71  C   UNL A   1      49.268  26.531  26.514  1.00  0.00     0.041 A 
ATOM     72  F   UNL A   1      48.012  26.708  28.483  1.00  0.00    -0.206 F 
ATOM     73  C   UNL A   1      49.394  26.719  25.141  1.00  0.00     0.022 A 
BRANCH  70  74
ATOM     74  S   UNL A   1      48.444  27.490  22.636  1.00  0.00     0.124 S 
ATOM     75  O   UNL A   1      48.438  26.096  22.211  1.00  0.00    -0.237 OA
ATOM     76  O   UNL A   1      47.238  28.257  22.337  1.00  0.00    -0.237 OA
ATOM     77  O   UNL A   1      49.702  28.203  22.422  1.00  0.00    -0.744 OA
ENDBRANCH  70  74
ENDBRANCH  43  67
BRANCH  55  78
ATOM     78  C   UNL A   1      45.020  33.467  29.580  1.00  0.00     0.023 A 
ATOM     79  C   UNL A   1      45.741  33.681  30.767  1.00  0.00     0.031 A 
ATOM     80  C   UNL A   1      44.964  34.511  28.639  1.00  0.00     0.131 A 
ATOM     81  C   UNL A   1      46.334  34.929  31.008  1.00  0.00     0.055 A 
ATOM     82  C   UNL A   1      45.600  35.733  28.861  1.00  0.00     0.041 A 
ATOM     83  F   UNL A   1      44.285  34.359  27.490  1.00  0.00    -0.206 F 
ATOM     84  C   UNL A   1      46.279  35.951  30.056  1.00  0.00     0.022 A 
BRANCH  81  85
ATOM     85  S   UNL A   1      47.110  35.231  32.619  1.00  0.00     0.124 S 
ATOM     86  O   UNL A   1      45.959  35.209  33.518  1.00  0.00    -0.237 OA
ATOM     87  O   UNL A   1      48.033  34.108  32.738  1.00  0.00    -0.237 OA
ATOM     88  O   UNL A   1      47.743  36.538  32.456  1.00  0.00    -0.744 OA
ENDBRANCH  81  85
ENDBRANCH  55  78
ENDBRANCH  29  30
ENDBRANCH  22  24
ENDBRANCH  21  22
ENDBRANCH  20  21
ENDBRANCH   1  20
TORSDOF 18
ENDMDL
