MODEL 1
REMARK VINA RESULT:     -11.1      0.000      0.000
REMARK SMILES O=C(CCCN1C(=O)/C(=C/c2ccccc2Cl)SC1=S)Nc1cccc(C(=O)OCCOC(=O)c2ccc(-c3c4nc(c(-c5cc(S(=O)(=O)[O-])ccc5F)c5ccc([nH]5)c(-c5cc(S(=O)(=O)[O-])ccc5F)c5nc(c(-c6cc(S(=O)(=O)[O-])ccc6F)c6ccc3[nH]6)C=C5)C=C4)cc2)c1
REMARK SMILES IDX 29 1 27 2 28 3 26 4 22 5 23 6 98 7 24 8 25 9 21 10 1 11 2 12
REMARK SMILES IDX 3 14 4 15 5 16 6 17 7 18 19 19 8 20 9 21 18 22 20 23 10 24
REMARK SMILES IDX 11 25 12 26 16 27 13 28 15 29 17 30 14 31 30 32 31 33 32 34
REMARK SMILES IDX 33 35 34 36 35 37 36 38 97 39 37 40 96 41 38 42 39 43 40 44
REMARK SMILES IDX 90 45 41 46 95 47 89 48 91 49 42 50 94 51 88 52 87 53 43 55
REMARK SMILES IDX 75 56 55 57 74 58 56 59 59 60 73 61 92 62 57 63 58 64 72 66
REMARK SMILES IDX 93 67 60 68 44 69 45 70 53 71 46 72 52 73 54 74 51 75 47 76
REMARK SMILES IDX 48 77 49 78 50 79 76 80 77 81 85 82 78 83 84 84 86 85 83 86
REMARK SMILES IDX 79 87 80 88 81 89 82 90 61 91 62 92 70 93 63 94 69 95 71 96
REMARK SMILES IDX 68 97 64 98 65 99 66 100 67 101
REMARK H PARENT 21 13 91 54 59 65
REMARK Flexibility Score: inf
ROOT
ATOM      1  O   UNL A   1      40.953  20.078  27.263  1.00  0.00    -0.458 OA
ENDROOT
BRANCH   1   2
ATOM      2  C   UNL A   1      41.336  21.360  27.494  1.00  0.00     0.338 C 
ATOM      3  O   UNL A   1      42.444  21.736  27.843  1.00  0.00    -0.246 OA
BRANCH   2   4
ATOM      4  C   UNL A   1      40.236  22.285  27.123  1.00  0.00     0.062 A 
ATOM      5  C   UNL A   1      38.365  22.889  25.720  1.00  0.00     0.042 A 
ATOM      6  C   UNL A   1      38.375  24.180  26.258  1.00  0.00     0.026 A 
ATOM      7  C   UNL A   1      39.330  21.960  26.114  1.00  0.00     0.041 A 
ATOM      8  C   UNL A   1      39.235  24.484  27.310  1.00  0.00     0.003 A 
ATOM      9  C   UNL A   1      40.125  23.518  27.778  1.00  0.00     0.016 A 
BRANCH   5  10
ATOM     10  N   UNL A   1      37.339  22.569  24.815  1.00  0.00    -0.326 N 
ATOM     11  O   UNL A   1      35.654  22.109  26.353  1.00  0.00    -0.275 OA
ATOM     12  C   UNL A   1      36.063  22.203  25.198  1.00  0.00     0.224 C 
ATOM     13  H   UNL A   1      37.541  22.607  23.852  1.00  0.00     0.169 HD
BRANCH  12  14
ATOM     14  C   UNL A   1      35.132  21.899  24.051  1.00  0.00     0.102 C 
BRANCH  14  15
ATOM     15  C   UNL A   1      33.671  21.687  24.449  1.00  0.00     0.032 C 
BRANCH  15  16
ATOM     16  C   UNL A   1      32.623  22.593  23.782  1.00  0.00     0.128 C 
BRANCH  16  17
ATOM     17  N   UNL A   1      32.378  23.891  24.415  1.00  0.00    -0.293 N 
ATOM     18  C   UNL A   1      33.082  24.997  23.953  1.00  0.00     0.266 C 
ATOM     19  C   UNL A   1      31.595  24.112  25.531  1.00  0.00     0.148 C 
ATOM     20  O   UNL A   1      33.834  25.010  22.989  1.00  0.00    -0.268 OA
ATOM     21  C   UNL A   1      32.797  26.181  24.807  1.00  0.00     0.081 C 
ATOM     22  S   UNL A   1      31.428  25.841  25.788  1.00  0.00    -0.054 SA
ATOM     23  S   UNL A   1      30.871  23.001  26.542  1.00  0.00    -0.052 S 
ATOM     24  C   UNL A   1      33.566  27.280  24.819  1.00  0.00     0.031 C 
BRANCH  24  25
ATOM     25  C   UNL A   1      33.335  28.473  25.655  1.00  0.00    -0.006 A 
ATOM     26  C   UNL A   1      34.200  28.660  26.744  1.00  0.00     0.010 A 
ATOM     27  C   UNL A   1      32.329  29.432  25.430  1.00  0.00     0.048 A 
ATOM     28  C   UNL A   1      34.113  29.803  27.541  1.00  0.00     0.001 A 
ATOM     29  C   UNL A   1      32.268  30.594  26.208  1.00  0.00     0.021 A 
ATOM     30  Cl  UNL A   1      31.088  29.222  24.237  1.00  0.00    -0.084 Cl
ATOM     31  C   UNL A   1      33.166  30.783  27.256  1.00  0.00     0.002 A 
ENDBRANCH  24  25
ENDBRANCH  16  17
ENDBRANCH  15  16
ENDBRANCH  14  15
ENDBRANCH  12  14
ENDBRANCH   5  10
ENDBRANCH   2   4
ENDBRANCH   1   2
BRANCH   1  32
ATOM     32  C   UNL A   1      41.999  19.092  27.157  1.00  0.00     0.275 C 
BRANCH  32  33
ATOM     33  C   UNL A   1      42.520  19.003  25.722  1.00  0.00     0.275 C 
BRANCH  33  34
ATOM     34  O   UNL A   1      43.953  19.130  25.713  1.00  0.00    -0.458 OA
BRANCH  34  35
ATOM     35  C   UNL A   1      44.491  19.588  24.559  1.00  0.00     0.338 C 
ATOM     36  O   UNL A   1      44.521  19.027  23.478  1.00  0.00    -0.246 OA
BRANCH  35  37
ATOM     37  C   UNL A   1      44.964  20.965  24.763  1.00  0.00     0.060 A 
ATOM     38  C   UNL A   1      45.452  21.293  26.023  1.00  0.00     0.016 A 
ATOM     39  C   UNL A   1      44.799  21.952  23.798  1.00  0.00     0.016 A 
ATOM     40  C   UNL A   1      45.712  22.616  26.365  1.00  0.00     0.010 A 
ATOM     41  C   UNL A   1      45.120  23.280  24.119  1.00  0.00     0.010 A 
ATOM     42  C   UNL A   1      45.539  23.632  25.419  1.00  0.00    -0.014 A 
BRANCH  42  43
ATOM     43  C   UNL A   1      45.666  25.061  25.831  1.00  0.00     0.031 A 
ATOM     44  C   UNL A   1      46.997  25.755  25.684  1.00  0.00     0.074 A 
ATOM     45  C   UNL A   1      44.601  25.760  26.273  1.00  0.00     0.049 A 
ATOM     46  N   UNL A   1      47.379  26.928  26.118  1.00  0.00    -0.248 NA
ATOM     47  C   UNL A   1      48.040  25.014  24.960  1.00  0.00     0.031 C 
ATOM     48  C   UNL A   1      43.236  25.245  26.385  1.00  0.00     0.029 A 
ATOM     49  N   UNL A   1      44.498  27.062  26.698  1.00  0.00    -0.354 N 
ATOM     50  C   UNL A   1      48.722  27.043  25.770  1.00  0.00     0.074 A 
ATOM     51  C   UNL A   1      49.087  25.808  25.108  1.00  0.00     0.031 C 
ATOM     52  C   UNL A   1      42.429  26.229  26.814  1.00  0.00     0.029 A 
ATOM     53  C   UNL A   1      43.228  27.418  27.090  1.00  0.00     0.049 A 
ATOM     54  H   UNL A   1      45.262  27.684  26.719  1.00  0.00     0.167 HD
ATOM     55  C   UNL A   1      49.570  28.083  25.979  1.00  0.00     0.034 A 
ATOM     56  C   UNL A   1      42.765  28.558  27.645  1.00  0.00     0.034 A 
ATOM     57  C   UNL A   1      49.178  29.325  26.603  1.00  0.00     0.049 A 
ATOM     58  C   UNL A   1      43.735  29.679  27.924  1.00  0.00     0.074 A 
ATOM     59  C   UNL A   1      49.954  30.436  26.884  1.00  0.00     0.029 A 
ATOM     60  N   UNL A   1      47.891  29.627  27.032  1.00  0.00    -0.354 N 
ATOM     61  N   UNL A   1      45.023  29.741  27.678  1.00  0.00    -0.248 NA
ATOM     62  C   UNL A   1      43.186  30.881  28.565  1.00  0.00     0.031 C 
ATOM     63  C   UNL A   1      49.152  31.386  27.528  1.00  0.00     0.029 A 
ATOM     64  C   UNL A   1      47.856  30.899  27.586  1.00  0.00     0.049 A 
ATOM     65  H   UNL A   1      47.115  29.025  26.955  1.00  0.00     0.167 HD
ATOM     66  C   UNL A   1      45.433  30.998  28.114  1.00  0.00     0.074 A 
ATOM     67  C   UNL A   1      44.252  31.666  28.622  1.00  0.00     0.031 C 
ATOM     68  C   UNL A   1      46.673  31.550  28.095  1.00  0.00     0.034 A 
BRANCH  55  69
ATOM     69  C   UNL A   1      51.016  27.882  25.587  1.00  0.00     0.023 A 
ATOM     70  C   UNL A   1      51.450  27.975  24.252  1.00  0.00     0.031 A 
ATOM     71  C   UNL A   1      51.966  27.525  26.561  1.00  0.00     0.131 A 
ATOM     72  C   UNL A   1      52.768  27.625  23.918  1.00  0.00     0.055 A 
ATOM     73  C   UNL A   1      53.299  27.267  26.235  1.00  0.00     0.041 A 
ATOM     74  F   UNL A   1      51.610  27.398  27.850  1.00  0.00    -0.206 F 
ATOM     75  C   UNL A   1      53.702  27.297  24.903  1.00  0.00     0.022 A 
BRANCH  72  76
ATOM     76  S   UNL A   1      53.197  27.439  22.165  1.00  0.00     0.124 S 
ATOM     77  O   UNL A   1      54.456  26.704  22.243  1.00  0.00    -0.237 OA
ATOM     78  O   UNL A   1      52.057  26.699  21.637  1.00  0.00    -0.237 OA
ATOM     79  O   UNL A   1      53.318  28.817  21.693  1.00  0.00    -0.744 OA
ENDBRANCH  72  76
ENDBRANCH  55  69
BRANCH  56  80
ATOM     80  C   UNL A   1      41.330  28.682  28.032  1.00  0.00     0.023 A 
ATOM     81  C   UNL A   1      40.923  28.543  29.368  1.00  0.00     0.031 A 
ATOM     82  C   UNL A   1      40.336  28.897  27.060  1.00  0.00     0.131 A 
ATOM     83  C   UNL A   1      39.557  28.586  29.692  1.00  0.00     0.055 A 
ATOM     84  C   UNL A   1      38.985  28.993  27.393  1.00  0.00     0.041 A 
ATOM     85  F   UNL A   1      40.669  29.031  25.766  1.00  0.00    -0.206 F 
ATOM     86  C   UNL A   1      38.587  28.825  28.716  1.00  0.00     0.022 A 
BRANCH  83  87
ATOM     87  S   UNL A   1      39.055  28.245  31.402  1.00  0.00     0.124 S 
ATOM     88  O   UNL A   1      38.407  26.946  31.268  1.00  0.00    -0.237 OA
ATOM     89  O   UNL A   1      40.336  28.254  32.101  1.00  0.00    -0.237 OA
ATOM     90  O   UNL A   1      38.165  29.358  31.724  1.00  0.00    -0.744 OA
ENDBRANCH  83  87
ENDBRANCH  56  80
BRANCH  68  91
ATOM     91  C   UNL A   1      46.794  32.972  28.589  1.00  0.00     0.023 A 
ATOM     92  C   UNL A   1      46.589  34.074  27.739  1.00  0.00     0.031 A 
ATOM     93  C   UNL A   1      47.148  33.224  29.926  1.00  0.00     0.131 A 
ATOM     94  C   UNL A   1      46.793  35.376  28.222  1.00  0.00     0.055 A 
ATOM     95  C   UNL A   1      47.295  34.523  30.415  1.00  0.00     0.041 A 
ATOM     96  F   UNL A   1      47.359  32.209  30.780  1.00  0.00    -0.206 F 
ATOM     97  C   UNL A   1      47.131  35.607  29.559  1.00  0.00     0.022 A 
BRANCH  94  98
ATOM     98  S   UNL A   1      46.705  36.763  27.057  1.00  0.00     0.124 S 
ATOM     99  O   UNL A   1      47.910  37.516  27.387  1.00  0.00    -0.237 OA
ATOM    100  O   UNL A   1      46.711  36.085  25.765  1.00  0.00    -0.237 OA
ATOM    101  O   UNL A   1      45.447  37.423  27.403  1.00  0.00    -0.744 OA
ENDBRANCH  94  98
ENDBRANCH  68  91
ENDBRANCH  42  43
ENDBRANCH  35  37
ENDBRANCH  34  35
ENDBRANCH  33  34
ENDBRANCH  32  33
ENDBRANCH   1  32
TORSDOF 20
ENDMDL
MODEL 2
REMARK VINA RESULT:     -10.7      1.859      7.414
REMARK SMILES O=C(CCCN1C(=O)/C(=C/c2ccccc2Cl)SC1=S)Nc1cccc(C(=O)OCCOC(=O)c2ccc(-c3c4nc(c(-c5cc(S(=O)(=O)[O-])ccc5F)c5ccc([nH]5)c(-c5cc(S(=O)(=O)[O-])ccc5F)c5nc(c(-c6cc(S(=O)(=O)[O-])ccc6F)c6ccc3[nH]6)C=C5)C=C4)cc2)c1
REMARK SMILES IDX 29 1 27 2 28 3 26 4 22 5 23 6 98 7 24 8 25 9 21 10 1 11 2 12
REMARK SMILES IDX 3 14 4 15 5 16 6 17 7 18 19 19 8 20 9 21 18 22 20 23 10 24
REMARK SMILES IDX 11 25 12 26 16 27 13 28 15 29 17 30 14 31 30 32 31 33 32 34
REMARK SMILES IDX 33 35 34 36 35 37 36 38 97 39 37 40 96 41 38 42 39 43 40 44
REMARK SMILES IDX 90 45 41 46 95 47 89 48 91 49 42 50 94 51 88 52 87 53 43 55
REMARK SMILES IDX 75 56 55 57 74 58 56 59 59 60 73 61 92 62 57 63 58 64 72 66
REMARK SMILES IDX 93 67 60 68 44 69 45 70 53 71 46 72 52 73 54 74 51 75 47 76
REMARK SMILES IDX 48 77 49 78 50 79 76 80 77 81 85 82 78 83 84 84 86 85 83 86
REMARK SMILES IDX 79 87 80 88 81 89 82 90 61 91 62 92 70 93 63 94 69 95 71 96
REMARK SMILES IDX 68 97 64 98 65 99 66 100 67 101
REMARK H PARENT 21 13 91 54 59 65
REMARK Flexibility Score: inf
ROOT
ATOM      1  O   UNL A   1      40.941  20.363  27.759  1.00  0.00    -0.458 OA
ENDROOT
BRANCH   1   2
ATOM      2  C   UNL A   1      41.342  21.653  27.888  1.00  0.00     0.338 C 
ATOM      3  O   UNL A   1      42.437  22.041  28.263  1.00  0.00    -0.246 OA
BRANCH   2   4
ATOM      4  C   UNL A   1      40.288  22.559  27.366  1.00  0.00     0.062 A 
ATOM      5  C   UNL A   1      38.438  23.014  25.880  1.00  0.00     0.042 A 
ATOM      6  C   UNL A   1      38.520  24.374  26.193  1.00  0.00     0.026 A 
ATOM      7  C   UNL A   1      39.358  22.116  26.426  1.00  0.00     0.041 A 
ATOM      8  C   UNL A   1      39.403  24.806  27.179  1.00  0.00     0.003 A 
ATOM      9  C   UNL A   1      40.246  23.889  27.803  1.00  0.00     0.016 A 
BRANCH   5  10
ATOM     10  N   UNL A   1      37.389  22.600  25.042  1.00  0.00    -0.326 N 
ATOM     11  O   UNL A   1      35.610  23.028  26.479  1.00  0.00    -0.275 OA
ATOM     12  C   UNL A   1      36.057  22.637  25.403  1.00  0.00     0.224 C 
ATOM     13  H   UNL A   1      37.618  22.263  24.146  1.00  0.00     0.169 HD
BRANCH  12  14
ATOM     14  C   UNL A   1      35.110  22.135  24.342  1.00  0.00     0.102 C 
BRANCH  14  15
ATOM     15  C   UNL A   1      34.750  23.159  23.266  1.00  0.00     0.032 C 
BRANCH  15  16
ATOM     16  C   UNL A   1      33.350  23.057  22.638  1.00  0.00     0.128 C 
BRANCH  16  17
ATOM     17  N   UNL A   1      32.442  24.183  22.867  1.00  0.00    -0.293 N 
ATOM     18  C   UNL A   1      32.662  25.364  22.167  1.00  0.00     0.266 C 
ATOM     19  C   UNL A   1      31.443  24.238  23.820  1.00  0.00     0.148 C 
ATOM     20  O   UNL A   1      33.502  25.527  21.294  1.00  0.00    -0.268 OA
ATOM     21  C   UNL A   1      31.728  26.422  22.637  1.00  0.00     0.081 C 
ATOM     22  S   UNL A   1      30.487  25.690  23.575  1.00  0.00    -0.054 SA
ATOM     23  S   UNL A   1      31.102  23.159  25.045  1.00  0.00    -0.052 S 
ATOM     24  C   UNL A   1      31.916  27.728  22.398  1.00  0.00     0.031 C 
BRANCH  24  25
ATOM     25  C   UNL A   1      31.028  28.815  22.852  1.00  0.00    -0.006 A 
ATOM     26  C   UNL A   1      29.907  29.091  22.053  1.00  0.00     0.010 A 
ATOM     27  C   UNL A   1      31.217  29.574  24.022  1.00  0.00     0.048 A 
ATOM     28  C   UNL A   1      28.964  30.043  22.445  1.00  0.00     0.001 A 
ATOM     29  C   UNL A   1      30.251  30.502  24.430  1.00  0.00     0.021 A 
ATOM     30  Cl  UNL A   1      32.651  29.459  24.989  1.00  0.00    -0.084 Cl
ATOM     31  C   UNL A   1      29.121  30.729  23.647  1.00  0.00     0.002 A 
ENDBRANCH  24  25
ENDBRANCH  16  17
ENDBRANCH  15  16
ENDBRANCH  14  15
ENDBRANCH  12  14
ENDBRANCH   5  10
ENDBRANCH   2   4
ENDBRANCH   1   2
BRANCH   1  32
ATOM     32  C   UNL A   1      41.936  19.408  27.337  1.00  0.00     0.275 C 
BRANCH  32  33
ATOM     33  C   UNL A   1      42.364  19.671  25.893  1.00  0.00     0.275 C 
BRANCH  33  34
ATOM     34  O   UNL A   1      43.798  19.622  25.791  1.00  0.00    -0.458 OA
BRANCH  34  35
ATOM     35  C   UNL A   1      44.317  20.069  24.624  1.00  0.00     0.338 C 
ATOM     36  O   UNL A   1      44.214  19.561  23.521  1.00  0.00    -0.246 OA
BRANCH  35  37
ATOM     37  C   UNL A   1      44.962  21.371  24.852  1.00  0.00     0.060 A 
ATOM     38  C   UNL A   1      45.456  21.624  26.126  1.00  0.00     0.016 A 
ATOM     39  C   UNL A   1      44.953  22.377  23.893  1.00  0.00     0.016 A 
ATOM     40  C   UNL A   1      45.880  22.899  26.487  1.00  0.00     0.010 A 
ATOM     41  C   UNL A   1      45.437  23.648  24.234  1.00  0.00     0.010 A 
ATOM     42  C   UNL A   1      45.866  23.935  25.547  1.00  0.00    -0.014 A 
BRANCH  42  43
ATOM     43  C   UNL A   1      46.170  25.331  25.975  1.00  0.00     0.031 A 
ATOM     44  C   UNL A   1      45.059  26.197  26.514  1.00  0.00     0.074 A 
ATOM     45  C   UNL A   1      47.430  25.812  25.950  1.00  0.00     0.049 A 
ATOM     46  N   UNL A   1      45.056  27.474  26.794  1.00  0.00    -0.248 NA
ATOM     47  C   UNL A   1      43.772  25.527  26.753  1.00  0.00     0.031 C 
ATOM     48  C   UNL A   1      48.616  25.062  25.538  1.00  0.00     0.029 A 
ATOM     49  N   UNL A   1      47.924  27.048  26.293  1.00  0.00    -0.354 N 
ATOM     50  C   UNL A   1      43.756  27.775  27.188  1.00  0.00     0.074 A 
ATOM     51  C   UNL A   1      42.997  26.545  27.088  1.00  0.00     0.031 C 
ATOM     52  C   UNL A   1      49.701  25.839  25.684  1.00  0.00     0.029 A 
ATOM     53  C   UNL A   1      49.283  27.169  26.119  1.00  0.00     0.049 A 
ATOM     54  H   UNL A   1      47.358  27.778  26.634  1.00  0.00     0.167 HD
ATOM     55  C   UNL A   1      43.244  28.963  27.600  1.00  0.00     0.034 A 
ATOM     56  C   UNL A   1      50.096  28.237  26.253  1.00  0.00     0.034 A 
ATOM     57  C   UNL A   1      44.025  30.170  27.734  1.00  0.00     0.049 A 
ATOM     58  C   UNL A   1      49.498  29.563  26.653  1.00  0.00     0.074 A 
ATOM     59  C   UNL A   1      43.609  31.433  28.121  1.00  0.00     0.029 A 
ATOM     60  N   UNL A   1      45.392  30.262  27.498  1.00  0.00    -0.354 N 
ATOM     61  N   UNL A   1      48.250  29.858  26.932  1.00  0.00    -0.248 NA
ATOM     62  C   UNL A   1      50.421  30.701  26.748  1.00  0.00     0.031 C 
ATOM     63  C   UNL A   1      44.709  32.297  28.068  1.00  0.00     0.029 A 
ATOM     64  C   UNL A   1      45.829  31.560  27.719  1.00  0.00     0.049 A 
ATOM     65  H   UNL A   1      45.966  29.514  27.215  1.00  0.00     0.167 HD
ATOM     66  C   UNL A   1      48.243  31.212  27.256  1.00  0.00     0.074 A 
ATOM     67  C   UNL A   1      49.614  31.669  27.155  1.00  0.00     0.031 C 
ATOM     68  C   UNL A   1      47.199  32.005  27.607  1.00  0.00     0.034 A 
BRANCH  55  69
ATOM     69  C   UNL A   1      41.756  29.017  27.863  1.00  0.00     0.023 A 
ATOM     70  C   UNL A   1      41.225  28.985  29.165  1.00  0.00     0.031 A 
ATOM     71  C   UNL A   1      40.851  29.035  26.787  1.00  0.00     0.131 A 
ATOM     72  C   UNL A   1      39.838  28.878  29.354  1.00  0.00     0.055 A 
ATOM     73  C   UNL A   1      39.468  29.021  26.983  1.00  0.00     0.041 A 
ATOM     74  F   UNL A   1      41.295  29.045  25.520  1.00  0.00    -0.206 F 
ATOM     75  C   UNL A   1      38.954  28.922  28.273  1.00  0.00     0.022 A 
BRANCH  72  76
ATOM     76  S   UNL A   1      39.216  28.508  31.018  1.00  0.00     0.124 S 
ATOM     77  O   UNL A   1      40.452  28.459  31.793  1.00  0.00    -0.237 OA
ATOM     78  O   UNL A   1      38.337  29.640  31.286  1.00  0.00    -0.237 OA
ATOM     79  O   UNL A   1      38.542  27.221  30.854  1.00  0.00    -0.744 OA
ENDBRANCH  72  76
ENDBRANCH  55  69
BRANCH  56  80
ATOM     80  C   UNL A   1      51.553  28.122  25.952  1.00  0.00     0.023 A 
ATOM     81  C   UNL A   1      52.473  27.745  26.944  1.00  0.00     0.031 A 
ATOM     82  C   UNL A   1      52.053  28.435  24.675  1.00  0.00     0.131 A 
ATOM     83  C   UNL A   1      53.846  27.722  26.653  1.00  0.00     0.055 A 
ATOM     84  C   UNL A   1      53.414  28.359  24.375  1.00  0.00     0.041 A 
ATOM     85  F   UNL A   1      51.219  28.808  23.691  1.00  0.00    -0.206 F 
ATOM     86  C   UNL A   1      54.322  28.012  25.371  1.00  0.00     0.022 A 
BRANCH  83  87
ATOM     87  S   UNL A   1      55.016  27.384  27.996  1.00  0.00     0.124 S 
ATOM     88  O   UNL A   1      56.060  26.639  27.302  1.00  0.00    -0.237 OA
ATOM     89  O   UNL A   1      55.373  28.730  28.435  1.00  0.00    -0.237 OA
ATOM     90  O   UNL A   1      54.225  26.610  28.951  1.00  0.00    -0.744 OA
ENDBRANCH  83  87
ENDBRANCH  56  80
BRANCH  68  91
ATOM     91  C   UNL A   1      47.518  33.437  27.964  1.00  0.00     0.023 A 
ATOM     92  C   UNL A   1      47.661  34.433  26.982  1.00  0.00     0.031 A 
ATOM     93  C   UNL A   1      47.708  33.800  29.309  1.00  0.00     0.131 A 
ATOM     94  C   UNL A   1      48.039  35.732  27.356  1.00  0.00     0.055 A 
ATOM     95  C   UNL A   1      48.028  35.107  29.679  1.00  0.00     0.041 A 
ATOM     96  F   UNL A   1      47.585  32.888  30.287  1.00  0.00    -0.206 F 
ATOM     97  C   UNL A   1      48.209  36.079  28.699  1.00  0.00     0.022 A 
BRANCH  94  98
ATOM     98  S   UNL A   1      48.400  36.944  26.055  1.00  0.00     0.124 S 
ATOM     99  O   UNL A   1      47.077  37.490  25.772  1.00  0.00    -0.237 OA
ATOM    100  O   UNL A   1      49.332  37.848  26.722  1.00  0.00    -0.237 OA
ATOM    101  O   UNL A   1      48.981  36.137  24.984  1.00  0.00    -0.744 OA
ENDBRANCH  94  98
ENDBRANCH  68  91
ENDBRANCH  42  43
ENDBRANCH  35  37
ENDBRANCH  34  35
ENDBRANCH  33  34
ENDBRANCH  32  33
ENDBRANCH   1  32
TORSDOF 20
ENDMDL
MODEL 3
REMARK VINA RESULT:     -10.6      2.791      3.867
REMARK SMILES O=C(CCCN1C(=O)/C(=C/c2ccccc2Cl)SC1=S)Nc1cccc(C(=O)OCCOC(=O)c2ccc(-c3c4nc(c(-c5cc(S(=O)(=O)[O-])ccc5F)c5ccc([nH]5)c(-c5cc(S(=O)(=O)[O-])ccc5F)c5nc(c(-c6cc(S(=O)(=O)[O-])ccc6F)c6ccc3[nH]6)C=C5)C=C4)cc2)c1
REMARK SMILES IDX 29 1 27 2 28 3 26 4 22 5 23 6 98 7 24 8 25 9 21 10 1 11 2 12
REMARK SMILES IDX 3 14 4 15 5 16 6 17 7 18 19 19 8 20 9 21 18 22 20 23 10 24
REMARK SMILES IDX 11 25 12 26 16 27 13 28 15 29 17 30 14 31 30 32 31 33 32 34
REMARK SMILES IDX 33 35 34 36 35 37 36 38 97 39 37 40 96 41 38 42 39 43 40 44
REMARK SMILES IDX 90 45 41 46 95 47 89 48 91 49 42 50 94 51 88 52 87 53 43 55
REMARK SMILES IDX 75 56 55 57 74 58 56 59 59 60 73 61 92 62 57 63 58 64 72 66
REMARK SMILES IDX 93 67 60 68 44 69 45 70 53 71 46 72 52 73 54 74 51 75 47 76
REMARK SMILES IDX 48 77 49 78 50 79 76 80 77 81 85 82 78 83 84 84 86 85 83 86
REMARK SMILES IDX 79 87 80 88 81 89 82 90 61 91 62 92 70 93 63 94 69 95 71 96
REMARK SMILES IDX 68 97 64 98 65 99 66 100 67 101
REMARK H PARENT 21 13 91 54 59 65
REMARK Flexibility Score: inf
ROOT
ATOM      1  O   UNL A   1      43.658  19.865  25.003  1.00  0.00    -0.458 OA
ENDROOT
BRANCH   1   2
ATOM      2  C   UNL A   1      42.573  19.472  25.716  1.00  0.00     0.338 C 
ATOM      3  O   UNL A   1      42.252  18.324  25.978  1.00  0.00    -0.246 OA
BRANCH   2   4
ATOM      4  C   UNL A   1      41.880  20.662  26.271  1.00  0.00     0.062 A 
ATOM      5  C   UNL A   1      39.917  22.054  26.489  1.00  0.00     0.042 A 
ATOM      6  C   UNL A   1      40.692  23.058  27.076  1.00  0.00     0.026 A 
ATOM      7  C   UNL A   1      40.522  20.879  26.037  1.00  0.00     0.041 A 
ATOM      8  C   UNL A   1      42.032  22.816  27.369  1.00  0.00     0.003 A 
ATOM      9  C   UNL A   1      42.608  21.597  27.016  1.00  0.00     0.016 A 
BRANCH   5  10
ATOM     10  N   UNL A   1      38.530  22.263  26.411  1.00  0.00    -0.326 N 
ATOM     11  O   UNL A   1      38.033  20.674  24.785  1.00  0.00    -0.275 OA
ATOM     12  C   UNL A   1      37.693  21.560  25.567  1.00  0.00     0.224 C 
ATOM     13  H   UNL A   1      38.132  22.951  26.992  1.00  0.00     0.169 HD
BRANCH  12  14
ATOM     14  C   UNL A   1      36.241  21.961  25.652  1.00  0.00     0.102 C 
BRANCH  14  15
ATOM     15  C   UNL A   1      35.572  22.240  24.307  1.00  0.00     0.032 C 
BRANCH  15  16
ATOM     16  C   UNL A   1      34.057  21.994  24.212  1.00  0.00     0.128 C 
BRANCH  16  17
ATOM     17  N   UNL A   1      33.192  23.173  24.297  1.00  0.00    -0.293 N 
ATOM     18  C   UNL A   1      33.158  24.049  23.218  1.00  0.00     0.266 C 
ATOM     19  C   UNL A   1      32.487  23.581  25.413  1.00  0.00     0.148 C 
ATOM     20  O   UNL A   1      33.721  23.880  22.146  1.00  0.00    -0.268 OA
ATOM     21  C   UNL A   1      32.336  25.244  23.552  1.00  0.00     0.081 C 
ATOM     22  S   UNL A   1      31.432  24.915  24.976  1.00  0.00    -0.054 SA
ATOM     23  S   UNL A   1      32.542  22.979  26.967  1.00  0.00    -0.052 S 
ATOM     24  C   UNL A   1      32.391  26.390  22.857  1.00  0.00     0.031 C 
BRANCH  24  25
ATOM     25  C   UNL A   1      31.607  27.604  23.154  1.00  0.00    -0.006 A 
ATOM     26  C   UNL A   1      30.460  27.822  22.375  1.00  0.00     0.010 A 
ATOM     27  C   UNL A   1      31.920  28.538  24.159  1.00  0.00     0.048 A 
ATOM     28  C   UNL A   1      29.609  28.898  22.639  1.00  0.00     0.001 A 
ATOM     29  C   UNL A   1      31.046  29.595  24.444  1.00  0.00     0.021 A 
ATOM     30  Cl  UNL A   1      33.401  28.483  25.059  1.00  0.00    -0.084 Cl
ATOM     31  C   UNL A   1      29.887  29.768  23.690  1.00  0.00     0.002 A 
ENDBRANCH  24  25
ENDBRANCH  16  17
ENDBRANCH  15  16
ENDBRANCH  14  15
ENDBRANCH  12  14
ENDBRANCH   5  10
ENDBRANCH   2   4
ENDBRANCH   1   2
BRANCH   1  32
ATOM     32  C   UNL A   1      44.876  19.119  25.200  1.00  0.00     0.275 C 
BRANCH  32  33
ATOM     33  C   UNL A   1      46.095  20.040  25.133  1.00  0.00     0.275 C 
BRANCH  33  34
ATOM     34  O   UNL A   1      45.800  21.290  25.781  1.00  0.00    -0.458 OA
BRANCH  34  35
ATOM     35  C   UNL A   1      46.041  22.400  25.046  1.00  0.00     0.338 C 
ATOM     36  O   UNL A   1      46.508  22.462  23.923  1.00  0.00    -0.246 OA
BRANCH  35  37
ATOM     37  C   UNL A   1      45.541  23.576  25.774  1.00  0.00     0.060 A 
ATOM     38  C   UNL A   1      44.956  24.590  25.024  1.00  0.00     0.016 A 
ATOM     39  C   UNL A   1      45.769  23.755  27.134  1.00  0.00     0.016 A 
ATOM     40  C   UNL A   1      44.657  25.821  25.598  1.00  0.00     0.010 A 
ATOM     41  C   UNL A   1      45.412  24.973  27.730  1.00  0.00     0.010 A 
ATOM     42  C   UNL A   1      44.893  26.035  26.961  1.00  0.00    -0.014 A 
BRANCH  42  43
ATOM     43  C   UNL A   1      44.720  27.399  27.539  1.00  0.00     0.031 A 
ATOM     44  C   UNL A   1      45.894  28.346  27.560  1.00  0.00     0.074 A 
ATOM     45  C   UNL A   1      43.521  27.824  27.985  1.00  0.00     0.049 A 
ATOM     46  N   UNL A   1      46.020  29.507  28.149  1.00  0.00    -0.248 NA
ATOM     47  C   UNL A   1      47.092  27.911  26.829  1.00  0.00     0.031 C 
ATOM     48  C   UNL A   1      42.279  27.051  27.946  1.00  0.00     0.029 A 
ATOM     49  N   UNL A   1      43.146  29.021  28.546  1.00  0.00    -0.354 N 
ATOM     50  C   UNL A   1      47.328  29.917  27.906  1.00  0.00     0.074 A 
ATOM     51  C   UNL A   1      47.957  28.864  27.135  1.00  0.00     0.031 C 
ATOM     52  C   UNL A   1      41.277  27.803  28.429  1.00  0.00     0.029 A 
ATOM     53  C   UNL A   1      41.815  29.079  28.890  1.00  0.00     0.049 A 
ATOM     54  H   UNL A   1      43.772  29.769  28.688  1.00  0.00     0.167 HD
ATOM     55  C   UNL A   1      47.946  31.064  28.287  1.00  0.00     0.034 A 
ATOM     56  C   UNL A   1      41.114  30.033  29.538  1.00  0.00     0.034 A 
ATOM     57  C   UNL A   1      47.291  32.123  29.020  1.00  0.00     0.049 A 
ATOM     58  C   UNL A   1      41.832  31.274  30.006  1.00  0.00     0.074 A 
ATOM     59  C   UNL A   1      47.822  33.317  29.476  1.00  0.00     0.029 A 
ATOM     60  N   UNL A   1      45.952  32.120  29.393  1.00  0.00    -0.354 N 
ATOM     61  N   UNL A   1      43.093  31.609  29.855  1.00  0.00    -0.248 NA
ATOM     62  C   UNL A   1      41.031  32.262  30.740  1.00  0.00     0.031 C 
ATOM     63  C   UNL A   1      46.822  34.011  30.168  1.00  0.00     0.029 A 
ATOM     64  C   UNL A   1      45.645  33.284  30.083  1.00  0.00     0.049 A 
ATOM     65  H   UNL A   1      45.314  31.397  29.197  1.00  0.00     0.167 HD
ATOM     66  C   UNL A   1      43.229  32.857  30.456  1.00  0.00     0.074 A 
ATOM     67  C   UNL A   1      41.919  33.221  30.956  1.00  0.00     0.031 C 
ATOM     68  C   UNL A   1      44.336  33.632  30.583  1.00  0.00     0.034 A 
BRANCH  55  69
ATOM     69  C   UNL A   1      49.419  31.190  27.973  1.00  0.00     0.023 A 
ATOM     70  C   UNL A   1      49.891  31.960  26.895  1.00  0.00     0.031 A 
ATOM     71  C   UNL A   1      50.364  30.472  28.728  1.00  0.00     0.131 A 
ATOM     72  C   UNL A   1      51.251  31.920  26.547  1.00  0.00     0.055 A 
ATOM     73  C   UNL A   1      51.729  30.509  28.433  1.00  0.00     0.041 A 
ATOM     74  F   UNL A   1      49.975  29.702  29.756  1.00  0.00    -0.206 F 
ATOM     75  C   UNL A   1      52.177  31.220  27.323  1.00  0.00     0.022 A 
BRANCH  72  76
ATOM     76  S   UNL A   1      51.763  32.653  24.968  1.00  0.00     0.124 S 
ATOM     77  O   UNL A   1      51.614  31.524  24.054  1.00  0.00    -0.237 OA
ATOM     78  O   UNL A   1      50.808  33.742  24.800  1.00  0.00    -0.237 OA
ATOM     79  O   UNL A   1      53.144  33.066  25.214  1.00  0.00    -0.744 OA
ENDBRANCH  72  76
ENDBRANCH  55  69
BRANCH  56  80
ATOM     80  C   UNL A   1      39.666  29.835  29.840  1.00  0.00     0.023 A 
ATOM     81  C   UNL A   1      38.673  30.500  29.105  1.00  0.00     0.031 A 
ATOM     82  C   UNL A   1      39.257  29.009  30.903  1.00  0.00     0.131 A 
ATOM     83  C   UNL A   1      37.322  30.356  29.463  1.00  0.00     0.055 A 
ATOM     84  C   UNL A   1      37.911  28.826  31.222  1.00  0.00     0.041 A 
ATOM     85  F   UNL A   1      40.166  28.354  31.644  1.00  0.00    -0.206 F 
ATOM     86  C   UNL A   1      36.934  29.512  30.506  1.00  0.00     0.022 A 
BRANCH  83  87
ATOM     87  S   UNL A   1      36.080  31.351  28.594  1.00  0.00     0.124 S 
ATOM     88  O   UNL A   1      35.076  31.548  29.633  1.00  0.00    -0.237 OA
ATOM     89  O   UNL A   1      36.849  32.531  28.212  1.00  0.00    -0.237 OA
ATOM     90  O   UNL A   1      35.670  30.492  27.485  1.00  0.00    -0.744 OA
ENDBRANCH  83  87
ENDBRANCH  56  80
BRANCH  68  91
ATOM     91  C   UNL A   1      44.155  34.979  31.240  1.00  0.00     0.023 A 
ATOM     92  C   UNL A   1      43.988  36.156  30.489  1.00  0.00     0.031 A 
ATOM     93  C   UNL A   1      44.178  35.085  32.642  1.00  0.00     0.131 A 
ATOM     94  C   UNL A   1      43.905  37.396  31.144  1.00  0.00     0.055 A 
ATOM     95  C   UNL A   1      44.039  36.314  33.288  1.00  0.00     0.041 A 
ATOM     96  F   UNL A   1      44.336  33.993  33.408  1.00  0.00    -0.206 F 
ATOM     97  C   UNL A   1      43.915  37.480  32.539  1.00  0.00     0.022 A 
BRANCH  94  98
ATOM     98  S   UNL A   1      43.881  38.910  30.145  1.00  0.00     0.124 S 
ATOM     99  O   UNL A   1      43.258  39.865  31.055  1.00  0.00    -0.237 OA
ATOM    100  O   UNL A   1      45.298  39.123  29.868  1.00  0.00    -0.237 OA
ATOM    101  O   UNL A   1      43.073  38.542  28.983  1.00  0.00    -0.744 OA
ENDBRANCH  94  98
ENDBRANCH  68  91
ENDBRANCH  42  43
ENDBRANCH  35  37
ENDBRANCH  34  35
ENDBRANCH  33  34
ENDBRANCH  32  33
ENDBRANCH   1  32
TORSDOF 20
ENDMDL
