MODEL 1
REMARK VINA RESULT:     -10.7      0.000      0.000
REMARK SMILES COc1cccc(-c2ccc(C#N)c(SCC(=O)OCCOC(=O)c3ccc(-c4c5nc(c(-c6cc(S(=O)(=O)[O-])ccc6F)c6ccc([nH]6)c(-c6cc(S(=O)(=O)[O-])ccc6F)c6nc(c(-c7cc(S(=O)(=O)[O-])ccc7F)c7ccc4[nH]7)C=C6)C=C5)cc3)n2)c1
REMARK SMILES IDX 20 1 19 2 17 3 18 4 16 5 15 6 14 7 8 8 9 9 88 10 10 11 11 12
REMARK SMILES IDX 7 13 3 14 4 15 89 16 5 17 6 18 2 19 1 20 12 21 13 22 21 23
REMARK SMILES IDX 22 24 23 25 24 26 25 27 26 28 87 29 27 30 86 31 28 32 29 33
REMARK SMILES IDX 30 34 80 35 31 36 85 37 79 38 81 39 32 40 84 41 78 42 77 43
REMARK SMILES IDX 33 45 65 46 45 47 64 48 46 49 49 50 63 51 82 52 47 53 48 54
REMARK SMILES IDX 62 56 83 57 50 58 34 59 35 60 43 61 36 62 42 63 44 64 41 65
REMARK SMILES IDX 37 66 38 67 39 68 40 69 66 70 67 71 75 72 68 73 74 74 76 75
REMARK SMILES IDX 73 76 69 77 70 78 71 79 72 80 51 81 52 82 60 83 53 84 59 85
REMARK SMILES IDX 61 86 58 87 54 88 55 89 56 90 57 91
REMARK H PARENT 81 44 49 55
REMARK Flexibility Score: inf
ROOT
ATOM      1  C   UNL A   1      36.096  20.736  25.135  1.00  0.00     0.274 C 
ENDROOT
BRANCH   1   2
ATOM      2  O   UNL A   1      35.662  22.015  24.625  1.00  0.00    -0.461 OA
BRANCH   2   3
ATOM      3  C   UNL A   1      35.257  22.909  25.562  1.00  0.00     0.316 C 
ATOM      4  O   UNL A   1      35.395  24.124  25.442  1.00  0.00    -0.251 OA
BRANCH   3   5
ATOM      5  C   UNL A   1      34.776  22.302  26.856  1.00  0.00     0.199 C 
BRANCH   5   6
ATOM      6  S   UNL A   1      33.010  22.429  27.267  1.00  0.00    -0.093 SA
BRANCH   6   7
ATOM      7  C   UNL A   1      32.150  23.084  25.842  1.00  0.00     0.115 A 
ATOM      8  C   UNL A   1      31.348  25.108  24.969  1.00  0.00     0.072 A 
ATOM      9  C   UNL A   1      30.745  24.467  23.897  1.00  0.00     0.030 A 
ATOM     10  N   UNL A   1      31.978  24.431  25.962  1.00  0.00    -0.240 NA
ATOM     11  C   UNL A   1      30.983  23.111  23.738  1.00  0.00     0.024 A 
ATOM     12  C   UNL A   1      31.776  22.430  24.671  1.00  0.00     0.084 A 
BRANCH   8  13
ATOM     13  C   UNL A   1      31.613  26.548  24.892  1.00  0.00     0.004 A 
ATOM     14  C   UNL A   1      31.063  28.809  24.198  1.00  0.00     0.119 A 
ATOM     15  C   UNL A   1      32.357  29.227  24.516  1.00  0.00     0.046 A 
ATOM     16  C   UNL A   1      30.693  27.468  24.371  1.00  0.00     0.056 A 
ATOM     17  C   UNL A   1      33.272  28.331  25.058  1.00  0.00     0.005 A 
ATOM     18  C   UNL A   1      32.897  27.005  25.253  1.00  0.00     0.010 A 
BRANCH  14  19
ATOM     19  O   UNL A   1      30.259  29.777  23.658  1.00  0.00    -0.497 OA
ATOM     20  C   UNL A   1      30.071  29.673  22.253  1.00  0.00     0.278 C 
ENDBRANCH  14  19
ENDBRANCH   8  13
BRANCH  12  21
ATOM     21  C   UNL A   1      32.301  21.161  24.284  1.00  0.00     0.102 C 
ATOM     22  N   UNL A   1      32.703  20.124  23.964  1.00  0.00    -0.192 NA
ENDBRANCH  12  21
ENDBRANCH   6   7
ENDBRANCH   5   6
ENDBRANCH   3   5
ENDBRANCH   2   3
ENDBRANCH   1   2
BRANCH   1  23
ATOM     23  C   UNL A   1      37.565  20.445  24.831  1.00  0.00     0.275 C 
BRANCH  23  24
ATOM     24  O   UNL A   1      38.405  21.578  25.130  1.00  0.00    -0.458 OA
BRANCH  24  25
ATOM     25  C   UNL A   1      39.269  21.372  26.148  1.00  0.00     0.338 C 
ATOM     26  O   UNL A   1      39.761  20.307  26.483  1.00  0.00    -0.246 OA
BRANCH  25  27
ATOM     27  C   UNL A   1      39.623  22.621  26.838  1.00  0.00     0.060 A 
ATOM     28  C   UNL A   1      39.101  23.822  26.371  1.00  0.00     0.016 A 
ATOM     29  C   UNL A   1      40.679  22.628  27.753  1.00  0.00     0.016 A 
ATOM     30  C   UNL A   1      39.714  25.024  26.727  1.00  0.00     0.010 A 
ATOM     31  C   UNL A   1      41.219  23.848  28.190  1.00  0.00     0.010 A 
ATOM     32  C   UNL A   1      40.773  25.065  27.650  1.00  0.00    -0.014 A 
BRANCH  32  33
ATOM     33  C   UNL A   1      41.382  26.379  28.035  1.00  0.00     0.031 A 
ATOM     34  C   UNL A   1      40.598  27.426  28.795  1.00  0.00     0.074 A 
ATOM     35  C   UNL A   1      42.672  26.626  27.726  1.00  0.00     0.049 A 
ATOM     36  N   UNL A   1      40.945  28.650  29.119  1.00  0.00    -0.248 NA
ATOM     37  C   UNL A   1      39.248  27.057  29.243  1.00  0.00     0.031 C 
ATOM     38  C   UNL A   1      43.563  25.698  27.025  1.00  0.00     0.029 A 
ATOM     39  N   UNL A   1      43.470  27.718  27.972  1.00  0.00    -0.354 N 
ATOM     40  C   UNL A   1      39.851  29.208  29.774  1.00  0.00     0.074 A 
ATOM     41  C   UNL A   1      38.819  28.189  29.788  1.00  0.00     0.031 C 
ATOM     42  C   UNL A   1      44.790  26.227  26.957  1.00  0.00     0.029 A 
ATOM     43  C   UNL A   1      44.753  27.581  27.493  1.00  0.00     0.049 A 
ATOM     44  H   UNL A   1      43.153  28.522  28.444  1.00  0.00     0.167 HD
ATOM     45  C   UNL A   1      39.715  30.451  30.308  1.00  0.00     0.034 A 
ATOM     46  C   UNL A   1      45.779  28.453  27.436  1.00  0.00     0.034 A 
ATOM     47  C   UNL A   1      40.760  31.453  30.302  1.00  0.00     0.049 A 
ATOM     48  C   UNL A   1      45.584  29.843  27.974  1.00  0.00     0.074 A 
ATOM     49  C   UNL A   1      40.725  32.735  30.826  1.00  0.00     0.029 A 
ATOM     50  N   UNL A   1      42.024  31.293  29.748  1.00  0.00    -0.354 N 
ATOM     51  N   UNL A   1      44.524  30.367  28.544  1.00  0.00    -0.248 NA
ATOM     52  C   UNL A   1      46.722  30.761  27.853  1.00  0.00     0.031 C 
ATOM     53  C   UNL A   1      41.932  33.375  30.519  1.00  0.00     0.029 A 
ATOM     54  C   UNL A   1      42.760  32.464  29.886  1.00  0.00     0.049 A 
ATOM     55  H   UNL A   1      42.351  30.469  29.319  1.00  0.00     0.167 HD
ATOM     56  C   UNL A   1      44.876  31.673  28.865  1.00  0.00     0.074 A 
ATOM     57  C   UNL A   1      46.254  31.846  28.451  1.00  0.00     0.031 C 
ATOM     58  C   UNL A   1      44.126  32.643  29.450  1.00  0.00     0.034 A 
BRANCH  45  59
ATOM     59  C   UNL A   1      38.369  30.828  30.889  1.00  0.00     0.023 A 
ATOM     60  C   UNL A   1      37.367  31.454  30.127  1.00  0.00     0.031 A 
ATOM     61  C   UNL A   1      38.081  30.549  32.240  1.00  0.00     0.131 A 
ATOM     62  C   UNL A   1      36.158  31.835  30.733  1.00  0.00     0.055 A 
ATOM     63  C   UNL A   1      36.846  30.854  32.814  1.00  0.00     0.041 A 
ATOM     64  F   UNL A   1      39.002  29.972  33.029  1.00  0.00    -0.206 F 
ATOM     65  C   UNL A   1      35.880  31.515  32.064  1.00  0.00     0.022 A 
BRANCH  62  66
ATOM     66  S   UNL A   1      35.012  32.887  29.798  1.00  0.00     0.124 S 
ATOM     67  O   UNL A   1      34.154  33.405  30.863  1.00  0.00    -0.237 OA
ATOM     68  O   UNL A   1      35.907  33.851  29.172  1.00  0.00    -0.237 OA
ATOM     69  O   UNL A   1      34.359  31.952  28.883  1.00  0.00    -0.744 OA
ENDBRANCH  62  66
ENDBRANCH  45  59
BRANCH  46  70
ATOM     70  C   UNL A   1      47.059  28.056  26.778  1.00  0.00     0.023 A 
ATOM     71  C   UNL A   1      47.196  28.069  25.383  1.00  0.00     0.031 A 
ATOM     72  C   UNL A   1      48.161  27.630  27.545  1.00  0.00     0.131 A 
ATOM     73  C   UNL A   1      48.394  27.633  24.795  1.00  0.00     0.055 A 
ATOM     74  C   UNL A   1      49.372  27.266  26.960  1.00  0.00     0.041 A 
ATOM     75  F   UNL A   1      48.083  27.591  28.885  1.00  0.00    -0.206 F 
ATOM     76  C   UNL A   1      49.490  27.254  25.574  1.00  0.00     0.022 A 
BRANCH  73  77
ATOM     77  S   UNL A   1      48.471  27.476  22.990  1.00  0.00     0.124 S 
ATOM     78  O   UNL A   1      47.270  28.194  22.579  1.00  0.00    -0.237 OA
ATOM     79  O   UNL A   1      49.743  28.122  22.683  1.00  0.00    -0.237 OA
ATOM     80  O   UNL A   1      48.440  26.031  22.773  1.00  0.00    -0.744 OA
ENDBRANCH  73  77
ENDBRANCH  46  70
BRANCH  58  81
ATOM     81  C   UNL A   1      44.809  33.964  29.712  1.00  0.00     0.023 A 
ATOM     82  C   UNL A   1      45.468  34.230  30.926  1.00  0.00     0.031 A 
ATOM     83  C   UNL A   1      44.754  34.992  28.755  1.00  0.00     0.131 A 
ATOM     84  C   UNL A   1      45.974  35.513  31.183  1.00  0.00     0.055 A 
ATOM     85  C   UNL A   1      45.323  36.246  28.987  1.00  0.00     0.041 A 
ATOM     86  F   UNL A   1      44.134  34.800  27.580  1.00  0.00    -0.206 F 
ATOM     87  C   UNL A   1      45.920  36.518  30.214  1.00  0.00     0.022 A 
BRANCH  84  88
ATOM     88  S   UNL A   1      46.587  35.892  32.848  1.00  0.00     0.124 S 
ATOM     89  O   UNL A   1      47.552  36.953  32.581  1.00  0.00    -0.237 OA
ATOM     90  O   UNL A   1      45.370  36.296  33.543  1.00  0.00    -0.237 OA
ATOM     91  O   UNL A   1      47.165  34.627  33.297  1.00  0.00    -0.744 OA
ENDBRANCH  84  88
ENDBRANCH  58  81
ENDBRANCH  32  33
ENDBRANCH  25  27
ENDBRANCH  24  25
ENDBRANCH  23  24
ENDBRANCH   1  23
TORSDOF 19
ENDMDL
MODEL 2
REMARK VINA RESULT:     -10.7      2.311      8.044
REMARK SMILES COc1cccc(-c2ccc(C#N)c(SCC(=O)OCCOC(=O)c3ccc(-c4c5nc(c(-c6cc(S(=O)(=O)[O-])ccc6F)c6ccc([nH]6)c(-c6cc(S(=O)(=O)[O-])ccc6F)c6nc(c(-c7cc(S(=O)(=O)[O-])ccc7F)c7ccc4[nH]7)C=C6)C=C5)cc3)n2)c1
REMARK SMILES IDX 20 1 19 2 17 3 18 4 16 5 15 6 14 7 8 8 9 9 88 10 10 11 11 12
REMARK SMILES IDX 7 13 3 14 4 15 89 16 5 17 6 18 2 19 1 20 12 21 13 22 21 23
REMARK SMILES IDX 22 24 23 25 24 26 25 27 26 28 87 29 27 30 86 31 28 32 29 33
REMARK SMILES IDX 30 34 80 35 31 36 85 37 79 38 81 39 32 40 84 41 78 42 77 43
REMARK SMILES IDX 33 45 65 46 45 47 64 48 46 49 49 50 63 51 82 52 47 53 48 54
REMARK SMILES IDX 62 56 83 57 50 58 34 59 35 60 43 61 36 62 42 63 44 64 41 65
REMARK SMILES IDX 37 66 38 67 39 68 40 69 66 70 67 71 75 72 68 73 74 74 76 75
REMARK SMILES IDX 73 76 69 77 70 78 71 79 72 80 51 81 52 82 60 83 53 84 59 85
REMARK SMILES IDX 61 86 58 87 54 88 55 89 56 90 57 91
REMARK H PARENT 81 44 49 55
REMARK Flexibility Score: inf
ROOT
ATOM      1  C   UNL A   1      35.633  20.370  24.829  1.00  0.00     0.274 C 
ENDROOT
BRANCH   1   2
ATOM      2  O   UNL A   1      35.115  21.705  24.650  1.00  0.00    -0.461 OA
BRANCH   2   3
ATOM      3  C   UNL A   1      33.799  21.782  24.332  1.00  0.00     0.316 C 
ATOM      4  O   UNL A   1      32.965  20.957  24.696  1.00  0.00    -0.251 OA
BRANCH   3   5
ATOM      5  C   UNL A   1      33.444  22.864  23.342  1.00  0.00     0.199 C 
BRANCH   5   6
ATOM      6  S   UNL A   1      34.347  24.439  23.423  1.00  0.00    -0.093 SA
BRANCH   6   7
ATOM      7  C   UNL A   1      33.165  25.770  23.248  1.00  0.00     0.115 A 
ATOM      8  C   UNL A   1      32.317  27.620  24.416  1.00  0.00     0.072 A 
ATOM      9  C   UNL A   1      31.374  27.875  23.432  1.00  0.00     0.030 A 
ATOM     10  N   UNL A   1      33.151  26.550  24.366  1.00  0.00    -0.240 NA
ATOM     11  C   UNL A   1      31.439  27.129  22.266  1.00  0.00     0.024 A 
ATOM     12  C   UNL A   1      32.409  26.127  22.134  1.00  0.00     0.084 A 
BRANCH   8  13
ATOM     13  C   UNL A   1      32.670  28.677  25.368  1.00  0.00     0.004 A 
ATOM     14  C   UNL A   1      33.999  29.589  27.184  1.00  0.00     0.119 A 
ATOM     15  C   UNL A   1      33.066  30.613  27.360  1.00  0.00     0.046 A 
ATOM     16  C   UNL A   1      33.797  28.612  26.200  1.00  0.00     0.056 A 
ATOM     17  C   UNL A   1      31.958  30.705  26.525  1.00  0.00     0.005 A 
ATOM     18  C   UNL A   1      31.770  29.749  25.532  1.00  0.00     0.010 A 
BRANCH  14  19
ATOM     19  O   UNL A   1      35.039  29.595  28.076  1.00  0.00    -0.497 OA
ATOM     20  C   UNL A   1      36.290  29.980  27.523  1.00  0.00     0.278 C 
ENDBRANCH  14  19
ENDBRANCH   8  13
BRANCH  12  21
ATOM     21  C   UNL A   1      32.688  25.651  20.818  1.00  0.00     0.102 C 
ATOM     22  N   UNL A   1      32.917  25.242  19.760  1.00  0.00    -0.192 NA
ENDBRANCH  12  21
ENDBRANCH   6   7
ENDBRANCH   5   6
ENDBRANCH   3   5
ENDBRANCH   2   3
ENDBRANCH   1   2
BRANCH   1  23
ATOM     23  C   UNL A   1      37.158  20.335  24.924  1.00  0.00     0.275 C 
BRANCH  23  24
ATOM     24  O   UNL A   1      37.678  21.515  25.569  1.00  0.00    -0.458 OA
BRANCH  24  25
ATOM     25  C   UNL A   1      38.934  21.375  26.049  1.00  0.00     0.338 C 
ATOM     26  O   UNL A   1      39.644  20.387  25.958  1.00  0.00    -0.246 OA
BRANCH  25  27
ATOM     27  C   UNL A   1      39.421  22.601  26.698  1.00  0.00     0.060 A 
ATOM     28  C   UNL A   1      38.902  23.828  26.298  1.00  0.00     0.016 A 
ATOM     29  C   UNL A   1      40.575  22.554  27.483  1.00  0.00     0.016 A 
ATOM     30  C   UNL A   1      39.606  24.998  26.584  1.00  0.00     0.010 A 
ATOM     31  C   UNL A   1      41.216  23.745  27.859  1.00  0.00     0.010 A 
ATOM     32  C   UNL A   1      40.766  24.985  27.378  1.00  0.00    -0.014 A 
BRANCH  32  33
ATOM     33  C   UNL A   1      41.474  26.268  27.694  1.00  0.00     0.031 A 
ATOM     34  C   UNL A   1      42.889  26.531  27.229  1.00  0.00     0.074 A 
ATOM     35  C   UNL A   1      40.824  27.229  28.382  1.00  0.00     0.049 A 
ATOM     36  N   UNL A   1      43.676  27.545  27.500  1.00  0.00    -0.248 NA
ATOM     37  C   UNL A   1      43.504  25.522  26.355  1.00  0.00     0.031 C 
ATOM     38  C   UNL A   1      39.444  27.132  28.867  1.00  0.00     0.029 A 
ATOM     39  N   UNL A   1      41.220  28.482  28.783  1.00  0.00    -0.354 N 
ATOM     40  C   UNL A   1      44.886  27.283  26.863  1.00  0.00     0.074 A 
ATOM     41  C   UNL A   1      44.732  26.002  26.202  1.00  0.00     0.031 C 
ATOM     42  C   UNL A   1      39.091  28.291  29.435  1.00  0.00     0.029 A 
ATOM     43  C   UNL A   1      40.250  29.173  29.472  1.00  0.00     0.049 A 
ATOM     44  H   UNL A   1      42.114  28.851  28.595  1.00  0.00     0.167 HD
ATOM     45  C   UNL A   1      46.019  28.035  26.835  1.00  0.00     0.034 A 
ATOM     46  C   UNL A   1      40.286  30.358  30.113  1.00  0.00     0.034 A 
ATOM     47  C   UNL A   1      46.154  29.321  27.485  1.00  0.00     0.049 A 
ATOM     48  C   UNL A   1      41.570  31.140  30.124  1.00  0.00     0.074 A 
ATOM     49  C   UNL A   1      47.254  30.164  27.507  1.00  0.00     0.029 A 
ATOM     50  N   UNL A   1      45.164  29.953  28.228  1.00  0.00    -0.354 N 
ATOM     51  N   UNL A   1      42.718  30.851  29.558  1.00  0.00    -0.248 NA
ATOM     52  C   UNL A   1      41.563  32.405  30.867  1.00  0.00     0.031 C 
ATOM     53  C   UNL A   1      46.959  31.261  28.325  1.00  0.00     0.029 A 
ATOM     54  C   UNL A   1      45.642  31.154  28.741  1.00  0.00     0.049 A 
ATOM     55  H   UNL A   1      44.256  29.601  28.373  1.00  0.00     0.167 HD
ATOM     56  C   UNL A   1      43.566  31.910  29.864  1.00  0.00     0.074 A 
ATOM     57  C   UNL A   1      42.787  32.855  30.639  1.00  0.00     0.031 C 
ATOM     58  C   UNL A   1      44.872  32.084  29.534  1.00  0.00     0.034 A 
BRANCH  45  59
ATOM     59  C   UNL A   1      47.231  27.462  26.132  1.00  0.00     0.023 A 
ATOM     60  C   UNL A   1      48.195  26.688  26.800  1.00  0.00     0.031 A 
ATOM     61  C   UNL A   1      47.422  27.694  24.755  1.00  0.00     0.131 A 
ATOM     62  C   UNL A   1      49.331  26.231  26.111  1.00  0.00     0.055 A 
ATOM     63  C   UNL A   1      48.510  27.165  24.057  1.00  0.00     0.041 A 
ATOM     64  F   UNL A   1      46.549  28.442  24.061  1.00  0.00    -0.206 F 
ATOM     65  C   UNL A   1      49.481  26.441  24.739  1.00  0.00     0.022 A 
BRANCH  62  66
ATOM     66  S   UNL A   1      50.684  25.485  27.064  1.00  0.00     0.124 S 
ATOM     67  O   UNL A   1      51.643  25.162  26.010  1.00  0.00    -0.237 OA
ATOM     68  O   UNL A   1      51.065  26.562  27.968  1.00  0.00    -0.237 OA
ATOM     69  O   UNL A   1      50.056  24.327  27.700  1.00  0.00    -0.744 OA
ENDBRANCH  62  66
ENDBRANCH  45  59
BRANCH  46  70
ATOM     70  C   UNL A   1      39.087  30.839  30.861  1.00  0.00     0.023 A 
ATOM     71  C   UNL A   1      38.101  31.616  30.237  1.00  0.00     0.031 A 
ATOM     72  C   UNL A   1      38.927  30.546  32.229  1.00  0.00     0.131 A 
ATOM     73  C   UNL A   1      37.017  32.101  30.985  1.00  0.00     0.055 A 
ATOM     74  C   UNL A   1      37.812  30.970  32.951  1.00  0.00     0.041 A 
ATOM     75  F   UNL A   1      39.845  29.813  32.880  1.00  0.00    -0.206 F 
ATOM     76  C   UNL A   1      36.854  31.764  32.331  1.00  0.00     0.022 A 
BRANCH  73  77
ATOM     77  S   UNL A   1      35.866  33.260  30.198  1.00  0.00     0.124 S 
ATOM     78  O   UNL A   1      36.643  33.715  29.051  1.00  0.00    -0.237 OA
ATOM     79  O   UNL A   1      34.725  32.401  29.901  1.00  0.00    -0.237 OA
ATOM     80  O   UNL A   1      35.635  34.265  31.234  1.00  0.00    -0.744 OA
ENDBRANCH  73  77
ENDBRANCH  46  70
BRANCH  58  81
ATOM     81  C   UNL A   1      45.519  33.374  29.981  1.00  0.00     0.023 A 
ATOM     82  C   UNL A   1      45.520  34.522  29.168  1.00  0.00     0.031 A 
ATOM     83  C   UNL A   1      46.191  33.439  31.213  1.00  0.00     0.131 A 
ATOM     84  C   UNL A   1      46.246  35.657  29.561  1.00  0.00     0.055 A 
ATOM     85  C   UNL A   1      46.851  34.597  31.632  1.00  0.00     0.041 A 
ATOM     86  F   UNL A   1      46.229  32.374  32.029  1.00  0.00    -0.206 F 
ATOM     87  C   UNL A   1      46.897  35.708  30.796  1.00  0.00     0.022 A 
BRANCH  84  88
ATOM     88  S   UNL A   1      46.436  37.022  28.379  1.00  0.00     0.124 S 
ATOM     89  O   UNL A   1      45.162  36.987  27.670  1.00  0.00    -0.237 OA
ATOM     90  O   UNL A   1      46.647  38.167  29.258  1.00  0.00    -0.237 OA
ATOM     91  O   UNL A   1      47.599  36.628  27.585  1.00  0.00    -0.744 OA
ENDBRANCH  84  88
ENDBRANCH  58  81
ENDBRANCH  32  33
ENDBRANCH  25  27
ENDBRANCH  24  25
ENDBRANCH  23  24
ENDBRANCH   1  23
TORSDOF 19
ENDMDL
MODEL 3
REMARK VINA RESULT:     -10.6      1.393      7.712
REMARK SMILES COc1cccc(-c2ccc(C#N)c(SCC(=O)OCCOC(=O)c3ccc(-c4c5nc(c(-c6cc(S(=O)(=O)[O-])ccc6F)c6ccc([nH]6)c(-c6cc(S(=O)(=O)[O-])ccc6F)c6nc(c(-c7cc(S(=O)(=O)[O-])ccc7F)c7ccc4[nH]7)C=C6)C=C5)cc3)n2)c1
REMARK SMILES IDX 20 1 19 2 17 3 18 4 16 5 15 6 14 7 8 8 9 9 88 10 10 11 11 12
REMARK SMILES IDX 7 13 3 14 4 15 89 16 5 17 6 18 2 19 1 20 12 21 13 22 21 23
REMARK SMILES IDX 22 24 23 25 24 26 25 27 26 28 87 29 27 30 86 31 28 32 29 33
REMARK SMILES IDX 30 34 80 35 31 36 85 37 79 38 81 39 32 40 84 41 78 42 77 43
REMARK SMILES IDX 33 45 65 46 45 47 64 48 46 49 49 50 63 51 82 52 47 53 48 54
REMARK SMILES IDX 62 56 83 57 50 58 34 59 35 60 43 61 36 62 42 63 44 64 41 65
REMARK SMILES IDX 37 66 38 67 39 68 40 69 66 70 67 71 75 72 68 73 74 74 76 75
REMARK SMILES IDX 73 76 69 77 70 78 71 79 72 80 51 81 52 82 60 83 53 84 59 85
REMARK SMILES IDX 61 86 58 87 54 88 55 89 56 90 57 91
REMARK H PARENT 81 44 49 55
REMARK Flexibility Score: inf
ROOT
ATOM      1  C   UNL A   1      35.294  20.143  24.946  1.00  0.00     0.274 C 
ENDROOT
BRANCH   1   2
ATOM      2  O   UNL A   1      34.857  21.496  25.203  1.00  0.00    -0.461 OA
BRANCH   2   3
ATOM      3  C   UNL A   1      33.691  21.612  25.885  1.00  0.00     0.316 C 
ATOM      4  O   UNL A   1      33.563  21.301  27.066  1.00  0.00    -0.251 OA
BRANCH   3   5
ATOM      5  C   UNL A   1      32.496  21.991  25.045  1.00  0.00     0.199 C 
BRANCH   5   6
ATOM      6  S   UNL A   1      31.566  23.487  25.490  1.00  0.00    -0.093 SA
BRANCH   6   7
ATOM      7  C   UNL A   1      32.094  24.814  24.414  1.00  0.00     0.115 A 
ATOM      8  C   UNL A   1      31.220  26.495  23.029  1.00  0.00     0.072 A 
ATOM      9  C   UNL A   1      32.483  26.858  22.584  1.00  0.00     0.030 A 
ATOM     10  N   UNL A   1      31.016  25.450  23.872  1.00  0.00    -0.240 NA
ATOM     11  C   UNL A   1      33.577  26.262  23.190  1.00  0.00     0.024 A 
ATOM     12  C   UNL A   1      33.381  25.296  24.187  1.00  0.00     0.084 A 
BRANCH   8  13
ATOM     13  C   UNL A   1      30.103  27.431  22.870  1.00  0.00     0.004 A 
ATOM     14  C   UNL A   1      29.163  29.583  22.255  1.00  0.00     0.119 A 
ATOM     15  C   UNL A   1      27.970  29.254  22.902  1.00  0.00     0.046 A 
ATOM     16  C   UNL A   1      30.235  28.681  22.250  1.00  0.00     0.056 A 
ATOM     17  C   UNL A   1      27.816  28.007  23.499  1.00  0.00     0.005 A 
ATOM     18  C   UNL A   1      28.872  27.101  23.472  1.00  0.00     0.010 A 
BRANCH  14  19
ATOM     19  O   UNL A   1      29.200  30.843  21.719  1.00  0.00    -0.497 OA
ATOM     20  C   UNL A   1      28.011  31.235  21.046  1.00  0.00     0.278 C 
ENDBRANCH  14  19
ENDBRANCH   8  13
BRANCH  12  21
ATOM     21  C   UNL A   1      34.489  24.991  25.032  1.00  0.00     0.102 C 
ATOM     22  N   UNL A   1      35.382  24.764  25.733  1.00  0.00    -0.192 NA
ENDBRANCH  12  21
ENDBRANCH   6   7
ENDBRANCH   5   6
ENDBRANCH   3   5
ENDBRANCH   2   3
ENDBRANCH   1   2
BRANCH   1  23
ATOM     23  C   UNL A   1      36.815  19.999  24.970  1.00  0.00     0.275 C 
BRANCH  23  24
ATOM     24  O   UNL A   1      37.463  21.240  25.315  1.00  0.00    -0.458 OA
BRANCH  24  25
ATOM     25  C   UNL A   1      38.709  21.093  25.818  1.00  0.00     0.338 C 
ATOM     26  O   UNL A   1      39.413  20.100  25.740  1.00  0.00    -0.246 OA
BRANCH  25  27
ATOM     27  C   UNL A   1      39.191  22.316  26.474  1.00  0.00     0.060 A 
ATOM     28  C   UNL A   1      38.583  23.529  26.172  1.00  0.00     0.016 A 
ATOM     29  C   UNL A   1      40.411  22.298  27.156  1.00  0.00     0.016 A 
ATOM     30  C   UNL A   1      39.253  24.722  26.446  1.00  0.00     0.010 A 
ATOM     31  C   UNL A   1      41.025  23.504  27.526  1.00  0.00     0.010 A 
ATOM     32  C   UNL A   1      40.477  24.738  27.138  1.00  0.00    -0.014 A 
BRANCH  32  33
ATOM     33  C   UNL A   1      41.147  26.042  27.446  1.00  0.00     0.031 A 
ATOM     34  C   UNL A   1      42.523  26.375  26.912  1.00  0.00     0.074 A 
ATOM     35  C   UNL A   1      40.498  26.959  28.193  1.00  0.00     0.049 A 
ATOM     36  N   UNL A   1      43.282  27.415  27.164  1.00  0.00    -0.248 NA
ATOM     37  C   UNL A   1      43.129  25.413  25.980  1.00  0.00     0.031 C 
ATOM     38  C   UNL A   1      39.152  26.793  28.749  1.00  0.00     0.029 A 
ATOM     39  N   UNL A   1      40.865  28.218  28.602  1.00  0.00    -0.354 N 
ATOM     40  C   UNL A   1      44.464  27.219  26.455  1.00  0.00     0.074 A 
ATOM     41  C   UNL A   1      44.326  25.948  25.772  1.00  0.00     0.031 C 
ATOM     42  C   UNL A   1      38.785  27.922  29.364  1.00  0.00     0.029 A 
ATOM     43  C   UNL A   1      39.906  28.852  29.360  1.00  0.00     0.049 A 
ATOM     44  H   UNL A   1      41.731  28.628  28.375  1.00  0.00     0.167 HD
ATOM     45  C   UNL A   1      45.562  28.019  26.384  1.00  0.00     0.034 A 
ATOM     46  C   UNL A   1      39.930  30.023  30.028  1.00  0.00     0.034 A 
ATOM     47  C   UNL A   1      45.680  29.294  27.058  1.00  0.00     0.049 A 
ATOM     48  C   UNL A   1      41.179  30.858  29.988  1.00  0.00     0.074 A 
ATOM     49  C   UNL A   1      46.743  30.182  27.040  1.00  0.00     0.029 A 
ATOM     50  N   UNL A   1      44.708  29.867  27.869  1.00  0.00    -0.354 N 
ATOM     51  N   UNL A   1      42.305  30.630  29.353  1.00  0.00    -0.248 NA
ATOM     52  C   UNL A   1      41.161  32.104  30.761  1.00  0.00     0.031 C 
ATOM     53  C   UNL A   1      46.450  31.247  27.900  1.00  0.00     0.029 A 
ATOM     54  C   UNL A   1      45.164  31.075  28.384  1.00  0.00     0.049 A 
ATOM     55  H   UNL A   1      43.824  29.474  28.054  1.00  0.00     0.167 HD
ATOM     56  C   UNL A   1      43.125  31.717  29.638  1.00  0.00     0.074 A 
ATOM     57  C   UNL A   1      42.352  32.610  30.478  1.00  0.00     0.031 C 
ATOM     58  C   UNL A   1      44.402  31.953  29.242  1.00  0.00     0.034 A 
BRANCH  45  59
ATOM     59  C   UNL A   1      46.755  27.513  25.602  1.00  0.00     0.023 A 
ATOM     60  C   UNL A   1      47.024  27.925  24.285  1.00  0.00     0.031 A 
ATOM     61  C   UNL A   1      47.649  26.597  26.193  1.00  0.00     0.131 A 
ATOM     62  C   UNL A   1      48.113  27.378  23.586  1.00  0.00     0.055 A 
ATOM     63  C   UNL A   1      48.777  26.122  25.522  1.00  0.00     0.041 A 
ATOM     64  F   UNL A   1      47.438  26.147  27.441  1.00  0.00    -0.206 F 
ATOM     65  C   UNL A   1      49.007  26.501  24.204  1.00  0.00     0.022 A 
BRANCH  62  66
ATOM     66  S   UNL A   1      48.261  27.715  21.808  1.00  0.00     0.124 S 
ATOM     67  O   UNL A   1      48.404  26.366  21.264  1.00  0.00    -0.237 OA
ATOM     68  O   UNL A   1      47.007  28.396  21.510  1.00  0.00    -0.237 OA
ATOM     69  O   UNL A   1      49.461  28.545  21.717  1.00  0.00    -0.744 OA
ENDBRANCH  62  66
ENDBRANCH  45  59
BRANCH  46  70
ATOM     70  C   UNL A   1      38.755  30.435  30.852  1.00  0.00     0.023 A 
ATOM     71  C   UNL A   1      37.672  31.123  30.285  1.00  0.00     0.031 A 
ATOM     72  C   UNL A   1      38.716  30.166  32.234  1.00  0.00     0.131 A 
ATOM     73  C   UNL A   1      36.613  31.548  31.101  1.00  0.00     0.055 A 
ATOM     74  C   UNL A   1      37.628  30.528  33.026  1.00  0.00     0.041 A 
ATOM     75  F   UNL A   1      39.729  29.518  32.830  1.00  0.00    -0.206 F 
ATOM     76  C   UNL A   1      36.572  31.236  32.462  1.00  0.00     0.022 A 
BRANCH  73  77
ATOM     77  S   UNL A   1      35.326  32.602  30.378  1.00  0.00     0.124 S 
ATOM     78  O   UNL A   1      34.924  31.820  29.214  1.00  0.00    -0.237 OA
ATOM     79  O   UNL A   1      34.354  32.684  31.463  1.00  0.00    -0.237 OA
ATOM     80  O   UNL A   1      36.034  33.846  30.080  1.00  0.00    -0.744 OA
ENDBRANCH  73  77
ENDBRANCH  46  70
BRANCH  58  81
ATOM     81  C   UNL A   1      45.019  33.259  29.684  1.00  0.00     0.023 A 
ATOM     82  C   UNL A   1      45.681  33.385  30.919  1.00  0.00     0.031 A 
ATOM     83  C   UNL A   1      44.895  34.408  28.884  1.00  0.00     0.131 A 
ATOM     84  C   UNL A   1      46.123  34.645  31.352  1.00  0.00     0.055 A 
ATOM     85  C   UNL A   1      45.401  35.646  29.288  1.00  0.00     0.041 A 
ATOM     86  F   UNL A   1      44.269  34.351  27.697  1.00  0.00    -0.206 F 
ATOM     87  C   UNL A   1      46.002  35.773  30.536  1.00  0.00     0.022 A 
BRANCH  84  88
ATOM     88  S   UNL A   1      46.740  34.816  33.049  1.00  0.00     0.124 S 
ATOM     89  O   UNL A   1      46.135  33.663  33.708  1.00  0.00    -0.237 OA
ATOM     90  O   UNL A   1      48.185  34.759  32.862  1.00  0.00    -0.237 OA
ATOM     91  O   UNL A   1      46.221  36.115  33.475  1.00  0.00    -0.744 OA
ENDBRANCH  84  88
ENDBRANCH  58  81
ENDBRANCH  32  33
ENDBRANCH  25  27
ENDBRANCH  24  25
ENDBRANCH  23  24
ENDBRANCH   1  23
TORSDOF 19
ENDMDL
