MODEL 1
REMARK VINA RESULT:     -11.8      0.000      0.000
REMARK SMILES Cc1ccccc1-c1nc(CC(=O)OCCOC(=O)c2ccc(-c3c4nc(c(-c5cc(S(=O)(=O)[O-])ccc5F)c5ccc([nH]5)c(-c5cc(S(=O)(=O)[O-])ccc5F)c5nc(c(-c6cc(S(=O)(=O)[O-])ccc6F)c6ccc3[nH]6)C=C5)C=C4)cc2)cs1
REMARK SMILES IDX 16 1 15 2 14 3 12 4 13 5 11 6 10 7 8 8 9 9 84 10 83 11 7 12
REMARK SMILES IDX 1 13 2 14 3 15 4 16 6 17 5 18 17 19 18 20 19 21 20 22 21 23
REMARK SMILES IDX 82 24 22 25 81 26 23 27 24 28 25 29 75 30 26 31 80 32 74 33
REMARK SMILES IDX 76 34 27 35 79 36 73 37 72 38 28 40 60 41 40 42 59 43 41 44
REMARK SMILES IDX 44 45 58 46 77 47 42 48 43 49 57 51 78 52 45 53 29 54 30 55
REMARK SMILES IDX 38 56 31 57 37 58 39 59 36 60 32 61 33 62 34 63 35 64 61 65
REMARK SMILES IDX 62 66 70 67 63 68 69 69 71 70 68 71 64 72 65 73 66 74 67 75
REMARK SMILES IDX 46 76 47 77 55 78 48 79 54 80 56 81 53 82 49 83 50 84 51 85
REMARK SMILES IDX 52 86
REMARK H PARENT 76 39 44 50
REMARK Flexibility Score: inf
ROOT
ATOM      1  C   UNL A   1      33.328  31.126  27.478  1.00  0.00     0.275 C 
ENDROOT
BRANCH   1   2
ATOM      2  C   UNL A   1      32.145  30.409  26.809  1.00  0.00     0.274 C 
BRANCH   2   3
ATOM      3  O   UNL A   1      32.537  29.088  26.463  1.00  0.00    -0.462 OA
BRANCH   3   4
ATOM      4  C   UNL A   1      31.723  28.093  26.913  1.00  0.00     0.312 C 
ATOM      5  O   UNL A   1      31.421  27.920  28.073  1.00  0.00    -0.252 OA
BRANCH   4   6
ATOM      6  C   UNL A   1      31.222  27.273  25.744  1.00  0.00     0.179 C 
BRANCH   6   7
ATOM      7  C   UNL A   1      31.783  25.913  25.834  1.00  0.00     0.063 A 
ATOM      8  C   UNL A   1      33.377  24.538  25.252  1.00  0.00     0.123 A 
ATOM      9  N   UNL A   1      32.958  25.771  25.171  1.00  0.00    -0.240 NA
ATOM     10  S   UNL A   1      32.357  23.439  26.055  1.00  0.00    -0.122 S 
ATOM     11  C   UNL A   1      31.288  24.753  26.403  1.00  0.00     0.091 A 
BRANCH   8  12
ATOM     12  C   UNL A   1      34.704  24.257  24.762  1.00  0.00     0.013 A 
ATOM     13  C   UNL A   1      33.667  23.404  22.579  1.00  0.00     0.045 C 
ATOM     14  C   UNL A   1      34.826  23.571  23.534  1.00  0.00    -0.041 A 
ATOM     15  C   UNL A   1      36.020  22.896  23.263  1.00  0.00     0.004 A 
ATOM     16  C   UNL A   1      37.056  22.887  24.200  1.00  0.00     0.000 A 
ATOM     17  C   UNL A   1      35.762  24.278  25.682  1.00  0.00     0.011 A 
ATOM     18  C   UNL A   1      36.933  23.583  25.402  1.00  0.00     0.001 A 
ENDBRANCH   8  12
ENDBRANCH   6   7
ENDBRANCH   4   6
ENDBRANCH   3   4
ENDBRANCH   2   3
ENDBRANCH   1   2
BRANCH   1  19
ATOM     19  O   UNL A   1      34.397  30.296  28.047  1.00  0.00    -0.458 OA
BRANCH  19  20
ATOM     20  C   UNL A   1      35.534  30.637  28.728  1.00  0.00     0.338 C 
ATOM     21  O   UNL A   1      35.506  31.479  29.621  1.00  0.00    -0.246 OA
BRANCH  20  22
ATOM     22  C   UNL A   1      36.735  29.802  28.539  1.00  0.00     0.060 A 
ATOM     23  C   UNL A   1      37.454  29.847  27.331  1.00  0.00     0.016 A 
ATOM     24  C   UNL A   1      37.240  29.115  29.623  1.00  0.00     0.016 A 
ATOM     25  C   UNL A   1      38.752  29.340  27.275  1.00  0.00     0.010 A 
ATOM     26  C   UNL A   1      38.575  28.835  29.648  1.00  0.00     0.010 A 
ATOM     27  C   UNL A   1      39.317  28.889  28.462  1.00  0.00    -0.014 A 
BRANCH  27  28
ATOM     28  C   UNL A   1      40.567  28.157  28.558  1.00  0.00     0.031 A 
ATOM     29  C   UNL A   1      40.613  26.693  28.541  1.00  0.00     0.074 A 
ATOM     30  C   UNL A   1      41.625  28.998  28.505  1.00  0.00     0.049 A 
ATOM     31  N   UNL A   1      41.599  26.001  28.980  1.00  0.00    -0.248 NA
ATOM     32  C   UNL A   1      39.529  25.848  28.052  1.00  0.00     0.031 C 
ATOM     33  C   UNL A   1      43.045  28.806  28.309  1.00  0.00     0.029 A 
ATOM     34  N   UNL A   1      41.531  30.352  28.843  1.00  0.00    -0.354 N 
ATOM     35  C   UNL A   1      41.466  24.728  28.458  1.00  0.00     0.074 A 
ATOM     36  C   UNL A   1      40.097  24.636  28.031  1.00  0.00     0.031 C 
ATOM     37  C   UNL A   1      43.687  29.862  28.857  1.00  0.00     0.029 A 
ATOM     38  C   UNL A   1      42.687  30.685  29.536  1.00  0.00     0.049 A 
ATOM     39  H   UNL A   1      40.784  30.956  28.629  1.00  0.00     0.167 HD
ATOM     40  C   UNL A   1      42.599  23.996  28.264  1.00  0.00     0.034 A 
ATOM     41  C   UNL A   1      42.518  30.848  30.886  1.00  0.00     0.034 A 
ATOM     42  C   UNL A   1      43.752  24.754  28.746  1.00  0.00     0.049 A 
ATOM     43  C   UNL A   1      43.161  29.700  31.650  1.00  0.00     0.074 A 
ATOM     44  C   UNL A   1      44.695  25.560  28.129  1.00  0.00     0.029 A 
ATOM     45  N   UNL A   1      43.793  25.075  30.087  1.00  0.00    -0.354 N 
ATOM     46  N   UNL A   1      43.499  28.554  31.115  1.00  0.00    -0.248 NA
ATOM     47  C   UNL A   1      43.474  29.756  33.071  1.00  0.00     0.031 C 
ATOM     48  C   UNL A   1      45.256  26.416  29.129  1.00  0.00     0.029 A 
ATOM     49  C   UNL A   1      44.659  26.117  30.340  1.00  0.00     0.049 A 
ATOM     50  H   UNL A   1      43.267  24.615  30.780  1.00  0.00     0.167 HD
ATOM     51  C   UNL A   1      44.150  27.778  32.032  1.00  0.00     0.074 A 
ATOM     52  C   UNL A   1      44.032  28.546  33.266  1.00  0.00     0.031 C 
ATOM     53  C   UNL A   1      44.752  26.586  31.712  1.00  0.00     0.034 A 
BRANCH  40  54
ATOM     54  C   UNL A   1      42.734  22.762  27.407  1.00  0.00     0.023 A 
ATOM     55  C   UNL A   1      43.728  22.764  26.407  1.00  0.00     0.031 A 
ATOM     56  C   UNL A   1      41.963  21.588  27.491  1.00  0.00     0.131 A 
ATOM     57  C   UNL A   1      43.889  21.693  25.514  1.00  0.00     0.055 A 
ATOM     58  C   UNL A   1      42.105  20.523  26.584  1.00  0.00     0.041 A 
ATOM     59  F   UNL A   1      41.073  21.397  28.474  1.00  0.00    -0.206 F 
ATOM     60  C   UNL A   1      43.068  20.574  25.583  1.00  0.00     0.022 A 
BRANCH  57  61
ATOM     61  S   UNL A   1      45.203  21.799  24.269  1.00  0.00     0.124 S 
ATOM     62  O   UNL A   1      46.385  21.420  25.036  1.00  0.00    -0.237 OA
ATOM     63  O   UNL A   1      44.755  20.844  23.262  1.00  0.00    -0.237 OA
ATOM     64  O   UNL A   1      45.162  23.199  23.851  1.00  0.00    -0.744 OA
ENDBRANCH  57  61
ENDBRANCH  40  54
BRANCH  41  65
ATOM     65  C   UNL A   1      41.222  31.565  31.239  1.00  0.00     0.023 A 
ATOM     66  C   UNL A   1      40.252  30.834  31.979  1.00  0.00     0.031 A 
ATOM     67  C   UNL A   1      41.035  32.953  31.180  1.00  0.00     0.131 A 
ATOM     68  C   UNL A   1      39.294  31.481  32.777  1.00  0.00     0.055 A 
ATOM     69  C   UNL A   1      39.995  33.591  31.888  1.00  0.00     0.041 A 
ATOM     70  F   UNL A   1      41.900  33.737  30.521  1.00  0.00    -0.206 F 
ATOM     71  C   UNL A   1      39.147  32.863  32.727  1.00  0.00     0.022 A 
BRANCH  68  72
ATOM     72  S   UNL A   1      38.489  30.503  34.090  1.00  0.00     0.124 S 
ATOM     73  O   UNL A   1      39.624  30.070  34.895  1.00  0.00    -0.237 OA
ATOM     74  O   UNL A   1      37.603  31.485  34.715  1.00  0.00    -0.237 OA
ATOM     75  O   UNL A   1      37.794  29.445  33.364  1.00  0.00    -0.744 OA
ENDBRANCH  68  72
ENDBRANCH  41  65
BRANCH  53  76
ATOM     76  C   UNL A   1      45.467  25.710  32.709  1.00  0.00     0.023 A 
ATOM     77  C   UNL A   1      44.762  24.927  33.622  1.00  0.00     0.031 A 
ATOM     78  C   UNL A   1      46.880  25.643  32.804  1.00  0.00     0.131 A 
ATOM     79  C   UNL A   1      45.427  23.997  34.431  1.00  0.00     0.055 A 
ATOM     80  C   UNL A   1      47.546  24.791  33.681  1.00  0.00     0.041 A 
ATOM     81  F   UNL A   1      47.696  26.374  32.032  1.00  0.00    -0.206 F 
ATOM     82  C   UNL A   1      46.817  23.928  34.478  1.00  0.00     0.022 A 
BRANCH  79  83
ATOM     83  S   UNL A   1      44.418  22.805  35.333  1.00  0.00     0.124 S 
ATOM     84  O   UNL A   1      44.919  22.934  36.697  1.00  0.00    -0.237 OA
ATOM     85  O   UNL A   1      43.073  23.328  35.102  1.00  0.00    -0.237 OA
ATOM     86  O   UNL A   1      44.714  21.537  34.673  1.00  0.00    -0.744 OA
ENDBRANCH  79  83
ENDBRANCH  53  76
ENDBRANCH  27  28
ENDBRANCH  20  22
ENDBRANCH  19  20
ENDBRANCH   1  19
TORSDOF 16
ENDMDL
MODEL 2
REMARK VINA RESULT:     -11.6      2.251      2.648
REMARK SMILES Cc1ccccc1-c1nc(CC(=O)OCCOC(=O)c2ccc(-c3c4nc(c(-c5cc(S(=O)(=O)[O-])ccc5F)c5ccc([nH]5)c(-c5cc(S(=O)(=O)[O-])ccc5F)c5nc(c(-c6cc(S(=O)(=O)[O-])ccc6F)c6ccc3[nH]6)C=C5)C=C4)cc2)cs1
REMARK SMILES IDX 16 1 15 2 14 3 12 4 13 5 11 6 10 7 8 8 9 9 84 10 83 11 7 12
REMARK SMILES IDX 1 13 2 14 3 15 4 16 6 17 5 18 17 19 18 20 19 21 20 22 21 23
REMARK SMILES IDX 82 24 22 25 81 26 23 27 24 28 25 29 75 30 26 31 80 32 74 33
REMARK SMILES IDX 76 34 27 35 79 36 73 37 72 38 28 40 60 41 40 42 59 43 41 44
REMARK SMILES IDX 44 45 58 46 77 47 42 48 43 49 57 51 78 52 45 53 29 54 30 55
REMARK SMILES IDX 38 56 31 57 37 58 39 59 36 60 32 61 33 62 34 63 35 64 61 65
REMARK SMILES IDX 62 66 70 67 63 68 69 69 71 70 68 71 64 72 65 73 66 74 67 75
REMARK SMILES IDX 46 76 47 77 55 78 48 79 54 80 56 81 53 82 49 83 50 84 51 85
REMARK SMILES IDX 52 86
REMARK H PARENT 76 39 44 50
REMARK Flexibility Score: inf
ROOT
ATOM      1  C   UNL A   1      34.596  29.571  27.346  1.00  0.00     0.275 C 
ENDROOT
BRANCH   1   2
ATOM      2  C   UNL A   1      33.096  29.836  27.147  1.00  0.00     0.274 C 
BRANCH   2   3
ATOM      3  O   UNL A   1      32.556  28.837  26.293  1.00  0.00    -0.462 OA
BRANCH   3   4
ATOM      4  C   UNL A   1      31.744  27.923  26.892  1.00  0.00     0.312 C 
ATOM      5  O   UNL A   1      31.492  27.895  28.076  1.00  0.00    -0.252 OA
BRANCH   4   6
ATOM      6  C   UNL A   1      31.173  26.985  25.851  1.00  0.00     0.179 C 
BRANCH   6   7
ATOM      7  C   UNL A   1      31.816  25.665  25.987  1.00  0.00     0.063 A 
ATOM      8  C   UNL A   1      33.470  24.358  25.418  1.00  0.00     0.123 A 
ATOM      9  N   UNL A   1      32.977  25.559  25.293  1.00  0.00    -0.240 NA
ATOM     10  S   UNL A   1      32.542  23.243  26.306  1.00  0.00    -0.122 S 
ATOM     11  C   UNL A   1      31.408  24.508  26.627  1.00  0.00     0.091 A 
BRANCH   8  12
ATOM     12  C   UNL A   1      34.796  24.130  24.898  1.00  0.00     0.013 A 
ATOM     13  C   UNL A   1      33.745  23.294  22.715  1.00  0.00     0.045 C 
ATOM     14  C   UNL A   1      34.917  23.476  23.652  1.00  0.00    -0.041 A 
ATOM     15  C   UNL A   1      36.126  22.846  23.344  1.00  0.00     0.004 A 
ATOM     16  C   UNL A   1      37.179  22.849  24.262  1.00  0.00     0.000 A 
ATOM     17  C   UNL A   1      35.869  24.164  25.799  1.00  0.00     0.011 A 
ATOM     18  C   UNL A   1      37.057  23.513  25.482  1.00  0.00     0.001 A 
ENDBRANCH   8  12
ENDBRANCH   6   7
ENDBRANCH   4   6
ENDBRANCH   3   4
ENDBRANCH   2   3
ENDBRANCH   1   2
BRANCH   1  19
ATOM     19  O   UNL A   1      35.456  30.717  27.665  1.00  0.00    -0.458 OA
BRANCH  19  20
ATOM     20  C   UNL A   1      36.119  31.051  28.814  1.00  0.00     0.338 C 
ATOM     21  O   UNL A   1      35.624  31.827  29.626  1.00  0.00    -0.246 OA
BRANCH  20  22
ATOM     22  C   UNL A   1      37.319  30.274  29.176  1.00  0.00     0.060 A 
ATOM     23  C   UNL A   1      37.204  29.081  29.912  1.00  0.00     0.016 A 
ATOM     24  C   UNL A   1      38.533  30.639  28.633  1.00  0.00     0.016 A 
ATOM     25  C   UNL A   1      38.270  28.182  29.954  1.00  0.00     0.010 A 
ATOM     26  C   UNL A   1      39.487  29.677  28.469  1.00  0.00     0.010 A 
ATOM     27  C   UNL A   1      39.386  28.474  29.177  1.00  0.00    -0.014 A 
BRANCH  27  28
ATOM     28  C   UNL A   1      40.650  27.766  29.248  1.00  0.00     0.031 A 
ATOM     29  C   UNL A   1      40.784  26.370  28.823  1.00  0.00     0.074 A 
ATOM     30  C   UNL A   1      41.655  28.603  29.595  1.00  0.00     0.049 A 
ATOM     31  N   UNL A   1      41.739  25.597  29.189  1.00  0.00    -0.248 NA
ATOM     32  C   UNL A   1      39.830  25.687  27.956  1.00  0.00     0.031 C 
ATOM     33  C   UNL A   1      43.097  28.498  29.568  1.00  0.00     0.029 A 
ATOM     34  N   UNL A   1      41.436  29.799  30.286  1.00  0.00    -0.354 N 
ATOM     35  C   UNL A   1      41.754  24.527  28.314  1.00  0.00     0.074 A 
ATOM     36  C   UNL A   1      40.466  24.541  27.678  1.00  0.00     0.031 C 
ATOM     37  C   UNL A   1      43.593  29.360  30.484  1.00  0.00     0.029 A 
ATOM     38  C   UNL A   1      42.462  29.935  31.210  1.00  0.00     0.049 A 
ATOM     39  H   UNL A   1      40.691  30.428  30.142  1.00  0.00     0.167 HD
ATOM     40  C   UNL A   1      42.944  23.901  28.093  1.00  0.00     0.034 A 
ATOM     41  C   UNL A   1      42.098  29.698  32.509  1.00  0.00     0.034 A 
ATOM     42  C   UNL A   1      43.972  24.505  28.938  1.00  0.00     0.049 A 
ATOM     43  C   UNL A   1      42.693  28.388  33.004  1.00  0.00     0.074 A 
ATOM     44  C   UNL A   1      44.943  25.470  28.724  1.00  0.00     0.029 A 
ATOM     45  N   UNL A   1      43.807  24.425  30.305  1.00  0.00    -0.354 N 
ATOM     46  N   UNL A   1      43.169  27.452  32.222  1.00  0.00    -0.248 NA
ATOM     47  C   UNL A   1      42.802  28.035  34.412  1.00  0.00     0.031 C 
ATOM     48  C   UNL A   1      45.308  26.009  29.998  1.00  0.00     0.029 A 
ATOM     49  C   UNL A   1      44.567  25.363  30.971  1.00  0.00     0.049 A 
ATOM     50  H   UNL A   1      43.218  23.775  30.751  1.00  0.00     0.167 HD
ATOM     51  C   UNL A   1      43.730  26.454  32.968  1.00  0.00     0.074 A 
ATOM     52  C   UNL A   1      43.397  26.830  34.338  1.00  0.00     0.031 C 
ATOM     53  C   UNL A   1      44.440  25.416  32.417  1.00  0.00     0.034 A 
BRANCH  40  54
ATOM     54  C   UNL A   1      43.268  22.971  26.951  1.00  0.00     0.023 A 
ATOM     55  C   UNL A   1      42.758  21.658  27.008  1.00  0.00     0.031 A 
ATOM     56  C   UNL A   1      44.040  23.269  25.813  1.00  0.00     0.131 A 
ATOM     57  C   UNL A   1      43.058  20.697  26.030  1.00  0.00     0.055 A 
ATOM     58  C   UNL A   1      44.363  22.304  24.843  1.00  0.00     0.041 A 
ATOM     59  F   UNL A   1      44.478  24.510  25.563  1.00  0.00    -0.206 F 
ATOM     60  C   UNL A   1      43.878  21.007  24.952  1.00  0.00     0.022 A 
BRANCH  57  61
ATOM     61  S   UNL A   1      42.345  19.039  26.203  1.00  0.00     0.124 S 
ATOM     62  O   UNL A   1      42.459  18.803  27.639  1.00  0.00    -0.237 OA
ATOM     63  O   UNL A   1      40.994  19.227  25.686  1.00  0.00    -0.237 OA
ATOM     64  O   UNL A   1      43.213  18.208  25.371  1.00  0.00    -0.744 OA
ENDBRANCH  57  61
ENDBRANCH  40  54
BRANCH  41  65
ATOM     65  C   UNL A   1      40.725  30.262  32.853  1.00  0.00     0.023 A 
ATOM     66  C   UNL A   1      40.516  31.652  32.636  1.00  0.00     0.031 A 
ATOM     67  C   UNL A   1      39.573  29.490  33.056  1.00  0.00     0.131 A 
ATOM     68  C   UNL A   1      39.232  32.179  32.425  1.00  0.00     0.055 A 
ATOM     69  C   UNL A   1      38.280  30.048  32.962  1.00  0.00     0.041 A 
ATOM     70  F   UNL A   1      39.657  28.166  33.254  1.00  0.00    -0.206 F 
ATOM     71  C   UNL A   1      38.103  31.386  32.601  1.00  0.00     0.022 A 
BRANCH  68  72
ATOM     72  S   UNL A   1      39.110  33.810  31.616  1.00  0.00     0.124 S 
ATOM     73  O   UNL A   1      37.669  33.993  31.501  1.00  0.00    -0.237 OA
ATOM     74  O   UNL A   1      39.790  34.685  32.570  1.00  0.00    -0.237 OA
ATOM     75  O   UNL A   1      39.823  33.629  30.355  1.00  0.00    -0.744 OA
ENDBRANCH  68  72
ENDBRANCH  41  65
BRANCH  53  76
ATOM     76  C   UNL A   1      45.059  24.299  33.219  1.00  0.00     0.023 A 
ATOM     77  C   UNL A   1      46.385  24.362  33.646  1.00  0.00     0.031 A 
ATOM     78  C   UNL A   1      44.357  23.116  33.565  1.00  0.00     0.131 A 
ATOM     79  C   UNL A   1      46.901  23.401  34.524  1.00  0.00     0.055 A 
ATOM     80  C   UNL A   1      44.905  22.109  34.356  1.00  0.00     0.041 A 
ATOM     81  F   UNL A   1      43.094  22.883  33.185  1.00  0.00    -0.206 F 
ATOM     82  C   UNL A   1      46.175  22.266  34.877  1.00  0.00     0.022 A 
BRANCH  79  83
ATOM     83  S   UNL A   1      48.503  23.738  35.280  1.00  0.00     0.124 S 
ATOM     84  O   UNL A   1      49.371  23.906  34.120  1.00  0.00    -0.237 OA
ATOM     85  O   UNL A   1      48.217  24.955  36.037  1.00  0.00    -0.237 OA
ATOM     86  O   UNL A   1      48.758  22.549  36.088  1.00  0.00    -0.744 OA
ENDBRANCH  79  83
ENDBRANCH  53  76
ENDBRANCH  27  28
ENDBRANCH  20  22
ENDBRANCH  19  20
ENDBRANCH   1  19
TORSDOF 16
ENDMDL
MODEL 3
REMARK VINA RESULT:     -11.3      3.823      9.716
REMARK SMILES Cc1ccccc1-c1nc(CC(=O)OCCOC(=O)c2ccc(-c3c4nc(c(-c5cc(S(=O)(=O)[O-])ccc5F)c5ccc([nH]5)c(-c5cc(S(=O)(=O)[O-])ccc5F)c5nc(c(-c6cc(S(=O)(=O)[O-])ccc6F)c6ccc3[nH]6)C=C5)C=C4)cc2)cs1
REMARK SMILES IDX 16 1 15 2 14 3 12 4 13 5 11 6 10 7 8 8 9 9 84 10 83 11 7 12
REMARK SMILES IDX 1 13 2 14 3 15 4 16 6 17 5 18 17 19 18 20 19 21 20 22 21 23
REMARK SMILES IDX 82 24 22 25 81 26 23 27 24 28 25 29 75 30 26 31 80 32 74 33
REMARK SMILES IDX 76 34 27 35 79 36 73 37 72 38 28 40 60 41 40 42 59 43 41 44
REMARK SMILES IDX 44 45 58 46 77 47 42 48 43 49 57 51 78 52 45 53 29 54 30 55
REMARK SMILES IDX 38 56 31 57 37 58 39 59 36 60 32 61 33 62 34 63 35 64 61 65
REMARK SMILES IDX 62 66 70 67 63 68 69 69 71 70 68 71 64 72 65 73 66 74 67 75
REMARK SMILES IDX 46 76 47 77 55 78 48 79 54 80 56 81 53 82 49 83 50 84 51 85
REMARK SMILES IDX 52 86
REMARK H PARENT 76 39 44 50
REMARK Flexibility Score: inf
ROOT
ATOM      1  C   UNL A   1      37.435  22.127  25.584  1.00  0.00     0.275 C 
ENDROOT
BRANCH   1   2
ATOM      2  C   UNL A   1      36.761  21.998  24.209  1.00  0.00     0.274 C 
BRANCH   2   3
ATOM      3  O   UNL A   1      35.377  22.294  24.340  1.00  0.00    -0.462 OA
BRANCH   3   4
ATOM      4  C   UNL A   1      34.988  23.516  23.882  1.00  0.00     0.312 C 
ATOM      5  O   UNL A   1      34.673  23.756  22.738  1.00  0.00    -0.252 OA
BRANCH   4   6
ATOM      6  C   UNL A   1      34.968  24.508  25.025  1.00  0.00     0.179 C 
BRANCH   6   7
ATOM      7  C   UNL A   1      33.568  24.811  25.373  1.00  0.00     0.063 A 
ATOM      8  C   UNL A   1      32.109  26.319  25.977  1.00  0.00     0.123 A 
ATOM      9  N   UNL A   1      33.351  26.125  25.633  1.00  0.00    -0.240 NA
ATOM     10  S   UNL A   1      31.127  24.936  26.098  1.00  0.00    -0.122 S 
ATOM     11  C   UNL A   1      32.469  23.990  25.556  1.00  0.00     0.091 A 
BRANCH   8  12
ATOM     12  C   UNL A   1      31.663  27.686  26.105  1.00  0.00     0.013 A 
ATOM     13  C   UNL A   1      30.906  27.619  23.658  1.00  0.00     0.045 C 
ATOM     14  C   UNL A   1      31.223  28.352  24.941  1.00  0.00    -0.041 A 
ATOM     15  C   UNL A   1      31.225  29.750  24.932  1.00  0.00     0.004 A 
ATOM     16  C   UNL A   1      31.674  30.464  26.045  1.00  0.00     0.000 A 
ATOM     17  C   UNL A   1      32.075  28.407  27.234  1.00  0.00     0.011 A 
ATOM     18  C   UNL A   1      32.090  29.797  27.197  1.00  0.00     0.001 A 
ENDBRANCH   8  12
ENDBRANCH   6   7
ENDBRANCH   4   6
ENDBRANCH   3   4
ENDBRANCH   2   3
ENDBRANCH   1   2
BRANCH   1  19
ATOM     19  O   UNL A   1      38.329  23.271  25.802  1.00  0.00    -0.458 OA
BRANCH  19  20
ATOM     20  C   UNL A   1      39.545  23.355  26.423  1.00  0.00     0.338 C 
ATOM     21  O   UNL A   1      40.402  22.493  26.254  1.00  0.00    -0.246 OA
BRANCH  20  22
ATOM     22  C   UNL A   1      39.895  24.619  27.098  1.00  0.00     0.060 A 
ATOM     23  C   UNL A   1      40.330  25.730  26.354  1.00  0.00     0.016 A 
ATOM     24  C   UNL A   1      39.622  24.749  28.444  1.00  0.00     0.016 A 
ATOM     25  C   UNL A   1      40.326  27.000  26.931  1.00  0.00     0.010 A 
ATOM     26  C   UNL A   1      39.389  25.999  28.941  1.00  0.00     0.010 A 
ATOM     27  C   UNL A   1      39.797  27.121  28.211  1.00  0.00    -0.014 A 
BRANCH  27  28
ATOM     28  C   UNL A   1      39.890  28.313  29.035  1.00  0.00     0.031 A 
ATOM     29  C   UNL A   1      38.941  29.421  28.909  1.00  0.00     0.074 A 
ATOM     30  C   UNL A   1      40.839  28.168  29.989  1.00  0.00     0.049 A 
ATOM     31  N   UNL A   1      39.170  30.613  29.321  1.00  0.00    -0.248 NA
ATOM     32  C   UNL A   1      37.633  29.306  28.272  1.00  0.00     0.031 C 
ATOM     33  C   UNL A   1      41.169  28.904  31.189  1.00  0.00     0.029 A 
ATOM     34  N   UNL A   1      41.902  27.267  29.866  1.00  0.00    -0.354 N 
ATOM     35  C   UNL A   1      37.951  31.260  29.390  1.00  0.00     0.074 A 
ATOM     36  C   UNL A   1      37.059  30.475  28.582  1.00  0.00     0.031 C 
ATOM     37  C   UNL A   1      42.472  28.675  31.471  1.00  0.00     0.029 A 
ATOM     38  C   UNL A   1      43.033  27.892  30.372  1.00  0.00     0.049 A 
ATOM     39  H   UNL A   1      41.855  26.358  29.490  1.00  0.00     0.167 HD
ATOM     40  C   UNL A   1      37.812  32.262  30.303  1.00  0.00     0.034 A 
ATOM     41  C   UNL A   1      43.930  28.309  29.424  1.00  0.00     0.034 A 
ATOM     42  C   UNL A   1      39.086  32.472  30.989  1.00  0.00     0.049 A 
ATOM     43  C   UNL A   1      43.928  29.826  29.313  1.00  0.00     0.074 A 
ATOM     44  C   UNL A   1      39.606  32.039  32.197  1.00  0.00     0.029 A 
ATOM     45  N   UNL A   1      40.166  32.867  30.227  1.00  0.00    -0.354 N 
ATOM     46  N   UNL A   1      42.976  30.599  29.772  1.00  0.00    -0.248 NA
ATOM     47  C   UNL A   1      44.996  30.588  28.682  1.00  0.00     0.031 C 
ATOM     48  C   UNL A   1      41.032  32.128  32.114  1.00  0.00     0.029 A 
ATOM     49  C   UNL A   1      41.363  32.621  30.865  1.00  0.00     0.049 A 
ATOM     50  H   UNL A   1      40.090  33.277  29.335  1.00  0.00     0.167 HD
ATOM     51  C   UNL A   1      43.317  31.913  29.617  1.00  0.00     0.074 A 
ATOM     52  C   UNL A   1      44.557  31.849  28.851  1.00  0.00     0.031 C 
ATOM     53  C   UNL A   1      42.581  32.946  30.142  1.00  0.00     0.034 A 
BRANCH  40  54
ATOM     54  C   UNL A   1      36.514  32.855  30.793  1.00  0.00     0.023 A 
ATOM     55  C   UNL A   1      35.755  33.618  29.882  1.00  0.00     0.031 A 
ATOM     56  C   UNL A   1      35.965  32.732  32.083  1.00  0.00     0.131 A 
ATOM     57  C   UNL A   1      34.569  34.267  30.259  1.00  0.00     0.055 A 
ATOM     58  C   UNL A   1      34.790  33.400  32.471  1.00  0.00     0.041 A 
ATOM     59  F   UNL A   1      36.509  31.932  33.009  1.00  0.00    -0.206 F 
ATOM     60  C   UNL A   1      34.088  34.178  31.559  1.00  0.00     0.022 A 
BRANCH  57  61
ATOM     61  S   UNL A   1      33.672  35.220  29.004  1.00  0.00     0.124 S 
ATOM     62  O   UNL A   1      32.767  34.219  28.447  1.00  0.00    -0.237 OA
ATOM     63  O   UNL A   1      33.054  36.275  29.799  1.00  0.00    -0.237 OA
ATOM     64  O   UNL A   1      34.729  35.668  28.099  1.00  0.00    -0.744 OA
ENDBRANCH  57  61
ENDBRANCH  40  54
BRANCH  41  65
ATOM     65  C   UNL A   1      44.093  27.312  28.284  1.00  0.00     0.023 A 
ATOM     66  C   UNL A   1      44.273  25.945  28.632  1.00  0.00     0.031 A 
ATOM     67  C   UNL A   1      43.768  27.570  26.945  1.00  0.00     0.131 A 
ATOM     68  C   UNL A   1      43.936  24.910  27.745  1.00  0.00     0.055 A 
ATOM     69  C   UNL A   1      43.547  26.527  26.022  1.00  0.00     0.041 A 
ATOM     70  F   UNL A   1      43.563  28.824  26.515  1.00  0.00    -0.206 F 
ATOM     71  C   UNL A   1      43.585  25.190  26.428  1.00  0.00     0.022 A 
BRANCH  68  72
ATOM     72  S   UNL A   1      43.665  23.249  28.449  1.00  0.00     0.124 S 
ATOM     73  O   UNL A   1      42.442  23.434  29.221  1.00  0.00    -0.237 OA
ATOM     74  O   UNL A   1      43.542  22.416  27.253  1.00  0.00    -0.237 OA
ATOM     75  O   UNL A   1      44.870  22.999  29.233  1.00  0.00    -0.744 OA
ENDBRANCH  68  72
ENDBRANCH  41  65
BRANCH  53  76
ATOM     76  C   UNL A   1      42.933  34.402  29.975  1.00  0.00     0.023 A 
ATOM     77  C   UNL A   1      43.013  34.989  28.713  1.00  0.00     0.031 A 
ATOM     78  C   UNL A   1      43.231  35.254  31.070  1.00  0.00     0.131 A 
ATOM     79  C   UNL A   1      43.181  36.373  28.577  1.00  0.00     0.055 A 
ATOM     80  C   UNL A   1      43.499  36.613  30.926  1.00  0.00     0.041 A 
ATOM     81  F   UNL A   1      43.248  34.827  32.340  1.00  0.00    -0.206 F 
ATOM     82  C   UNL A   1      43.435  37.192  29.673  1.00  0.00     0.022 A 
BRANCH  79  83
ATOM     83  S   UNL A   1      42.941  37.082  26.936  1.00  0.00     0.124 S 
ATOM     84  O   UNL A   1      41.837  38.012  27.152  1.00  0.00    -0.237 OA
ATOM     85  O   UNL A   1      44.244  37.695  26.690  1.00  0.00    -0.237 OA
ATOM     86  O   UNL A   1      42.630  35.923  26.104  1.00  0.00    -0.744 OA
ENDBRANCH  79  83
ENDBRANCH  53  76
ENDBRANCH  27  28
ENDBRANCH  20  22
ENDBRANCH  19  20
ENDBRANCH   1  19
TORSDOF 16
ENDMDL
