MODEL 1
REMARK VINA RESULT:     -12.0      0.000      0.000
REMARK SMILES O=C(C[NH+]1CCN(c2nccc(N3CCCCC3)n2)CC1)OCCOC(=O)c1ccc(-c2c3nc(c(-c4cc(S(=O)(=O)[O-])ccc4F)c4ccc([nH]4)c(-c4cc(S(=O)(=O)[O-])ccc4F)c4nc(c(-c5cc(S(=O)(=O)[O-])ccc5F)c5ccc2[nH]5)C=C4)C=C3)cc1
REMARK SMILES IDX 23 1 22 2 2 3 1 4 3 5 4 6 5 7 21 8 6 10 20 11 7 12 8 13 9 14
REMARK SMILES IDX 19 15 10 16 12 17 11 18 13 19 14 20 18 21 15 22 17 23 16 24
REMARK SMILES IDX 24 25 25 26 26 27 27 28 28 29 29 30 90 31 30 32 89 33 31 34
REMARK SMILES IDX 32 35 33 36 83 37 34 38 88 39 82 40 84 41 35 42 87 43 81 44
REMARK SMILES IDX 80 45 36 47 68 48 48 49 67 50 49 51 52 52 66 53 85 54 50 55
REMARK SMILES IDX 51 56 65 58 86 59 53 60 37 61 38 62 46 63 39 64 45 65 47 66
REMARK SMILES IDX 44 67 40 68 41 69 42 70 43 71 69 72 70 73 78 74 71 75 77 76
REMARK SMILES IDX 79 77 76 78 72 79 73 80 74 81 75 82 54 83 55 84 63 85 56 86
REMARK SMILES IDX 62 87 64 88 61 89 57 90 58 91 59 92 60 93
REMARK H PARENT 4 9 84 46 52 57
REMARK Flexibility Score: inf
ROOT
ATOM      1  C   UNL A   1      31.957  29.592  25.014  1.00  0.00     0.274 C 
ENDROOT
BRANCH   1   2
ATOM      2  O   UNL A   1      31.211  28.366  25.187  1.00  0.00    -0.458 OA
BRANCH   2   3
ATOM      3  C   UNL A   1      30.995  27.437  24.216  1.00  0.00     0.361 C 
ATOM      4  O   UNL A   1      30.240  27.701  23.282  1.00  0.00    -0.245 OA
BRANCH   3   5
ATOM      5  C   UNL A   1      31.664  26.071  24.364  1.00  0.00     0.386 C 
BRANCH   5   6
ATOM      6  N   UNL A   1      30.810  24.941  24.795  1.00  0.00    -0.323 N 
ATOM      7  C   UNL A   1      30.717  23.793  23.876  1.00  0.00     0.284 C 
ATOM      8  C   UNL A   1      31.241  24.438  26.122  1.00  0.00     0.284 C 
ATOM      9  H   UNL A   1      29.877  25.352  24.816  1.00  0.00     0.348 HD
ATOM     10  C   UNL A   1      32.004  22.967  23.711  1.00  0.00     0.181 C 
ATOM     11  C   UNL A   1      32.561  23.632  26.111  1.00  0.00     0.181 C 
ATOM     12  N   UNL A   1      32.617  22.697  24.997  1.00  0.00    -0.329 N 
BRANCH  12  13
ATOM     13  C   UNL A   1      33.588  21.735  25.051  1.00  0.00     0.227 A 
ATOM     14  N   UNL A   1      34.846  22.064  25.377  1.00  0.00    -0.221 NA
ATOM     15  N   UNL A   1      33.207  20.509  24.695  1.00  0.00    -0.196 NA
ATOM     16  C   UNL A   1      35.738  21.058  25.363  1.00  0.00     0.119 A 
ATOM     17  C   UNL A   1      34.123  19.538  24.627  1.00  0.00     0.134 A 
ATOM     18  C   UNL A   1      35.428  19.769  25.001  1.00  0.00     0.067 A 
BRANCH  17  19
ATOM     19  N   UNL A   1      33.748  18.321  24.073  1.00  0.00    -0.356 N 
ATOM     20  C   UNL A   1      32.399  17.853  24.412  1.00  0.00     0.118 C 
ATOM     21  C   UNL A   1      34.777  17.304  23.891  1.00  0.00     0.118 C 
ATOM     22  C   UNL A   1      32.419  16.903  25.607  1.00  0.00     0.022 C 
ATOM     23  C   UNL A   1      34.803  16.337  25.078  1.00  0.00     0.022 C 
ATOM     24  C   UNL A   1      33.414  15.772  25.374  1.00  0.00     0.004 C 
ENDBRANCH  17  19
ENDBRANCH  12  13
ENDBRANCH   5   6
ENDBRANCH   3   5
ENDBRANCH   2   3
ENDBRANCH   1   2
BRANCH   1  25
ATOM     25  C   UNL A   1      31.560  30.669  26.019  1.00  0.00     0.275 C 
BRANCH  25  26
ATOM     26  O   UNL A   1      32.457  30.649  27.141  1.00  0.00    -0.458 OA
BRANCH  26  27
ATOM     27  C   UNL A   1      33.169  31.793  27.319  1.00  0.00     0.338 C 
ATOM     28  O   UNL A   1      32.741  32.925  27.251  1.00  0.00    -0.246 OA
BRANCH  27  29
ATOM     29  C   UNL A   1      34.523  31.446  27.814  1.00  0.00     0.060 A 
ATOM     30  C   UNL A   1      34.791  30.096  28.077  1.00  0.00     0.016 A 
ATOM     31  C   UNL A   1      35.517  32.411  27.999  1.00  0.00     0.016 A 
ATOM     32  C   UNL A   1      36.035  29.713  28.577  1.00  0.00     0.010 A 
ATOM     33  C   UNL A   1      36.761  32.029  28.503  1.00  0.00     0.010 A 
ATOM     34  C   UNL A   1      37.009  30.685  28.833  1.00  0.00    -0.014 A 
BRANCH  34  35
ATOM     35  C   UNL A   1      38.185  30.354  29.673  1.00  0.00     0.031 A 
ATOM     36  C   UNL A   1      39.167  29.353  29.130  1.00  0.00     0.074 A 
ATOM     37  C   UNL A   1      38.362  30.898  30.887  1.00  0.00     0.049 A 
ATOM     38  N   UNL A   1      40.203  28.803  29.705  1.00  0.00    -0.248 NA
ATOM     39  C   UNL A   1      38.926  28.900  27.751  1.00  0.00     0.031 C 
ATOM     40  C   UNL A   1      37.498  31.905  31.498  1.00  0.00     0.029 A 
ATOM     41  N   UNL A   1      39.325  30.657  31.835  1.00  0.00    -0.354 N 
ATOM     42  C   UNL A   1      40.733  27.929  28.762  1.00  0.00     0.074 A 
ATOM     43  C   UNL A   1      39.874  27.992  27.598  1.00  0.00     0.031 C 
ATOM     44  C   UNL A   1      37.954  32.175  32.734  1.00  0.00     0.029 A 
ATOM     45  C   UNL A   1      39.119  31.334  33.012  1.00  0.00     0.049 A 
ATOM     46  H   UNL A   1      40.091  30.057  31.684  1.00  0.00     0.167 HD
ATOM     47  C   UNL A   1      41.839  27.151  28.855  1.00  0.00     0.034 A 
ATOM     48  C   UNL A   1      39.773  31.252  34.188  1.00  0.00     0.034 A 
ATOM     49  C   UNL A   1      42.666  27.085  30.034  1.00  0.00     0.049 A 
ATOM     50  C   UNL A   1      40.954  30.319  34.309  1.00  0.00     0.074 A 
ATOM     51  C   UNL A   1      43.815  26.345  30.242  1.00  0.00     0.029 A 
ATOM     52  N   UNL A   1      42.417  27.774  31.215  1.00  0.00    -0.354 N 
ATOM     53  N   UNL A   1      41.460  29.504  33.411  1.00  0.00    -0.248 NA
ATOM     54  C   UNL A   1      41.657  30.298  35.598  1.00  0.00     0.031 C 
ATOM     55  C   UNL A   1      44.216  26.527  31.571  1.00  0.00     0.029 A 
ATOM     56  C   UNL A   1      43.368  27.448  32.167  1.00  0.00     0.049 A 
ATOM     57  H   UNL A   1      41.672  28.404  31.355  1.00  0.00     0.167 HD
ATOM     58  C   UNL A   1      42.560  28.901  34.016  1.00  0.00     0.074 A 
ATOM     59  C   UNL A   1      42.643  29.443  35.357  1.00  0.00     0.031 C 
ATOM     60  C   UNL A   1      43.433  27.994  33.505  1.00  0.00     0.034 A 
BRANCH  47  61
ATOM     61  C   UNL A   1      42.155  26.269  27.670  1.00  0.00     0.023 A 
ATOM     62  C   UNL A   1      41.652  24.959  27.568  1.00  0.00     0.031 A 
ATOM     63  C   UNL A   1      43.044  26.710  26.674  1.00  0.00     0.131 A 
ATOM     64  C   UNL A   1      42.123  24.107  26.557  1.00  0.00     0.055 A 
ATOM     65  C   UNL A   1      43.432  25.887  25.616  1.00  0.00     0.041 A 
ATOM     66  F   UNL A   1      43.578  27.941  26.732  1.00  0.00    -0.206 F 
ATOM     67  C   UNL A   1      42.990  24.570  25.566  1.00  0.00     0.022 A 
BRANCH  64  68
ATOM     68  S   UNL A   1      41.741  22.336  26.676  1.00  0.00     0.124 S 
ATOM     69  O   UNL A   1      42.199  21.848  25.376  1.00  0.00    -0.237 OA
ATOM     70  O   UNL A   1      42.529  21.920  27.828  1.00  0.00    -0.237 OA
ATOM     71  O   UNL A   1      40.293  22.310  26.864  1.00  0.00    -0.744 OA
ENDBRANCH  64  68
ENDBRANCH  47  61
BRANCH  48  72
ATOM     72  C   UNL A   1      39.297  32.040  35.360  1.00  0.00     0.023 A 
ATOM     73  C   UNL A   1      39.746  33.349  35.594  1.00  0.00     0.031 A 
ATOM     74  C   UNL A   1      38.391  31.478  36.278  1.00  0.00     0.131 A 
ATOM     75  C   UNL A   1      39.310  34.044  36.734  1.00  0.00     0.055 A 
ATOM     76  C   UNL A   1      37.925  32.189  37.386  1.00  0.00     0.041 A 
ATOM     77  F   UNL A   1      37.930  30.230  36.100  1.00  0.00    -0.206 F 
ATOM     78  C   UNL A   1      38.391  33.478  37.623  1.00  0.00     0.022 A 
BRANCH  75  79
ATOM     79  S   UNL A   1      39.998  35.687  37.072  1.00  0.00     0.124 S 
ATOM     80  O   UNL A   1      39.279  36.067  38.284  1.00  0.00    -0.237 OA
ATOM     81  O   UNL A   1      41.419  35.396  37.232  1.00  0.00    -0.237 OA
ATOM     82  O   UNL A   1      39.653  36.453  35.876  1.00  0.00    -0.744 OA
ENDBRANCH  75  79
ENDBRANCH  48  72
BRANCH  60  83
ATOM     83  C   UNL A   1      44.593  27.575  34.375  1.00  0.00     0.023 A 
ATOM     84  C   UNL A   1      44.548  26.424  35.180  1.00  0.00     0.031 A 
ATOM     85  C   UNL A   1      45.779  28.332  34.366  1.00  0.00     0.131 A 
ATOM     86  C   UNL A   1      45.659  26.081  35.968  1.00  0.00     0.055 A 
ATOM     87  C   UNL A   1      46.898  27.957  35.111  1.00  0.00     0.041 A 
ATOM     88  F   UNL A   1      45.876  29.441  33.616  1.00  0.00    -0.206 F 
ATOM     89  C   UNL A   1      46.839  26.829  35.924  1.00  0.00     0.022 A 
BRANCH  86  90
ATOM     90  S   UNL A   1      45.526  24.671  37.102  1.00  0.00     0.124 S 
ATOM     91  O   UNL A   1      44.208  24.879  37.693  1.00  0.00    -0.237 OA
ATOM     92  O   UNL A   1      45.649  23.531  36.202  1.00  0.00    -0.237 OA
ATOM     93  O   UNL A   1      46.651  24.859  38.018  1.00  0.00    -0.744 OA
ENDBRANCH  86  90
ENDBRANCH  60  83
ENDBRANCH  34  35
ENDBRANCH  27  29
ENDBRANCH  26  27
ENDBRANCH  25  26
ENDBRANCH   1  25
TORSDOF 17
ENDMDL
MODEL 2
REMARK VINA RESULT:     -11.9      5.098     10.630
REMARK SMILES O=C(C[NH+]1CCN(c2nccc(N3CCCCC3)n2)CC1)OCCOC(=O)c1ccc(-c2c3nc(c(-c4cc(S(=O)(=O)[O-])ccc4F)c4ccc([nH]4)c(-c4cc(S(=O)(=O)[O-])ccc4F)c4nc(c(-c5cc(S(=O)(=O)[O-])ccc5F)c5ccc2[nH]5)C=C4)C=C3)cc1
REMARK SMILES IDX 23 1 22 2 2 3 1 4 3 5 4 6 5 7 21 8 6 10 20 11 7 12 8 13 9 14
REMARK SMILES IDX 19 15 10 16 12 17 11 18 13 19 14 20 18 21 15 22 17 23 16 24
REMARK SMILES IDX 24 25 25 26 26 27 27 28 28 29 29 30 90 31 30 32 89 33 31 34
REMARK SMILES IDX 32 35 33 36 83 37 34 38 88 39 82 40 84 41 35 42 87 43 81 44
REMARK SMILES IDX 80 45 36 47 68 48 48 49 67 50 49 51 52 52 66 53 85 54 50 55
REMARK SMILES IDX 51 56 65 58 86 59 53 60 37 61 38 62 46 63 39 64 45 65 47 66
REMARK SMILES IDX 44 67 40 68 41 69 42 70 43 71 69 72 70 73 78 74 71 75 77 76
REMARK SMILES IDX 79 77 76 78 72 79 73 80 74 81 75 82 54 83 55 84 63 85 56 86
REMARK SMILES IDX 62 87 64 88 61 89 57 90 58 91 59 92 60 93
REMARK H PARENT 4 9 84 46 52 57
REMARK Flexibility Score: inf
ROOT
ATOM      1  C   UNL A   1      35.789  21.109  24.617  1.00  0.00     0.274 C 
ENDROOT
BRANCH   1   2
ATOM      2  O   UNL A   1      34.685  20.862  25.518  1.00  0.00    -0.458 OA
BRANCH   2   3
ATOM      3  C   UNL A   1      33.375  21.089  25.233  1.00  0.00     0.361 C 
ATOM      4  O   UNL A   1      32.613  20.135  25.084  1.00  0.00    -0.245 OA
BRANCH   3   5
ATOM      5  C   UNL A   1      32.917  22.535  25.051  1.00  0.00     0.386 C 
BRANCH   5   6
ATOM      6  N   UNL A   1      31.477  22.820  25.248  1.00  0.00    -0.323 N 
ATOM      7  C   UNL A   1      31.110  23.571  26.461  1.00  0.00     0.284 C 
ATOM      8  C   UNL A   1      30.922  23.537  24.074  1.00  0.00     0.284 C 
ATOM      9  H   UNL A   1      31.073  21.891  25.366  1.00  0.00     0.348 HD
ATOM     10  C   UNL A   1      31.569  25.038  26.500  1.00  0.00     0.181 C 
ATOM     11  C   UNL A   1      31.353  25.018  23.957  1.00  0.00     0.181 C 
ATOM     12  N   UNL A   1      31.295  25.702  25.241  1.00  0.00    -0.329 N 
BRANCH  12  13
ATOM     13  C   UNL A   1      31.367  27.068  25.211  1.00  0.00     0.227 A 
ATOM     14  N   UNL A   1      31.900  27.739  26.242  1.00  0.00    -0.221 NA
ATOM     15  N   UNL A   1      30.817  27.652  24.147  1.00  0.00    -0.196 NA
ATOM     16  C   UNL A   1      31.888  29.079  26.139  1.00  0.00     0.119 A 
ATOM     17  C   UNL A   1      30.759  28.986  24.095  1.00  0.00     0.134 A 
ATOM     18  C   UNL A   1      31.334  29.758  25.080  1.00  0.00     0.067 A 
BRANCH  17  19
ATOM     19  N   UNL A   1      30.017  29.572  23.077  1.00  0.00    -0.356 N 
ATOM     20  C   UNL A   1      29.741  31.005  23.232  1.00  0.00     0.118 C 
ATOM     21  C   UNL A   1      28.994  28.764  22.423  1.00  0.00     0.118 C 
ATOM     22  C   UNL A   1      28.382  31.247  23.884  1.00  0.00     0.022 C 
ATOM     23  C   UNL A   1      27.622  29.003  23.061  1.00  0.00     0.022 C 
ATOM     24  C   UNL A   1      27.288  30.493  23.135  1.00  0.00     0.004 C 
ENDBRANCH  17  19
ENDBRANCH  12  13
ENDBRANCH   5   6
ENDBRANCH   3   5
ENDBRANCH   2   3
ENDBRANCH   1   2
BRANCH   1  25
ATOM     25  C   UNL A   1      37.062  20.376  25.031  1.00  0.00     0.275 C 
BRANCH  25  26
ATOM     26  O   UNL A   1      38.166  21.294  25.072  1.00  0.00    -0.458 OA
BRANCH  26  27
ATOM     27  C   UNL A   1      39.157  20.952  25.936  1.00  0.00     0.338 C 
ATOM     28  O   UNL A   1      39.650  19.853  26.068  1.00  0.00    -0.246 OA
BRANCH  27  29
ATOM     29  C   UNL A   1      39.695  22.183  26.566  1.00  0.00     0.060 A 
ATOM     30  C   UNL A   1      39.155  23.410  26.156  1.00  0.00     0.016 A 
ATOM     31  C   UNL A   1      40.690  22.143  27.547  1.00  0.00     0.016 A 
ATOM     32  C   UNL A   1      39.644  24.602  26.686  1.00  0.00     0.010 A 
ATOM     33  C   UNL A   1      41.183  23.337  28.075  1.00  0.00     0.010 A 
ATOM     34  C   UNL A   1      40.691  24.571  27.616  1.00  0.00    -0.014 A 
BRANCH  34  35
ATOM     35  C   UNL A   1      41.446  25.808  27.923  1.00  0.00     0.031 A 
ATOM     36  C   UNL A   1      40.722  26.901  28.659  1.00  0.00     0.074 A 
ATOM     37  C   UNL A   1      42.722  25.971  27.539  1.00  0.00     0.049 A 
ATOM     38  N   UNL A   1      41.108  28.116  28.942  1.00  0.00    -0.248 NA
ATOM     39  C   UNL A   1      39.363  26.574  29.118  1.00  0.00     0.031 C 
ATOM     40  C   UNL A   1      43.536  24.968  26.855  1.00  0.00     0.029 A 
ATOM     41  N   UNL A   1      43.551  27.060  27.652  1.00  0.00    -0.354 N 
ATOM     42  C   UNL A   1      40.036  28.705  29.603  1.00  0.00     0.074 A 
ATOM     43  C   UNL A   1      38.971  27.726  29.635  1.00  0.00     0.031 C 
ATOM     44  C   UNL A   1      44.740  25.500  26.583  1.00  0.00     0.029 A 
ATOM     45  C   UNL A   1      44.768  26.889  27.040  1.00  0.00     0.049 A 
ATOM     46  H   UNL A   1      43.296  27.883  28.128  1.00  0.00     0.167 HD
ATOM     47  C   UNL A   1      39.951  29.946  30.141  1.00  0.00     0.034 A 
ATOM     48  C   UNL A   1      45.771  27.768  26.840  1.00  0.00     0.034 A 
ATOM     49  C   UNL A   1      41.015  30.915  30.075  1.00  0.00     0.049 A 
ATOM     50  C   UNL A   1      45.632  29.175  27.370  1.00  0.00     0.074 A 
ATOM     51  C   UNL A   1      41.051  32.197  30.593  1.00  0.00     0.029 A 
ATOM     52  N   UNL A   1      42.231  30.712  29.433  1.00  0.00    -0.354 N 
ATOM     53  N   UNL A   1      44.622  29.724  28.006  1.00  0.00    -0.248 NA
ATOM     54  C   UNL A   1      46.770  30.080  27.161  1.00  0.00     0.031 C 
ATOM     55  C   UNL A   1      42.253  32.794  30.198  1.00  0.00     0.029 A 
ATOM     56  C   UNL A   1      43.008  31.857  29.508  1.00  0.00     0.049 A 
ATOM     57  H   UNL A   1      42.502  29.875  28.988  1.00  0.00     0.167 HD
ATOM     58  C   UNL A   1      45.017  31.026  28.304  1.00  0.00     0.074 A 
ATOM     59  C   UNL A   1      46.357  31.182  27.774  1.00  0.00     0.031 C 
ATOM     60  C   UNL A   1      44.341  31.999  28.968  1.00  0.00     0.034 A 
BRANCH  47  61
ATOM     61  C   UNL A   1      38.633  30.326  30.776  1.00  0.00     0.023 A 
ATOM     62  C   UNL A   1      37.607  30.945  30.038  1.00  0.00     0.031 A 
ATOM     63  C   UNL A   1      38.434  30.150  32.156  1.00  0.00     0.131 A 
ATOM     64  C   UNL A   1      36.482  31.457  30.700  1.00  0.00     0.055 A 
ATOM     65  C   UNL A   1      37.266  30.576  32.793  1.00  0.00     0.041 A 
ATOM     66  F   UNL A   1      39.387  29.590  32.919  1.00  0.00    -0.206 F 
ATOM     67  C   UNL A   1      36.292  31.255  32.069  1.00  0.00     0.022 A 
BRANCH  64  68
ATOM     68  S   UNL A   1      35.371  32.563  29.784  1.00  0.00     0.124 S 
ATOM     69  O   UNL A   1      35.048  31.751  28.612  1.00  0.00    -0.237 OA
ATOM     70  O   UNL A   1      34.287  32.778  30.732  1.00  0.00    -0.237 OA
ATOM     71  O   UNL A   1      36.204  33.732  29.508  1.00  0.00    -0.744 OA
ENDBRANCH  64  68
ENDBRANCH  47  61
BRANCH  48  72
ATOM     72  C   UNL A   1      46.975  27.358  26.061  1.00  0.00     0.023 A 
ATOM     73  C   UNL A   1      47.141  27.733  24.719  1.00  0.00     0.031 A 
ATOM     74  C   UNL A   1      47.973  26.564  26.655  1.00  0.00     0.131 A 
ATOM     75  C   UNL A   1      48.266  27.289  24.005  1.00  0.00     0.055 A 
ATOM     76  C   UNL A   1      49.112  26.162  25.954  1.00  0.00     0.041 A 
ATOM     77  F   UNL A   1      47.862  26.179  27.936  1.00  0.00    -0.206 F 
ATOM     78  C   UNL A   1      49.259  26.519  24.618  1.00  0.00     0.022 A 
BRANCH  75  79
ATOM     79  S   UNL A   1      48.394  27.690  22.241  1.00  0.00     0.124 S 
ATOM     80  O   UNL A   1      47.158  28.432  22.015  1.00  0.00    -0.237 OA
ATOM     81  O   UNL A   1      49.628  28.468  22.193  1.00  0.00    -0.237 OA
ATOM     82  O   UNL A   1      48.462  26.380  21.597  1.00  0.00    -0.744 OA
ENDBRANCH  75  79
ENDBRANCH  48  72
BRANCH  60  83
ATOM     83  C   UNL A   1      45.062  33.302  29.218  1.00  0.00     0.023 A 
ATOM     84  C   UNL A   1      44.999  34.377  28.317  1.00  0.00     0.031 A 
ATOM     85  C   UNL A   1      45.796  33.475  30.406  1.00  0.00     0.131 A 
ATOM     86  C   UNL A   1      45.687  35.568  28.603  1.00  0.00     0.055 A 
ATOM     87  C   UNL A   1      46.435  34.677  30.709  1.00  0.00     0.041 A 
ATOM     88  F   UNL A   1      45.889  32.479  31.302  1.00  0.00    -0.206 F 
ATOM     89  C   UNL A   1      46.389  35.731  29.801  1.00  0.00     0.022 A 
BRANCH  86  90
ATOM     90  S   UNL A   1      45.706  36.889  27.359  1.00  0.00     0.124 S 
ATOM     91  O   UNL A   1      46.263  36.205  26.197  1.00  0.00    -0.237 OA
ATOM     92  O   UNL A   1      44.297  37.256  27.269  1.00  0.00    -0.237 OA
ATOM     93  O   UNL A   1      46.572  37.907  27.952  1.00  0.00    -0.744 OA
ENDBRANCH  86  90
ENDBRANCH  60  83
ENDBRANCH  34  35
ENDBRANCH  27  29
ENDBRANCH  26  27
ENDBRANCH  25  26
ENDBRANCH   1  25
TORSDOF 17
ENDMDL
MODEL 3
REMARK VINA RESULT:     -11.8      1.555      2.029
REMARK SMILES O=C(C[NH+]1CCN(c2nccc(N3CCCCC3)n2)CC1)OCCOC(=O)c1ccc(-c2c3nc(c(-c4cc(S(=O)(=O)[O-])ccc4F)c4ccc([nH]4)c(-c4cc(S(=O)(=O)[O-])ccc4F)c4nc(c(-c5cc(S(=O)(=O)[O-])ccc5F)c5ccc2[nH]5)C=C4)C=C3)cc1
REMARK SMILES IDX 23 1 22 2 2 3 1 4 3 5 4 6 5 7 21 8 6 10 20 11 7 12 8 13 9 14
REMARK SMILES IDX 19 15 10 16 12 17 11 18 13 19 14 20 18 21 15 22 17 23 16 24
REMARK SMILES IDX 24 25 25 26 26 27 27 28 28 29 29 30 90 31 30 32 89 33 31 34
REMARK SMILES IDX 32 35 33 36 83 37 34 38 88 39 82 40 84 41 35 42 87 43 81 44
REMARK SMILES IDX 80 45 36 47 68 48 48 49 67 50 49 51 52 52 66 53 85 54 50 55
REMARK SMILES IDX 51 56 65 58 86 59 53 60 37 61 38 62 46 63 39 64 45 65 47 66
REMARK SMILES IDX 44 67 40 68 41 69 42 70 43 71 69 72 70 73 78 74 71 75 77 76
REMARK SMILES IDX 79 77 76 78 72 79 73 80 74 81 75 82 54 83 55 84 63 85 56 86
REMARK SMILES IDX 62 87 64 88 61 89 57 90 58 91 59 92 60 93
REMARK H PARENT 4 9 84 46 52 57
REMARK Flexibility Score: inf
ROOT
ATOM      1  C   UNL A   1      31.273  29.422  25.032  1.00  0.00     0.274 C 
ENDROOT
BRANCH   1   2
ATOM      2  O   UNL A   1      31.121  27.984  25.003  1.00  0.00    -0.458 OA
BRANCH   2   3
ATOM      3  C   UNL A   1      30.744  27.259  23.915  1.00  0.00     0.361 C 
ATOM      4  O   UNL A   1      29.796  27.641  23.231  1.00  0.00    -0.245 OA
BRANCH   3   5
ATOM      5  C   UNL A   1      31.489  25.957  23.623  1.00  0.00     0.386 C 
BRANCH   5   6
ATOM      6  N   UNL A   1      32.770  26.059  22.889  1.00  0.00    -0.323 N 
ATOM      7  C   UNL A   1      33.993  26.173  23.702  1.00  0.00     0.284 C 
ATOM      8  C   UNL A   1      32.934  24.910  21.964  1.00  0.00     0.284 C 
ATOM      9  H   UNL A   1      32.683  26.948  22.396  1.00  0.00     0.348 HD
ATOM     10  C   UNL A   1      34.373  24.922  24.511  1.00  0.00     0.181 C 
ATOM     11  C   UNL A   1      33.265  23.566  22.655  1.00  0.00     0.181 C 
ATOM     12  N   UNL A   1      34.265  23.725  23.700  1.00  0.00    -0.329 N 
BRANCH  12  13
ATOM     13  C   UNL A   1      34.846  22.581  24.173  1.00  0.00     0.227 A 
ATOM     14  N   UNL A   1      36.178  22.497  24.289  1.00  0.00    -0.221 NA
ATOM     15  N   UNL A   1      34.011  21.572  24.427  1.00  0.00    -0.196 NA
ATOM     16  C   UNL A   1      36.657  21.319  24.723  1.00  0.00     0.119 A 
ATOM     17  C   UNL A   1      34.514  20.391  24.797  1.00  0.00     0.134 A 
ATOM     18  C   UNL A   1      35.866  20.229  24.999  1.00  0.00     0.067 A 
BRANCH  17  19
ATOM     19  N   UNL A   1      33.650  19.305  24.871  1.00  0.00    -0.356 N 
ATOM     20  C   UNL A   1      34.288  17.985  24.932  1.00  0.00     0.118 C 
ATOM     21  C   UNL A   1      32.374  19.395  24.172  1.00  0.00     0.118 C 
ATOM     22  C   UNL A   1      34.400  17.352  23.547  1.00  0.00     0.022 C 
ATOM     23  C   UNL A   1      32.468  18.756  22.783  1.00  0.00     0.022 C 
ATOM     24  C   UNL A   1      33.042  17.341  22.853  1.00  0.00     0.004 C 
ENDBRANCH  17  19
ENDBRANCH  12  13
ENDBRANCH   5   6
ENDBRANCH   3   5
ENDBRANCH   2   3
ENDBRANCH   1   2
BRANCH   1  25
ATOM     25  C   UNL A   1      32.639  29.858  25.554  1.00  0.00     0.275 C 
BRANCH  25  26
ATOM     26  O   UNL A   1      32.538  30.247  26.933  1.00  0.00    -0.458 OA
BRANCH  26  27
ATOM     27  C   UNL A   1      33.140  31.426  27.237  1.00  0.00     0.338 C 
ATOM     28  O   UNL A   1      32.612  32.517  27.270  1.00  0.00    -0.246 OA
BRANCH  27  29
ATOM     29  C   UNL A   1      34.514  31.155  27.725  1.00  0.00     0.060 A 
ATOM     30  C   UNL A   1      34.883  29.816  27.913  1.00  0.00     0.016 A 
ATOM     31  C   UNL A   1      35.431  32.181  27.976  1.00  0.00     0.016 A 
ATOM     32  C   UNL A   1      36.149  29.500  28.403  1.00  0.00     0.010 A 
ATOM     33  C   UNL A   1      36.697  31.865  28.470  1.00  0.00     0.010 A 
ATOM     34  C   UNL A   1      37.045  30.527  28.725  1.00  0.00    -0.014 A 
BRANCH  34  35
ATOM     35  C   UNL A   1      38.237  30.238  29.556  1.00  0.00     0.031 A 
ATOM     36  C   UNL A   1      39.235  29.250  29.020  1.00  0.00     0.074 A 
ATOM     37  C   UNL A   1      38.416  30.808  30.758  1.00  0.00     0.049 A 
ATOM     38  N   UNL A   1      40.290  28.734  29.593  1.00  0.00    -0.248 NA
ATOM     39  C   UNL A   1      38.989  28.766  27.652  1.00  0.00     0.031 C 
ATOM     40  C   UNL A   1      37.536  31.806  31.362  1.00  0.00     0.029 A 
ATOM     41  N   UNL A   1      39.395  30.606  31.699  1.00  0.00    -0.354 N 
ATOM     42  C   UNL A   1      40.829  27.855  28.659  1.00  0.00     0.074 A 
ATOM     43  C   UNL A   1      39.956  27.877  27.505  1.00  0.00     0.031 C 
ATOM     44  C   UNL A   1      38.000  32.109  32.587  1.00  0.00     0.029 A 
ATOM     45  C   UNL A   1      39.186  31.300  32.866  1.00  0.00     0.049 A 
ATOM     46  H   UNL A   1      40.173  30.021  31.550  1.00  0.00     0.167 HD
ATOM     47  C   UNL A   1      41.953  27.104  28.754  1.00  0.00     0.034 A 
ATOM     48  C   UNL A   1      39.856  31.254  34.036  1.00  0.00     0.034 A 
ATOM     49  C   UNL A   1      42.795  27.078  29.923  1.00  0.00     0.049 A 
ATOM     50  C   UNL A   1      41.059  30.350  34.159  1.00  0.00     0.074 A 
ATOM     51  C   UNL A   1      43.963  26.368  30.132  1.00  0.00     0.029 A 
ATOM     52  N   UNL A   1      42.544  27.783  31.094  1.00  0.00    -0.354 N 
ATOM     53  N   UNL A   1      41.573  29.530  33.270  1.00  0.00    -0.248 NA
ATOM     54  C   UNL A   1      41.777  30.369  35.440  1.00  0.00     0.031 C 
ATOM     55  C   UNL A   1      44.375  26.583  31.451  1.00  0.00     0.029 A 
ATOM     56  C   UNL A   1      43.513  27.496  32.042  1.00  0.00     0.049 A 
ATOM     57  H   UNL A   1      41.786  28.398  31.232  1.00  0.00     0.167 HD
ATOM     58  C   UNL A   1      42.694  28.964  33.873  1.00  0.00     0.074 A 
ATOM     59  C   UNL A   1      42.779  29.532  35.203  1.00  0.00     0.031 C 
ATOM     60  C   UNL A   1      43.581  28.068  33.368  1.00  0.00     0.034 A 
BRANCH  47  61
ATOM     61  C   UNL A   1      42.276  26.207  27.581  1.00  0.00     0.023 A 
ATOM     62  C   UNL A   1      41.713  24.924  27.453  1.00  0.00     0.031 A 
ATOM     63  C   UNL A   1      43.228  26.604  26.625  1.00  0.00     0.131 A 
ATOM     64  C   UNL A   1      42.184  24.050  26.462  1.00  0.00     0.055 A 
ATOM     65  C   UNL A   1      43.620  25.763  25.583  1.00  0.00     0.041 A 
ATOM     66  F   UNL A   1      43.820  27.806  26.709  1.00  0.00    -0.206 F 
ATOM     67  C   UNL A   1      43.115  24.469  25.510  1.00  0.00     0.022 A 
BRANCH  64  68
ATOM     68  S   UNL A   1      41.710  22.300  26.560  1.00  0.00     0.124 S 
ATOM     69  O   UNL A   1      40.251  22.388  26.528  1.00  0.00    -0.237 OA
ATOM     70  O   UNL A   1      42.343  21.735  25.375  1.00  0.00    -0.237 OA
ATOM     71  O   UNL A   1      42.270  21.865  27.837  1.00  0.00    -0.744 OA
ENDBRANCH  64  68
ENDBRANCH  47  61
BRANCH  48  72
ATOM     72  C   UNL A   1      39.375  32.053  35.199  1.00  0.00     0.023 A 
ATOM     73  C   UNL A   1      38.675  31.455  36.258  1.00  0.00     0.031 A 
ATOM     74  C   UNL A   1      39.600  33.441  35.254  1.00  0.00     0.131 A 
ATOM     75  C   UNL A   1      38.198  32.248  37.315  1.00  0.00     0.055 A 
ATOM     76  C   UNL A   1      39.162  34.218  36.328  1.00  0.00     0.041 A 
ATOM     77  F   UNL A   1      40.264  34.061  34.266  1.00  0.00    -0.206 F 
ATOM     78  C   UNL A   1      38.450  33.622  37.364  1.00  0.00     0.022 A 
BRANCH  75  79
ATOM     79  S   UNL A   1      37.196  31.467  38.609  1.00  0.00     0.124 S 
ATOM     80  O   UNL A   1      38.058  31.608  39.777  1.00  0.00    -0.237 OA
ATOM     81  O   UNL A   1      35.990  32.287  38.598  1.00  0.00    -0.237 OA
ATOM     82  O   UNL A   1      37.020  30.099  38.125  1.00  0.00    -0.744 OA
ENDBRANCH  75  79
ENDBRANCH  48  72
BRANCH  60  83
ATOM     83  C   UNL A   1      44.760  27.691  34.232  1.00  0.00     0.023 A 
ATOM     84  C   UNL A   1      44.720  26.603  35.120  1.00  0.00     0.031 A 
ATOM     85  C   UNL A   1      45.958  28.421  34.132  1.00  0.00     0.131 A 
ATOM     86  C   UNL A   1      45.849  26.296  35.898  1.00  0.00     0.055 A 
ATOM     87  C   UNL A   1      47.093  28.080  34.869  1.00  0.00     0.041 A 
ATOM     88  F   UNL A   1      46.051  29.471  33.300  1.00  0.00    -0.206 F 
ATOM     89  C   UNL A   1      47.040  27.016  35.764  1.00  0.00     0.022 A 
BRANCH  86  90
ATOM     90  S   UNL A   1      45.727  24.976  37.137  1.00  0.00     0.124 S 
ATOM     91  O   UNL A   1      46.318  23.842  36.432  1.00  0.00    -0.237 OA
ATOM     92  O   UNL A   1      46.506  25.514  38.247  1.00  0.00    -0.237 OA
ATOM     93  O   UNL A   1      44.290  24.870  37.385  1.00  0.00    -0.744 OA
ENDBRANCH  86  90
ENDBRANCH  60  83
ENDBRANCH  34  35
ENDBRANCH  27  29
ENDBRANCH  26  27
ENDBRANCH  25  26
ENDBRANCH   1  25
TORSDOF 17
ENDMDL
