MODEL 1
REMARK VINA RESULT:     -12.0      0.000      0.000
REMARK SMILES CC[C@@]1(C(=O)OCCOC(=O)c2ccc(-c3c4nc(c(-c5cc(S(=O)(=O)[O-])ccc5F)c5ccc([nH]5)c(-c5cc(S(=O)(=O)[O-])ccc5F)c5nc(c(-c6cc(S(=O)(=O)[O-])ccc6F)c6ccc3[nH]6)C=C5)C=C4)cc2)CCC[N@@H+](Cc2ccc(C3CC3)cc2)C1
REMARK SMILES IDX 7 1 6 2 4 3 5 4 3 5 75 6 89 7 76 8 78 9 77 10 2 12 1 13
REMARK SMILES IDX 79 14 80 15 81 16 88 17 82 18 87 19 83 20 84 21 85 22 86 23
REMARK SMILES IDX 8 24 9 25 10 26 11 27 12 28 13 29 74 30 14 31 73 32 15 33
REMARK SMILES IDX 16 34 17 35 67 36 18 37 72 38 66 39 68 40 19 41 71 42 65 43
REMARK SMILES IDX 64 44 20 46 52 47 32 48 51 49 33 50 36 51 50 52 69 53 34 54
REMARK SMILES IDX 35 55 49 57 70 58 37 59 21 60 22 61 30 62 23 63 29 64 31 65
REMARK SMILES IDX 28 66 24 67 25 68 26 69 27 70 53 71 54 72 62 73 55 74 61 75
REMARK SMILES IDX 63 76 60 77 56 78 57 79 58 80 59 81 38 82 39 83 47 84 40 85
REMARK SMILES IDX 46 86 48 87 45 88 41 89 42 90 43 91 44 92
REMARK H PARENT 78 11 68 45 36 56
REMARK Flexibility Score: inf
ROOT
ATOM      1  C   UNL A   1      31.379  29.796  25.329  1.00  0.00     0.274 C 
ENDROOT
BRANCH   1   2
ATOM      2  O   UNL A   1      31.268  28.416  25.724  1.00  0.00    -0.461 OA
BRANCH   2   3
ATOM      3  C   UNL A   1      31.744  27.469  24.874  1.00  0.00     0.317 C 
ATOM      4  O   UNL A   1      32.917  27.416  24.524  1.00  0.00    -0.251 OA
BRANCH   3   5
ATOM      5  C   UNL A   1      30.636  26.551  24.314  1.00  0.00     0.117 C 
ATOM      6  C   UNL A   1      29.933  25.853  25.501  1.00  0.00     0.030 C 
ATOM      7  C   UNL A   1      31.208  25.500  23.323  1.00  0.00     0.281 C 
ATOM      8  C   UNL A   1      30.721  24.661  26.045  1.00  0.00     0.063 C 
ATOM      9  N   UNL A   1      31.936  24.387  23.946  1.00  0.00    -0.330 N 
ATOM     10  C   UNL A   1      31.121  23.691  24.934  1.00  0.00     0.262 C 
ATOM     11  H   UNL A   1      32.714  24.788  24.471  1.00  0.00     0.348 HD
BRANCH   5  12
ATOM     12  C   UNL A   1      29.569  27.358  23.497  1.00  0.00     0.021 C 
ATOM     13  C   UNL A   1      30.058  28.266  22.376  1.00  0.00     0.005 C 
ENDBRANCH   5  12
BRANCH   9  14
ATOM     14  C   UNL A   1      32.582  23.502  22.959  1.00  0.00     0.299 C 
BRANCH  14  15
ATOM     15  C   UNL A   1      32.703  22.045  23.351  1.00  0.00     0.006 A 
ATOM     16  C   UNL A   1      31.955  21.061  22.700  1.00  0.00     0.010 A 
ATOM     17  C   UNL A   1      33.604  21.647  24.344  1.00  0.00     0.010 A 
ATOM     18  C   UNL A   1      32.153  19.707  22.996  1.00  0.00     0.004 A 
ATOM     19  C   UNL A   1      33.803  20.291  24.626  1.00  0.00     0.004 A 
ATOM     20  C   UNL A   1      33.102  19.283  23.944  1.00  0.00    -0.045 A 
BRANCH  20  21
ATOM     21  C   UNL A   1      33.338  17.801  24.168  1.00  0.00     0.019 C 
ATOM     22  C   UNL A   1      34.029  16.953  23.126  1.00  0.00     0.009 C 
ATOM     23  C   UNL A   1      34.721  17.258  24.424  1.00  0.00     0.009 C 
ENDBRANCH  20  21
ENDBRANCH  14  15
ENDBRANCH   9  14
ENDBRANCH   3   5
ENDBRANCH   2   3
ENDBRANCH   1   2
BRANCH   1  24
ATOM     24  C   UNL A   1      31.778  30.659  26.522  1.00  0.00     0.275 C 
BRANCH  24  25
ATOM     25  O   UNL A   1      33.186  30.946  26.471  1.00  0.00    -0.458 OA
BRANCH  25  26
ATOM     26  C   UNL A   1      33.606  31.918  27.314  1.00  0.00     0.338 C 
ATOM     27  O   UNL A   1      32.993  32.899  27.691  1.00  0.00    -0.246 OA
BRANCH  26  28
ATOM     28  C   UNL A   1      34.933  31.554  27.827  1.00  0.00     0.060 A 
ATOM     29  C   UNL A   1      35.144  30.228  28.200  1.00  0.00     0.016 A 
ATOM     30  C   UNL A   1      35.916  32.516  28.039  1.00  0.00     0.016 A 
ATOM     31  C   UNL A   1      36.322  29.856  28.842  1.00  0.00     0.010 A 
ATOM     32  C   UNL A   1      37.118  32.133  28.644  1.00  0.00     0.010 A 
ATOM     33  C   UNL A   1      37.322  30.808  29.076  1.00  0.00    -0.014 A 
BRANCH  33  34
ATOM     34  C   UNL A   1      38.547  30.455  29.844  1.00  0.00     0.031 A 
ATOM     35  C   UNL A   1      39.536  29.491  29.244  1.00  0.00     0.074 A 
ATOM     36  C   UNL A   1      38.779  30.978  31.063  1.00  0.00     0.049 A 
ATOM     37  N   UNL A   1      40.528  28.856  29.811  1.00  0.00    -0.248 NA
ATOM     38  C   UNL A   1      39.371  29.200  27.812  1.00  0.00     0.031 C 
ATOM     39  C   UNL A   1      37.950  31.986  31.724  1.00  0.00     0.029 A 
ATOM     40  N   UNL A   1      39.779  30.721  31.969  1.00  0.00    -0.354 N 
ATOM     41  C   UNL A   1      41.077  28.050  28.819  1.00  0.00     0.074 A 
ATOM     42  C   UNL A   1      40.299  28.276  27.617  1.00  0.00     0.031 C 
ATOM     43  C   UNL A   1      38.475  32.262  32.930  1.00  0.00     0.029 A 
ATOM     44  C   UNL A   1      39.627  31.394  33.160  1.00  0.00     0.049 A 
ATOM     45  H   UNL A   1      40.532  30.115  31.784  1.00  0.00     0.167 HD
ATOM     46  C   UNL A   1      42.127  27.196  28.908  1.00  0.00     0.034 A 
ATOM     47  C   UNL A   1      40.301  31.282  34.322  1.00  0.00     0.034 A 
ATOM     48  C   UNL A   1      42.905  27.003  30.109  1.00  0.00     0.049 A 
ATOM     49  C   UNL A   1      41.420  30.276  34.424  1.00  0.00     0.074 A 
ATOM     50  C   UNL A   1      43.973  26.148  30.321  1.00  0.00     0.029 A 
ATOM     51  N   UNL A   1      42.702  27.686  31.302  1.00  0.00    -0.354 N 
ATOM     52  N   UNL A   1      41.874  29.450  33.511  1.00  0.00    -0.248 NA
ATOM     53  C   UNL A   1      42.111  30.180  35.717  1.00  0.00     0.031 C 
ATOM     54  C   UNL A   1      44.384  26.279  31.653  1.00  0.00     0.029 A 
ATOM     55  C   UNL A   1      43.615  27.262  32.255  1.00  0.00     0.049 A 
ATOM     56  H   UNL A   1      42.011  28.371  31.448  1.00  0.00     0.167 HD
ATOM     57  C   UNL A   1      42.918  28.754  34.113  1.00  0.00     0.074 A 
ATOM     58  C   UNL A   1      43.033  29.263  35.464  1.00  0.00     0.031 C 
ATOM     59  C   UNL A   1      43.715  27.784  33.597  1.00  0.00     0.034 A 
BRANCH  46  60
ATOM     60  C   UNL A   1      42.441  26.360  27.691  1.00  0.00     0.023 A 
ATOM     61  C   UNL A   1      41.966  25.045  27.547  1.00  0.00     0.031 A 
ATOM     62  C   UNL A   1      43.270  26.875  26.677  1.00  0.00     0.131 A 
ATOM     63  C   UNL A   1      42.383  24.267  26.456  1.00  0.00     0.055 A 
ATOM     64  C   UNL A   1      43.618  26.122  25.556  1.00  0.00     0.041 A 
ATOM     65  F   UNL A   1      43.771  28.117  26.772  1.00  0.00    -0.206 F 
ATOM     66  C   UNL A   1      43.187  24.804  25.448  1.00  0.00     0.022 A 
BRANCH  63  67
ATOM     67  S   UNL A   1      41.979  22.499  26.446  1.00  0.00     0.124 S 
ATOM     68  O   UNL A   1      42.654  22.035  27.656  1.00  0.00    -0.237 OA
ATOM     69  O   UNL A   1      40.522  22.508  26.491  1.00  0.00    -0.237 OA
ATOM     70  O   UNL A   1      42.562  22.019  25.195  1.00  0.00    -0.744 OA
ENDBRANCH  63  67
ENDBRANCH  46  60
BRANCH  47  71
ATOM     71  C   UNL A   1      39.894  32.085  35.511  1.00  0.00     0.023 A 
ATOM     72  C   UNL A   1      38.997  31.571  36.460  1.00  0.00     0.031 A 
ATOM     73  C   UNL A   1      40.362  33.399  35.689  1.00  0.00     0.131 A 
ATOM     74  C   UNL A   1      38.567  32.380  37.524  1.00  0.00     0.055 A 
ATOM     75  C   UNL A   1      39.972  34.181  36.776  1.00  0.00     0.041 A 
ATOM     76  F   UNL A   1      41.219  33.940  34.807  1.00  0.00    -0.206 F 
ATOM     77  C   UNL A   1      39.059  33.677  37.695  1.00  0.00     0.022 A 
BRANCH  74  78
ATOM     78  S   UNL A   1      37.286  31.742  38.639  1.00  0.00     0.124 S 
ATOM     79  O   UNL A   1      37.963  31.796  39.930  1.00  0.00    -0.237 OA
ATOM     80  O   UNL A   1      36.205  32.700  38.439  1.00  0.00    -0.237 OA
ATOM     81  O   UNL A   1      37.028  30.398  38.126  1.00  0.00    -0.744 OA
ENDBRANCH  74  78
ENDBRANCH  47  71
BRANCH  59  82
ATOM     82  C   UNL A   1      44.818  27.263  34.481  1.00  0.00     0.023 A 
ATOM     83  C   UNL A   1      44.646  26.131  35.295  1.00  0.00     0.031 A 
ATOM     84  C   UNL A   1      46.061  27.920  34.507  1.00  0.00     0.131 A 
ATOM     85  C   UNL A   1      45.690  25.714  36.137  1.00  0.00     0.055 A 
ATOM     86  C   UNL A   1      47.109  27.474  35.311  1.00  0.00     0.041 A 
ATOM     87  F   UNL A   1      46.275  29.006  33.747  1.00  0.00    -0.206 F 
ATOM     88  C   UNL A   1      46.924  26.371  36.140  1.00  0.00     0.022 A 
BRANCH  85  89
ATOM     89  S   UNL A   1      45.393  24.337  37.280  1.00  0.00     0.124 S 
ATOM     90  O   UNL A   1      44.333  24.870  38.130  1.00  0.00    -0.237 OA
ATOM     91  O   UNL A   1      45.004  23.258  36.377  1.00  0.00    -0.237 OA
ATOM     92  O   UNL A   1      46.685  24.155  37.940  1.00  0.00    -0.744 OA
ENDBRANCH  85  89
ENDBRANCH  59  82
ENDBRANCH  33  34
ENDBRANCH  26  28
ENDBRANCH  25  26
ENDBRANCH  24  25
ENDBRANCH   1  24
TORSDOF 18
ENDMDL
MODEL 2
REMARK VINA RESULT:     -11.8      4.963     10.326
REMARK SMILES CC[C@@]1(C(=O)OCCOC(=O)c2ccc(-c3c4nc(c(-c5cc(S(=O)(=O)[O-])ccc5F)c5ccc([nH]5)c(-c5cc(S(=O)(=O)[O-])ccc5F)c5nc(c(-c6cc(S(=O)(=O)[O-])ccc6F)c6ccc3[nH]6)C=C5)C=C4)cc2)CCC[N@@H+](Cc2ccc(C3CC3)cc2)C1
REMARK SMILES IDX 7 1 6 2 4 3 5 4 3 5 75 6 89 7 76 8 78 9 77 10 2 12 1 13
REMARK SMILES IDX 79 14 80 15 81 16 88 17 82 18 87 19 83 20 84 21 85 22 86 23
REMARK SMILES IDX 8 24 9 25 10 26 11 27 12 28 13 29 74 30 14 31 73 32 15 33
REMARK SMILES IDX 16 34 17 35 67 36 18 37 72 38 66 39 68 40 19 41 71 42 65 43
REMARK SMILES IDX 64 44 20 46 52 47 32 48 51 49 33 50 36 51 50 52 69 53 34 54
REMARK SMILES IDX 35 55 49 57 70 58 37 59 21 60 22 61 30 62 23 63 29 64 31 65
REMARK SMILES IDX 28 66 24 67 25 68 26 69 27 70 53 71 54 72 62 73 55 74 61 75
REMARK SMILES IDX 63 76 60 77 56 78 57 79 58 80 59 81 38 82 39 83 47 84 40 85
REMARK SMILES IDX 46 86 48 87 45 88 41 89 42 90 43 91 44 92
REMARK H PARENT 78 11 68 45 36 56
REMARK Flexibility Score: inf
ROOT
ATOM      1  C   UNL A   1      35.036  21.006  25.860  1.00  0.00     0.274 C 
ENDROOT
BRANCH   1   2
ATOM      2  O   UNL A   1      34.021  21.660  25.076  1.00  0.00    -0.461 OA
BRANCH   2   3
ATOM      3  C   UNL A   1      33.726  22.954  25.367  1.00  0.00     0.317 C 
ATOM      4  O   UNL A   1      34.359  23.617  26.179  1.00  0.00    -0.251 OA
BRANCH   3   5
ATOM      5  C   UNL A   1      32.448  23.454  24.657  1.00  0.00     0.117 C 
ATOM      6  C   UNL A   1      32.473  22.953  23.195  1.00  0.00     0.030 C 
ATOM      7  C   UNL A   1      32.335  25.004  24.702  1.00  0.00     0.281 C 
ATOM      8  C   UNL A   1      33.371  23.796  22.290  1.00  0.00     0.063 C 
ATOM      9  N   UNL A   1      33.231  25.720  23.784  1.00  0.00    -0.330 N 
ATOM     10  C   UNL A   1      33.054  25.287  22.404  1.00  0.00     0.262 C 
ATOM     11  H   UNL A   1      34.187  25.462  24.029  1.00  0.00     0.348 HD
BRANCH   5  12
ATOM     12  C   UNL A   1      31.149  22.922  25.354  1.00  0.00     0.021 C 
ATOM     13  C   UNL A   1      30.546  23.750  26.481  1.00  0.00     0.005 C 
ENDBRANCH   5  12
BRANCH   9  14
ATOM     14  C   UNL A   1      33.191  27.182  23.972  1.00  0.00     0.299 C 
BRANCH  14  15
ATOM     15  C   UNL A   1      31.888  27.863  23.613  1.00  0.00     0.006 A 
ATOM     16  C   UNL A   1      31.853  28.900  22.677  1.00  0.00     0.010 A 
ATOM     17  C   UNL A   1      30.682  27.436  24.178  1.00  0.00     0.010 A 
ATOM     18  C   UNL A   1      30.629  29.449  22.273  1.00  0.00     0.004 A 
ATOM     19  C   UNL A   1      29.464  27.983  23.761  1.00  0.00     0.004 A 
ATOM     20  C   UNL A   1      29.402  28.987  22.780  1.00  0.00    -0.045 A 
BRANCH  20  21
ATOM     21  C   UNL A   1      28.100  29.558  22.248  1.00  0.00     0.019 C 
ATOM     22  C   UNL A   1      27.610  30.921  22.679  1.00  0.00     0.009 C 
ATOM     23  C   UNL A   1      28.091  30.707  21.272  1.00  0.00     0.009 C 
ENDBRANCH  20  21
ENDBRANCH  14  15
ENDBRANCH   9  14
ENDBRANCH   3   5
ENDBRANCH   2   3
ENDBRANCH   1   2
BRANCH   1  24
ATOM     24  C   UNL A   1      36.230  20.642  24.983  1.00  0.00     0.275 C 
BRANCH  24  25
ATOM     25  O   UNL A   1      37.259  21.638  25.115  1.00  0.00    -0.458 OA
BRANCH  25  26
ATOM     26  C   UNL A   1      38.419  21.198  25.653  1.00  0.00     0.338 C 
ATOM     27  O   UNL A   1      38.923  20.096  25.548  1.00  0.00    -0.246 OA
BRANCH  26  28
ATOM     28  C   UNL A   1      39.081  22.323  26.326  1.00  0.00     0.060 A 
ATOM     29  C   UNL A   1      38.620  23.608  26.051  1.00  0.00     0.016 A 
ATOM     30  C   UNL A   1      40.202  22.128  27.129  1.00  0.00     0.016 A 
ATOM     31  C   UNL A   1      39.306  24.721  26.529  1.00  0.00     0.010 A 
ATOM     32  C   UNL A   1      40.866  23.245  27.646  1.00  0.00     0.010 A 
ATOM     33  C   UNL A   1      40.442  24.551  27.330  1.00  0.00    -0.014 A 
BRANCH  33  34
ATOM     34  C   UNL A   1      41.246  25.722  27.772  1.00  0.00     0.031 A 
ATOM     35  C   UNL A   1      40.584  26.800  28.589  1.00  0.00     0.074 A 
ATOM     36  C   UNL A   1      42.548  25.835  27.449  1.00  0.00     0.049 A 
ATOM     37  N   UNL A   1      41.002  28.005  28.874  1.00  0.00    -0.248 NA
ATOM     38  C   UNL A   1      39.264  26.469  29.149  1.00  0.00     0.031 C 
ATOM     39  C   UNL A   1      43.336  24.828  26.738  1.00  0.00     0.029 A 
ATOM     40  N   UNL A   1      43.438  26.859  27.669  1.00  0.00    -0.354 N 
ATOM     41  C   UNL A   1      39.977  28.598  29.604  1.00  0.00     0.074 A 
ATOM     42  C   UNL A   1      38.916  27.617  29.710  1.00  0.00     0.031 C 
ATOM     43  C   UNL A   1      44.590  25.284  26.579  1.00  0.00     0.029 A 
ATOM     44  C   UNL A   1      44.674  26.644  27.103  1.00  0.00     0.049 A 
ATOM     45  H   UNL A   1      43.212  27.669  28.181  1.00  0.00     0.167 HD
ATOM     46  C   UNL A   1      39.926  29.848  30.129  1.00  0.00     0.034 A 
ATOM     47  C   UNL A   1      45.733  27.468  26.971  1.00  0.00     0.034 A 
ATOM     48  C   UNL A   1      41.005  30.803  30.032  1.00  0.00     0.049 A 
ATOM     49  C   UNL A   1      45.632  28.878  27.498  1.00  0.00     0.074 A 
ATOM     50  C   UNL A   1      41.055  32.103  30.504  1.00  0.00     0.029 A 
ATOM     51  N   UNL A   1      42.231  30.554  29.429  1.00  0.00    -0.354 N 
ATOM     52  N   UNL A   1      44.626  29.463  28.104  1.00  0.00    -0.248 NA
ATOM     53  C   UNL A   1      46.806  29.741  27.312  1.00  0.00     0.031 C 
ATOM     54  C   UNL A   1      42.290  32.655  30.144  1.00  0.00     0.029 A 
ATOM     55  C   UNL A   1      43.037  31.679  29.506  1.00  0.00     0.049 A 
ATOM     56  H   UNL A   1      42.490  29.702  29.009  1.00  0.00     0.167 HD
ATOM     57  C   UNL A   1      45.056  30.756  28.393  1.00  0.00     0.074 A 
ATOM     58  C   UNL A   1      46.414  30.861  27.903  1.00  0.00     0.031 C 
ATOM     59  C   UNL A   1      44.391  31.764  29.011  1.00  0.00     0.034 A 
BRANCH  46  60
ATOM     60  C   UNL A   1      38.635  30.268  30.787  1.00  0.00     0.023 A 
ATOM     61  C   UNL A   1      37.605  30.904  30.072  1.00  0.00     0.031 A 
ATOM     62  C   UNL A   1      38.450  30.068  32.168  1.00  0.00     0.131 A 
ATOM     63  C   UNL A   1      36.475  31.383  30.751  1.00  0.00     0.055 A 
ATOM     64  C   UNL A   1      37.289  30.477  32.824  1.00  0.00     0.041 A 
ATOM     65  F   UNL A   1      39.408  29.486  32.906  1.00  0.00    -0.206 F 
ATOM     66  C   UNL A   1      36.299  31.153  32.118  1.00  0.00     0.022 A 
BRANCH  63  67
ATOM     67  S   UNL A   1      35.304  32.437  29.852  1.00  0.00     0.124 S 
ATOM     68  O   UNL A   1      36.155  33.559  29.464  1.00  0.00    -0.237 OA
ATOM     69  O   UNL A   1      34.861  31.566  28.770  1.00  0.00    -0.237 OA
ATOM     70  O   UNL A   1      34.288  32.754  30.853  1.00  0.00    -0.744 OA
ENDBRANCH  63  67
ENDBRANCH  46  60
BRANCH  47  71
ATOM     71  C   UNL A   1      46.954  27.017  26.245  1.00  0.00     0.023 A 
ATOM     72  C   UNL A   1      47.999  26.367  26.917  1.00  0.00     0.031 A 
ATOM     73  C   UNL A   1      47.112  27.274  24.871  1.00  0.00     0.131 A 
ATOM     74  C   UNL A   1      49.173  26.028  26.224  1.00  0.00     0.055 A 
ATOM     75  C   UNL A   1      48.258  26.889  24.174  1.00  0.00     0.041 A 
ATOM     76  F   UNL A   1      46.143  27.898  24.181  1.00  0.00    -0.206 F 
ATOM     77  C   UNL A   1      49.303  26.274  24.855  1.00  0.00     0.022 A 
BRANCH  74  78
ATOM     78  S   UNL A   1      50.565  25.335  27.157  1.00  0.00     0.124 S 
ATOM     79  O   UNL A   1      50.994  26.484  27.948  1.00  0.00    -0.237 OA
ATOM     80  O   UNL A   1      49.926  24.251  27.894  1.00  0.00    -0.237 OA
ATOM     81  O   UNL A   1      51.497  24.913  26.114  1.00  0.00    -0.744 OA
ENDBRANCH  74  78
ENDBRANCH  47  71
BRANCH  59  82
ATOM     82  C   UNL A   1      45.153  33.042  29.246  1.00  0.00     0.023 A 
ATOM     83  C   UNL A   1      45.124  34.104  28.326  1.00  0.00     0.031 A 
ATOM     84  C   UNL A   1      45.925  33.192  30.412  1.00  0.00     0.131 A 
ATOM     85  C   UNL A   1      45.890  35.256  28.568  1.00  0.00     0.055 A 
ATOM     86  C   UNL A   1      46.647  34.357  30.669  1.00  0.00     0.041 A 
ATOM     87  F   UNL A   1      45.984  32.206  31.322  1.00  0.00    -0.206 F 
ATOM     88  C   UNL A   1      46.641  35.393  29.739  1.00  0.00     0.022 A 
BRANCH  85  89
ATOM     89  S   UNL A   1      45.947  36.550  27.298  1.00  0.00     0.124 S 
ATOM     90  O   UNL A   1      46.672  35.887  26.219  1.00  0.00    -0.237 OA
ATOM     91  O   UNL A   1      44.532  36.809  27.051  1.00  0.00    -0.237 OA
ATOM     92  O   UNL A   1      46.670  37.641  27.952  1.00  0.00    -0.744 OA
ENDBRANCH  85  89
ENDBRANCH  59  82
ENDBRANCH  33  34
ENDBRANCH  26  28
ENDBRANCH  25  26
ENDBRANCH  24  25
ENDBRANCH   1  24
TORSDOF 18
ENDMDL
MODEL 3
REMARK VINA RESULT:     -11.8      4.976      8.249
REMARK SMILES CC[C@@]1(C(=O)OCCOC(=O)c2ccc(-c3c4nc(c(-c5cc(S(=O)(=O)[O-])ccc5F)c5ccc([nH]5)c(-c5cc(S(=O)(=O)[O-])ccc5F)c5nc(c(-c6cc(S(=O)(=O)[O-])ccc6F)c6ccc3[nH]6)C=C5)C=C4)cc2)CCC[N@@H+](Cc2ccc(C3CC3)cc2)C1
REMARK SMILES IDX 7 1 6 2 4 3 5 4 3 5 75 6 89 7 76 8 78 9 77 10 2 12 1 13
REMARK SMILES IDX 79 14 80 15 81 16 88 17 82 18 87 19 83 20 84 21 85 22 86 23
REMARK SMILES IDX 8 24 9 25 10 26 11 27 12 28 13 29 74 30 14 31 73 32 15 33
REMARK SMILES IDX 16 34 17 35 67 36 18 37 72 38 66 39 68 40 19 41 71 42 65 43
REMARK SMILES IDX 64 44 20 46 52 47 32 48 51 49 33 50 36 51 50 52 69 53 34 54
REMARK SMILES IDX 35 55 49 57 70 58 37 59 21 60 22 61 30 62 23 63 29 64 31 65
REMARK SMILES IDX 28 66 24 67 25 68 26 69 27 70 53 71 54 72 62 73 55 74 61 75
REMARK SMILES IDX 63 76 60 77 56 78 57 79 58 80 59 81 38 82 39 83 47 84 40 85
REMARK SMILES IDX 46 86 48 87 45 88 41 89 42 90 43 91 44 92
REMARK H PARENT 78 11 68 45 36 56
REMARK Flexibility Score: inf
ROOT
ATOM      1  C   UNL A   1      37.321  19.587  24.847  1.00  0.00     0.274 C 
ENDROOT
BRANCH   1   2
ATOM      2  O   UNL A   1      36.749  20.788  25.398  1.00  0.00    -0.461 OA
BRANCH   2   3
ATOM      3  C   UNL A   1      35.450  21.064  25.114  1.00  0.00     0.317 C 
ATOM      4  O   UNL A   1      34.685  20.243  24.622  1.00  0.00    -0.251 OA
BRANCH   3   5
ATOM      5  C   UNL A   1      35.079  22.542  25.368  1.00  0.00     0.117 C 
ATOM      6  C   UNL A   1      35.271  22.843  26.872  1.00  0.00     0.030 C 
ATOM      7  C   UNL A   1      33.621  22.852  24.930  1.00  0.00     0.281 C 
ATOM      8  C   UNL A   1      34.110  22.348  27.733  1.00  0.00     0.063 C 
ATOM      9  N   UNL A   1      32.578  22.345  25.833  1.00  0.00    -0.330 N 
ATOM     10  C   UNL A   1      32.761  22.825  27.196  1.00  0.00     0.262 C 
ATOM     11  H   UNL A   1      32.688  21.332  25.885  1.00  0.00     0.348 HD
BRANCH   5  12
ATOM     12  C   UNL A   1      35.980  23.519  24.536  1.00  0.00     0.021 C 
ATOM     13  C   UNL A   1      36.501  23.044  23.186  1.00  0.00     0.005 C 
ENDBRANCH   5  12
BRANCH   9  14
ATOM     14  C   UNL A   1      31.217  22.534  25.298  1.00  0.00     0.299 C 
BRANCH  14  15
ATOM     15  C   UNL A   1      30.844  23.951  24.917  1.00  0.00     0.006 A 
ATOM     16  C   UNL A   1      30.627  24.925  25.894  1.00  0.00     0.010 A 
ATOM     17  C   UNL A   1      30.755  24.326  23.572  1.00  0.00     0.010 A 
ATOM     18  C   UNL A   1      30.388  26.255  25.529  1.00  0.00     0.004 A 
ATOM     19  C   UNL A   1      30.527  25.660  23.217  1.00  0.00     0.004 A 
ATOM     20  C   UNL A   1      30.362  26.665  24.184  1.00  0.00    -0.045 A 
BRANCH  20  21
ATOM     21  C   UNL A   1      30.183  28.133  23.843  1.00  0.00     0.019 C 
ATOM     22  C   UNL A   1      31.367  29.007  23.500  1.00  0.00     0.009 C 
ATOM     23  C   UNL A   1      30.373  28.639  22.436  1.00  0.00     0.009 C 
ENDBRANCH  20  21
ENDBRANCH  14  15
ENDBRANCH   9  14
ENDBRANCH   3   5
ENDBRANCH   2   3
ENDBRANCH   1   2
BRANCH   1  24
ATOM     24  C   UNL A   1      38.682  19.310  25.478  1.00  0.00     0.275 C 
BRANCH  24  25
ATOM     25  O   UNL A   1      39.374  20.548  25.717  1.00  0.00    -0.458 OA
BRANCH  25  26
ATOM     26  C   UNL A   1      40.172  20.559  26.810  1.00  0.00     0.338 C 
ATOM     27  O   UNL A   1      40.683  19.609  27.374  1.00  0.00    -0.246 OA
BRANCH  26  28
ATOM     28  C   UNL A   1      40.444  21.953  27.179  1.00  0.00     0.060 A 
ATOM     29  C   UNL A   1      39.736  22.952  26.514  1.00  0.00     0.016 A 
ATOM     30  C   UNL A   1      41.452  22.280  28.083  1.00  0.00     0.016 A 
ATOM     31  C   UNL A   1      40.062  24.292  26.703  1.00  0.00     0.010 A 
ATOM     32  C   UNL A   1      41.750  23.628  28.307  1.00  0.00     0.010 A 
ATOM     33  C   UNL A   1      41.079  24.645  27.599  1.00  0.00    -0.014 A 
BRANCH  33  34
ATOM     34  C   UNL A   1      41.509  26.062  27.745  1.00  0.00     0.031 A 
ATOM     35  C   UNL A   1      42.841  26.484  27.184  1.00  0.00     0.074 A 
ATOM     36  C   UNL A   1      40.733  26.965  28.373  1.00  0.00     0.049 A 
ATOM     37  N   UNL A   1      43.527  27.577  27.399  1.00  0.00    -0.248 NA
ATOM     38  C   UNL A   1      43.488  25.535  26.266  1.00  0.00     0.031 C 
ATOM     39  C   UNL A   1      39.385  26.714  28.886  1.00  0.00     0.029 A 
ATOM     40  N   UNL A   1      40.973  28.278  28.696  1.00  0.00    -0.354 N 
ATOM     41  C   UNL A   1      44.710  27.427  26.683  1.00  0.00     0.074 A 
ATOM     42  C   UNL A   1      44.647  26.133  26.034  1.00  0.00     0.031 C 
ATOM     43  C   UNL A   1      38.919  27.835  29.460  1.00  0.00     0.029 A 
ATOM     44  C   UNL A   1      39.961  28.858  29.428  1.00  0.00     0.049 A 
ATOM     45  H   UNL A   1      41.789  28.759  28.429  1.00  0.00     0.167 HD
ATOM     46  C   UNL A   1      45.753  28.288  26.584  1.00  0.00     0.034 A 
ATOM     47  C   UNL A   1      39.903  30.053  30.049  1.00  0.00     0.034 A 
ATOM     48  C   UNL A   1      45.787  29.584  27.220  1.00  0.00     0.049 A 
ATOM     49  C   UNL A   1      41.101  30.968  29.988  1.00  0.00     0.074 A 
ATOM     50  C   UNL A   1      46.799  30.529  27.209  1.00  0.00     0.029 A 
ATOM     51  N   UNL A   1      44.751  30.124  27.973  1.00  0.00    -0.354 N 
ATOM     52  N   UNL A   1      42.253  30.781  29.389  1.00  0.00    -0.248 NA
ATOM     53  C   UNL A   1      40.993  32.249  30.699  1.00  0.00     0.031 C 
ATOM     54  C   UNL A   1      46.396  31.615  27.994  1.00  0.00     0.029 A 
ATOM     55  C   UNL A   1      45.107  31.379  28.442  1.00  0.00     0.049 A 
ATOM     56  H   UNL A   1      43.891  29.679  28.149  1.00  0.00     0.167 HD
ATOM     57  C   UNL A   1      42.998  31.933  29.630  1.00  0.00     0.074 A 
ATOM     58  C   UNL A   1      42.162  32.811  30.421  1.00  0.00     0.031 C 
ATOM     59  C   UNL A   1      44.257  32.240  29.229  1.00  0.00     0.034 A 
BRANCH  46  60
ATOM     60  C   UNL A   1      46.967  27.818  25.820  1.00  0.00     0.023 A 
ATOM     61  C   UNL A   1      47.152  28.114  24.458  1.00  0.00     0.031 A 
ATOM     62  C   UNL A   1      47.934  27.018  26.457  1.00  0.00     0.131 A 
ATOM     63  C   UNL A   1      48.234  27.554  23.762  1.00  0.00     0.055 A 
ATOM     64  C   UNL A   1      49.050  26.528  25.778  1.00  0.00     0.041 A 
ATOM     65  F   UNL A   1      47.798  26.684  27.750  1.00  0.00    -0.206 F 
ATOM     66  C   UNL A   1      49.197  26.783  24.418  1.00  0.00     0.022 A 
BRANCH  63  67
ATOM     67  S   UNL A   1      48.289  27.728  21.958  1.00  0.00     0.124 S 
ATOM     68  O   UNL A   1      49.446  28.603  21.781  1.00  0.00    -0.237 OA
ATOM     69  O   UNL A   1      48.456  26.350  21.513  1.00  0.00    -0.237 OA
ATOM     70  O   UNL A   1      47.002  28.338  21.631  1.00  0.00    -0.744 OA
ENDBRANCH  63  67
ENDBRANCH  46  60
BRANCH  47  71
ATOM     71  C   UNL A   1      38.704  30.428  30.851  1.00  0.00     0.023 A 
ATOM     72  C   UNL A   1      37.635  31.129  30.273  1.00  0.00     0.031 A 
ATOM     73  C   UNL A   1      38.632  30.130  32.224  1.00  0.00     0.131 A 
ATOM     74  C   UNL A   1      36.557  31.543  31.072  1.00  0.00     0.055 A 
ATOM     75  C   UNL A   1      37.534  30.498  33.003  1.00  0.00     0.041 A 
ATOM     76  F   UNL A   1      39.630  29.465  32.828  1.00  0.00    -0.206 F 
ATOM     77  C   UNL A   1      36.494  31.219  32.430  1.00  0.00     0.022 A 
BRANCH  74  78
ATOM     78  S   UNL A   1      35.272  32.585  30.328  1.00  0.00     0.124 S 
ATOM     79  O   UNL A   1      36.018  33.797  30.011  1.00  0.00    -0.237 OA
ATOM     80  O   UNL A   1      34.847  31.775  29.190  1.00  0.00    -0.237 OA
ATOM     81  O   UNL A   1      34.284  32.722  31.395  1.00  0.00    -0.744 OA
ENDBRANCH  74  78
ENDBRANCH  47  71
BRANCH  59  82
ATOM     82  C   UNL A   1      44.774  33.609  29.591  1.00  0.00     0.023 A 
ATOM     83  C   UNL A   1      44.540  34.730  28.776  1.00  0.00     0.031 A 
ATOM     84  C   UNL A   1      45.517  33.786  30.771  1.00  0.00     0.131 A 
ATOM     85  C   UNL A   1      45.083  35.975  29.132  1.00  0.00     0.055 A 
ATOM     86  C   UNL A   1      46.015  35.035  31.143  1.00  0.00     0.041 A 
ATOM     87  F   UNL A   1      45.767  32.747  31.583  1.00  0.00    -0.206 F 
ATOM     88  C   UNL A   1      45.808  36.136  30.317  1.00  0.00     0.022 A 
BRANCH  85  89
ATOM     89  S   UNL A   1      44.887  37.372  27.992  1.00  0.00     0.124 S 
ATOM     90  O   UNL A   1      44.020  38.267  28.753  1.00  0.00    -0.237 OA
ATOM     91  O   UNL A   1      46.263  37.822  27.809  1.00  0.00    -0.237 OA
ATOM     92  O   UNL A   1      44.271  36.768  26.812  1.00  0.00    -0.744 OA
ENDBRANCH  85  89
ENDBRANCH  59  82
ENDBRANCH  33  34
ENDBRANCH  26  28
ENDBRANCH  25  26
ENDBRANCH  24  25
ENDBRANCH   1  24
TORSDOF 18
ENDMDL
