MODEL 1
REMARK VINA RESULT:     -11.5      0.000      0.000
REMARK SMILES CC1(C)CCC[C@@]1(CC(=O)OCCOC(=O)c1ccc(-c2c3nc(c(-c4cc(S(=O)(=O)[O-])ccc4F)c4ccc([nH]4)c(-c4cc(S(=O)(=O)[O-])ccc4F)c4nc(c(-c5cc(S(=O)(=O)[O-])ccc5F)c5ccc2[nH]5)C=C4)C=C3)cc1)[NH+]1CCCCC1
REMARK SMILES IDX 13 1 12 2 11 3 9 4 10 5 8 6 7 7 1 8 2 9 3 10 4 11 5 12 6 13
REMARK SMILES IDX 80 14 81 15 85 16 82 18 84 19 83 20 14 21 15 22 16 23 17 24
REMARK SMILES IDX 18 25 79 26 19 27 78 28 20 29 21 30 22 31 72 32 23 33 77 34
REMARK SMILES IDX 71 35 73 36 24 37 76 38 70 39 69 40 25 42 57 43 37 44 56 45
REMARK SMILES IDX 38 46 41 47 55 48 74 49 39 50 40 51 54 53 75 54 42 55 26 56
REMARK SMILES IDX 27 57 35 58 28 59 34 60 36 61 33 62 29 63 30 64 31 65 32 66
REMARK SMILES IDX 58 67 59 68 67 69 60 70 66 71 68 72 65 73 61 74 62 75 63 76
REMARK SMILES IDX 64 77 43 78 44 79 52 80 45 81 51 82 53 83 50 84 46 85 47 86
REMARK SMILES IDX 48 87 49 88
REMARK H PARENT 80 17 73 41 41 52
REMARK Flexibility Score: inf
ROOT
ATOM      1  C   UNL A   1      31.748  29.786  25.681  1.00  0.00     0.275 C 
ENDROOT
BRANCH   1   2
ATOM      2  C   UNL A   1      31.776  28.302  26.029  1.00  0.00     0.274 C 
BRANCH   2   3
ATOM      3  O   UNL A   1      30.968  27.595  25.070  1.00  0.00    -0.462 OA
BRANCH   3   4
ATOM      4  C   UNL A   1      30.606  26.329  25.406  1.00  0.00     0.312 C 
ATOM      5  O   UNL A   1      30.182  25.990  26.503  1.00  0.00    -0.252 OA
BRANCH   4   6
ATOM      6  C   UNL A   1      30.704  25.391  24.226  1.00  0.00     0.191 C 
BRANCH   6   7
ATOM      7  C   UNL A   1      31.910  24.382  24.181  1.00  0.00     0.113 C 
ATOM      8  C   UNL A   1      33.829  26.133  23.697  1.00  0.00     0.018 C 
ATOM      9  C   UNL A   1      32.988  24.971  23.142  1.00  0.00     0.020 C 
ATOM     10  C   UNL A   1      32.343  25.490  21.815  1.00  0.00     0.018 C 
ATOM     11  C   UNL A   1      33.847  23.758  22.737  1.00  0.00     0.013 C 
ATOM     12  C   UNL A   1      32.902  22.565  22.776  1.00  0.00     0.007 C 
ATOM     13  C   UNL A   1      31.623  23.018  23.488  1.00  0.00     0.070 C 
BRANCH   7  14
ATOM     14  N   UNL A   1      32.357  24.169  25.599  1.00  0.00    -0.329 N 
ATOM     15  C   UNL A   1      33.654  24.588  26.124  1.00  0.00     0.262 C 
ATOM     16  C   UNL A   1      31.895  22.957  26.310  1.00  0.00     0.262 C 
ATOM     17  H   UNL A   1      31.778  24.981  25.815  1.00  0.00     0.348 HD
ATOM     18  C   UNL A   1      34.720  23.492  26.155  1.00  0.00     0.062 C 
ATOM     19  C   UNL A   1      32.902  21.813  26.439  1.00  0.00     0.062 C 
ATOM     20  C   UNL A   1      34.249  22.287  26.952  1.00  0.00     0.012 C 
ENDBRANCH   7  14
ENDBRANCH   6   7
ENDBRANCH   4   6
ENDBRANCH   3   4
ENDBRANCH   2   3
ENDBRANCH   1   2
BRANCH   1  21
ATOM     21  O   UNL A   1      33.065  30.322  25.899  1.00  0.00    -0.458 OA
BRANCH  21  22
ATOM     22  C   UNL A   1      33.157  31.245  26.886  1.00  0.00     0.338 C 
ATOM     23  O   UNL A   1      32.353  32.123  27.148  1.00  0.00    -0.246 OA
BRANCH  22  24
ATOM     24  C   UNL A   1      34.406  31.041  27.646  1.00  0.00     0.060 A 
ATOM     25  C   UNL A   1      35.286  32.101  27.881  1.00  0.00     0.016 A 
ATOM     26  C   UNL A   1      34.745  29.749  28.043  1.00  0.00     0.016 A 
ATOM     27  C   UNL A   1      36.531  31.859  28.462  1.00  0.00     0.010 A 
ATOM     28  C   UNL A   1      35.951  29.526  28.712  1.00  0.00     0.010 A 
ATOM     29  C   UNL A   1      36.865  30.574  28.917  1.00  0.00    -0.014 A 
BRANCH  29  30
ATOM     30  C   UNL A   1      38.140  30.311  29.641  1.00  0.00     0.031 A 
ATOM     31  C   UNL A   1      39.152  29.347  29.077  1.00  0.00     0.074 A 
ATOM     32  C   UNL A   1      38.358  30.884  30.842  1.00  0.00     0.049 A 
ATOM     33  N   UNL A   1      40.187  28.798  29.660  1.00  0.00    -0.248 NA
ATOM     34  C   UNL A   1      38.958  28.933  27.680  1.00  0.00     0.031 C 
ATOM     35  C   UNL A   1      37.472  31.854  31.491  1.00  0.00     0.029 A 
ATOM     36  N   UNL A   1      39.380  30.719  31.743  1.00  0.00    -0.354 N 
ATOM     37  C   UNL A   1      40.746  27.941  28.717  1.00  0.00     0.074 A 
ATOM     38  C   UNL A   1      39.924  28.037  27.528  1.00  0.00     0.031 C 
ATOM     39  C   UNL A   1      37.992  32.203  32.677  1.00  0.00     0.029 A 
ATOM     40  C   UNL A   1      39.198  31.419  32.913  1.00  0.00     0.049 A 
ATOM     41  H   UNL A   1      40.169  30.155  31.567  1.00  0.00     0.167 HD
ATOM     42  C   UNL A   1      41.839  27.146  28.838  1.00  0.00     0.034 A 
ATOM     43  C   UNL A   1      39.885  31.394  34.071  1.00  0.00     0.034 A 
ATOM     44  C   UNL A   1      42.662  27.081  30.025  1.00  0.00     0.049 A 
ATOM     45  C   UNL A   1      41.069  30.476  34.197  1.00  0.00     0.074 A 
ATOM     46  C   UNL A   1      43.800  26.325  30.246  1.00  0.00     0.029 A 
ATOM     47  N   UNL A   1      42.435  27.801  31.191  1.00  0.00    -0.354 N 
ATOM     48  N   UNL A   1      41.555  29.633  33.317  1.00  0.00    -0.248 NA
ATOM     49  C   UNL A   1      41.790  30.500  35.475  1.00  0.00     0.031 C 
ATOM     50  C   UNL A   1      44.232  26.548  31.560  1.00  0.00     0.029 A 
ATOM     51  C   UNL A   1      43.399  27.492  32.139  1.00  0.00     0.049 A 
ATOM     52  H   UNL A   1      41.698  28.440  31.324  1.00  0.00     0.167 HD
ATOM     53  C   UNL A   1      42.647  29.033  33.933  1.00  0.00     0.074 A 
ATOM     54  C   UNL A   1      42.760  29.627  35.250  1.00  0.00     0.031 C 
ATOM     55  C   UNL A   1      43.483  28.075  33.456  1.00  0.00     0.034 A 
BRANCH  42  56
ATOM     56  C   UNL A   1      42.179  26.242  27.677  1.00  0.00     0.023 A 
ATOM     57  C   UNL A   1      41.715  24.919  27.600  1.00  0.00     0.031 A 
ATOM     58  C   UNL A   1      42.985  26.721  26.627  1.00  0.00     0.131 A 
ATOM     59  C   UNL A   1      42.104  24.102  26.526  1.00  0.00     0.055 A 
ATOM     60  C   UNL A   1      43.313  25.924  25.528  1.00  0.00     0.041 A 
ATOM     61  F   UNL A   1      43.473  27.970  26.655  1.00  0.00    -0.206 F 
ATOM     62  C   UNL A   1      42.880  24.603  25.478  1.00  0.00     0.022 A 
BRANCH  59  63
ATOM     63  S   UNL A   1      41.669  22.341  26.568  1.00  0.00     0.124 S 
ATOM     64  O   UNL A   1      42.344  21.841  25.373  1.00  0.00    -0.237 OA
ATOM     65  O   UNL A   1      42.226  21.909  27.845  1.00  0.00    -0.237 OA
ATOM     66  O   UNL A   1      40.209  22.346  26.496  1.00  0.00    -0.744 OA
ENDBRANCH  59  63
ENDBRANCH  42  56
BRANCH  43  67
ATOM     67  C   UNL A   1      39.427  32.212  35.229  1.00  0.00     0.023 A 
ATOM     68  C   UNL A   1      38.702  31.634  36.281  1.00  0.00     0.031 A 
ATOM     69  C   UNL A   1      39.693  33.592  35.287  1.00  0.00     0.131 A 
ATOM     70  C   UNL A   1      38.240  32.440  37.333  1.00  0.00     0.055 A 
ATOM     71  C   UNL A   1      39.275  34.380  36.359  1.00  0.00     0.041 A 
ATOM     72  F   UNL A   1      40.387  34.193  34.306  1.00  0.00    -0.206 F 
ATOM     73  C   UNL A   1      38.533  33.805  37.387  1.00  0.00     0.022 A 
BRANCH  70  74
ATOM     74  S   UNL A   1      37.182  31.688  38.601  1.00  0.00     0.124 S 
ATOM     75  O   UNL A   1      35.996  32.534  38.540  1.00  0.00    -0.237 OA
ATOM     76  O   UNL A   1      37.028  30.328  38.096  1.00  0.00    -0.237 OA
ATOM     77  O   UNL A   1      37.976  31.812  39.822  1.00  0.00    -0.744 OA
ENDBRANCH  70  74
ENDBRANCH  43  67
BRANCH  55  78
ATOM     78  C   UNL A   1      44.606  27.650  34.366  1.00  0.00     0.023 A 
ATOM     79  C   UNL A   1      44.467  26.561  35.245  1.00  0.00     0.031 A 
ATOM     80  C   UNL A   1      45.813  28.369  34.382  1.00  0.00     0.131 A 
ATOM     81  C   UNL A   1      45.498  26.259  36.147  1.00  0.00     0.055 A 
ATOM     82  C   UNL A   1      46.855  28.031  35.246  1.00  0.00     0.041 A 
ATOM     83  F   UNL A   1      45.994  29.418  33.564  1.00  0.00    -0.206 F 
ATOM     84  C   UNL A   1      46.695  26.979  36.144  1.00  0.00     0.022 A 
BRANCH  81  85
ATOM     85  S   UNL A   1      45.217  24.967  37.389  1.00  0.00     0.124 S 
ATOM     86  O   UNL A   1      44.977  23.792  36.557  1.00  0.00    -0.237 OA
ATOM     87  O   UNL A   1      46.471  24.974  38.135  1.00  0.00    -0.237 OA
ATOM     88  O   UNL A   1      44.053  25.450  38.129  1.00  0.00    -0.744 OA
ENDBRANCH  81  85
ENDBRANCH  55  78
ENDBRANCH  29  30
ENDBRANCH  22  24
ENDBRANCH  21  22
ENDBRANCH   1  21
TORSDOF 16
ENDMDL
MODEL 2
REMARK VINA RESULT:     -11.4      1.362      1.589
REMARK SMILES CC1(C)CCC[C@@]1(CC(=O)OCCOC(=O)c1ccc(-c2c3nc(c(-c4cc(S(=O)(=O)[O-])ccc4F)c4ccc([nH]4)c(-c4cc(S(=O)(=O)[O-])ccc4F)c4nc(c(-c5cc(S(=O)(=O)[O-])ccc5F)c5ccc2[nH]5)C=C4)C=C3)cc1)[NH+]1CCCCC1
REMARK SMILES IDX 13 1 12 2 11 3 9 4 10 5 8 6 7 7 1 8 2 9 3 10 4 11 5 12 6 13
REMARK SMILES IDX 80 14 81 15 85 16 82 18 84 19 83 20 14 21 15 22 16 23 17 24
REMARK SMILES IDX 18 25 79 26 19 27 78 28 20 29 21 30 22 31 72 32 23 33 77 34
REMARK SMILES IDX 71 35 73 36 24 37 76 38 70 39 69 40 25 42 57 43 37 44 56 45
REMARK SMILES IDX 38 46 41 47 55 48 74 49 39 50 40 51 54 53 75 54 42 55 26 56
REMARK SMILES IDX 27 57 35 58 28 59 34 60 36 61 33 62 29 63 30 64 31 65 32 66
REMARK SMILES IDX 58 67 59 68 67 69 60 70 66 71 68 72 65 73 61 74 62 75 63 76
REMARK SMILES IDX 64 77 43 78 44 79 52 80 45 81 51 82 53 83 50 84 46 85 47 86
REMARK SMILES IDX 48 87 49 88
REMARK H PARENT 80 17 73 41 41 52
REMARK Flexibility Score: inf
ROOT
ATOM      1  C   UNL A   1      31.744  29.601  25.296  1.00  0.00     0.275 C 
ENDROOT
BRANCH   1   2
ATOM      2  C   UNL A   1      31.434  28.259  25.950  1.00  0.00     0.274 C 
BRANCH   2   3
ATOM      3  O   UNL A   1      30.672  27.466  25.022  1.00  0.00    -0.462 OA
BRANCH   3   4
ATOM      4  C   UNL A   1      30.433  26.178  25.385  1.00  0.00     0.312 C 
ATOM      5  O   UNL A   1      30.060  25.822  26.495  1.00  0.00    -0.252 OA
BRANCH   4   6
ATOM      6  C   UNL A   1      30.598  25.232  24.220  1.00  0.00     0.191 C 
BRANCH   6   7
ATOM      7  C   UNL A   1      31.883  24.327  24.176  1.00  0.00     0.113 C 
ATOM      8  C   UNL A   1      33.652  26.235  23.709  1.00  0.00     0.018 C 
ATOM      9  C   UNL A   1      32.914  25.009  23.145  1.00  0.00     0.020 C 
ATOM     10  C   UNL A   1      32.234  25.478  21.817  1.00  0.00     0.018 C 
ATOM     11  C   UNL A   1      33.872  23.873  22.739  1.00  0.00     0.013 C 
ATOM     12  C   UNL A   1      33.030  22.605  22.769  1.00  0.00     0.007 C 
ATOM     13  C   UNL A   1      31.715  22.948  23.476  1.00  0.00     0.070 C 
BRANCH   7  14
ATOM     14  N   UNL A   1      32.340  24.146  25.596  1.00  0.00    -0.329 N 
ATOM     15  C   UNL A   1      33.608  24.645  26.121  1.00  0.00     0.262 C 
ATOM     16  C   UNL A   1      31.952  22.910  26.310  1.00  0.00     0.262 C 
ATOM     17  H   UNL A   1      31.713  24.922  25.808  1.00  0.00     0.348 HD
ATOM     18  C   UNL A   1      34.739  23.616  26.158  1.00  0.00     0.062 C 
ATOM     19  C   UNL A   1      33.025  21.830  26.444  1.00  0.00     0.062 C 
ATOM     20  C   UNL A   1      34.341  22.387  26.958  1.00  0.00     0.012 C 
ENDBRANCH   7  14
ENDBRANCH   6   7
ENDBRANCH   4   6
ENDBRANCH   3   4
ENDBRANCH   2   3
ENDBRANCH   1   2
BRANCH   1  21
ATOM     21  O   UNL A   1      33.059  30.009  25.712  1.00  0.00    -0.458 OA
BRANCH  21  22
ATOM     22  C   UNL A   1      33.091  30.931  26.704  1.00  0.00     0.338 C 
ATOM     23  O   UNL A   1      32.245  31.771  26.954  1.00  0.00    -0.246 OA
BRANCH  22  24
ATOM     24  C   UNL A   1      34.333  30.779  27.487  1.00  0.00     0.060 A 
ATOM     25  C   UNL A   1      35.156  31.877  27.751  1.00  0.00     0.016 A 
ATOM     26  C   UNL A   1      34.726  29.500  27.879  1.00  0.00     0.016 A 
ATOM     27  C   UNL A   1      36.400  31.688  28.354  1.00  0.00     0.010 A 
ATOM     28  C   UNL A   1      35.927  29.328  28.570  1.00  0.00     0.010 A 
ATOM     29  C   UNL A   1      36.786  30.416  28.804  1.00  0.00    -0.014 A 
BRANCH  29  30
ATOM     30  C   UNL A   1      38.058  30.207  29.551  1.00  0.00     0.031 A 
ATOM     31  C   UNL A   1      39.103  29.258  29.025  1.00  0.00     0.074 A 
ATOM     32  C   UNL A   1      38.242  30.814  30.740  1.00  0.00     0.049 A 
ATOM     33  N   UNL A   1      40.145  28.752  29.634  1.00  0.00    -0.248 NA
ATOM     34  C   UNL A   1      38.940  28.804  27.636  1.00  0.00     0.031 C 
ATOM     35  C   UNL A   1      37.321  31.774  31.353  1.00  0.00     0.029 A 
ATOM     36  N   UNL A   1      39.256  30.700  31.658  1.00  0.00    -0.354 N 
ATOM     37  C   UNL A   1      40.741  27.888  28.720  1.00  0.00     0.074 A 
ATOM     38  C   UNL A   1      39.933  27.932  27.518  1.00  0.00     0.031 C 
ATOM     39  C   UNL A   1      37.815  32.166  32.537  1.00  0.00     0.029 A 
ATOM     40  C   UNL A   1      39.039  31.423  32.809  1.00  0.00     0.049 A 
ATOM     41  H   UNL A   1      40.062  30.154  31.507  1.00  0.00     0.167 HD
ATOM     42  C   UNL A   1      41.854  27.128  28.875  1.00  0.00     0.034 A 
ATOM     43  C   UNL A   1      39.710  31.445  33.977  1.00  0.00     0.034 A 
ATOM     44  C   UNL A   1      42.661  27.115  30.074  1.00  0.00     0.049 A 
ATOM     45  C   UNL A   1      40.916  30.564  34.140  1.00  0.00     0.074 A 
ATOM     46  C   UNL A   1      43.817  26.397  30.329  1.00  0.00     0.029 A 
ATOM     47  N   UNL A   1      42.398  27.856  31.219  1.00  0.00    -0.354 N 
ATOM     48  N   UNL A   1      41.438  29.714  33.288  1.00  0.00    -0.248 NA
ATOM     49  C   UNL A   1      41.619  30.638  35.427  1.00  0.00     0.031 C 
ATOM     50  C   UNL A   1      44.224  26.664  31.643  1.00  0.00     0.029 A 
ATOM     51  C   UNL A   1      43.357  27.597  32.188  1.00  0.00     0.049 A 
ATOM     52  H   UNL A   1      41.642  28.477  31.327  1.00  0.00     0.167 HD
ATOM     53  C   UNL A   1      42.538  29.159  33.934  1.00  0.00     0.074 A 
ATOM     54  C   UNL A   1      42.615  29.788  35.237  1.00  0.00     0.031 C 
ATOM     55  C   UNL A   1      43.406  28.214  33.491  1.00  0.00     0.034 A 
BRANCH  42  56
ATOM     56  C   UNL A   1      42.235  26.206  27.741  1.00  0.00     0.023 A 
ATOM     57  C   UNL A   1      41.736  24.897  27.644  1.00  0.00     0.031 A 
ATOM     58  C   UNL A   1      43.116  26.653  26.740  1.00  0.00     0.131 A 
ATOM     59  C   UNL A   1      42.163  24.062  26.599  1.00  0.00     0.055 A 
ATOM     60  C   UNL A   1      43.485  25.839  25.666  1.00  0.00     0.041 A 
ATOM     61  F   UNL A   1      43.640  27.888  26.790  1.00  0.00    -0.206 F 
ATOM     62  C   UNL A   1      43.016  24.531  25.597  1.00  0.00     0.022 A 
BRANCH  59  63
ATOM     63  S   UNL A   1      41.674  22.314  26.625  1.00  0.00     0.124 S 
ATOM     64  O   UNL A   1      42.249  21.828  25.373  1.00  0.00    -0.237 OA
ATOM     65  O   UNL A   1      42.302  21.828  27.848  1.00  0.00    -0.237 OA
ATOM     66  O   UNL A   1      40.213  22.367  26.653  1.00  0.00    -0.744 OA
ENDBRANCH  59  63
ENDBRANCH  42  56
BRANCH  43  67
ATOM     67  C   UNL A   1      39.213  32.277  35.108  1.00  0.00     0.023 A 
ATOM     68  C   UNL A   1      39.688  33.581  35.310  1.00  0.00     0.031 A 
ATOM     69  C   UNL A   1      38.267  31.769  36.016  1.00  0.00     0.131 A 
ATOM     70  C   UNL A   1      39.239  34.323  36.413  1.00  0.00     0.055 A 
ATOM     71  C   UNL A   1      37.786  32.528  37.082  1.00  0.00     0.041 A 
ATOM     72  F   UNL A   1      37.778  30.527  35.864  1.00  0.00    -0.206 F 
ATOM     73  C   UNL A   1      38.282  33.811  37.292  1.00  0.00     0.022 A 
BRANCH  70  74
ATOM     74  S   UNL A   1      39.983  35.947  36.726  1.00  0.00     0.124 S 
ATOM     75  O   UNL A   1      39.655  36.667  35.500  1.00  0.00    -0.237 OA
ATOM     76  O   UNL A   1      39.277  36.375  37.929  1.00  0.00    -0.237 OA
ATOM     77  O   UNL A   1      41.400  35.642  36.911  1.00  0.00    -0.744 OA
ENDBRANCH  70  74
ENDBRANCH  43  67
BRANCH  55  78
ATOM     78  C   UNL A   1      44.528  27.842  34.426  1.00  0.00     0.023 A 
ATOM     79  C   UNL A   1      44.368  26.845  35.404  1.00  0.00     0.031 A 
ATOM     80  C   UNL A   1      45.754  28.524  34.364  1.00  0.00     0.131 A 
ATOM     81  C   UNL A   1      45.401  26.598  36.321  1.00  0.00     0.055 A 
ATOM     82  C   UNL A   1      46.797  28.238  35.245  1.00  0.00     0.041 A 
ATOM     83  F   UNL A   1      45.956  29.487  33.449  1.00  0.00    -0.206 F 
ATOM     84  C   UNL A   1      46.618  27.280  36.239  1.00  0.00     0.022 A 
BRANCH  81  85
ATOM     85  S   UNL A   1      45.099  25.437  37.680  1.00  0.00     0.124 S 
ATOM     86  O   UNL A   1      46.347  25.516  38.432  1.00  0.00    -0.237 OA
ATOM     87  O   UNL A   1      43.927  26.014  38.330  1.00  0.00    -0.237 OA
ATOM     88  O   UNL A   1      44.865  24.165  37.000  1.00  0.00    -0.744 OA
ENDBRANCH  81  85
ENDBRANCH  55  78
ENDBRANCH  29  30
ENDBRANCH  22  24
ENDBRANCH  21  22
ENDBRANCH   1  21
TORSDOF 16
ENDMDL
MODEL 3
REMARK VINA RESULT:     -11.4      5.201      9.834
REMARK SMILES CC1(C)CCC[C@@]1(CC(=O)OCCOC(=O)c1ccc(-c2c3nc(c(-c4cc(S(=O)(=O)[O-])ccc4F)c4ccc([nH]4)c(-c4cc(S(=O)(=O)[O-])ccc4F)c4nc(c(-c5cc(S(=O)(=O)[O-])ccc5F)c5ccc2[nH]5)C=C4)C=C3)cc1)[NH+]1CCCCC1
REMARK SMILES IDX 13 1 12 2 11 3 9 4 10 5 8 6 7 7 1 8 2 9 3 10 4 11 5 12 6 13
REMARK SMILES IDX 80 14 81 15 85 16 82 18 84 19 83 20 14 21 15 22 16 23 17 24
REMARK SMILES IDX 18 25 79 26 19 27 78 28 20 29 21 30 22 31 72 32 23 33 77 34
REMARK SMILES IDX 71 35 73 36 24 37 76 38 70 39 69 40 25 42 57 43 37 44 56 45
REMARK SMILES IDX 38 46 41 47 55 48 74 49 39 50 40 51 54 53 75 54 42 55 26 56
REMARK SMILES IDX 27 57 35 58 28 59 34 60 36 61 33 62 29 63 30 64 31 65 32 66
REMARK SMILES IDX 58 67 59 68 67 69 60 70 66 71 68 72 65 73 61 74 62 75 63 76
REMARK SMILES IDX 64 77 43 78 44 79 52 80 45 81 51 82 53 83 50 84 46 85 47 86
REMARK SMILES IDX 48 87 49 88
REMARK H PARENT 80 17 73 41 41 52
REMARK Flexibility Score: inf
ROOT
ATOM      1  C   UNL A   1      35.869  20.989  24.874  1.00  0.00     0.275 C 
ENDROOT
BRANCH   1   2
ATOM      2  C   UNL A   1      34.594  21.784  24.622  1.00  0.00     0.274 C 
BRANCH   2   3
ATOM      3  O   UNL A   1      34.838  22.705  23.544  1.00  0.00    -0.462 OA
BRANCH   3   4
ATOM      4  C   UNL A   1      33.741  23.182  22.899  1.00  0.00     0.312 C 
ATOM      5  O   UNL A   1      33.686  23.428  21.701  1.00  0.00    -0.252 OA
BRANCH   4   6
ATOM      6  C   UNL A   1      32.555  23.294  23.827  1.00  0.00     0.191 C 
BRANCH   6   7
ATOM      7  C   UNL A   1      32.105  24.729  24.285  1.00  0.00     0.113 C 
ATOM      8  C   UNL A   1      34.149  25.258  25.875  1.00  0.00     0.018 C 
ATOM      9  C   UNL A   1      32.646  24.944  25.785  1.00  0.00     0.020 C 
ATOM     10  C   UNL A   1      32.399  23.707  26.710  1.00  0.00     0.018 C 
ATOM     11  C   UNL A   1      31.768  26.072  26.361  1.00  0.00     0.013 C 
ATOM     12  C   UNL A   1      30.407  25.900  25.701  1.00  0.00     0.007 C 
ATOM     13  C   UNL A   1      30.581  24.908  24.547  1.00  0.00     0.070 C 
BRANCH   7  14
ATOM     14  N   UNL A   1      32.576  25.693  23.233  1.00  0.00    -0.329 N 
ATOM     15  C   UNL A   1      33.610  26.702  23.446  1.00  0.00     0.262 C 
ATOM     16  C   UNL A   1      31.600  26.177  22.232  1.00  0.00     0.262 C 
ATOM     17  H   UNL A   1      33.125  24.909  22.880  1.00  0.00     0.348 HD
ATOM     18  C   UNL A   1      33.087  28.101  23.775  1.00  0.00     0.062 C 
ATOM     19  C   UNL A   1      31.046  27.587  22.442  1.00  0.00     0.062 C 
ATOM     20  C   UNL A   1      32.142  28.605  22.696  1.00  0.00     0.012 C 
ENDBRANCH   7  14
ENDBRANCH   6   7
ENDBRANCH   4   6
ENDBRANCH   3   4
ENDBRANCH   2   3
ENDBRANCH   1   2
BRANCH   1  21
ATOM     21  O   UNL A   1      36.746  21.792  25.683  1.00  0.00    -0.458 OA
BRANCH  21  22
ATOM     22  C   UNL A   1      38.039  21.390  25.710  1.00  0.00     0.338 C 
ATOM     23  O   UNL A   1      38.477  20.302  25.376  1.00  0.00    -0.246 OA
BRANCH  22  24
ATOM     24  C   UNL A   1      38.894  22.486  26.208  1.00  0.00     0.060 A 
ATOM     25  C   UNL A   1      40.020  22.220  26.992  1.00  0.00     0.016 A 
ATOM     26  C   UNL A   1      38.504  23.801  25.967  1.00  0.00     0.016 A 
ATOM     27  C   UNL A   1      40.723  23.270  27.583  1.00  0.00     0.010 A 
ATOM     28  C   UNL A   1      39.267  24.853  26.480  1.00  0.00     0.010 A 
ATOM     29  C   UNL A   1      40.377  24.602  27.306  1.00  0.00    -0.014 A 
BRANCH  29  30
ATOM     30  C   UNL A   1      41.179  25.741  27.833  1.00  0.00     0.031 A 
ATOM     31  C   UNL A   1      40.522  26.819  28.656  1.00  0.00     0.074 A 
ATOM     32  C   UNL A   1      42.484  25.845  27.511  1.00  0.00     0.049 A 
ATOM     33  N   UNL A   1      40.977  27.999  28.989  1.00  0.00    -0.248 NA
ATOM     34  C   UNL A   1      39.167  26.535  29.149  1.00  0.00     0.031 C 
ATOM     35  C   UNL A   1      43.248  24.860  26.741  1.00  0.00     0.029 A 
ATOM     36  N   UNL A   1      43.395  26.838  27.772  1.00  0.00    -0.354 N 
ATOM     37  C   UNL A   1      39.951  28.619  29.696  1.00  0.00     0.074 A 
ATOM     38  C   UNL A   1      38.845  27.684  29.731  1.00  0.00     0.031 C 
ATOM     39  C   UNL A   1      44.510  25.293  26.601  1.00  0.00     0.029 A 
ATOM     40  C   UNL A   1      44.623  26.621  27.190  1.00  0.00     0.049 A 
ATOM     41  H   UNL A   1      43.190  27.628  28.322  1.00  0.00     0.167 HD
ATOM     42  C   UNL A   1      39.935  29.855  30.257  1.00  0.00     0.034 A 
ATOM     43  C   UNL A   1      45.703  27.419  27.086  1.00  0.00     0.034 A 
ATOM     44  C   UNL A   1      41.057  30.766  30.232  1.00  0.00     0.049 A 
ATOM     45  C   UNL A   1      45.649  28.799  27.680  1.00  0.00     0.074 A 
ATOM     46  C   UNL A   1      41.153  32.032  30.785  1.00  0.00     0.029 A 
ATOM     47  N   UNL A   1      42.279  30.508  29.624  1.00  0.00    -0.354 N 
ATOM     48  N   UNL A   1      44.655  29.392  28.300  1.00  0.00    -0.248 NA
ATOM     49  C   UNL A   1      46.858  29.621  27.552  1.00  0.00     0.031 C 
ATOM     50  C   UNL A   1      42.412  32.559  30.468  1.00  0.00     0.029 A 
ATOM     51  C   UNL A   1      43.125  31.598  29.771  1.00  0.00     0.049 A 
ATOM     52  H   UNL A   1      42.511  29.673  29.158  1.00  0.00     0.167 HD
ATOM     53  C   UNL A   1      45.125  30.654  28.644  1.00  0.00     0.074 A 
ATOM     54  C   UNL A   1      46.497  30.728  28.183  1.00  0.00     0.031 C 
ATOM     55  C   UNL A   1      44.482  31.664  29.284  1.00  0.00     0.034 A 
BRANCH  42  56
ATOM     56  C   UNL A   1      38.648  30.315  30.898  1.00  0.00     0.023 A 
ATOM     57  C   UNL A   1      37.639  30.962  30.166  1.00  0.00     0.031 A 
ATOM     58  C   UNL A   1      38.431  30.099  32.272  1.00  0.00     0.131 A 
ATOM     59  C   UNL A   1      36.484  31.419  30.820  1.00  0.00     0.055 A 
ATOM     60  C   UNL A   1      37.250  30.496  32.903  1.00  0.00     0.041 A 
ATOM     61  F   UNL A   1      39.367  29.503  33.026  1.00  0.00    -0.206 F 
ATOM     62  C   UNL A   1      36.272  31.170  32.179  1.00  0.00     0.022 A 
BRANCH  59  63
ATOM     63  S   UNL A   1      35.304  32.441  29.893  1.00  0.00     0.124 S 
ATOM     64  O   UNL A   1      34.917  31.539  28.811  1.00  0.00    -0.237 OA
ATOM     65  O   UNL A   1      34.277  32.721  30.890  1.00  0.00    -0.237 OA
ATOM     66  O   UNL A   1      36.100  33.594  29.479  1.00  0.00    -0.744 OA
ENDBRANCH  59  63
ENDBRANCH  42  56
BRANCH  43  67
ATOM     67  C   UNL A   1      46.901  26.960  26.329  1.00  0.00     0.023 A 
ATOM     68  C   UNL A   1      47.984  26.355  26.985  1.00  0.00     0.031 A 
ATOM     69  C   UNL A   1      46.987  27.141  24.937  1.00  0.00     0.131 A 
ATOM     70  C   UNL A   1      49.119  25.979  26.253  1.00  0.00     0.055 A 
ATOM     71  C   UNL A   1      48.098  26.720  24.206  1.00  0.00     0.041 A 
ATOM     72  F   UNL A   1      45.977  27.713  24.262  1.00  0.00    -0.206 F 
ATOM     73  C   UNL A   1      49.179  26.144  24.866  1.00  0.00     0.022 A 
BRANCH  70  74
ATOM     74  S   UNL A   1      50.556  25.333  27.152  1.00  0.00     0.124 S 
ATOM     75  O   UNL A   1      51.445  24.952  26.060  1.00  0.00    -0.237 OA
ATOM     76  O   UNL A   1      50.965  26.492  27.938  1.00  0.00    -0.237 OA
ATOM     77  O   UNL A   1      50.003  24.222  27.923  1.00  0.00    -0.744 OA
ENDBRANCH  70  74
ENDBRANCH  43  67
BRANCH  55  78
ATOM     78  C   UNL A   1      45.283  32.913  29.542  1.00  0.00     0.023 A 
ATOM     79  C   UNL A   1      45.306  33.975  28.621  1.00  0.00     0.031 A 
ATOM     80  C   UNL A   1      46.065  33.023  30.704  1.00  0.00     0.131 A 
ATOM     81  C   UNL A   1      46.143  35.077  28.850  1.00  0.00     0.055 A 
ATOM     82  C   UNL A   1      46.856  34.145  30.952  1.00  0.00     0.041 A 
ATOM     83  F   UNL A   1      46.080  32.035  31.614  1.00  0.00    -0.206 F 
ATOM     84  C   UNL A   1      46.908  35.174  30.015  1.00  0.00     0.022 A 
BRANCH  81  85
ATOM     85  S   UNL A   1      46.288  36.343  27.560  1.00  0.00     0.124 S 
ATOM     86  O   UNL A   1      46.980  37.418  28.264  1.00  0.00    -0.237 OA
ATOM     87  O   UNL A   1      47.063  35.655  26.532  1.00  0.00    -0.237 OA
ATOM     88  O   UNL A   1      44.901  36.629  27.201  1.00  0.00    -0.744 OA
ENDBRANCH  81  85
ENDBRANCH  55  78
ENDBRANCH  29  30
ENDBRANCH  22  24
ENDBRANCH  21  22
ENDBRANCH   1  21
TORSDOF 16
ENDMDL
