MODEL 1
REMARK VINA RESULT:     -12.4      0.000      0.000
REMARK SMILES CC1=C(C(=O)Nc2ccccc2)[C@@H](c2ccc(C(=O)OCCOC(=O)c3ccc(-c4c5nc(c(-c6cc(S(=O)(=O)[O-])ccc6F)c6ccc([nH]6)c(-c6cc(S(=O)(=O)[O-])ccc6F)c6nc(c(-c7cc(S(=O)(=O)[O-])ccc7F)c7ccc4[nH]7)C=C6)C=C5)cc3)cc2)n2ncnc2N1
REMARK SMILES IDX 21 1 20 2 18 3 19 4 17 5 14 6 15 7 90 8 16 9 89 10 13 11
REMARK SMILES IDX 1 12 2 13 3 14 96 15 95 16 91 18 94 19 92 20 93 21 4 22 5 23
REMARK SMILES IDX 6 24 7 26 8 27 12 28 9 29 11 30 10 31 22 32 23 33 24 34
REMARK SMILES IDX 25 35 26 36 27 37 88 38 28 39 87 40 29 41 30 42 31 43 81 44
REMARK SMILES IDX 32 45 86 46 80 47 82 48 33 49 85 50 79 51 78 52 34 54 66 55
REMARK SMILES IDX 46 56 65 57 47 58 50 59 64 60 83 61 48 62 49 63 63 65 84 66
REMARK SMILES IDX 51 67 35 68 36 69 44 70 37 71 43 72 45 73 42 74 38 75 39 76
REMARK SMILES IDX 40 77 41 78 67 79 68 80 76 81 69 82 75 83 77 84 74 85 70 86
REMARK SMILES IDX 71 87 72 88 73 89 52 90 53 91 61 92 54 93 60 94 62 95 59 96
REMARK SMILES IDX 55 97 56 98 57 99 58 100
REMARK H PARENT 96 17 6 25 82 53 50 64
REMARK Flexibility Score: inf
ROOT
ATOM      1  C   UNL A   1      37.342  20.287  24.951  1.00  0.00     0.275 C 
ENDROOT
BRANCH   1   2
ATOM      2  O   UNL A   1      37.442  21.545  24.266  1.00  0.00    -0.458 OA
BRANCH   2   3
ATOM      3  C   UNL A   1      37.247  22.656  25.026  1.00  0.00     0.338 C 
ATOM      4  O   UNL A   1      38.091  23.219  25.710  1.00  0.00    -0.246 OA
BRANCH   3   5
ATOM      5  C   UNL A   1      35.864  23.169  24.846  1.00  0.00     0.060 A 
ATOM      6  C   UNL A   1      33.213  24.087  24.611  1.00  0.00    -0.019 A 
ATOM      7  C   UNL A   1      33.938  24.331  25.784  1.00  0.00     0.007 A 
ATOM      8  C   UNL A   1      33.861  23.444  23.535  1.00  0.00     0.007 A 
ATOM      9  C   UNL A   1      35.254  23.867  25.901  1.00  0.00     0.016 A 
ATOM     10  C   UNL A   1      35.172  22.990  23.648  1.00  0.00     0.016 A 
BRANCH   6  11
ATOM     11  C   UNL A   1      31.719  24.356  24.487  1.00  0.00     0.179 C 
ATOM     12  C   UNL A   1      29.140  27.253  24.089  1.00  0.00     0.065 C 
ATOM     13  C   UNL A   1      30.026  26.174  24.660  1.00  0.00     0.026 C 
ATOM     14  C   UNL A   1      31.234  25.783  24.167  1.00  0.00     0.065 C 
ATOM     15  N   UNL A   1      29.422  25.470  25.697  1.00  0.00    -0.328 N 
ATOM     16  C   UNL A   1      29.892  24.316  26.193  1.00  0.00     0.226 A 
ATOM     17  H   UNL A   1      28.600  25.841  26.090  1.00  0.00     0.169 HD
ATOM     18  N   UNL A   1      31.009  23.765  25.634  1.00  0.00    -0.219 N 
ATOM     19  N   UNL A   1      29.433  23.531  27.134  1.00  0.00    -0.200 NA
ATOM     20  N   UNL A   1      31.246  22.534  26.146  1.00  0.00    -0.157 NA
ATOM     21  C   UNL A   1      30.292  22.466  27.078  1.00  0.00     0.248 A 
BRANCH  14  22
ATOM     22  C   UNL A   1      32.003  26.415  23.054  1.00  0.00     0.255 C 
ATOM     23  O   UNL A   1      31.752  26.045  21.903  1.00  0.00    -0.269 OA
ATOM     24  N   UNL A   1      32.940  27.396  23.207  1.00  0.00    -0.322 N 
ATOM     25  H   UNL A   1      33.488  27.557  22.404  1.00  0.00     0.170 HD
BRANCH  24  26
ATOM     26  C   UNL A   1      33.265  28.216  24.295  1.00  0.00     0.041 A 
ATOM     27  C   UNL A   1      32.484  29.370  24.436  1.00  0.00     0.026 A 
ATOM     28  C   UNL A   1      34.216  27.903  25.264  1.00  0.00     0.026 A 
ATOM     29  C   UNL A   1      32.538  30.121  25.610  1.00  0.00     0.002 A 
ATOM     30  C   UNL A   1      34.307  28.691  26.420  1.00  0.00     0.002 A 
ATOM     31  C   UNL A   1      33.442  29.771  26.609  1.00  0.00     0.000 A 
ENDBRANCH  24  26
ENDBRANCH  14  22
ENDBRANCH   6  11
ENDBRANCH   3   5
ENDBRANCH   2   3
ENDBRANCH   1   2
BRANCH   1  32
ATOM     32  C   UNL A   1      38.683  19.570  24.972  1.00  0.00     0.275 C 
BRANCH  32  33
ATOM     33  O   UNL A   1      39.459  19.954  26.105  1.00  0.00    -0.458 OA
BRANCH  33  34
ATOM     34  C   UNL A   1      40.787  19.724  25.988  1.00  0.00     0.338 C 
ATOM     35  O   UNL A   1      41.324  18.712  25.570  1.00  0.00    -0.246 OA
BRANCH  34  36
ATOM     36  C   UNL A   1      41.517  20.792  26.679  1.00  0.00     0.060 A 
ATOM     37  C   UNL A   1      41.297  20.928  28.053  1.00  0.00     0.016 A 
ATOM     38  C   UNL A   1      42.151  21.791  25.928  1.00  0.00     0.016 A 
ATOM     39  C   UNL A   1      41.563  22.145  28.644  1.00  0.00     0.010 A 
ATOM     40  C   UNL A   1      42.394  23.010  26.513  1.00  0.00     0.010 A 
ATOM     41  C   UNL A   1      42.035  23.194  27.848  1.00  0.00    -0.014 A 
BRANCH  41  42
ATOM     42  C   UNL A   1      42.279  24.478  28.474  1.00  0.00     0.031 A 
ATOM     43  C   UNL A   1      41.239  25.481  28.155  1.00  0.00     0.074 A 
ATOM     44  C   UNL A   1      43.255  24.671  29.381  1.00  0.00     0.049 A 
ATOM     45  N   UNL A   1      41.372  26.587  27.505  1.00  0.00    -0.248 NA
ATOM     46  C   UNL A   1      39.840  25.114  28.435  1.00  0.00     0.031 C 
ATOM     47  C   UNL A   1      44.135  23.659  29.971  1.00  0.00     0.029 A 
ATOM     48  N   UNL A   1      43.580  25.803  30.062  1.00  0.00    -0.354 N 
ATOM     49  C   UNL A   1      40.109  27.171  27.510  1.00  0.00     0.074 A 
ATOM     50  C   UNL A   1      39.192  26.131  27.876  1.00  0.00     0.031 C 
ATOM     51  C   UNL A   1      44.730  24.177  31.069  1.00  0.00     0.029 A 
ATOM     52  C   UNL A   1      44.368  25.581  31.187  1.00  0.00     0.049 A 
ATOM     53  H   UNL A   1      43.285  26.700  29.784  1.00  0.00     0.167 HD
ATOM     54  C   UNL A   1      39.966  28.524  27.486  1.00  0.00     0.034 A 
ATOM     55  C   UNL A   1      44.637  26.466  32.183  1.00  0.00     0.034 A 
ATOM     56  C   UNL A   1      41.172  29.157  26.991  1.00  0.00     0.049 A 
ATOM     57  C   UNL A   1      44.376  27.824  31.644  1.00  0.00     0.074 A 
ATOM     58  C   UNL A   1      41.893  29.075  25.814  1.00  0.00     0.029 A 
ATOM     59  N   UNL A   1      42.020  29.744  27.905  1.00  0.00    -0.354 N 
ATOM     60  N   UNL A   1      45.080  28.366  30.690  1.00  0.00    -0.248 NA
ATOM     61  C   UNL A   1      43.058  28.410  31.844  1.00  0.00     0.031 C 
ATOM     62  C   UNL A   1      43.260  29.179  26.204  1.00  0.00     0.029 A 
ATOM     63  C   UNL A   1      43.306  29.385  27.584  1.00  0.00     0.049 A 
ATOM     64  H   UNL A   1      41.751  30.320  28.657  1.00  0.00     0.167 HD
ATOM     65  C   UNL A   1      44.159  29.038  29.900  1.00  0.00     0.074 A 
ATOM     66  C   UNL A   1      42.959  29.135  30.725  1.00  0.00     0.031 C 
ATOM     67  C   UNL A   1      44.365  29.193  28.559  1.00  0.00     0.034 A 
BRANCH  54  68
ATOM     68  C   UNL A   1      38.927  29.274  28.302  1.00  0.00     0.023 A 
ATOM     69  C   UNL A   1      39.054  29.190  29.700  1.00  0.00     0.031 A 
ATOM     70  C   UNL A   1      37.691  29.784  27.836  1.00  0.00     0.131 A 
ATOM     71  C   UNL A   1      37.957  29.429  30.543  1.00  0.00     0.055 A 
ATOM     72  C   UNL A   1      36.621  30.085  28.686  1.00  0.00     0.041 A 
ATOM     73  F   UNL A   1      37.403  29.954  26.543  1.00  0.00    -0.206 F 
ATOM     74  C   UNL A   1      36.735  29.865  30.045  1.00  0.00     0.022 A 
BRANCH  71  75
ATOM     75  S   UNL A   1      38.107  28.948  32.279  1.00  0.00     0.124 S 
ATOM     76  O   UNL A   1      38.379  27.520  32.159  1.00  0.00    -0.237 OA
ATOM     77  O   UNL A   1      39.219  29.783  32.723  1.00  0.00    -0.237 OA
ATOM     78  O   UNL A   1      36.804  29.294  32.839  1.00  0.00    -0.744 OA
ENDBRANCH  71  75
ENDBRANCH  54  68
BRANCH  55  79
ATOM     79  C   UNL A   1      44.801  26.174  33.632  1.00  0.00     0.023 A 
ATOM     80  C   UNL A   1      43.778  26.403  34.576  1.00  0.00     0.031 A 
ATOM     81  C   UNL A   1      45.918  25.430  34.077  1.00  0.00     0.131 A 
ATOM     82  C   UNL A   1      43.899  25.899  35.893  1.00  0.00     0.055 A 
ATOM     83  C   UNL A   1      46.036  24.943  35.379  1.00  0.00     0.041 A 
ATOM     84  F   UNL A   1      46.898  25.074  33.231  1.00  0.00    -0.206 F 
ATOM     85  C   UNL A   1      45.020  25.167  36.292  1.00  0.00     0.022 A 
BRANCH  82  86
ATOM     86  S   UNL A   1      42.539  26.104  37.089  1.00  0.00     0.124 S 
ATOM     87  O   UNL A   1      41.863  27.295  36.588  1.00  0.00    -0.237 OA
ATOM     88  O   UNL A   1      41.816  24.845  36.962  1.00  0.00    -0.237 OA
ATOM     89  O   UNL A   1      43.232  26.284  38.366  1.00  0.00    -0.744 OA
ENDBRANCH  82  86
ENDBRANCH  55  79
BRANCH  67  90
ATOM     90  C   UNL A   1      45.759  28.939  28.020  1.00  0.00     0.023 A 
ATOM     91  C   UNL A   1      46.234  27.689  27.559  1.00  0.00     0.031 A 
ATOM     92  C   UNL A   1      46.608  30.050  27.881  1.00  0.00     0.131 A 
ATOM     93  C   UNL A   1      47.523  27.588  26.998  1.00  0.00     0.055 A 
ATOM     94  C   UNL A   1      47.873  29.951  27.306  1.00  0.00     0.041 A 
ATOM     95  F   UNL A   1      46.202  31.270  28.272  1.00  0.00    -0.206 F 
ATOM     96  C   UNL A   1      48.339  28.717  26.869  1.00  0.00     0.022 A 
BRANCH  93  97
ATOM     97  S   UNL A   1      48.169  25.981  26.435  1.00  0.00     0.124 S 
ATOM     98  O   UNL A   1      49.305  26.342  25.595  1.00  0.00    -0.237 OA
ATOM     99  O   UNL A   1      48.490  25.312  27.693  1.00  0.00    -0.237 OA
ATOM    100  O   UNL A   1      47.039  25.394  25.711  1.00  0.00    -0.744 OA
ENDBRANCH  93  97
ENDBRANCH  67  90
ENDBRANCH  41  42
ENDBRANCH  34  36
ENDBRANCH  33  34
ENDBRANCH  32  33
ENDBRANCH   1  32
TORSDOF 17
ENDMDL
MODEL 2
REMARK VINA RESULT:     -12.4      5.182     10.826
REMARK SMILES CC1=C(C(=O)Nc2ccccc2)[C@@H](c2ccc(C(=O)OCCOC(=O)c3ccc(-c4c5nc(c(-c6cc(S(=O)(=O)[O-])ccc6F)c6ccc([nH]6)c(-c6cc(S(=O)(=O)[O-])ccc6F)c6nc(c(-c7cc(S(=O)(=O)[O-])ccc7F)c7ccc4[nH]7)C=C6)C=C5)cc3)cc2)n2ncnc2N1
REMARK SMILES IDX 21 1 20 2 18 3 19 4 17 5 14 6 15 7 90 8 16 9 89 10 13 11
REMARK SMILES IDX 1 12 2 13 3 14 96 15 95 16 91 18 94 19 92 20 93 21 4 22 5 23
REMARK SMILES IDX 6 24 7 26 8 27 12 28 9 29 11 30 10 31 22 32 23 33 24 34
REMARK SMILES IDX 25 35 26 36 27 37 88 38 28 39 87 40 29 41 30 42 31 43 81 44
REMARK SMILES IDX 32 45 86 46 80 47 82 48 33 49 85 50 79 51 78 52 34 54 66 55
REMARK SMILES IDX 46 56 65 57 47 58 50 59 64 60 83 61 48 62 49 63 63 65 84 66
REMARK SMILES IDX 51 67 35 68 36 69 44 70 37 71 43 72 45 73 42 74 38 75 39 76
REMARK SMILES IDX 40 77 41 78 67 79 68 80 76 81 69 82 75 83 77 84 74 85 70 86
REMARK SMILES IDX 71 87 72 88 73 89 52 90 53 91 61 92 54 93 60 94 62 95 59 96
REMARK SMILES IDX 55 97 56 98 57 99 58 100
REMARK H PARENT 96 17 6 25 82 53 50 64
REMARK Flexibility Score: inf
ROOT
ATOM      1  C   UNL A   1      43.132  21.425  25.799  1.00  0.00     0.275 C 
ENDROOT
BRANCH   1   2
ATOM      2  O   UNL A   1      42.942  22.394  24.756  1.00  0.00    -0.458 OA
BRANCH   2   3
ATOM      3  C   UNL A   1      44.073  22.941  24.236  1.00  0.00     0.338 C 
ATOM      4  O   UNL A   1      44.613  22.617  23.187  1.00  0.00    -0.246 OA
BRANCH   3   5
ATOM      5  C   UNL A   1      44.535  24.075  25.079  1.00  0.00     0.060 A 
ATOM      6  C   UNL A   1      45.394  26.295  26.580  1.00  0.00    -0.019 A 
ATOM      7  C   UNL A   1      44.166  26.336  25.908  1.00  0.00     0.007 A 
ATOM      8  C   UNL A   1      46.145  25.101  26.549  1.00  0.00     0.007 A 
ATOM      9  C   UNL A   1      43.745  25.233  25.156  1.00  0.00     0.016 A 
ATOM     10  C   UNL A   1      45.722  24.001  25.808  1.00  0.00     0.016 A 
BRANCH   6  11
ATOM     11  C   UNL A   1      46.026  27.519  27.230  1.00  0.00     0.179 C 
ATOM     12  C   UNL A   1      49.237  29.731  27.142  1.00  0.00     0.065 C 
ATOM     13  C   UNL A   1      48.205  28.694  27.509  1.00  0.00     0.026 C 
ATOM     14  C   UNL A   1      47.338  28.085  26.652  1.00  0.00     0.065 C 
ATOM     15  N   UNL A   1      48.097  28.498  28.883  1.00  0.00    -0.328 N 
ATOM     16  C   UNL A   1      47.094  27.829  29.468  1.00  0.00     0.226 A 
ATOM     17  H   UNL A   1      48.800  28.875  29.459  1.00  0.00     0.169 HD
ATOM     18  N   UNL A   1      46.088  27.334  28.689  1.00  0.00    -0.219 N 
ATOM     19  N   UNL A   1      46.840  27.585  30.728  1.00  0.00    -0.200 NA
ATOM     20  N   UNL A   1      45.088  26.835  29.453  1.00  0.00    -0.157 NA
ATOM     21  C   UNL A   1      45.617  26.970  30.672  1.00  0.00     0.248 A 
BRANCH  14  22
ATOM     22  C   UNL A   1      47.308  28.203  25.163  1.00  0.00     0.255 C 
ATOM     23  O   UNL A   1      46.441  28.928  24.665  1.00  0.00    -0.269 OA
ATOM     24  N   UNL A   1      48.185  27.598  24.311  1.00  0.00    -0.322 N 
ATOM     25  H   UNL A   1      47.906  27.616  23.367  1.00  0.00     0.170 HD
BRANCH  24  26
ATOM     26  C   UNL A   1      49.410  26.954  24.533  1.00  0.00     0.041 A 
ATOM     27  C   UNL A   1      50.483  27.416  23.758  1.00  0.00     0.026 A 
ATOM     28  C   UNL A   1      49.631  25.993  25.516  1.00  0.00     0.026 A 
ATOM     29  C   UNL A   1      51.789  27.040  24.067  1.00  0.00     0.002 A 
ATOM     30  C   UNL A   1      50.941  25.575  25.788  1.00  0.00     0.002 A 
ATOM     31  C   UNL A   1      52.019  26.129  25.093  1.00  0.00     0.000 A 
ENDBRANCH  24  26
ENDBRANCH  14  22
ENDBRANCH   6  11
ENDBRANCH   3   5
ENDBRANCH   2   3
ENDBRANCH   1   2
BRANCH   1  32
ATOM     32  C   UNL A   1      41.856  21.238  26.607  1.00  0.00     0.275 C 
BRANCH  32  33
ATOM     33  O   UNL A   1      41.662  22.311  27.526  1.00  0.00    -0.458 OA
BRANCH  33  34
ATOM     34  C   UNL A   1      40.566  23.068  27.291  1.00  0.00     0.338 C 
ATOM     35  O   UNL A   1      39.495  22.692  26.845  1.00  0.00    -0.246 OA
BRANCH  34  36
ATOM     36  C   UNL A   1      40.929  24.483  27.418  1.00  0.00     0.060 A 
ATOM     37  C   UNL A   1      41.846  24.819  28.420  1.00  0.00     0.016 A 
ATOM     38  C   UNL A   1      40.157  25.454  26.766  1.00  0.00     0.016 A 
ATOM     39  C   UNL A   1      41.864  26.116  28.887  1.00  0.00     0.010 A 
ATOM     40  C   UNL A   1      40.160  26.741  27.247  1.00  0.00     0.010 A 
ATOM     41  C   UNL A   1      40.965  27.042  28.346  1.00  0.00    -0.014 A 
BRANCH  41  42
ATOM     42  C   UNL A   1      40.970  28.393  28.868  1.00  0.00     0.031 A 
ATOM     43  C   UNL A   1      42.075  29.215  28.326  1.00  0.00     0.074 A 
ATOM     44  C   UNL A   1      39.974  28.883  29.629  1.00  0.00     0.049 A 
ATOM     45  N   UNL A   1      43.067  29.738  28.964  1.00  0.00    -0.248 NA
ATOM     46  C   UNL A   1      42.188  29.309  26.860  1.00  0.00     0.031 C 
ATOM     47  C   UNL A   1      38.706  28.231  29.962  1.00  0.00     0.029 A 
ATOM     48  N   UNL A   1      39.834  30.127  30.162  1.00  0.00    -0.354 N 
ATOM     49  C   UNL A   1      43.796  30.434  28.005  1.00  0.00     0.074 A 
ATOM     50  C   UNL A   1      43.350  29.944  26.733  1.00  0.00     0.031 C 
ATOM     51  C   UNL A   1      37.845  29.156  30.444  1.00  0.00     0.029 A 
ATOM     52  C   UNL A   1      38.537  30.430  30.563  1.00  0.00     0.049 A 
ATOM     53  H   UNL A   1      40.585  30.757  30.256  1.00  0.00     0.167 HD
ATOM     54  C   UNL A   1      44.498  31.551  28.338  1.00  0.00     0.034 A 
ATOM     55  C   UNL A   1      38.050  31.655  30.892  1.00  0.00     0.034 A 
ATOM     56  C   UNL A   1      44.752  31.588  29.765  1.00  0.00     0.049 A 
ATOM     57  C   UNL A   1      39.213  32.513  31.231  1.00  0.00     0.074 A 
ATOM     58  C   UNL A   1      45.400  30.749  30.653  1.00  0.00     0.029 A 
ATOM     59  N   UNL A   1      43.981  32.426  30.540  1.00  0.00    -0.354 N 
ATOM     60  N   UNL A   1      39.978  32.309  32.267  1.00  0.00    -0.248 NA
ATOM     61  C   UNL A   1      39.806  33.327  30.180  1.00  0.00     0.031 C 
ATOM     62  C   UNL A   1      44.636  30.815  31.854  1.00  0.00     0.029 A 
ATOM     63  C   UNL A   1      43.603  31.736  31.666  1.00  0.00     0.049 A 
ATOM     64  H   UNL A   1      43.742  33.356  30.326  1.00  0.00     0.167 HD
ATOM     65  C   UNL A   1      41.264  32.581  31.824  1.00  0.00     0.074 A 
ATOM     66  C   UNL A   1      41.082  33.321  30.578  1.00  0.00     0.031 C 
ATOM     67  C   UNL A   1      42.342  31.933  32.357  1.00  0.00     0.034 A 
BRANCH  54  68
ATOM     68  C   UNL A   1      44.570  32.791  27.464  1.00  0.00     0.023 A 
ATOM     69  C   UNL A   1      43.873  33.921  27.929  1.00  0.00     0.031 A 
ATOM     70  C   UNL A   1      44.990  32.853  26.113  1.00  0.00     0.131 A 
ATOM     71  C   UNL A   1      43.478  34.942  27.048  1.00  0.00     0.055 A 
ATOM     72  C   UNL A   1      44.652  33.904  25.256  1.00  0.00     0.041 A 
ATOM     73  F   UNL A   1      45.682  31.881  25.511  1.00  0.00    -0.206 F 
ATOM     74  C   UNL A   1      43.853  34.937  25.710  1.00  0.00     0.022 A 
BRANCH  71  75
ATOM     75  S   UNL A   1      42.286  36.160  27.650  1.00  0.00     0.124 S 
ATOM     76  O   UNL A   1      42.447  37.227  26.669  1.00  0.00    -0.237 OA
ATOM     77  O   UNL A   1      41.037  35.408  27.588  1.00  0.00    -0.237 OA
ATOM     78  O   UNL A   1      42.766  36.466  28.994  1.00  0.00    -0.744 OA
ENDBRANCH  71  75
ENDBRANCH  54  68
BRANCH  55  79
ATOM     79  C   UNL A   1      36.686  32.187  30.627  1.00  0.00     0.023 A 
ATOM     80  C   UNL A   1      35.916  32.836  31.614  1.00  0.00     0.031 A 
ATOM     81  C   UNL A   1      36.209  32.265  29.298  1.00  0.00     0.131 A 
ATOM     82  C   UNL A   1      34.730  33.521  31.256  1.00  0.00     0.055 A 
ATOM     83  C   UNL A   1      35.034  32.934  28.952  1.00  0.00     0.041 A 
ATOM     84  F   UNL A   1      36.919  31.765  28.274  1.00  0.00    -0.206 F 
ATOM     85  C   UNL A   1      34.294  33.575  29.930  1.00  0.00     0.022 A 
BRANCH  82  86
ATOM     86  S   UNL A   1      33.783  34.446  32.508  1.00  0.00     0.124 S 
ATOM     87  O   UNL A   1      34.819  35.244  33.154  1.00  0.00    -0.237 OA
ATOM     88  O   UNL A   1      32.814  35.172  31.696  1.00  0.00    -0.237 OA
ATOM     89  O   UNL A   1      33.208  33.393  33.347  1.00  0.00    -0.744 OA
ENDBRANCH  82  86
ENDBRANCH  55  79
BRANCH  67  90
ATOM     90  C   UNL A   1      42.148  31.190  33.664  1.00  0.00     0.023 A 
ATOM     91  C   UNL A   1      42.007  29.788  33.785  1.00  0.00     0.031 A 
ATOM     92  C   UNL A   1      42.212  31.944  34.849  1.00  0.00     0.131 A 
ATOM     93  C   UNL A   1      41.919  29.197  35.061  1.00  0.00     0.055 A 
ATOM     94  C   UNL A   1      42.147  31.353  36.109  1.00  0.00     0.041 A 
ATOM     95  F   UNL A   1      42.378  33.276  34.800  1.00  0.00    -0.206 F 
ATOM     96  C   UNL A   1      41.992  29.977  36.221  1.00  0.00     0.022 A 
BRANCH  93  97
ATOM     97  S   UNL A   1      41.695  27.397  35.240  1.00  0.00     0.124 S 
ATOM     98  O   UNL A   1      43.033  26.861  35.023  1.00  0.00    -0.237 OA
ATOM     99  O   UNL A   1      41.168  27.278  36.597  1.00  0.00    -0.237 OA
ATOM    100  O   UNL A   1      40.730  27.069  34.187  1.00  0.00    -0.744 OA
ENDBRANCH  93  97
ENDBRANCH  67  90
ENDBRANCH  41  42
ENDBRANCH  34  36
ENDBRANCH  33  34
ENDBRANCH  32  33
ENDBRANCH   1  32
TORSDOF 17
ENDMDL
MODEL 3
REMARK VINA RESULT:     -12.3      2.888      7.971
REMARK SMILES CC1=C(C(=O)Nc2ccccc2)[C@@H](c2ccc(C(=O)OCCOC(=O)c3ccc(-c4c5nc(c(-c6cc(S(=O)(=O)[O-])ccc6F)c6ccc([nH]6)c(-c6cc(S(=O)(=O)[O-])ccc6F)c6nc(c(-c7cc(S(=O)(=O)[O-])ccc7F)c7ccc4[nH]7)C=C6)C=C5)cc3)cc2)n2ncnc2N1
REMARK SMILES IDX 21 1 20 2 18 3 19 4 17 5 14 6 15 7 90 8 16 9 89 10 13 11
REMARK SMILES IDX 1 12 2 13 3 14 96 15 95 16 91 18 94 19 92 20 93 21 4 22 5 23
REMARK SMILES IDX 6 24 7 26 8 27 12 28 9 29 11 30 10 31 22 32 23 33 24 34
REMARK SMILES IDX 25 35 26 36 27 37 88 38 28 39 87 40 29 41 30 42 31 43 81 44
REMARK SMILES IDX 32 45 86 46 80 47 82 48 33 49 85 50 79 51 78 52 34 54 66 55
REMARK SMILES IDX 46 56 65 57 47 58 50 59 64 60 83 61 48 62 49 63 63 65 84 66
REMARK SMILES IDX 51 67 35 68 36 69 44 70 37 71 43 72 45 73 42 74 38 75 39 76
REMARK SMILES IDX 40 77 41 78 67 79 68 80 76 81 69 82 75 83 77 84 74 85 70 86
REMARK SMILES IDX 71 87 72 88 73 89 52 90 53 91 61 92 54 93 60 94 62 95 59 96
REMARK SMILES IDX 55 97 56 98 57 99 58 100
REMARK H PARENT 96 17 6 25 82 53 50 64
REMARK Flexibility Score: inf
ROOT
ATOM      1  C   UNL A   1      34.145  32.602  28.312  1.00  0.00     0.275 C 
ENDROOT
BRANCH   1   2
ATOM      2  O   UNL A   1      33.660  31.271  28.074  1.00  0.00    -0.458 OA
BRANCH   2   3
ATOM      3  C   UNL A   1      34.551  30.397  27.536  1.00  0.00     0.338 C 
ATOM      4  O   UNL A   1      35.769  30.503  27.562  1.00  0.00    -0.246 OA
BRANCH   3   5
ATOM      5  C   UNL A   1      33.844  29.216  26.975  1.00  0.00     0.060 A 
ATOM      6  C   UNL A   1      32.548  27.010  25.803  1.00  0.00    -0.019 A 
ATOM      7  C   UNL A   1      33.918  27.210  25.593  1.00  0.00     0.007 A 
ATOM      8  C   UNL A   1      31.858  27.887  26.667  1.00  0.00     0.007 A 
ATOM      9  C   UNL A   1      34.558  28.313  26.172  1.00  0.00     0.016 A 
ATOM     10  C   UNL A   1      32.497  28.978  27.249  1.00  0.00     0.016 A 
BRANCH   6  11
ATOM     11  C   UNL A   1      31.733  25.975  25.037  1.00  0.00     0.179 C 
ATOM     12  C   UNL A   1      31.754  22.225  23.967  1.00  0.00     0.065 C 
ATOM     13  C   UNL A   1      31.904  23.726  23.980  1.00  0.00     0.026 C 
ATOM     14  C   UNL A   1      32.169  24.497  25.072  1.00  0.00     0.065 C 
ATOM     15  N   UNL A   1      31.591  24.313  22.757  1.00  0.00    -0.328 N 
ATOM     16  C   UNL A   1      31.401  25.629  22.584  1.00  0.00     0.226 A 
ATOM     17  H   UNL A   1      31.504  23.726  21.972  1.00  0.00     0.169 HD
ATOM     18  N   UNL A   1      31.479  26.455  23.668  1.00  0.00    -0.219 N 
ATOM     19  N   UNL A   1      31.082  26.321  21.521  1.00  0.00    -0.200 NA
ATOM     20  N   UNL A   1      31.104  27.714  23.342  1.00  0.00    -0.157 NA
ATOM     21  C   UNL A   1      30.922  27.585  22.025  1.00  0.00     0.248 A 
BRANCH  14  22
ATOM     22  C   UNL A   1      32.502  24.028  26.450  1.00  0.00     0.255 C 
ATOM     23  O   UNL A   1      31.609  24.078  27.302  1.00  0.00    -0.269 OA
ATOM     24  N   UNL A   1      33.707  23.516  26.833  1.00  0.00    -0.322 N 
ATOM     25  H   UNL A   1      33.821  23.444  27.809  1.00  0.00     0.170 HD
BRANCH  24  26
ATOM     26  C   UNL A   1      34.813  23.075  26.095  1.00  0.00     0.041 A 
ATOM     27  C   UNL A   1      34.908  21.687  25.921  1.00  0.00     0.026 A 
ATOM     28  C   UNL A   1      35.726  23.914  25.461  1.00  0.00     0.026 A 
ATOM     29  C   UNL A   1      35.806  21.151  25.000  1.00  0.00     0.002 A 
ATOM     30  C   UNL A   1      36.664  23.367  24.575  1.00  0.00     0.002 A 
ATOM     31  C   UNL A   1      36.676  21.995  24.315  1.00  0.00     0.000 A 
ENDBRANCH  24  26
ENDBRANCH  14  22
ENDBRANCH   6  11
ENDBRANCH   3   5
ENDBRANCH   2   3
ENDBRANCH   1   2
BRANCH   1  32
ATOM     32  C   UNL A   1      34.402  32.832  29.793  1.00  0.00     0.275 C 
BRANCH  32  33
ATOM     33  O   UNL A   1      35.776  32.629  30.119  1.00  0.00    -0.458 OA
BRANCH  33  34
ATOM     34  C   UNL A   1      36.011  31.607  30.973  1.00  0.00     0.338 C 
ATOM     35  O   UNL A   1      35.536  31.454  32.086  1.00  0.00    -0.246 OA
BRANCH  34  36
ATOM     36  C   UNL A   1      37.134  30.812  30.466  1.00  0.00     0.060 A 
ATOM     37  C   UNL A   1      37.031  29.421  30.575  1.00  0.00     0.016 A 
ATOM     38  C   UNL A   1      38.351  31.444  30.177  1.00  0.00     0.016 A 
ATOM     39  C   UNL A   1      38.190  28.674  30.562  1.00  0.00     0.010 A 
ATOM     40  C   UNL A   1      39.506  30.700  30.187  1.00  0.00     0.010 A 
ATOM     41  C   UNL A   1      39.419  29.333  30.446  1.00  0.00    -0.014 A 
BRANCH  41  42
ATOM     42  C   UNL A   1      40.630  28.539  30.468  1.00  0.00     0.031 A 
ATOM     43  C   UNL A   1      41.166  28.343  31.833  1.00  0.00     0.074 A 
ATOM     44  C   UNL A   1      41.109  27.913  29.377  1.00  0.00     0.049 A 
ATOM     45  N   UNL A   1      42.290  28.754  32.316  1.00  0.00    -0.248 NA
ATOM     46  C   UNL A   1      40.252  27.776  32.840  1.00  0.00     0.031 C 
ATOM     47  C   UNL A   1      40.478  27.814  28.059  1.00  0.00     0.029 A 
ATOM     48  N   UNL A   1      42.209  27.122  29.255  1.00  0.00    -0.354 N 
ATOM     49  C   UNL A   1      42.324  28.281  33.623  1.00  0.00     0.074 A 
ATOM     50  C   UNL A   1      40.977  27.908  33.947  1.00  0.00     0.031 C 
ATOM     51  C   UNL A   1      41.085  26.836  27.349  1.00  0.00     0.029 A 
ATOM     52  C   UNL A   1      42.214  26.329  28.113  1.00  0.00     0.049 A 
ATOM     53  H   UNL A   1      42.938  27.112  29.917  1.00  0.00     0.167 HD
ATOM     54  C   UNL A   1      43.506  27.977  34.225  1.00  0.00     0.034 A 
ATOM     55  C   UNL A   1      43.038  25.280  27.851  1.00  0.00     0.034 A 
ATOM     56  C   UNL A   1      44.606  28.636  33.550  1.00  0.00     0.049 A 
ATOM     57  C   UNL A   1      44.225  25.425  28.729  1.00  0.00     0.074 A 
ATOM     58  C   UNL A   1      44.924  29.954  33.281  1.00  0.00     0.029 A 
ATOM     59  N   UNL A   1      45.394  27.885  32.705  1.00  0.00    -0.354 N 
ATOM     60  N   UNL A   1      45.087  26.398  28.616  1.00  0.00    -0.248 NA
ATOM     61  C   UNL A   1      44.222  24.754  30.021  1.00  0.00     0.031 C 
ATOM     62  C   UNL A   1      45.524  29.939  31.988  1.00  0.00     0.029 A 
ATOM     63  C   UNL A   1      45.604  28.612  31.559  1.00  0.00     0.049 A 
ATOM     64  H   UNL A   1      45.745  26.983  32.889  1.00  0.00     0.167 HD
ATOM     65  C   UNL A   1      45.410  26.745  29.920  1.00  0.00     0.074 A 
ATOM     66  C   UNL A   1      44.949  25.623  30.732  1.00  0.00     0.031 C 
ATOM     67  C   UNL A   1      45.756  28.027  30.239  1.00  0.00     0.034 A 
BRANCH  54  68
ATOM     68  C   UNL A   1      43.706  26.769  35.124  1.00  0.00     0.023 A 
ATOM     69  C   UNL A   1      44.146  27.034  36.432  1.00  0.00     0.031 A 
ATOM     70  C   UNL A   1      43.797  25.416  34.717  1.00  0.00     0.131 A 
ATOM     71  C   UNL A   1      44.792  26.046  37.194  1.00  0.00     0.055 A 
ATOM     72  C   UNL A   1      44.380  24.420  35.506  1.00  0.00     0.041 A 
ATOM     73  F   UNL A   1      43.405  24.978  33.517  1.00  0.00    -0.206 F 
ATOM     74  C   UNL A   1      44.923  24.741  36.736  1.00  0.00     0.022 A 
BRANCH  71  75
ATOM     75  S   UNL A   1      45.641  26.565  38.703  1.00  0.00     0.124 S 
ATOM     76  O   UNL A   1      44.528  27.070  39.500  1.00  0.00    -0.237 OA
ATOM     77  O   UNL A   1      46.242  25.313  39.152  1.00  0.00    -0.237 OA
ATOM     78  O   UNL A   1      46.583  27.576  38.229  1.00  0.00    -0.744 OA
ENDBRANCH  71  75
ENDBRANCH  54  68
BRANCH  55  79
ATOM     79  C   UNL A   1      42.702  24.026  27.124  1.00  0.00     0.023 A 
ATOM     80  C   UNL A   1      43.602  23.392  26.242  1.00  0.00     0.031 A 
ATOM     81  C   UNL A   1      41.543  23.298  27.478  1.00  0.00     0.131 A 
ATOM     82  C   UNL A   1      43.326  22.091  25.757  1.00  0.00     0.055 A 
ATOM     83  C   UNL A   1      41.271  22.019  26.989  1.00  0.00     0.041 A 
ATOM     84  F   UNL A   1      40.674  23.772  28.386  1.00  0.00    -0.206 F 
ATOM     85  C   UNL A   1      42.168  21.405  26.132  1.00  0.00     0.022 A 
BRANCH  82  86
ATOM     86  S   UNL A   1      44.529  21.225  24.697  1.00  0.00     0.124 S 
ATOM     87  O   UNL A   1      43.943  19.895  24.584  1.00  0.00    -0.237 OA
ATOM     88  O   UNL A   1      44.528  22.041  23.489  1.00  0.00    -0.237 OA
ATOM     89  O   UNL A   1      45.770  21.285  25.472  1.00  0.00    -0.744 OA
ENDBRANCH  82  86
ENDBRANCH  55  79
BRANCH  67  90
ATOM     90  C   UNL A   1      46.124  28.966  29.108  1.00  0.00     0.023 A 
ATOM     91  C   UNL A   1      45.213  29.799  28.417  1.00  0.00     0.031 A 
ATOM     92  C   UNL A   1      47.488  29.087  28.789  1.00  0.00     0.131 A 
ATOM     93  C   UNL A   1      45.682  30.697  27.438  1.00  0.00     0.055 A 
ATOM     94  C   UNL A   1      47.951  29.992  27.835  1.00  0.00     0.041 A 
ATOM     95  F   UNL A   1      48.406  28.346  29.432  1.00  0.00    -0.206 F 
ATOM     96  C   UNL A   1      47.048  30.796  27.150  1.00  0.00     0.022 A 
BRANCH  93  97
ATOM     97  S   UNL A   1      44.522  31.750  26.508  1.00  0.00     0.124 S 
ATOM     98  O   UNL A   1      44.149  32.782  27.468  1.00  0.00    -0.237 OA
ATOM     99  O   UNL A   1      45.333  32.189  25.376  1.00  0.00    -0.237 OA
ATOM    100  O   UNL A   1      43.439  30.830  26.153  1.00  0.00    -0.744 OA
ENDBRANCH  93  97
ENDBRANCH  67  90
ENDBRANCH  41  42
ENDBRANCH  34  36
ENDBRANCH  33  34
ENDBRANCH  32  33
ENDBRANCH   1  32
TORSDOF 17
ENDMDL
