MODEL 1
REMARK VINA RESULT:     -11.0      0.000      0.000
REMARK SMILES CC(C)n1ccc(C#CC(=O)OCCOC(=O)c2ccc(-c3c4nc(c(-c5cc(S(=O)(=O)[O-])ccc5F)c5ccc([nH]5)c(-c5cc(S(=O)(=O)[O-])ccc5F)c5nc(c(-c6cc(S(=O)(=O)[O-])ccc6F)c6ccc3[nH]6)C=C5)C=C4)cc2)n1
REMARK SMILES IDX 14 1 13 2 12 3 10 4 11 5 9 6 8 7 7 8 4 9 5 10 81 11 6 12
REMARK SMILES IDX 2 13 1 14 3 15 15 16 16 17 17 18 18 19 19 20 80 21 20 22
REMARK SMILES IDX 79 23 21 24 22 25 23 26 73 27 24 28 78 29 72 30 74 31 25 32
REMARK SMILES IDX 77 33 71 34 70 35 26 37 58 38 38 39 57 40 39 41 42 42 56 43
REMARK SMILES IDX 75 44 40 45 41 46 55 48 76 49 43 50 27 51 28 52 36 53 29 54
REMARK SMILES IDX 35 55 37 56 34 57 30 58 31 59 32 60 33 61 59 62 60 63 68 64
REMARK SMILES IDX 61 65 67 66 69 67 66 68 62 69 63 70 64 71 65 72 44 73 45 74
REMARK SMILES IDX 53 75 46 76 52 77 54 78 51 79 47 80 48 81 49 82 50 83
REMARK H PARENT 74 36 42 47
REMARK Flexibility Score: inf
ROOT
ATOM      1  C   UNL A   1      43.384  18.281  25.772  1.00  0.00     0.275 C 
ENDROOT
BRANCH   1   2
ATOM      2  C   UNL A   1      44.873  18.451  25.508  1.00  0.00     0.275 C 
BRANCH   2   3
ATOM      3  O   UNL A   1      45.120  19.486  24.544  1.00  0.00    -0.452 OA
BRANCH   3   4
ATOM      4  C   UNL A   1      46.327  20.108  24.649  1.00  0.00     0.384 C 
ATOM      5  O   UNL A   1      47.422  19.564  24.651  1.00  0.00    -0.236 OA
BRANCH   4   6
ATOM      6  C   UNL A   1      46.210  21.534  24.713  1.00  0.00     0.024 C 
ATOM      7  C   UNL A   1      46.170  22.741  24.798  1.00  0.00    -0.033 C 
BRANCH   7   8
ATOM      8  C   UNL A   1      46.121  24.153  24.899  1.00  0.00     0.135 A 
ATOM      9  N   UNL A   1      46.781  26.142  24.660  1.00  0.00    -0.269 N 
ATOM     10  C   UNL A   1      45.640  26.240  25.409  1.00  0.00     0.110 A 
ATOM     11  N   UNL A   1      47.105  24.870  24.350  1.00  0.00    -0.164 NA
ATOM     12  C   UNL A   1      45.174  24.953  25.562  1.00  0.00     0.059 A 
BRANCH   9  13
ATOM     13  C   UNL A   1      47.651  27.242  24.260  1.00  0.00     0.101 C 
ATOM     14  C   UNL A   1      48.885  26.735  23.511  1.00  0.00     0.033 C 
ATOM     15  C   UNL A   1      46.898  28.291  23.445  1.00  0.00     0.033 C 
ENDBRANCH   9  13
ENDBRANCH   7   8
ENDBRANCH   4   6
ENDBRANCH   3   4
ENDBRANCH   2   3
ENDBRANCH   1   2
BRANCH   1  16
ATOM     16  O   UNL A   1      42.636  19.408  25.312  1.00  0.00    -0.458 OA
BRANCH  16  17
ATOM     17  C   UNL A   1      41.437  19.565  25.924  1.00  0.00     0.338 C 
ATOM     18  O   UNL A   1      40.496  18.789  25.900  1.00  0.00    -0.246 OA
BRANCH  17  19
ATOM     19  C   UNL A   1      41.308  20.947  26.389  1.00  0.00     0.060 A 
ATOM     20  C   UNL A   1      41.945  21.948  25.646  1.00  0.00     0.016 A 
ATOM     21  C   UNL A   1      40.868  21.164  27.700  1.00  0.00     0.016 A 
ATOM     22  C   UNL A   1      42.285  23.126  26.280  1.00  0.00     0.010 A 
ATOM     23  C   UNL A   1      41.258  22.310  28.342  1.00  0.00     0.010 A 
ATOM     24  C   UNL A   1      42.009  23.257  27.644  1.00  0.00    -0.014 A 
BRANCH  24  25
ATOM     25  C   UNL A   1      42.289  24.512  28.319  1.00  0.00     0.031 A 
ATOM     26  C   UNL A   1      41.283  25.542  27.945  1.00  0.00     0.074 A 
ATOM     27  C   UNL A   1      43.209  24.605  29.303  1.00  0.00     0.049 A 
ATOM     28  N   UNL A   1      41.465  26.600  27.225  1.00  0.00    -0.248 NA
ATOM     29  C   UNL A   1      39.854  25.216  28.152  1.00  0.00     0.031 C 
ATOM     30  C   UNL A   1      44.039  23.532  29.858  1.00  0.00     0.029 A 
ATOM     31  N   UNL A   1      43.528  25.659  30.103  1.00  0.00    -0.354 N 
ATOM     32  C   UNL A   1      40.216  27.213  27.170  1.00  0.00     0.074 A 
ATOM     33  C   UNL A   1      39.266  26.182  27.449  1.00  0.00     0.031 C 
ATOM     34  C   UNL A   1      44.574  23.935  31.035  1.00  0.00     0.029 A 
ATOM     35  C   UNL A   1      44.216  25.325  31.274  1.00  0.00     0.049 A 
ATOM     36  H   UNL A   1      43.292  26.587  29.873  1.00  0.00     0.167 HD
ATOM     37  C   UNL A   1      40.107  28.565  27.295  1.00  0.00     0.034 A 
ATOM     38  C   UNL A   1      44.397  26.114  32.377  1.00  0.00     0.034 A 
ATOM     39  C   UNL A   1      41.378  29.194  26.989  1.00  0.00     0.049 A 
ATOM     40  C   UNL A   1      44.146  27.514  31.934  1.00  0.00     0.074 A 
ATOM     41  C   UNL A   1      42.225  29.163  25.896  1.00  0.00     0.029 A 
ATOM     42  N   UNL A   1      42.150  29.643  28.041  1.00  0.00    -0.354 N 
ATOM     43  N   UNL A   1      44.915  28.138  31.084  1.00  0.00    -0.248 NA
ATOM     44  C   UNL A   1      42.775  28.002  32.000  1.00  0.00     0.031 C 
ATOM     45  C   UNL A   1      43.538  29.108  26.448  1.00  0.00     0.029 A 
ATOM     46  C   UNL A   1      43.444  29.234  27.834  1.00  0.00     0.049 A 
ATOM     47  H   UNL A   1      41.827  30.167  28.810  1.00  0.00     0.167 HD
ATOM     48  C   UNL A   1      44.044  28.769  30.207  1.00  0.00     0.074 A 
ATOM     49  C   UNL A   1      42.737  28.707  30.864  1.00  0.00     0.031 C 
ATOM     50  C   UNL A   1      44.396  29.000  28.906  1.00  0.00     0.034 A 
BRANCH  37  51
ATOM     51  C   UNL A   1      39.039  29.247  28.143  1.00  0.00     0.023 A 
ATOM     52  C   UNL A   1      39.183  29.113  29.534  1.00  0.00     0.031 A 
ATOM     53  C   UNL A   1      37.781  29.736  27.715  1.00  0.00     0.131 A 
ATOM     54  C   UNL A   1      38.086  29.266  30.397  1.00  0.00     0.055 A 
ATOM     55  C   UNL A   1      36.706  29.943  28.585  1.00  0.00     0.041 A 
ATOM     56  F   UNL A   1      37.479  29.997  26.440  1.00  0.00    -0.206 F 
ATOM     57  C   UNL A   1      36.840  29.665  29.930  1.00  0.00     0.022 A 
BRANCH  54  58
ATOM     58  S   UNL A   1      38.285  28.729  32.110  1.00  0.00     0.124 S 
ATOM     59  O   UNL A   1      39.421  29.542  32.529  1.00  0.00    -0.237 OA
ATOM     60  O   UNL A   1      36.990  29.083  32.682  1.00  0.00    -0.237 OA
ATOM     61  O   UNL A   1      38.543  27.297  31.986  1.00  0.00    -0.744 OA
ENDBRANCH  54  58
ENDBRANCH  37  51
BRANCH  38  62
ATOM     62  C   UNL A   1      44.399  25.707  33.823  1.00  0.00     0.023 A 
ATOM     63  C   UNL A   1      43.385  26.064  34.751  1.00  0.00     0.031 A 
ATOM     64  C   UNL A   1      45.314  24.721  34.258  1.00  0.00     0.131 A 
ATOM     65  C   UNL A   1      43.329  25.450  36.033  1.00  0.00     0.055 A 
ATOM     66  C   UNL A   1      45.252  24.119  35.518  1.00  0.00     0.041 A 
ATOM     67  F   UNL A   1      46.261  24.239  33.439  1.00  0.00    -0.206 F 
ATOM     68  C   UNL A   1      44.253  24.473  36.407  1.00  0.00     0.022 A 
BRANCH  65  69
ATOM     69  S   UNL A   1      42.006  25.849  37.232  1.00  0.00     0.124 S 
ATOM     70  O   UNL A   1      41.365  27.006  36.620  1.00  0.00    -0.237 OA
ATOM     71  O   UNL A   1      41.226  24.618  37.269  1.00  0.00    -0.237 OA
ATOM     72  O   UNL A   1      42.738  26.141  38.468  1.00  0.00    -0.744 OA
ENDBRANCH  65  69
ENDBRANCH  38  62
BRANCH  50  73
ATOM     73  C   UNL A   1      45.853  28.846  28.508  1.00  0.00     0.023 A 
ATOM     74  C   UNL A   1      46.621  27.662  28.621  1.00  0.00     0.031 A 
ATOM     75  C   UNL A   1      46.450  29.949  27.875  1.00  0.00     0.131 A 
ATOM     76  C   UNL A   1      47.940  27.629  28.120  1.00  0.00     0.055 A 
ATOM     77  C   UNL A   1      47.742  29.904  27.356  1.00  0.00     0.041 A 
ATOM     78  F   UNL A   1      45.767  31.096  27.716  1.00  0.00    -0.206 F 
ATOM     79  C   UNL A   1      48.496  28.744  27.484  1.00  0.00     0.022 A 
BRANCH  76  80
ATOM     80  S   UNL A   1      48.985  26.147  28.314  1.00  0.00     0.124 S 
ATOM     81  O   UNL A   1      48.989  25.552  26.983  1.00  0.00    -0.237 OA
ATOM     82  O   UNL A   1      50.255  26.713  28.764  1.00  0.00    -0.237 OA
ATOM     83  O   UNL A   1      48.278  25.364  29.329  1.00  0.00    -0.744 OA
ENDBRANCH  76  80
ENDBRANCH  50  73
ENDBRANCH  24  25
ENDBRANCH  17  19
ENDBRANCH  16  17
ENDBRANCH   1  16
TORSDOF 16
ENDMDL
MODEL 2
REMARK VINA RESULT:     -10.5      3.076      7.293
REMARK SMILES CC(C)n1ccc(C#CC(=O)OCCOC(=O)c2ccc(-c3c4nc(c(-c5cc(S(=O)(=O)[O-])ccc5F)c5ccc([nH]5)c(-c5cc(S(=O)(=O)[O-])ccc5F)c5nc(c(-c6cc(S(=O)(=O)[O-])ccc6F)c6ccc3[nH]6)C=C5)C=C4)cc2)n1
REMARK SMILES IDX 14 1 13 2 12 3 10 4 11 5 9 6 8 7 7 8 4 9 5 10 81 11 6 12
REMARK SMILES IDX 2 13 1 14 3 15 15 16 16 17 17 18 18 19 19 20 80 21 20 22
REMARK SMILES IDX 79 23 21 24 22 25 23 26 73 27 24 28 78 29 72 30 74 31 25 32
REMARK SMILES IDX 77 33 71 34 70 35 26 37 58 38 38 39 57 40 39 41 42 42 56 43
REMARK SMILES IDX 75 44 40 45 41 46 55 48 76 49 43 50 27 51 28 52 36 53 29 54
REMARK SMILES IDX 35 55 37 56 34 57 30 58 31 59 32 60 33 61 59 62 60 63 68 64
REMARK SMILES IDX 61 65 67 66 69 67 66 68 62 69 63 70 64 71 65 72 44 73 45 74
REMARK SMILES IDX 53 75 46 76 52 77 54 78 51 79 47 80 48 81 49 82 50 83
REMARK H PARENT 74 36 42 47
REMARK Flexibility Score: inf
ROOT
ATOM      1  C   UNL A   1      41.165  20.051  27.039  1.00  0.00     0.275 C 
ENDROOT
BRANCH   1   2
ATOM      2  C   UNL A   1      42.232  19.081  26.551  1.00  0.00     0.275 C 
BRANCH   2   3
ATOM      3  O   UNL A   1      42.605  19.352  25.192  1.00  0.00    -0.452 OA
BRANCH   3   4
ATOM      4  C   UNL A   1      43.933  19.230  24.913  1.00  0.00     0.384 C 
ATOM      5  O   UNL A   1      44.492  18.228  24.490  1.00  0.00    -0.236 OA
BRANCH   4   6
ATOM      6  C   UNL A   1      44.656  20.448  25.124  1.00  0.00     0.024 C 
ATOM      7  C   UNL A   1      45.216  21.500  25.338  1.00  0.00    -0.033 C 
BRANCH   7   8
ATOM      8  C   UNL A   1      45.871  22.731  25.585  1.00  0.00     0.135 A 
ATOM      9  N   UNL A   1      46.667  24.313  26.731  1.00  0.00    -0.269 N 
ATOM     10  C   UNL A   1      46.810  24.716  25.431  1.00  0.00     0.110 A 
ATOM     11  N   UNL A   1      46.079  23.105  26.850  1.00  0.00    -0.164 NA
ATOM     12  C   UNL A   1      46.316  23.690  24.658  1.00  0.00     0.059 A 
BRANCH   9  13
ATOM     13  C   UNL A   1      47.022  25.079  27.920  1.00  0.00     0.101 C 
ATOM     14  C   UNL A   1      47.478  26.493  27.559  1.00  0.00     0.033 C 
ATOM     15  C   UNL A   1      45.884  25.105  28.937  1.00  0.00     0.033 C 
ENDBRANCH   9  13
ENDBRANCH   7   8
ENDBRANCH   4   6
ENDBRANCH   3   4
ENDBRANCH   2   3
ENDBRANCH   1   2
BRANCH   1  16
ATOM     16  O   UNL A   1      41.239  21.303  26.354  1.00  0.00    -0.458 OA
BRANCH  16  17
ATOM     17  C   UNL A   1      40.233  22.159  26.652  1.00  0.00     0.338 C 
ATOM     18  O   UNL A   1      39.038  21.968  26.492  1.00  0.00    -0.246 OA
BRANCH  17  19
ATOM     19  C   UNL A   1      40.790  23.484  26.929  1.00  0.00     0.060 A 
ATOM     20  C   UNL A   1      41.864  23.566  27.823  1.00  0.00     0.016 A 
ATOM     21  C   UNL A   1      40.030  24.606  26.578  1.00  0.00     0.016 A 
ATOM     22  C   UNL A   1      42.078  24.755  28.491  1.00  0.00     0.010 A 
ATOM     23  C   UNL A   1      40.208  25.767  27.285  1.00  0.00     0.010 A 
ATOM     24  C   UNL A   1      41.193  25.815  28.273  1.00  0.00    -0.014 A 
BRANCH  24  25
ATOM     25  C   UNL A   1      41.436  27.099  28.906  1.00  0.00     0.031 A 
ATOM     26  C   UNL A   1      42.620  27.764  28.300  1.00  0.00     0.074 A 
ATOM     27  C   UNL A   1      40.548  27.654  29.760  1.00  0.00     0.049 A 
ATOM     28  N   UNL A   1      43.774  27.973  28.845  1.00  0.00    -0.248 NA
ATOM     29  C   UNL A   1      42.622  27.966  26.834  1.00  0.00     0.031 C 
ATOM     30  C   UNL A   1      39.250  27.119  30.176  1.00  0.00     0.029 A 
ATOM     31  N   UNL A   1      40.563  28.876  30.360  1.00  0.00    -0.354 N 
ATOM     32  C   UNL A   1      44.521  28.615  27.861  1.00  0.00     0.074 A 
ATOM     33  C   UNL A   1      43.899  28.277  26.619  1.00  0.00     0.031 C 
ATOM     34  C   UNL A   1      38.519  28.101  30.756  1.00  0.00     0.029 A 
ATOM     35  C   UNL A   1      39.325  29.308  30.849  1.00  0.00     0.049 A 
ATOM     36  H   UNL A   1      41.383  29.414  30.444  1.00  0.00     0.167 HD
ATOM     37  C   UNL A   1      45.324  29.667  28.183  1.00  0.00     0.034 A 
ATOM     38  C   UNL A   1      38.985  30.580  31.219  1.00  0.00     0.034 A 
ATOM     39  C   UNL A   1      45.627  29.641  29.602  1.00  0.00     0.049 A 
ATOM     40  C   UNL A   1      40.265  31.304  31.450  1.00  0.00     0.074 A 
ATOM     41  C   UNL A   1      46.187  28.699  30.445  1.00  0.00     0.029 A 
ATOM     42  N   UNL A   1      44.957  30.522  30.425  1.00  0.00    -0.354 N 
ATOM     43  N   UNL A   1      41.088  31.002  32.417  1.00  0.00    -0.248 NA
ATOM     44  C   UNL A   1      40.876  31.967  30.304  1.00  0.00     0.031 C 
ATOM     45  C   UNL A   1      45.420  28.775  31.645  1.00  0.00     0.029 A 
ATOM     46  C   UNL A   1      44.519  29.834  31.529  1.00  0.00     0.049 A 
ATOM     47  H   UNL A   1      44.816  31.481  30.250  1.00  0.00     0.167 HD
ATOM     48  C   UNL A   1      42.348  31.017  31.836  1.00  0.00     0.074 A 
ATOM     49  C   UNL A   1      42.161  31.687  30.547  1.00  0.00     0.031 C 
ATOM     50  C   UNL A   1      43.351  30.215  32.305  1.00  0.00     0.034 A 
BRANCH  37  51
ATOM     51  C   UNL A   1      45.415  30.941  27.350  1.00  0.00     0.023 A 
ATOM     52  C   UNL A   1      46.712  31.353  27.001  1.00  0.00     0.031 A 
ATOM     53  C   UNL A   1      44.401  31.908  27.140  1.00  0.00     0.131 A 
ATOM     54  C   UNL A   1      46.984  32.689  26.664  1.00  0.00     0.055 A 
ATOM     55  C   UNL A   1      44.670  33.223  26.747  1.00  0.00     0.041 A 
ATOM     56  F   UNL A   1      43.101  31.679  27.345  1.00  0.00    -0.206 F 
ATOM     57  C   UNL A   1      45.972  33.635  26.550  1.00  0.00     0.022 A 
BRANCH  54  58
ATOM     58  S   UNL A   1      48.716  33.198  26.581  1.00  0.00     0.124 S 
ATOM     59  O   UNL A   1      49.385  31.904  26.493  1.00  0.00    -0.237 OA
ATOM     60  O   UNL A   1      48.725  34.015  25.373  1.00  0.00    -0.237 OA
ATOM     61  O   UNL A   1      48.911  33.927  27.831  1.00  0.00    -0.744 OA
ENDBRANCH  54  58
ENDBRANCH  37  51
BRANCH  38  62
ATOM     62  C   UNL A   1      37.675  31.288  31.022  1.00  0.00     0.023 A 
ATOM     63  C   UNL A   1      36.920  31.872  32.074  1.00  0.00     0.031 A 
ATOM     64  C   UNL A   1      37.260  31.614  29.710  1.00  0.00     0.131 A 
ATOM     65  C   UNL A   1      35.818  32.725  31.786  1.00  0.00     0.055 A 
ATOM     66  C   UNL A   1      36.179  32.456  29.434  1.00  0.00     0.041 A 
ATOM     67  F   UNL A   1      37.948  31.194  28.638  1.00  0.00    -0.206 F 
ATOM     68  C   UNL A   1      35.459  33.023  30.471  1.00  0.00     0.022 A 
BRANCH  65  69
ATOM     69  S   UNL A   1      34.858  33.536  33.116  1.00  0.00     0.124 S 
ATOM     70  O   UNL A   1      35.098  34.950  32.859  1.00  0.00    -0.237 OA
ATOM     71  O   UNL A   1      33.505  33.051  32.874  1.00  0.00    -0.237 OA
ATOM     72  O   UNL A   1      35.474  33.027  34.345  1.00  0.00    -0.744 OA
ENDBRANCH  65  69
ENDBRANCH  38  62
BRANCH  50  73
ATOM     73  C   UNL A   1      43.173  29.541  33.653  1.00  0.00     0.023 A 
ATOM     74  C   UNL A   1      42.760  28.203  33.863  1.00  0.00     0.031 A 
ATOM     75  C   UNL A   1      43.557  30.286  34.782  1.00  0.00     0.131 A 
ATOM     76  C   UNL A   1      42.732  27.672  35.170  1.00  0.00     0.055 A 
ATOM     77  C   UNL A   1      43.555  29.749  36.067  1.00  0.00     0.041 A 
ATOM     78  F   UNL A   1      43.981  31.554  34.649  1.00  0.00    -0.206 F 
ATOM     79  C   UNL A   1      43.134  28.441  36.267  1.00  0.00     0.022 A 
BRANCH  76  80
ATOM     80  S   UNL A   1      42.135  25.978  35.487  1.00  0.00     0.124 S 
ATOM     81  O   UNL A   1      42.899  25.163  34.550  1.00  0.00    -0.237 OA
ATOM     82  O   UNL A   1      42.449  25.792  36.901  1.00  0.00    -0.237 OA
ATOM     83  O   UNL A   1      40.703  26.062  35.191  1.00  0.00    -0.744 OA
ENDBRANCH  76  80
ENDBRANCH  50  73
ENDBRANCH  24  25
ENDBRANCH  17  19
ENDBRANCH  16  17
ENDBRANCH   1  16
TORSDOF 16
ENDMDL
MODEL 3
REMARK VINA RESULT:     -10.4      1.773      2.187
REMARK SMILES CC(C)n1ccc(C#CC(=O)OCCOC(=O)c2ccc(-c3c4nc(c(-c5cc(S(=O)(=O)[O-])ccc5F)c5ccc([nH]5)c(-c5cc(S(=O)(=O)[O-])ccc5F)c5nc(c(-c6cc(S(=O)(=O)[O-])ccc6F)c6ccc3[nH]6)C=C5)C=C4)cc2)n1
REMARK SMILES IDX 14 1 13 2 12 3 10 4 11 5 9 6 8 7 7 8 4 9 5 10 81 11 6 12
REMARK SMILES IDX 2 13 1 14 3 15 15 16 16 17 17 18 18 19 19 20 80 21 20 22
REMARK SMILES IDX 79 23 21 24 22 25 23 26 73 27 24 28 78 29 72 30 74 31 25 32
REMARK SMILES IDX 77 33 71 34 70 35 26 37 58 38 38 39 57 40 39 41 42 42 56 43
REMARK SMILES IDX 75 44 40 45 41 46 55 48 76 49 43 50 27 51 28 52 36 53 29 54
REMARK SMILES IDX 35 55 37 56 34 57 30 58 31 59 32 60 33 61 59 62 60 63 68 64
REMARK SMILES IDX 61 65 67 66 69 67 66 68 62 69 63 70 64 71 65 72 44 73 45 74
REMARK SMILES IDX 53 75 46 76 52 77 54 78 51 79 47 80 48 81 49 82 50 83
REMARK H PARENT 74 36 42 47
REMARK Flexibility Score: inf
ROOT
ATOM      1  C   UNL A   1      43.171  18.446  25.938  1.00  0.00     0.275 C 
ENDROOT
BRANCH   1   2
ATOM      2  C   UNL A   1      44.656  18.561  25.621  1.00  0.00     0.275 C 
BRANCH   2   3
ATOM      3  O   UNL A   1      44.906  19.593  24.656  1.00  0.00    -0.452 OA
BRANCH   3   4
ATOM      4  C   UNL A   1      46.118  20.207  24.756  1.00  0.00     0.384 C 
ATOM      5  O   UNL A   1      47.206  19.651  24.821  1.00  0.00    -0.236 OA
BRANCH   4   6
ATOM      6  C   UNL A   1      46.019  21.636  24.733  1.00  0.00     0.024 C 
ATOM      7  C   UNL A   1      45.962  22.844  24.774  1.00  0.00    -0.033 C 
BRANCH   7   8
ATOM      8  C   UNL A   1      45.892  24.258  24.821  1.00  0.00     0.135 A 
ATOM      9  N   UNL A   1      46.588  26.244  24.670  1.00  0.00    -0.269 N 
ATOM     10  C   UNL A   1      45.314  26.355  25.156  1.00  0.00     0.110 A 
ATOM     11  N   UNL A   1      46.970  24.966  24.472  1.00  0.00    -0.164 NA
ATOM     12  C   UNL A   1      44.826  25.071  25.245  1.00  0.00     0.059 A 
BRANCH   9  13
ATOM     13  C   UNL A   1      47.523  27.337  24.431  1.00  0.00     0.101 C 
ATOM     14  C   UNL A   1      47.131  28.590  25.215  1.00  0.00     0.033 C 
ATOM     15  C   UNL A   1      48.963  26.924  24.726  1.00  0.00     0.033 C 
ENDBRANCH   9  13
ENDBRANCH   7   8
ENDBRANCH   4   6
ENDBRANCH   3   4
ENDBRANCH   2   3
ENDBRANCH   1   2
BRANCH   1  16
ATOM     16  O   UNL A   1      42.420  19.499  25.332  1.00  0.00    -0.458 OA
BRANCH  16  17
ATOM     17  C   UNL A   1      41.215  19.724  25.909  1.00  0.00     0.338 C 
ATOM     18  O   UNL A   1      40.216  19.031  25.810  1.00  0.00    -0.246 OA
BRANCH  17  19
ATOM     19  C   UNL A   1      41.181  21.086  26.444  1.00  0.00     0.060 A 
ATOM     20  C   UNL A   1      41.917  22.069  25.772  1.00  0.00     0.016 A 
ATOM     21  C   UNL A   1      40.720  21.270  27.752  1.00  0.00     0.016 A 
ATOM     22  C   UNL A   1      42.329  23.183  26.476  1.00  0.00     0.010 A 
ATOM     23  C   UNL A   1      41.179  22.347  28.465  1.00  0.00     0.010 A 
ATOM     24  C   UNL A   1      42.023  23.265  27.838  1.00  0.00    -0.014 A 
BRANCH  24  25
ATOM     25  C   UNL A   1      42.381  24.458  28.586  1.00  0.00     0.031 A 
ATOM     26  C   UNL A   1      41.437  25.566  28.282  1.00  0.00     0.074 A 
ATOM     27  C   UNL A   1      43.307  24.434  29.568  1.00  0.00     0.049 A 
ATOM     28  N   UNL A   1      41.681  26.654  27.627  1.00  0.00    -0.248 NA
ATOM     29  C   UNL A   1      39.992  25.315  28.479  1.00  0.00     0.031 C 
ATOM     30  C   UNL A   1      44.073  23.282  30.051  1.00  0.00     0.029 A 
ATOM     31  N   UNL A   1      43.692  25.417  30.428  1.00  0.00    -0.354 N 
ATOM     32  C   UNL A   1      40.470  27.343  27.618  1.00  0.00     0.074 A 
ATOM     33  C   UNL A   1      39.460  26.356  27.840  1.00  0.00     0.031 C 
ATOM     34  C   UNL A   1      44.635  23.580  31.246  1.00  0.00     0.029 A 
ATOM     35  C   UNL A   1      44.362  24.971  31.572  1.00  0.00     0.049 A 
ATOM     36  H   UNL A   1      43.512  26.370  30.257  1.00  0.00     0.167 HD
ATOM     37  C   UNL A   1      40.443  28.688  27.825  1.00  0.00     0.034 A 
ATOM     38  C   UNL A   1      44.594  25.680  32.720  1.00  0.00     0.034 A 
ATOM     39  C   UNL A   1      41.749  29.258  27.550  1.00  0.00     0.049 A 
ATOM     40  C   UNL A   1      44.426  27.116  32.364  1.00  0.00     0.074 A 
ATOM     41  C   UNL A   1      42.589  29.243  26.451  1.00  0.00     0.029 A 
ATOM     42  N   UNL A   1      42.550  29.595  28.622  1.00  0.00    -0.354 N 
ATOM     43  N   UNL A   1      45.228  27.743  31.548  1.00  0.00    -0.248 NA
ATOM     44  C   UNL A   1      43.087  27.681  32.470  1.00  0.00     0.031 C 
ATOM     45  C   UNL A   1      43.898  29.076  26.989  1.00  0.00     0.029 A 
ATOM     46  C   UNL A   1      43.816  29.123  28.381  1.00  0.00     0.049 A 
ATOM     47  H   UNL A   1      42.262  30.090  29.423  1.00  0.00     0.167 HD
ATOM     48  C   UNL A   1      44.394  28.478  30.717  1.00  0.00     0.074 A 
ATOM     49  C   UNL A   1      43.088  28.454  31.378  1.00  0.00     0.031 C 
ATOM     50  C   UNL A   1      44.756  28.767  29.430  1.00  0.00     0.034 A 
BRANCH  37  51
ATOM     51  C   UNL A   1      39.422  29.381  28.720  1.00  0.00     0.023 A 
ATOM     52  C   UNL A   1      39.710  29.378  30.096  1.00  0.00     0.031 A 
ATOM     53  C   UNL A   1      38.097  29.758  28.386  1.00  0.00     0.131 A 
ATOM     54  C   UNL A   1      38.695  29.543  31.052  1.00  0.00     0.055 A 
ATOM     55  C   UNL A   1      37.102  29.978  29.343  1.00  0.00     0.041 A 
ATOM     56  F   UNL A   1      37.655  29.887  27.132  1.00  0.00    -0.206 F 
ATOM     57  C   UNL A   1      37.385  29.827  30.686  1.00  0.00     0.022 A 
BRANCH  54  58
ATOM     58  S   UNL A   1      39.095  29.171  32.774  1.00  0.00     0.124 S 
ATOM     59  O   UNL A   1      37.953  29.763  33.462  1.00  0.00    -0.237 OA
ATOM     60  O   UNL A   1      39.156  27.714  32.754  1.00  0.00    -0.237 OA
ATOM     61  O   UNL A   1      40.374  29.848  32.975  1.00  0.00    -0.744 OA
ENDBRANCH  54  58
ENDBRANCH  37  51
BRANCH  38  62
ATOM     62  C   UNL A   1      44.575  25.185  34.138  1.00  0.00     0.023 A 
ATOM     63  C   UNL A   1      45.740  24.991  34.927  1.00  0.00     0.031 A 
ATOM     64  C   UNL A   1      43.344  25.129  34.830  1.00  0.00     0.131 A 
ATOM     65  C   UNL A   1      45.634  24.751  36.326  1.00  0.00     0.055 A 
ATOM     66  C   UNL A   1      43.246  24.896  36.205  1.00  0.00     0.041 A 
ATOM     67  F   UNL A   1      42.183  25.384  34.209  1.00  0.00    -0.206 F 
ATOM     68  C   UNL A   1      44.391  24.716  36.961  1.00  0.00     0.022 A 
BRANCH  65  69
ATOM     69  S   UNL A   1      47.115  24.548  37.380  1.00  0.00     0.124 S 
ATOM     70  O   UNL A   1      46.607  24.886  38.704  1.00  0.00    -0.237 OA
ATOM     71  O   UNL A   1      47.476  23.153  37.159  1.00  0.00    -0.237 OA
ATOM     72  O   UNL A   1      48.066  25.516  36.828  1.00  0.00    -0.744 OA
ENDBRANCH  65  69
ENDBRANCH  38  62
BRANCH  50  73
ATOM     73  C   UNL A   1      46.199  28.550  29.014  1.00  0.00     0.023 A 
ATOM     74  C   UNL A   1      47.245  29.498  29.123  1.00  0.00     0.031 A 
ATOM     75  C   UNL A   1      46.540  27.255  28.584  1.00  0.00     0.131 A 
ATOM     76  C   UNL A   1      48.566  29.130  28.790  1.00  0.00     0.055 A 
ATOM     77  C   UNL A   1      47.849  26.889  28.284  1.00  0.00     0.041 A 
ATOM     78  F   UNL A   1      45.598  26.302  28.480  1.00  0.00    -0.206 F 
ATOM     79  C   UNL A   1      48.867  27.828  28.378  1.00  0.00     0.022 A 
BRANCH  76  80
ATOM     80  S   UNL A   1      49.925  30.345  28.847  1.00  0.00     0.124 S 
ATOM     81  O   UNL A   1      49.424  31.380  29.742  1.00  0.00    -0.237 OA
ATOM     82  O   UNL A   1      51.040  29.547  29.352  1.00  0.00    -0.237 OA
ATOM     83  O   UNL A   1      50.065  30.763  27.450  1.00  0.00    -0.744 OA
ENDBRANCH  76  80
ENDBRANCH  50  73
ENDBRANCH  24  25
ENDBRANCH  17  19
ENDBRANCH  16  17
ENDBRANCH   1  16
TORSDOF 16
ENDMDL
