MODEL 1
REMARK VINA RESULT:      -9.8      0.000      0.000
REMARK SMILES CC[C@H](C)CN(CC)C(=O)c1ccc(/C=C/C(=O)OCCOC(=O)c2ccc(-c3c4nc(c(-c5cc(S(=O)(=O)[O-])ccc5F)c5ccc([nH]5)c(-c5cc(S(=O)(=O)[O-])ccc5F)c5nc(c(-c6cc(S(=O)(=O)[O-])ccc6F)c6ccc3[nH]6)C=C5)C=C4)cc2)cn1
REMARK SMILES IDX 19 1 17 2 18 3 16 4 15 5 14 6 11 7 12 8 89 9 13 10 88 11
REMARK SMILES IDX 9 12 10 13 6 14 5 15 3 16 4 17 2 18 1 19 7 20 8 21 20 22
REMARK SMILES IDX 21 23 22 24 23 25 24 26 25 27 26 28 87 29 27 30 86 31 28 32
REMARK SMILES IDX 29 33 30 34 80 35 31 36 85 37 79 38 81 39 32 40 84 41 78 42
REMARK SMILES IDX 77 43 33 45 65 46 45 47 64 48 46 49 49 50 63 51 82 52 47 53
REMARK SMILES IDX 48 54 62 56 83 57 50 58 34 59 35 60 43 61 36 62 42 63 44 64
REMARK SMILES IDX 41 65 37 66 38 67 39 68 40 69 66 70 67 71 75 72 68 73 74 74
REMARK SMILES IDX 76 75 73 76 69 77 70 78 71 79 72 80 51 81 52 82 60 83 53 84
REMARK SMILES IDX 59 85 61 86 58 87 54 88 55 89 56 90 57 91
REMARK H PARENT 81 44 49 55
REMARK Flexibility Score: inf
ROOT
ATOM      1  O   UNL A   1      31.417  30.634  26.654  1.00  0.00    -0.459 OA
ENDROOT
BRANCH   1   2
ATOM      2  C   UNL A   1      31.092  30.446  25.353  1.00  0.00     0.330 C 
ATOM      3  O   UNL A   1      30.363  31.158  24.681  1.00  0.00    -0.247 OA
BRANCH   2   4
ATOM      4  C   UNL A   1      31.755  29.260  24.769  1.00  0.00     0.094 C 
ATOM      5  C   UNL A   1      31.125  28.125  24.426  1.00  0.00     0.017 C 
BRANCH   5   6
ATOM      6  C   UNL A   1      31.787  26.920  23.903  1.00  0.00    -0.007 A 
ATOM      7  C   UNL A   1      32.978  24.630  22.960  1.00  0.00     0.128 A 
ATOM      8  C   UNL A   1      31.611  24.778  22.784  1.00  0.00     0.035 A 
ATOM      9  N   UNL A   1      33.769  25.541  23.575  1.00  0.00    -0.250 NA
ATOM     10  C   UNL A   1      31.017  25.951  23.246  1.00  0.00     0.012 A 
ATOM     11  C   UNL A   1      33.146  26.639  24.063  1.00  0.00     0.120 A 
BRANCH   7  12
ATOM     12  C   UNL A   1      33.636  23.405  22.449  1.00  0.00     0.272 C 
ATOM     13  O   UNL A   1      33.638  23.217  21.233  1.00  0.00    -0.267 OA
BRANCH  12  14
ATOM     14  N   UNL A   1      34.264  22.551  23.364  1.00  0.00    -0.337 N 
BRANCH  14  15
ATOM     15  C   UNL A   1      35.703  22.706  23.573  1.00  0.00     0.123 C 
BRANCH  15  16
ATOM     16  C   UNL A   1      36.208  22.065  24.883  1.00  0.00     0.005 C 
ATOM     17  C   UNL A   1      37.498  21.258  24.686  1.00  0.00     0.009 C 
BRANCH  16  18
ATOM     18  C   UNL A   1      36.391  23.115  26.001  1.00  0.00     0.002 C 
ATOM     19  C   UNL A   1      37.687  23.913  25.934  1.00  0.00     0.004 C 
ENDBRANCH  16  18
ENDBRANCH  15  16
ENDBRANCH  14  15
BRANCH  14  20
ATOM     20  C   UNL A   1      33.561  21.556  24.174  1.00  0.00     0.116 C 
ATOM     21  C   UNL A   1      32.331  21.021  23.446  1.00  0.00     0.027 C 
ENDBRANCH  14  20
ENDBRANCH  12  14
ENDBRANCH   7  12
ENDBRANCH   5   6
ENDBRANCH   2   4
ENDBRANCH   1   2
BRANCH   1  22
ATOM     22  C   UNL A   1      32.580  31.445  26.899  1.00  0.00     0.275 C 
BRANCH  22  23
ATOM     23  C   UNL A   1      32.194  32.783  27.535  1.00  0.00     0.275 C 
BRANCH  23  24
ATOM     24  O   UNL A   1      33.296  33.708  27.561  1.00  0.00    -0.458 OA
BRANCH  24  25
ATOM     25  C   UNL A   1      33.431  34.417  28.707  1.00  0.00     0.338 C 
ATOM     26  O   UNL A   1      32.671  35.283  29.125  1.00  0.00    -0.246 OA
BRANCH  25  27
ATOM     27  C   UNL A   1      34.589  33.921  29.470  1.00  0.00     0.060 A 
ATOM     28  C   UNL A   1      35.868  34.344  29.092  1.00  0.00     0.016 A 
ATOM     29  C   UNL A   1      34.427  33.006  30.513  1.00  0.00     0.016 A 
ATOM     30  C   UNL A   1      36.991  33.854  29.758  1.00  0.00     0.010 A 
ATOM     31  C   UNL A   1      35.555  32.512  31.177  1.00  0.00     0.010 A 
ATOM     32  C   UNL A   1      36.845  32.928  30.801  1.00  0.00    -0.014 A 
BRANCH  32  33
ATOM     33  C   UNL A   1      38.036  32.353  31.472  1.00  0.00     0.031 A 
ATOM     34  C   UNL A   1      38.790  31.231  30.816  1.00  0.00     0.074 A 
ATOM     35  C   UNL A   1      38.426  32.821  32.672  1.00  0.00     0.049 A 
ATOM     36  N   UNL A   1      39.775  30.507  31.284  1.00  0.00    -0.248 NA
ATOM     37  C   UNL A   1      38.374  30.877  29.451  1.00  0.00     0.031 C 
ATOM     38  C   UNL A   1      37.799  33.935  33.384  1.00  0.00     0.029 A 
ATOM     39  N   UNL A   1      39.431  32.410  33.511  1.00  0.00    -0.354 N 
ATOM     40  C   UNL A   1      40.091  29.600  30.277  1.00  0.00     0.074 A 
ATOM     41  C   UNL A   1      39.172  29.853  29.185  1.00  0.00     0.031 C 
ATOM     42  C   UNL A   1      38.428  34.111  34.559  1.00  0.00     0.029 A 
ATOM     43  C   UNL A   1      39.464  33.091  34.706  1.00  0.00     0.049 A 
ATOM     44  H   UNL A   1      40.069  31.697  33.280  1.00  0.00     0.167 HD
ATOM     45  C   UNL A   1      41.058  28.649  30.268  1.00  0.00     0.034 A 
ATOM     46  C   UNL A   1      40.214  32.890  35.809  1.00  0.00     0.034 A 
ATOM     47  C   UNL A   1      41.959  28.410  31.372  1.00  0.00     0.049 A 
ATOM     48  C   UNL A   1      41.224  31.767  35.812  1.00  0.00     0.074 A 
ATOM     49  C   UNL A   1      42.982  27.482  31.463  1.00  0.00     0.029 A 
ATOM     50  N   UNL A   1      41.938  29.096  32.579  1.00  0.00    -0.354 N 
ATOM     51  N   UNL A   1      41.505  30.908  34.860  1.00  0.00    -0.248 NA
ATOM     52  C   UNL A   1      42.014  31.587  37.036  1.00  0.00     0.031 C 
ATOM     53  C   UNL A   1      43.533  27.560  32.748  1.00  0.00     0.029 A 
ATOM     54  C   UNL A   1      42.906  28.588  33.434  1.00  0.00     0.049 A 
ATOM     55  H   UNL A   1      41.325  29.835  32.797  1.00  0.00     0.167 HD
ATOM     56  C   UNL A   1      42.527  30.107  35.360  1.00  0.00     0.074 A 
ATOM     57  C   UNL A   1      42.815  30.586  36.696  1.00  0.00     0.031 C 
ATOM     58  C   UNL A   1      43.177  29.074  34.766  1.00  0.00     0.034 A 
BRANCH  45  59
ATOM     59  C   UNL A   1      41.148  27.762  29.050  1.00  0.00     0.023 A 
ATOM     60  C   UNL A   1      42.114  27.967  28.051  1.00  0.00     0.031 A 
ATOM     61  C   UNL A   1      40.233  26.708  28.876  1.00  0.00     0.131 A 
ATOM     62  C   UNL A   1      42.100  27.174  26.891  1.00  0.00     0.055 A 
ATOM     63  C   UNL A   1      40.273  25.876  27.756  1.00  0.00     0.041 A 
ATOM     64  F   UNL A   1      39.274  26.477  29.787  1.00  0.00    -0.206 F 
ATOM     65  C   UNL A   1      41.201  26.116  26.749  1.00  0.00     0.022 A 
BRANCH  62  66
ATOM     66  S   UNL A   1      43.184  27.634  25.511  1.00  0.00     0.124 S 
ATOM     67  O   UNL A   1      43.652  26.327  25.057  1.00  0.00    -0.237 OA
ATOM     68  O   UNL A   1      42.274  28.337  24.616  1.00  0.00    -0.237 OA
ATOM     69  O   UNL A   1      44.206  28.467  26.142  1.00  0.00    -0.744 OA
ENDBRANCH  62  66
ENDBRANCH  45  59
BRANCH  46  70
ATOM     70  C   UNL A   1      40.006  33.728  37.024  1.00  0.00     0.023 A 
ATOM     71  C   UNL A   1      40.857  34.803  37.322  1.00  0.00     0.031 A 
ATOM     72  C   UNL A   1      38.971  33.435  37.931  1.00  0.00     0.131 A 
ATOM     73  C   UNL A   1      40.683  35.521  38.516  1.00  0.00     0.055 A 
ATOM     74  C   UNL A   1      38.770  34.184  39.091  1.00  0.00     0.041 A 
ATOM     75  F   UNL A   1      38.130  32.414  37.695  1.00  0.00    -0.206 F 
ATOM     76  C   UNL A   1      39.637  35.229  39.394  1.00  0.00     0.022 A 
BRANCH  73  77
ATOM     77  S   UNL A   1      41.897  36.799  38.947  1.00  0.00     0.124 S 
ATOM     78  O   UNL A   1      42.521  36.227  40.135  1.00  0.00    -0.237 OA
ATOM     79  O   UNL A   1      42.724  36.849  37.746  1.00  0.00    -0.237 OA
ATOM     80  O   UNL A   1      41.074  37.984  39.183  1.00  0.00    -0.744 OA
ENDBRANCH  73  77
ENDBRANCH  46  70
BRANCH  58  81
ATOM     81  C   UNL A   1      44.302  28.432  35.538  1.00  0.00     0.023 A 
ATOM     82  C   UNL A   1      44.070  27.442  36.508  1.00  0.00     0.031 A 
ATOM     83  C   UNL A   1      45.632  28.817  35.287  1.00  0.00     0.131 A 
ATOM     84  C   UNL A   1      45.150  26.897  37.221  1.00  0.00     0.055 A 
ATOM     85  C   UNL A   1      46.705  28.235  35.962  1.00  0.00     0.041 A 
ATOM     86  F   UNL A   1      45.909  29.759  34.372  1.00  0.00    -0.206 F 
ATOM     87  C   UNL A   1      46.467  27.276  36.942  1.00  0.00     0.022 A 
BRANCH  84  88
ATOM     88  S   UNL A   1      44.811  25.723  38.561  1.00  0.00     0.124 S 
ATOM     89  O   UNL A   1      44.047  26.542  39.496  1.00  0.00    -0.237 OA
ATOM     90  O   UNL A   1      44.064  24.672  37.878  1.00  0.00    -0.237 OA
ATOM     91  O   UNL A   1      46.143  25.334  39.022  1.00  0.00    -0.744 OA
ENDBRANCH  84  88
ENDBRANCH  58  81
ENDBRANCH  32  33
ENDBRANCH  25  27
ENDBRANCH  24  25
ENDBRANCH  23  24
ENDBRANCH  22  23
ENDBRANCH   1  22
TORSDOF 21
ENDMDL
MODEL 2
REMARK VINA RESULT:      -9.8      5.965     11.243
REMARK SMILES CC[C@H](C)CN(CC)C(=O)c1ccc(/C=C/C(=O)OCCOC(=O)c2ccc(-c3c4nc(c(-c5cc(S(=O)(=O)[O-])ccc5F)c5ccc([nH]5)c(-c5cc(S(=O)(=O)[O-])ccc5F)c5nc(c(-c6cc(S(=O)(=O)[O-])ccc6F)c6ccc3[nH]6)C=C5)C=C4)cc2)cn1
REMARK SMILES IDX 19 1 17 2 18 3 16 4 15 5 14 6 11 7 12 8 89 9 13 10 88 11
REMARK SMILES IDX 9 12 10 13 6 14 5 15 3 16 4 17 2 18 1 19 7 20 8 21 20 22
REMARK SMILES IDX 21 23 22 24 23 25 24 26 25 27 26 28 87 29 27 30 86 31 28 32
REMARK SMILES IDX 29 33 30 34 80 35 31 36 85 37 79 38 81 39 32 40 84 41 78 42
REMARK SMILES IDX 77 43 33 45 65 46 45 47 64 48 46 49 49 50 63 51 82 52 47 53
REMARK SMILES IDX 48 54 62 56 83 57 50 58 34 59 35 60 43 61 36 62 42 63 44 64
REMARK SMILES IDX 41 65 37 66 38 67 39 68 40 69 66 70 67 71 75 72 68 73 74 74
REMARK SMILES IDX 76 75 73 76 69 77 70 78 71 79 72 80 51 81 52 82 60 83 53 84
REMARK SMILES IDX 59 85 61 86 58 87 54 88 55 89 56 90 57 91
REMARK H PARENT 81 44 49 55
REMARK Flexibility Score: inf
ROOT
ATOM      1  O   UNL A   1      42.430  19.402  25.488  1.00  0.00    -0.459 OA
ENDROOT
BRANCH   1   2
ATOM      2  C   UNL A   1      43.706  19.210  25.079  1.00  0.00     0.330 C 
ATOM      3  O   UNL A   1      44.193  18.155  24.701  1.00  0.00    -0.247 OA
BRANCH   2   4
ATOM      4  C   UNL A   1      44.502  20.456  25.097  1.00  0.00     0.094 C 
ATOM      5  C   UNL A   1      44.037  21.664  24.738  1.00  0.00     0.017 C 
BRANCH   5   6
ATOM      6  C   UNL A   1      44.840  22.895  24.694  1.00  0.00    -0.007 A 
ATOM      7  C   UNL A   1      46.388  25.166  24.650  1.00  0.00     0.128 A 
ATOM      8  C   UNL A   1      46.973  23.967  24.274  1.00  0.00     0.035 A 
ATOM      9  N   UNL A   1      45.099  25.293  25.046  1.00  0.00    -0.250 NA
ATOM     10  C   UNL A   1      46.176  22.823  24.279  1.00  0.00     0.012 A 
ATOM     11  C   UNL A   1      44.374  24.151  25.095  1.00  0.00     0.120 A 
BRANCH   7  12
ATOM     12  C   UNL A   1      47.206  26.400  24.622  1.00  0.00     0.272 C 
ATOM     13  O   UNL A   1      46.620  27.479  24.540  1.00  0.00    -0.267 OA
BRANCH  12  14
ATOM     14  N   UNL A   1      48.598  26.284  24.739  1.00  0.00    -0.337 N 
BRANCH  14  15
ATOM     15  C   UNL A   1      49.394  26.313  23.513  1.00  0.00     0.123 C 
BRANCH  15  16
ATOM     16  C   UNL A   1      49.799  27.737  23.076  1.00  0.00     0.005 C 
ATOM     17  C   UNL A   1      51.253  28.072  23.429  1.00  0.00     0.009 C 
BRANCH  16  18
ATOM     18  C   UNL A   1      49.538  27.970  21.571  1.00  0.00     0.002 C 
ATOM     19  C   UNL A   1      49.026  26.755  20.808  1.00  0.00     0.004 C 
ENDBRANCH  16  18
ENDBRANCH  15  16
ENDBRANCH  14  15
BRANCH  14  20
ATOM     20  C   UNL A   1      49.310  26.199  26.014  1.00  0.00     0.116 C 
ATOM     21  C   UNL A   1      48.359  25.856  27.156  1.00  0.00     0.027 C 
ENDBRANCH  14  20
ENDBRANCH  12  14
ENDBRANCH   7  12
ENDBRANCH   5   6
ENDBRANCH   2   4
ENDBRANCH   1   2
BRANCH   1  22
ATOM     22  C   UNL A   1      42.169  19.127  26.876  1.00  0.00     0.275 C 
BRANCH  22  23
ATOM     23  C   UNL A   1      41.159  20.123  27.453  1.00  0.00     0.275 C 
BRANCH  23  24
ATOM     24  O   UNL A   1      41.466  21.480  27.085  1.00  0.00    -0.458 OA
BRANCH  24  25
ATOM     25  C   UNL A   1      40.403  22.240  26.731  1.00  0.00     0.338 C 
ATOM     26  O   UNL A   1      39.364  21.850  26.212  1.00  0.00    -0.246 OA
BRANCH  25  27
ATOM     27  C   UNL A   1      40.615  23.632  27.167  1.00  0.00     0.060 A 
ATOM     28  C   UNL A   1      40.175  24.666  26.334  1.00  0.00     0.016 A 
ATOM     29  C   UNL A   1      41.289  23.920  28.356  1.00  0.00     0.016 A 
ATOM     30  C   UNL A   1      40.404  25.995  26.690  1.00  0.00     0.010 A 
ATOM     31  C   UNL A   1      41.523  25.254  28.708  1.00  0.00     0.010 A 
ATOM     32  C   UNL A   1      41.088  26.300  27.875  1.00  0.00    -0.014 A 
BRANCH  32  33
ATOM     33  C   UNL A   1      41.394  27.708  28.229  1.00  0.00     0.031 A 
ATOM     34  C   UNL A   1      42.819  28.184  28.220  1.00  0.00     0.074 A 
ATOM     35  C   UNL A   1      40.401  28.548  28.576  1.00  0.00     0.049 A 
ATOM     36  N   UNL A   1      43.314  29.329  28.615  1.00  0.00    -0.248 NA
ATOM     37  C   UNL A   1      43.819  27.239  27.702  1.00  0.00     0.031 C 
ATOM     38  C   UNL A   1      38.977  28.210  28.577  1.00  0.00     0.029 A 
ATOM     39  N   UNL A   1      40.438  29.850  29.008  1.00  0.00    -0.354 N 
ATOM     40  C   UNL A   1      44.687  29.241  28.405  1.00  0.00     0.074 A 
ATOM     41  C   UNL A   1      44.943  27.918  27.873  1.00  0.00     0.031 C 
ATOM     42  C   UNL A   1      38.277  29.276  29.002  1.00  0.00     0.029 A 
ATOM     43  C   UNL A   1      39.204  30.351  29.353  1.00  0.00     0.049 A 
ATOM     44  H   UNL A   1      41.268  30.376  29.065  1.00  0.00     0.167 HD
ATOM     45  C   UNL A   1      45.640  30.179  28.634  1.00  0.00     0.034 A 
ATOM     46  C   UNL A   1      38.863  31.524  29.923  1.00  0.00     0.034 A 
ATOM     47  C   UNL A   1      45.362  31.491  29.172  1.00  0.00     0.049 A 
ATOM     48  C   UNL A   1      39.949  32.519  30.254  1.00  0.00     0.074 A 
ATOM     49  C   UNL A   1      46.249  32.521  29.432  1.00  0.00     0.029 A 
ATOM     50  N   UNL A   1      44.104  31.949  29.543  1.00  0.00    -0.354 N 
ATOM     51  N   UNL A   1      41.245  32.420  30.064  1.00  0.00    -0.248 NA
ATOM     52  C   UNL A   1      39.528  33.780  30.877  1.00  0.00     0.031 C 
ATOM     53  C   UNL A   1      45.540  33.574  30.022  1.00  0.00     0.029 A 
ATOM     54  C   UNL A   1      44.197  33.232  30.061  1.00  0.00     0.049 A 
ATOM     55  H   UNL A   1      43.268  31.437  29.452  1.00  0.00     0.167 HD
ATOM     56  C   UNL A   1      41.788  33.620  30.514  1.00  0.00     0.074 A 
ATOM     57  C   UNL A   1      40.680  34.427  30.983  1.00  0.00     0.031 C 
ATOM     58  C   UNL A   1      43.084  34.022  30.530  1.00  0.00     0.034 A 
BRANCH  45  59
ATOM     59  C   UNL A   1      47.073  29.795  28.359  1.00  0.00     0.023 A 
ATOM     60  C   UNL A   1      47.881  29.190  29.337  1.00  0.00     0.031 A 
ATOM     61  C   UNL A   1      47.648  30.063  27.104  1.00  0.00     0.131 A 
ATOM     62  C   UNL A   1      49.235  28.935  29.066  1.00  0.00     0.055 A 
ATOM     63  C   UNL A   1      48.974  29.737  26.816  1.00  0.00     0.041 A 
ATOM     64  F   UNL A   1      46.931  30.659  26.138  1.00  0.00    -0.206 F 
ATOM     65  C   UNL A   1      49.781  29.183  27.804  1.00  0.00     0.022 A 
BRANCH  62  66
ATOM     66  S   UNL A   1      50.310  28.403  30.428  1.00  0.00     0.124 S 
ATOM     67  O   UNL A   1      49.333  28.101  31.472  1.00  0.00    -0.237 OA
ATOM     68  O   UNL A   1      51.006  27.259  29.851  1.00  0.00    -0.237 OA
ATOM     69  O   UNL A   1      51.142  29.576  30.685  1.00  0.00    -0.744 OA
ENDBRANCH  62  66
ENDBRANCH  45  59
BRANCH  46  70
ATOM     70  C   UNL A   1      37.442  31.806  30.274  1.00  0.00     0.023 A 
ATOM     71  C   UNL A   1      36.539  32.295  29.318  1.00  0.00     0.031 A 
ATOM     72  C   UNL A   1      36.977  31.628  31.590  1.00  0.00     0.131 A 
ATOM     73  C   UNL A   1      35.229  32.627  29.700  1.00  0.00     0.055 A 
ATOM     74  C   UNL A   1      35.660  31.910  31.954  1.00  0.00     0.041 A 
ATOM     75  F   UNL A   1      37.802  31.166  32.545  1.00  0.00    -0.206 F 
ATOM     76  C   UNL A   1      34.779  32.425  31.007  1.00  0.00     0.022 A 
BRANCH  73  77
ATOM     77  S   UNL A   1      34.138  33.406  28.477  1.00  0.00     0.124 S 
ATOM     78  O   UNL A   1      33.501  32.245  27.865  1.00  0.00    -0.237 OA
ATOM     79  O   UNL A   1      33.286  34.239  29.319  1.00  0.00    -0.237 OA
ATOM     80  O   UNL A   1      35.063  34.139  27.613  1.00  0.00    -0.744 OA
ENDBRANCH  73  77
ENDBRANCH  46  70
BRANCH  58  81
ATOM     81  C   UNL A   1      43.365  35.422  31.019  1.00  0.00     0.023 A 
ATOM     82  C   UNL A   1      43.500  36.507  30.136  1.00  0.00     0.031 A 
ATOM     83  C   UNL A   1      43.489  35.668  32.399  1.00  0.00     0.131 A 
ATOM     84  C   UNL A   1      43.790  37.784  30.641  1.00  0.00     0.055 A 
ATOM     85  C   UNL A   1      43.728  36.949  32.897  1.00  0.00     0.041 A 
ATOM     86  F   UNL A   1      43.371  34.667  33.285  1.00  0.00    -0.206 F 
ATOM     87  C   UNL A   1      43.889  38.014  32.016  1.00  0.00     0.022 A 
BRANCH  84  88
ATOM     88  S   UNL A   1      44.095  39.138  29.473  1.00  0.00     0.124 S 
ATOM     89  O   UNL A   1      42.877  39.932  29.605  1.00  0.00    -0.237 OA
ATOM     90  O   UNL A   1      45.311  39.745  30.004  1.00  0.00    -0.237 OA
ATOM     91  O   UNL A   1      44.254  38.455  28.190  1.00  0.00    -0.744 OA
ENDBRANCH  84  88
ENDBRANCH  58  81
ENDBRANCH  32  33
ENDBRANCH  25  27
ENDBRANCH  24  25
ENDBRANCH  23  24
ENDBRANCH  22  23
ENDBRANCH   1  22
TORSDOF 21
ENDMDL
MODEL 3
REMARK VINA RESULT:      -9.8      4.944     10.389
REMARK SMILES CC[C@H](C)CN(CC)C(=O)c1ccc(/C=C/C(=O)OCCOC(=O)c2ccc(-c3c4nc(c(-c5cc(S(=O)(=O)[O-])ccc5F)c5ccc([nH]5)c(-c5cc(S(=O)(=O)[O-])ccc5F)c5nc(c(-c6cc(S(=O)(=O)[O-])ccc6F)c6ccc3[nH]6)C=C5)C=C4)cc2)cn1
REMARK SMILES IDX 19 1 17 2 18 3 16 4 15 5 14 6 11 7 12 8 89 9 13 10 88 11
REMARK SMILES IDX 9 12 10 13 6 14 5 15 3 16 4 17 2 18 1 19 7 20 8 21 20 22
REMARK SMILES IDX 21 23 22 24 23 25 24 26 25 27 26 28 87 29 27 30 86 31 28 32
REMARK SMILES IDX 29 33 30 34 80 35 31 36 85 37 79 38 81 39 32 40 84 41 78 42
REMARK SMILES IDX 77 43 33 45 65 46 45 47 64 48 46 49 49 50 63 51 82 52 47 53
REMARK SMILES IDX 48 54 62 56 83 57 50 58 34 59 35 60 43 61 36 62 42 63 44 64
REMARK SMILES IDX 41 65 37 66 38 67 39 68 40 69 66 70 67 71 75 72 68 73 74 74
REMARK SMILES IDX 76 75 73 76 69 77 70 78 71 79 72 80 51 81 52 82 60 83 53 84
REMARK SMILES IDX 59 85 61 86 58 87 54 88 55 89 56 90 57 91
REMARK H PARENT 81 44 49 55
REMARK Flexibility Score: inf
ROOT
ATOM      1  O   UNL A   1      32.629  35.646  31.990  1.00  0.00    -0.459 OA
ENDROOT
BRANCH   1   2
ATOM      2  C   UNL A   1      33.529  36.001  32.937  1.00  0.00     0.330 C 
ATOM      3  O   UNL A   1      33.640  37.102  33.452  1.00  0.00    -0.247 OA
BRANCH   2   4
ATOM      4  C   UNL A   1      34.398  34.875  33.343  1.00  0.00     0.094 C 
ATOM      5  C   UNL A   1      35.329  34.939  34.308  1.00  0.00     0.017 C 
BRANCH   5   6
ATOM      6  C   UNL A   1      36.239  33.843  34.674  1.00  0.00    -0.007 A 
ATOM      7  C   UNL A   1      37.892  31.750  35.338  1.00  0.00     0.128 A 
ATOM      8  C   UNL A   1      37.369  31.791  34.055  1.00  0.00     0.035 A 
ATOM      9  N   UNL A   1      37.636  32.674  36.294  1.00  0.00    -0.250 NA
ATOM     10  C   UNL A   1      36.548  32.867  33.719  1.00  0.00     0.012 A 
ATOM     11  C   UNL A   1      36.787  33.670  35.948  1.00  0.00     0.120 A 
BRANCH   7  12
ATOM     12  C   UNL A   1      38.792  30.633  35.707  1.00  0.00     0.272 C 
ATOM     13  O   UNL A   1      38.405  29.842  36.566  1.00  0.00    -0.267 OA
BRANCH  12  14
ATOM     14  N   UNL A   1      40.012  30.504  35.030  1.00  0.00    -0.337 N 
BRANCH  14  15
ATOM     15  C   UNL A   1      39.974  30.243  33.592  1.00  0.00     0.123 C 
BRANCH  15  16
ATOM     16  C   UNL A   1      40.413  28.813  33.213  1.00  0.00     0.005 C 
ATOM     17  C   UNL A   1      39.391  28.098  32.320  1.00  0.00     0.009 C 
BRANCH  16  18
ATOM     18  C   UNL A   1      41.811  28.799  32.556  1.00  0.00     0.002 C 
ATOM     19  C   UNL A   1      42.685  27.603  32.918  1.00  0.00     0.004 C 
ENDBRANCH  16  18
ENDBRANCH  15  16
ENDBRANCH  14  15
BRANCH  14  20
ATOM     20  C   UNL A   1      41.321  30.677  35.658  1.00  0.00     0.116 C 
ATOM     21  C   UNL A   1      41.794  29.384  36.316  1.00  0.00     0.027 C 
ENDBRANCH  14  20
ENDBRANCH  12  14
ENDBRANCH   7  12
ENDBRANCH   5   6
ENDBRANCH   2   4
ENDBRANCH   1   2
BRANCH   1  22
ATOM     22  C   UNL A   1      32.586  36.484  30.821  1.00  0.00     0.275 C 
BRANCH  22  23
ATOM     23  C   UNL A   1      33.130  35.745  29.595  1.00  0.00     0.275 C 
BRANCH  23  24
ATOM     24  O   UNL A   1      33.347  34.346  29.859  1.00  0.00    -0.458 OA
BRANCH  24  25
ATOM     25  C   UNL A   1      33.768  33.615  28.799  1.00  0.00     0.338 C 
ATOM     26  O   UNL A   1      33.173  33.451  27.741  1.00  0.00    -0.246 OA
BRANCH  25  27
ATOM     27  C   UNL A   1      35.132  33.114  29.046  1.00  0.00     0.060 A 
ATOM     28  C   UNL A   1      35.332  32.217  30.100  1.00  0.00     0.016 A 
ATOM     29  C   UNL A   1      36.213  33.564  28.284  1.00  0.00     0.016 A 
ATOM     30  C   UNL A   1      36.618  31.762  30.394  1.00  0.00     0.010 A 
ATOM     31  C   UNL A   1      37.502  33.111  28.585  1.00  0.00     0.010 A 
ATOM     32  C   UNL A   1      37.714  32.212  29.645  1.00  0.00    -0.014 A 
BRANCH  32  33
ATOM     33  C   UNL A   1      39.092  31.784  29.992  1.00  0.00     0.031 A 
ATOM     34  C   UNL A   1      39.929  32.640  30.901  1.00  0.00     0.074 A 
ATOM     35  C   UNL A   1      39.595  30.646  29.479  1.00  0.00     0.049 A 
ATOM     36  N   UNL A   1      41.189  32.516  31.229  1.00  0.00    -0.248 NA
ATOM     37  C   UNL A   1      39.253  33.790  31.519  1.00  0.00     0.031 C 
ATOM     38  C   UNL A   1      38.861  29.714  28.622  1.00  0.00     0.029 A 
ATOM     39  N   UNL A   1      40.844  30.088  29.589  1.00  0.00    -0.354 N 
ATOM     40  C   UNL A   1      41.466  33.580  32.082  1.00  0.00     0.074 A 
ATOM     41  C   UNL A   1      40.244  34.350  32.197  1.00  0.00     0.031 C 
ATOM     42  C   UNL A   1      39.678  28.705  28.276  1.00  0.00     0.029 A 
ATOM     43  C   UNL A   1      41.005  28.947  28.839  1.00  0.00     0.049 A 
ATOM     44  H   UNL A   1      41.556  30.469  30.152  1.00  0.00     0.167 HD
ATOM     45  C   UNL A   1      42.630  33.881  32.710  1.00  0.00     0.034 A 
ATOM     46  C   UNL A   1      42.105  28.203  28.600  1.00  0.00     0.034 A 
ATOM     47  C   UNL A   1      43.839  33.102  32.576  1.00  0.00     0.049 A 
ATOM     48  C   UNL A   1      43.413  28.607  29.237  1.00  0.00     0.074 A 
ATOM     49  C   UNL A   1      45.069  33.310  33.175  1.00  0.00     0.029 A 
ATOM     50  N   UNL A   1      43.973  31.972  31.779  1.00  0.00    -0.354 N 
ATOM     51  N   UNL A   1      43.666  29.623  30.031  1.00  0.00    -0.248 NA
ATOM     52  C   UNL A   1      44.582  27.768  28.944  1.00  0.00     0.031 C 
ATOM     53  C   UNL A   1      45.963  32.349  32.689  1.00  0.00     0.029 A 
ATOM     54  C   UNL A   1      45.274  31.493  31.844  1.00  0.00     0.049 A 
ATOM     55  H   UNL A   1      43.251  31.570  31.244  1.00  0.00     0.167 HD
ATOM     56  C   UNL A   1      45.015  29.523  30.357  1.00  0.00     0.074 A 
ATOM     57  C   UNL A   1      45.522  28.349  29.677  1.00  0.00     0.031 C 
ATOM     58  C   UNL A   1      45.765  30.324  31.155  1.00  0.00     0.034 A 
BRANCH  45  59
ATOM     59  C   UNL A   1      42.663  35.136  33.548  1.00  0.00     0.023 A 
ATOM     60  C   UNL A   1      43.118  36.362  33.033  1.00  0.00     0.031 A 
ATOM     61  C   UNL A   1      42.256  35.097  34.893  1.00  0.00     0.131 A 
ATOM     62  C   UNL A   1      43.218  37.481  33.876  1.00  0.00     0.055 A 
ATOM     63  C   UNL A   1      42.287  36.232  35.705  1.00  0.00     0.041 A 
ATOM     64  F   UNL A   1      41.833  33.949  35.447  1.00  0.00    -0.206 F 
ATOM     65  C   UNL A   1      42.783  37.430  35.202  1.00  0.00     0.022 A 
BRANCH  62  66
ATOM     66  S   UNL A   1      44.053  38.966  33.253  1.00  0.00     0.124 S 
ATOM     67  O   UNL A   1      44.735  39.445  34.453  1.00  0.00    -0.237 OA
ATOM     68  O   UNL A   1      44.906  38.430  32.200  1.00  0.00    -0.237 OA
ATOM     69  O   UNL A   1      42.951  39.810  32.795  1.00  0.00    -0.744 OA
ENDBRANCH  62  66
ENDBRANCH  45  59
BRANCH  46  70
ATOM     70  C   UNL A   1      42.038  27.036  27.675  1.00  0.00     0.023 A 
ATOM     71  C   UNL A   1      41.945  25.724  28.164  1.00  0.00     0.031 A 
ATOM     72  C   UNL A   1      42.111  27.218  26.282  1.00  0.00     0.131 A 
ATOM     73  C   UNL A   1      41.966  24.643  27.269  1.00  0.00     0.055 A 
ATOM     74  C   UNL A   1      42.079  26.143  25.393  1.00  0.00     0.041 A 
ATOM     75  F   UNL A   1      42.204  28.454  25.762  1.00  0.00    -0.206 F 
ATOM     76  C   UNL A   1      42.018  24.843  25.887  1.00  0.00     0.022 A 
BRANCH  73  77
ATOM     77  S   UNL A   1      42.006  22.958  27.941  1.00  0.00     0.124 S 
ATOM     78  O   UNL A   1      40.622  22.535  27.765  1.00  0.00    -0.237 OA
ATOM     79  O   UNL A   1      42.991  22.312  27.081  1.00  0.00    -0.237 OA
ATOM     80  O   UNL A   1      42.427  23.155  29.328  1.00  0.00    -0.744 OA
ENDBRANCH  73  77
ENDBRANCH  46  70
BRANCH  58  81
ATOM     81  C   UNL A   1      47.202  29.921  31.380  1.00  0.00     0.023 A 
ATOM     82  C   UNL A   1      47.587  29.108  32.459  1.00  0.00     0.031 A 
ATOM     83  C   UNL A   1      48.198  30.356  30.487  1.00  0.00     0.131 A 
ATOM     84  C   UNL A   1      48.942  28.786  32.641  1.00  0.00     0.055 A 
ATOM     85  C   UNL A   1      49.536  29.991  30.644  1.00  0.00     0.041 A 
ATOM     86  F   UNL A   1      47.884  31.137  29.441  1.00  0.00    -0.206 F 
ATOM     87  C   UNL A   1      49.915  29.209  31.731  1.00  0.00     0.022 A 
BRANCH  84  88
ATOM     88  S   UNL A   1      49.429  27.850  34.116  1.00  0.00     0.124 S 
ATOM     89  O   UNL A   1      50.347  28.775  34.773  1.00  0.00    -0.237 OA
ATOM     90  O   UNL A   1      48.152  27.636  34.789  1.00  0.00    -0.237 OA
ATOM     91  O   UNL A   1      50.049  26.644  33.569  1.00  0.00    -0.744 OA
ENDBRANCH  84  88
ENDBRANCH  58  81
ENDBRANCH  32  33
ENDBRANCH  25  27
ENDBRANCH  24  25
ENDBRANCH  23  24
ENDBRANCH  22  23
ENDBRANCH   1  22
TORSDOF 21
ENDMDL
