MODEL 1
REMARK VINA RESULT:     -14.7      0.000      0.000
REMARK SMILES Cc1ccc(NC(=O)[C@H]2CC(Cl)=CC[C@@H]2C(=O)OCCOC(=O)c2ccc(-c3c4nc(c(-c5cc(S(=O)(=O)[O-])ccc5F)c5ccc([nH]5)c(-c5cc(S(=O)(=O)[O-])ccc5F)c5nc(c(-c6cc(S(=O)(=O)[O-])ccc6F)c6ccc3[nH]6)C=C5)C=C4)cc2)cc1[N+](=O)[O-]
REMARK SMILES IDX 19 1 18 2 16 3 17 4 15 5 9 6 10 7 11 8 14 9 12 10 13 11 7 12
REMARK SMILES IDX 6 13 8 15 5 16 1 17 2 18 3 19 88 20 4 21 87 22 89 23 90 24
REMARK SMILES IDX 91 25 20 26 21 27 22 28 23 29 24 30 25 31 86 32 26 33 85 34
REMARK SMILES IDX 27 35 28 36 29 37 79 38 30 39 84 40 78 41 80 42 31 43 83 44
REMARK SMILES IDX 77 45 76 46 32 48 64 49 44 50 63 51 45 52 48 53 62 54 81 55
REMARK SMILES IDX 46 56 47 57 61 59 82 60 49 61 33 62 34 63 42 64 35 65 41 66
REMARK SMILES IDX 43 67 40 68 36 69 37 70 38 71 39 72 65 73 66 74 74 75 67 76
REMARK SMILES IDX 73 77 75 78 72 79 68 80 69 81 70 82 71 83 50 84 51 85 59 86
REMARK SMILES IDX 52 87 58 88 60 89 57 90 53 91 54 92 55 93 56 94
REMARK H PARENT 6 14 80 47 48 58
REMARK Flexibility Score: inf
ROOT
ATOM      1  C   UNL A   1      38.141  23.764  26.018  1.00  0.00     0.274 C 
ENDROOT
BRANCH   1   2
ATOM      2  O   UNL A   1      36.856  23.698  24.757  1.00  0.00    -0.462 OA
BRANCH   2   3
ATOM      3  C   UNL A   1      35.990  23.121  23.868  1.00  0.00     0.310 C 
ATOM      4  O   UNL A   1      36.434  22.932  22.726  1.00  0.00    -0.252 OA
BRANCH   3   5
ATOM      5  C   UNL A   1      34.456  22.704  24.016  1.00  0.00     0.116 C 
ATOM      6  C   UNL A   1      33.226  23.586  23.698  1.00  0.00     0.098 C 
ATOM      7  C   UNL A   1      31.857  22.951  23.993  1.00  0.00     0.062 C 
ATOM      8  C   UNL A   1      31.805  22.435  25.390  1.00  0.00     0.015 C 
ATOM      9  C   UNL A   1      34.201  21.764  25.249  1.00  0.00     0.044 C 
ATOM     10  Cl  UNL A   1      30.307  22.571  26.228  1.00  0.00    -0.089 Cl
ATOM     11  C   UNL A   1      32.881  21.891  25.968  1.00  0.00    -0.010 C 
BRANCH   6  12
ATOM     12  C   UNL A   1      33.333  23.924  22.246  1.00  0.00     0.228 C 
ATOM     13  N   UNL A   1      33.140  25.218  21.897  1.00  0.00    -0.326 N 
ATOM     14  H   UNL A   1      33.243  25.417  20.939  1.00  0.00     0.169 HD
ATOM     15  O   UNL A   1      33.646  23.105  21.385  1.00  0.00    -0.274 OA
BRANCH  13  16
ATOM     16  C   UNL A   1      32.816  26.303  22.700  1.00  0.00     0.048 A 
ATOM     17  C   UNL A   1      31.140  30.373  25.309  1.00  0.00     0.052 C 
ATOM     18  C   UNL A   1      31.623  29.341  24.312  1.00  0.00     0.027 A 
ATOM     19  C   UNL A   1      33.176  28.680  24.728  1.00  0.00     0.012 A 
ATOM     20  C   UNL A   1      30.691  28.509  23.155  1.00  0.00     0.274 A 
ATOM     21  C   UNL A   1      33.879  27.142  23.923  1.00  0.00     0.027 A 
ATOM     22  C   UNL A   1      31.221  27.018  22.377  1.00  0.00     0.112 A 
BRANCH  20  23
ATOM     23  N   UNL A   1      29.575  29.232  22.555  1.00  0.00     0.063 N 
ATOM     24  O   UNL A   1      29.836  29.915  21.558  1.00  0.00    -0.258 OA
ATOM     25  O   UNL A   1      28.466  29.148  23.089  1.00  0.00    -0.258 OA
ENDBRANCH  20  23
ENDBRANCH  13  16
ENDBRANCH   6  12
ENDBRANCH   3   5
ENDBRANCH   2   3
ENDBRANCH   1   2
BRANCH   1  26
ATOM     26  C   UNL A   1      39.432  22.047  26.527  1.00  0.00     0.275 C 
BRANCH  26  27
ATOM     27  O   UNL A   1      41.119  21.907  25.764  1.00  0.00    -0.458 OA
BRANCH  27  28
ATOM     28  C   UNL A   1      42.419  22.632  25.578  1.00  0.00     0.338 C 
ATOM     29  O   UNL A   1      43.116  22.299  24.618  1.00  0.00    -0.246 OA
BRANCH  28  30
ATOM     30  C   UNL A   1      42.859  23.998  26.331  1.00  0.00     0.060 A 
ATOM     31  C   UNL A   1      43.043  25.274  25.760  1.00  0.00     0.016 A 
ATOM     32  C   UNL A   1      42.800  24.071  27.689  1.00  0.00     0.016 A 
ATOM     33  C   UNL A   1      42.750  26.488  26.506  1.00  0.00     0.010 A 
ATOM     34  C   UNL A   1      42.036  25.104  28.197  1.00  0.00     0.010 A 
ATOM     35  C   UNL A   1      42.101  26.390  27.728  1.00  0.00    -0.014 A 
BRANCH  35  36
ATOM     36  C   UNL A   1      41.659  27.353  28.783  1.00  0.00     0.031 A 
ATOM     37  C   UNL A   1      40.467  28.235  28.651  1.00  0.00     0.074 A 
ATOM     38  C   UNL A   1      42.426  27.289  29.918  1.00  0.00     0.049 A 
ATOM     39  N   UNL A   1      40.475  29.529  28.619  1.00  0.00    -0.248 NA
ATOM     40  C   UNL A   1      39.102  27.697  28.541  1.00  0.00     0.031 C 
ATOM     41  C   UNL A   1      42.427  27.951  31.208  1.00  0.00     0.029 A 
ATOM     42  N   UNL A   1      43.614  26.526  30.017  1.00  0.00    -0.354 N 
ATOM     43  C   UNL A   1      39.159  29.929  28.855  1.00  0.00     0.074 A 
ATOM     44  C   UNL A   1      38.339  28.801  28.504  1.00  0.00     0.031 C 
ATOM     45  C   UNL A   1      43.697  27.906  31.695  1.00  0.00     0.029 A 
ATOM     46  C   UNL A   1      44.557  27.241  30.710  1.00  0.00     0.049 A 
ATOM     47  H   UNL A   1      43.744  25.623  29.644  1.00  0.00     0.167 HD
ATOM     48  C   UNL A   1      38.869  30.925  29.749  1.00  0.00     0.034 A 
ATOM     49  C   UNL A   1      45.573  27.715  29.930  1.00  0.00     0.034 A 
ATOM     50  C   UNL A   1      40.063  31.213  30.526  1.00  0.00     0.049 A 
ATOM     51  C   UNL A   1      45.407  29.204  29.763  1.00  0.00     0.074 A 
ATOM     52  C   UNL A   1      40.474  30.819  31.786  1.00  0.00     0.029 A 
ATOM     53  N   UNL A   1      41.168  31.715  29.889  1.00  0.00    -0.354 N 
ATOM     54  N   UNL A   1      44.304  29.847  30.031  1.00  0.00    -0.248 NA
ATOM     55  C   UNL A   1      46.455  30.071  29.250  1.00  0.00     0.031 C 
ATOM     56  C   UNL A   1      41.869  31.085  31.884  1.00  0.00     0.029 A 
ATOM     57  C   UNL A   1      42.285  31.635  30.687  1.00  0.00     0.049 A 
ATOM     58  H   UNL A   1      41.164  32.085  28.977  1.00  0.00     0.167 HD
ATOM     59  C   UNL A   1      44.482  31.179  29.810  1.00  0.00     0.074 A 
ATOM     60  C   UNL A   1      45.822  31.257  29.243  1.00  0.00     0.031 C 
ATOM     61  C   UNL A   1      43.532  32.108  30.130  1.00  0.00     0.034 A 
BRANCH  48  62
ATOM     62  C   UNL A   1      37.512  31.418  30.222  1.00  0.00     0.023 A 
ATOM     63  C   UNL A   1      36.740  32.214  29.342  1.00  0.00     0.031 A 
ATOM     64  C   UNL A   1      36.879  31.084  31.433  1.00  0.00     0.131 A 
ATOM     65  C   UNL A   1      35.466  32.698  29.679  1.00  0.00     0.055 A 
ATOM     66  C   UNL A   1      35.601  31.570  31.779  1.00  0.00     0.041 A 
ATOM     67  F   UNL A   1      37.453  30.247  32.312  1.00  0.00    -0.206 F 
ATOM     68  C   UNL A   1      34.890  32.389  30.904  1.00  0.00     0.022 A 
BRANCH  65  69
ATOM     69  S   UNL A   1      34.586  33.732  28.472  1.00  0.00     0.124 S 
ATOM     70  O   UNL A   1      34.324  34.944  29.242  1.00  0.00    -0.237 OA
ATOM     71  O   UNL A   1      35.558  33.851  27.392  1.00  0.00    -0.237 OA
ATOM     72  O   UNL A   1      33.399  32.940  28.149  1.00  0.00    -0.744 OA
ENDBRANCH  65  69
ENDBRANCH  48  62
BRANCH  49  73
ATOM     73  C   UNL A   1      46.042  26.759  28.830  1.00  0.00     0.023 A 
ATOM     74  C   UNL A   1      45.872  27.133  27.466  1.00  0.00     0.031 A 
ATOM     75  C   UNL A   1      46.885  25.660  29.067  1.00  0.00     0.131 A 
ATOM     76  C   UNL A   1      46.590  26.500  26.424  1.00  0.00     0.055 A 
ATOM     77  C   UNL A   1      47.550  24.986  28.022  1.00  0.00     0.041 A 
ATOM     78  F   UNL A   1      47.173  25.269  30.317  1.00  0.00    -0.206 F 
ATOM     79  C   UNL A   1      47.425  25.416  26.698  1.00  0.00     0.022 A 
BRANCH  76  80
ATOM     80  S   UNL A   1      46.751  27.356  24.798  1.00  0.00     0.124 S 
ATOM     81  O   UNL A   1      47.144  26.279  23.902  1.00  0.00    -0.237 OA
ATOM     82  O   UNL A   1      45.414  27.915  24.596  1.00  0.00    -0.237 OA
ATOM     83  O   UNL A   1      47.770  28.375  25.044  1.00  0.00    -0.744 OA
ENDBRANCH  76  80
ENDBRANCH  49  73
BRANCH  61  84
ATOM     84  C   UNL A   1      43.709  33.580  29.907  1.00  0.00     0.023 A 
ATOM     85  C   UNL A   1      43.441  34.132  28.658  1.00  0.00     0.031 A 
ATOM     86  C   UNL A   1      44.165  34.477  30.902  1.00  0.00     0.131 A 
ATOM     87  C   UNL A   1      43.402  35.516  28.488  1.00  0.00     0.055 A 
ATOM     88  C   UNL A   1      44.256  35.851  30.690  1.00  0.00     0.041 A 
ATOM     89  F   UNL A   1      44.508  34.083  32.135  1.00  0.00    -0.206 F 
ATOM     90  C   UNL A   1      43.826  36.386  29.488  1.00  0.00     0.022 A 
BRANCH  87  91
ATOM     91  S   UNL A   1      42.640  36.130  26.975  1.00  0.00     0.124 S 
ATOM     92  O   UNL A   1      43.194  37.475  26.861  1.00  0.00    -0.237 OA
ATOM     93  O   UNL A   1      43.126  35.164  25.992  1.00  0.00    -0.237 OA
ATOM     94  O   UNL A   1      41.210  36.063  27.263  1.00  0.00    -0.744 OA
ENDBRANCH  87  91
ENDBRANCH  61  84
ENDBRANCH  35  36
ENDBRANCH  28  30
ENDBRANCH  27  28
ENDBRANCH  26  27
ENDBRANCH   1  26
TORSDOF 17
ENDMDL
MODEL 2
REMARK VINA RESULT:     -14.0      2.146      4.076
REMARK SMILES Cc1ccc(NC(=O)[C@H]2CC(Cl)=CC[C@@H]2C(=O)OCCOC(=O)c2ccc(-c3c4nc(c(-c5cc(S(=O)(=O)[O-])ccc5F)c5ccc([nH]5)c(-c5cc(S(=O)(=O)[O-])ccc5F)c5nc(c(-c6cc(S(=O)(=O)[O-])ccc6F)c6ccc3[nH]6)C=C5)C=C4)cc2)cc1[N+](=O)[O-]
REMARK SMILES IDX 19 1 18 2 16 3 17 4 15 5 9 6 10 7 11 8 14 9 12 10 13 11 7 12
REMARK SMILES IDX 6 13 8 15 5 16 1 17 2 18 3 19 88 20 4 21 87 22 89 23 90 24
REMARK SMILES IDX 91 25 20 26 21 27 22 28 23 29 24 30 25 31 86 32 26 33 85 34
REMARK SMILES IDX 27 35 28 36 29 37 79 38 30 39 84 40 78 41 80 42 31 43 83 44
REMARK SMILES IDX 77 45 76 46 32 48 64 49 44 50 63 51 45 52 48 53 62 54 81 55
REMARK SMILES IDX 46 56 47 57 61 59 82 60 49 61 33 62 34 63 42 64 35 65 41 66
REMARK SMILES IDX 43 67 40 68 36 69 37 70 38 71 39 72 65 73 66 74 74 75 67 76
REMARK SMILES IDX 73 77 75 78 72 79 68 80 69 81 70 82 71 83 50 84 51 85 59 86
REMARK SMILES IDX 52 87 58 88 60 89 57 90 53 91 54 92 55 93 56 94
REMARK H PARENT 6 14 80 47 48 58
REMARK Flexibility Score: inf
ROOT
ATOM      1  C   UNL A   1      38.604  23.837  26.630  1.00  0.00     0.274 C 
ENDROOT
BRANCH   1   2
ATOM      2  O   UNL A   1      36.974  24.022  25.883  1.00  0.00    -0.462 OA
BRANCH   2   3
ATOM      3  C   UNL A   1      35.701  23.666  25.531  1.00  0.00     0.310 C 
ATOM      4  O   UNL A   1      35.605  22.889  24.569  1.00  0.00    -0.252 OA
BRANCH   3   5
ATOM      5  C   UNL A   1      34.284  24.134  26.098  1.00  0.00     0.116 C 
ATOM      6  C   UNL A   1      33.033  23.247  26.300  1.00  0.00     0.098 C 
ATOM      7  C   UNL A   1      31.777  23.974  26.807  1.00  0.00     0.062 C 
ATOM      8  C   UNL A   1      31.470  25.154  25.951  1.00  0.00     0.015 C 
ATOM      9  C   UNL A   1      33.904  25.591  25.651  1.00  0.00     0.044 C 
ATOM     10  Cl  UNL A   1      29.810  25.521  25.675  1.00  0.00    -0.089 Cl
ATOM     11  C   UNL A   1      32.446  25.897  25.419  1.00  0.00    -0.010 C 
BRANCH   6  12
ATOM     12  C   UNL A   1      33.440  22.186  27.272  1.00  0.00     0.228 C 
ATOM     13  N   UNL A   1      33.409  20.905  26.836  1.00  0.00    -0.326 N 
ATOM     14  H   UNL A   1      33.707  20.230  27.487  1.00  0.00     0.169 HD
ATOM     15  O   UNL A   1      33.853  22.432  28.403  1.00  0.00    -0.274 OA
BRANCH  13  16
ATOM     16  C   UNL A   1      33.016  20.409  25.600  1.00  0.00     0.048 A 
ATOM     17  C   UNL A   1      31.796  18.055  21.224  1.00  0.00     0.052 C 
ATOM     18  C   UNL A   1      32.420  18.661  22.463  1.00  0.00     0.027 A 
ATOM     19  C   UNL A   1      32.162  20.377  22.574  1.00  0.00     0.012 A 
ATOM     20  C   UNL A   1      32.934  17.844  23.866  1.00  0.00     0.274 A 
ATOM     21  C   UNL A   1      32.477  21.358  24.138  1.00  0.00     0.027 A 
ATOM     22  C   UNL A   1      33.201  18.651  25.411  1.00  0.00     0.112 A 
BRANCH  20  23
ATOM     23  N   UNL A   1      33.482  16.504  23.693  1.00  0.00     0.063 N 
ATOM     24  O   UNL A   1      33.119  15.652  24.511  1.00  0.00    -0.258 OA
ATOM     25  O   UNL A   1      34.287  16.314  22.777  1.00  0.00    -0.258 OA
ENDBRANCH  20  23
ENDBRANCH  13  16
ENDBRANCH   6  12
ENDBRANCH   3   5
ENDBRANCH   2   3
ENDBRANCH   1   2
BRANCH   1  26
ATOM     26  C   UNL A   1      39.752  21.952  26.589  1.00  0.00     0.275 C 
BRANCH  26  27
ATOM     27  O   UNL A   1      41.432  21.916  25.801  1.00  0.00    -0.458 OA
BRANCH  27  28
ATOM     28  C   UNL A   1      42.667  22.733  25.563  1.00  0.00     0.338 C 
ATOM     29  O   UNL A   1      43.374  22.417  24.605  1.00  0.00    -0.246 OA
BRANCH  28  30
ATOM     30  C   UNL A   1      43.007  24.161  26.252  1.00  0.00     0.060 A 
ATOM     31  C   UNL A   1      42.980  25.434  25.648  1.00  0.00     0.016 A 
ATOM     32  C   UNL A   1      43.066  24.260  27.608  1.00  0.00     0.016 A 
ATOM     33  C   UNL A   1      42.613  26.624  26.402  1.00  0.00     0.010 A 
ATOM     34  C   UNL A   1      42.232  25.207  28.172  1.00  0.00     0.010 A 
ATOM     35  C   UNL A   1      42.097  26.480  27.681  1.00  0.00    -0.014 A 
BRANCH  35  36
ATOM     36  C   UNL A   1      41.642  27.409  28.760  1.00  0.00     0.031 A 
ATOM     37  C   UNL A   1      40.449  28.292  28.643  1.00  0.00     0.074 A 
ATOM     38  C   UNL A   1      42.397  27.313  29.901  1.00  0.00     0.049 A 
ATOM     39  N   UNL A   1      40.453  29.586  28.650  1.00  0.00    -0.248 NA
ATOM     40  C   UNL A   1      39.086  27.754  28.503  1.00  0.00     0.031 C 
ATOM     41  C   UNL A   1      42.383  27.935  31.210  1.00  0.00     0.029 A 
ATOM     42  N   UNL A   1      43.587  26.550  29.989  1.00  0.00    -0.354 N 
ATOM     43  C   UNL A   1      39.134  29.975  28.885  1.00  0.00     0.074 A 
ATOM     44  C   UNL A   1      38.321  28.857  28.492  1.00  0.00     0.031 C 
ATOM     45  C   UNL A   1      43.648  27.879  31.708  1.00  0.00     0.029 A 
ATOM     46  C   UNL A   1      44.520  27.246  30.713  1.00  0.00     0.049 A 
ATOM     47  H   UNL A   1      43.723  25.659  29.590  1.00  0.00     0.167 HD
ATOM     48  C   UNL A   1      38.833  30.943  29.805  1.00  0.00     0.034 A 
ATOM     49  C   UNL A   1      45.543  27.746  29.958  1.00  0.00     0.034 A 
ATOM     50  C   UNL A   1      40.018  31.211  30.602  1.00  0.00     0.049 A 
ATOM     51  C   UNL A   1      45.374  29.239  29.834  1.00  0.00     0.074 A 
ATOM     52  C   UNL A   1      40.417  30.780  31.854  1.00  0.00     0.029 A 
ATOM     53  N   UNL A   1      41.128  31.735  29.993  1.00  0.00    -0.354 N 
ATOM     54  N   UNL A   1      44.267  29.871  30.111  1.00  0.00    -0.248 NA
ATOM     55  C   UNL A   1      46.426  30.123  29.359  1.00  0.00     0.031 C 
ATOM     56  C   UNL A   1      41.810  31.047  31.975  1.00  0.00     0.029 A 
ATOM     57  C   UNL A   1      42.237  31.633  30.799  1.00  0.00     0.049 A 
ATOM     58  H   UNL A   1      41.132  32.132  29.092  1.00  0.00     0.167 HD
ATOM     59  C   UNL A   1      44.444  31.209  29.931  1.00  0.00     0.074 A 
ATOM     60  C   UNL A   1      45.790  31.307  29.381  1.00  0.00     0.031 C 
ATOM     61  C   UNL A   1      43.488  32.126  30.270  1.00  0.00     0.034 A 
BRANCH  48  62
ATOM     62  C   UNL A   1      37.469  31.419  30.279  1.00  0.00     0.023 A 
ATOM     63  C   UNL A   1      36.607  32.034  29.340  1.00  0.00     0.031 A 
ATOM     64  C   UNL A   1      36.917  31.225  31.558  1.00  0.00     0.131 A 
ATOM     65  C   UNL A   1      35.321  32.486  29.676  1.00  0.00     0.055 A 
ATOM     66  C   UNL A   1      35.627  31.680  31.902  1.00  0.00     0.041 A 
ATOM     67  F   UNL A   1      37.584  30.558  32.512  1.00  0.00    -0.206 F 
ATOM     68  C   UNL A   1      34.824  32.322  30.962  1.00  0.00     0.022 A 
BRANCH  65  69
ATOM     69  S   UNL A   1      34.319  33.282  28.387  1.00  0.00     0.124 S 
ATOM     70  O   UNL A   1      33.656  32.140  27.766  1.00  0.00    -0.237 OA
ATOM     71  O   UNL A   1      33.468  34.179  29.159  1.00  0.00    -0.237 OA
ATOM     72  O   UNL A   1      35.314  33.948  27.546  1.00  0.00    -0.744 OA
ENDBRANCH  65  69
ENDBRANCH  48  62
BRANCH  49  73
ATOM     73  C   UNL A   1      46.026  26.825  28.835  1.00  0.00     0.023 A 
ATOM     74  C   UNL A   1      45.875  27.242  27.481  1.00  0.00     0.031 A 
ATOM     75  C   UNL A   1      46.864  25.717  29.048  1.00  0.00     0.131 A 
ATOM     76  C   UNL A   1      46.607  26.642  26.430  1.00  0.00     0.055 A 
ATOM     77  C   UNL A   1      47.542  25.075  27.991  1.00  0.00     0.041 A 
ATOM     78  F   UNL A   1      47.133  25.286  30.289  1.00  0.00    -0.206 F 
ATOM     79  C   UNL A   1      47.436  25.548  26.680  1.00  0.00     0.022 A 
BRANCH  76  80
ATOM     80  S   UNL A   1      46.792  27.549  24.834  1.00  0.00     0.124 S 
ATOM     81  O   UNL A   1      47.845  28.510  25.129  1.00  0.00    -0.237 OA
ATOM     82  O   UNL A   1      47.131  26.481  23.894  1.00  0.00    -0.237 OA
ATOM     83  O   UNL A   1      45.466  28.119  24.605  1.00  0.00    -0.744 OA
ENDBRANCH  76  80
ENDBRANCH  49  73
BRANCH  61  84
ATOM     84  C   UNL A   1      43.664  33.604  30.093  1.00  0.00     0.023 A 
ATOM     85  C   UNL A   1      43.711  34.152  28.815  1.00  0.00     0.031 A 
ATOM     86  C   UNL A   1      43.811  34.513  31.167  1.00  0.00     0.131 A 
ATOM     87  C   UNL A   1      43.667  35.534  28.633  1.00  0.00     0.055 A 
ATOM     88  C   UNL A   1      43.903  35.890  30.980  1.00  0.00     0.041 A 
ATOM     89  F   UNL A   1      43.834  34.126  32.450  1.00  0.00    -0.206 F 
ATOM     90  C   UNL A   1      43.784  36.414  29.705  1.00  0.00     0.022 A 
BRANCH  87  91
ATOM     91  S   UNL A   1      43.305  36.126  26.970  1.00  0.00     0.124 S 
ATOM     92  O   UNL A   1      43.373  34.905  26.174  1.00  0.00    -0.237 OA
ATOM     93  O   UNL A   1      41.966  36.687  27.147  1.00  0.00    -0.237 OA
ATOM     94  O   UNL A   1      44.362  37.101  26.717  1.00  0.00    -0.744 OA
ENDBRANCH  87  91
ENDBRANCH  61  84
ENDBRANCH  35  36
ENDBRANCH  28  30
ENDBRANCH  27  28
ENDBRANCH  26  27
ENDBRANCH   1  26
TORSDOF 17
ENDMDL
MODEL 3
REMARK VINA RESULT:     -13.9      5.628      9.156
REMARK SMILES Cc1ccc(NC(=O)[C@H]2CC(Cl)=CC[C@@H]2C(=O)OCCOC(=O)c2ccc(-c3c4nc(c(-c5cc(S(=O)(=O)[O-])ccc5F)c5ccc([nH]5)c(-c5cc(S(=O)(=O)[O-])ccc5F)c5nc(c(-c6cc(S(=O)(=O)[O-])ccc6F)c6ccc3[nH]6)C=C5)C=C4)cc2)cc1[N+](=O)[O-]
REMARK SMILES IDX 19 1 18 2 16 3 17 4 15 5 9 6 10 7 11 8 14 9 12 10 13 11 7 12
REMARK SMILES IDX 6 13 8 15 5 16 1 17 2 18 3 19 88 20 4 21 87 22 89 23 90 24
REMARK SMILES IDX 91 25 20 26 21 27 22 28 23 29 24 30 25 31 86 32 26 33 85 34
REMARK SMILES IDX 27 35 28 36 29 37 79 38 30 39 84 40 78 41 80 42 31 43 83 44
REMARK SMILES IDX 77 45 76 46 32 48 64 49 44 50 63 51 45 52 48 53 62 54 81 55
REMARK SMILES IDX 46 56 47 57 61 59 82 60 49 61 33 62 34 63 42 64 35 65 41 66
REMARK SMILES IDX 43 67 40 68 36 69 37 70 38 71 39 72 65 73 66 74 74 75 67 76
REMARK SMILES IDX 73 77 75 78 72 79 68 80 69 81 70 82 71 83 50 84 51 85 59 86
REMARK SMILES IDX 52 87 58 88 60 89 57 90 53 91 54 92 55 93 56 94
REMARK H PARENT 6 14 80 47 48 58
REMARK Flexibility Score: inf
ROOT
ATOM      1  C   UNL A   1      46.400  27.193  25.387  1.00  0.00     0.274 C 
ENDROOT
BRANCH   1   2
ATOM      2  O   UNL A   1      44.629  27.318  25.081  1.00  0.00    -0.462 OA
BRANCH   2   3
ATOM      3  C   UNL A   1      43.310  27.535  25.375  1.00  0.00     0.310 C 
ATOM      4  O   UNL A   1      42.583  27.825  24.413  1.00  0.00    -0.252 OA
BRANCH   3   5
ATOM      5  C   UNL A   1      42.535  27.553  26.770  1.00  0.00     0.116 C 
ATOM      6  C   UNL A   1      42.552  26.446  27.849  1.00  0.00     0.098 C 
ATOM      7  C   UNL A   1      41.660  26.697  29.076  1.00  0.00     0.062 C 
ATOM      8  C   UNL A   1      40.267  27.021  28.657  1.00  0.00     0.015 C 
ATOM      9  C   UNL A   1      41.133  28.257  26.674  1.00  0.00     0.044 C 
ATOM     10  Cl  UNL A   1      38.987  26.436  29.649  1.00  0.00    -0.089 Cl
ATOM     11  C   UNL A   1      40.024  27.736  27.554  1.00  0.00    -0.010 C 
BRANCH   6  12
ATOM     12  C   UNL A   1      43.980  26.313  28.272  1.00  0.00     0.228 C 
ATOM     13  N   UNL A   1      44.539  25.084  28.179  1.00  0.00    -0.326 N 
ATOM     14  H   UNL A   1      45.487  25.031  28.438  1.00  0.00     0.169 HD
ATOM     15  O   UNL A   1      44.668  27.267  28.629  1.00  0.00    -0.274 OA
BRANCH  13  16
ATOM     16  C   UNL A   1      43.964  23.888  27.772  1.00  0.00     0.048 A 
ATOM     17  C   UNL A   1      42.225  19.496  25.805  1.00  0.00     0.052 C 
ATOM     18  C   UNL A   1      42.679  20.903  26.132  1.00  0.00     0.027 A 
ATOM     19  C   UNL A   1      41.850  21.575  27.504  1.00  0.00     0.012 A 
ATOM     20  C   UNL A   1      44.105  21.675  25.610  1.00  0.00     0.274 A 
ATOM     21  C   UNL A   1      42.424  23.125  28.384  1.00  0.00     0.027 A 
ATOM     22  C   UNL A   1      44.775  23.102  26.399  1.00  0.00     0.112 A 
BRANCH  20  23
ATOM     23  N   UNL A   1      44.595  21.338  24.279  1.00  0.00     0.063 N 
ATOM     24  O   UNL A   1      44.259  22.096  23.362  1.00  0.00    -0.258 OA
ATOM     25  O   UNL A   1      45.273  20.316  24.144  1.00  0.00    -0.258 OA
ENDBRANCH  20  23
ENDBRANCH  13  16
ENDBRANCH   6  12
ENDBRANCH   3   5
ENDBRANCH   2   3
ENDBRANCH   1   2
BRANCH   1  26
ATOM     26  C   UNL A   1      47.569  28.762  26.411  1.00  0.00     0.275 C 
BRANCH  26  27
ATOM     27  O   UNL A   1      46.709  30.279  27.049  1.00  0.00    -0.458 OA
BRANCH  27  28
ATOM     28  C   UNL A   1      45.367  30.934  27.184  1.00  0.00     0.338 C 
ATOM     29  O   UNL A   1      44.739  31.148  26.145  1.00  0.00    -0.246 OA
BRANCH  28  30
ATOM     30  C   UNL A   1      44.535  31.119  28.563  1.00  0.00     0.060 A 
ATOM     31  C   UNL A   1      44.335  32.309  29.293  1.00  0.00     0.016 A 
ATOM     32  C   UNL A   1      43.689  30.138  28.979  1.00  0.00     0.016 A 
ATOM     33  C   UNL A   1      43.107  32.543  30.038  1.00  0.00     0.010 A 
ATOM     34  C   UNL A   1      42.382  30.531  29.194  1.00  0.00     0.010 A 
ATOM     35  C   UNL A   1      42.041  31.671  29.875  1.00  0.00    -0.014 A 
BRANCH  35  36
ATOM     36  C   UNL A   1      40.668  31.542  30.453  1.00  0.00     0.031 A 
ATOM     37  C   UNL A   1      39.647  32.625  30.410  1.00  0.00     0.074 A 
ATOM     38  C   UNL A   1      40.421  30.295  30.967  1.00  0.00     0.049 A 
ATOM     39  N   UNL A   1      39.140  33.237  31.432  1.00  0.00    -0.248 NA
ATOM     40  C   UNL A   1      39.089  33.127  29.145  1.00  0.00     0.031 C 
ATOM     41  C   UNL A   1      39.294  29.638  31.598  1.00  0.00     0.029 A 
ATOM     42  N   UNL A   1      41.413  29.293  31.099  1.00  0.00    -0.354 N 
ATOM     43  C   UNL A   1      37.996  33.885  30.964  1.00  0.00     0.074 A 
ATOM     44  C   UNL A   1      38.182  34.031  29.546  1.00  0.00     0.031 C 
ATOM     45  C   UNL A   1      39.782  28.636  32.378  1.00  0.00     0.029 A 
ATOM     46  C   UNL A   1      41.247  28.645  32.296  1.00  0.00     0.049 A 
ATOM     47  H   UNL A   1      42.113  29.094  30.435  1.00  0.00     0.167 HD
ATOM     48  C   UNL A   1      36.812  33.817  31.648  1.00  0.00     0.034 A 
ATOM     49  C   UNL A   1      42.203  28.946  33.223  1.00  0.00     0.034 A 
ATOM     50  C   UNL A   1      36.924  32.789  32.669  1.00  0.00     0.049 A 
ATOM     51  C   UNL A   1      41.596  29.833  34.281  1.00  0.00     0.074 A 
ATOM     52  C   UNL A   1      36.508  31.472  32.716  1.00  0.00     0.029 A 
ATOM     53  N   UNL A   1      37.830  32.953  33.685  1.00  0.00    -0.354 N 
ATOM     54  N   UNL A   1      40.464  30.465  34.137  1.00  0.00    -0.248 NA
ATOM     55  C   UNL A   1      42.234  30.099  35.560  1.00  0.00     0.031 C 
ATOM     56  C   UNL A   1      37.204  30.840  33.785  1.00  0.00     0.029 A 
ATOM     57  C   UNL A   1      38.031  31.779  34.370  1.00  0.00     0.049 A 
ATOM     58  H   UNL A   1      38.279  33.804  33.897  1.00  0.00     0.167 HD
ATOM     59  C   UNL A   1      40.173  31.151  35.277  1.00  0.00     0.074 A 
ATOM     60  C   UNL A   1      41.354  30.955  36.107  1.00  0.00     0.031 C 
ATOM     61  C   UNL A   1      38.984  31.801  35.456  1.00  0.00     0.034 A 
BRANCH  48  62
ATOM     62  C   UNL A   1      35.447  34.353  31.249  1.00  0.00     0.023 A 
ATOM     63  C   UNL A   1      34.861  35.365  32.047  1.00  0.00     0.031 A 
ATOM     64  C   UNL A   1      34.725  34.014  30.090  1.00  0.00     0.131 A 
ATOM     65  C   UNL A   1      33.615  35.938  31.747  1.00  0.00     0.055 A 
ATOM     66  C   UNL A   1      33.470  34.584  29.786  1.00  0.00     0.041 A 
ATOM     67  F   UNL A   1      35.217  33.149  29.190  1.00  0.00    -0.206 F 
ATOM     68  C   UNL A   1      32.905  35.545  30.621  1.00  0.00     0.022 A 
BRANCH  65  69
ATOM     69  S   UNL A   1      32.957  37.211  32.864  1.00  0.00     0.124 S 
ATOM     70  O   UNL A   1      33.227  38.438  32.121  1.00  0.00    -0.237 OA
ATOM     71  O   UNL A   1      31.556  36.828  32.987  1.00  0.00    -0.237 OA
ATOM     72  O   UNL A   1      33.753  37.040  34.079  1.00  0.00    -0.744 OA
ENDBRANCH  65  69
ENDBRANCH  48  62
BRANCH  49  73
ATOM     73  C   UNL A   1      43.620  29.098  32.663  1.00  0.00     0.023 A 
ATOM     74  C   UNL A   1      44.258  30.370  32.723  1.00  0.00     0.031 A 
ATOM     75  C   UNL A   1      44.448  28.008  32.345  1.00  0.00     0.131 A 
ATOM     76  C   UNL A   1      45.658  30.511  32.575  1.00  0.00     0.055 A 
ATOM     77  C   UNL A   1      45.834  28.157  32.131  1.00  0.00     0.041 A 
ATOM     78  F   UNL A   1      43.966  26.757  32.333  1.00  0.00    -0.206 F 
ATOM     79  C   UNL A   1      46.451  29.404  32.268  1.00  0.00     0.022 A 
BRANCH  76  80
ATOM     80  S   UNL A   1      46.475  32.044  33.193  1.00  0.00     0.124 S 
ATOM     81  O   UNL A   1      45.745  33.100  32.506  1.00  0.00    -0.237 OA
ATOM     82  O   UNL A   1      46.278  31.953  34.640  1.00  0.00    -0.237 OA
ATOM     83  O   UNL A   1      47.871  31.878  32.791  1.00  0.00    -0.744 OA
ENDBRANCH  76  80
ENDBRANCH  49  73
BRANCH  61  84
ATOM     84  C   UNL A   1      38.636  32.554  36.706  1.00  0.00     0.023 A 
ATOM     85  C   UNL A   1      37.685  32.043  37.584  1.00  0.00     0.031 A 
ATOM     86  C   UNL A   1      39.208  33.798  37.059  1.00  0.00     0.131 A 
ATOM     87  C   UNL A   1      37.498  32.618  38.841  1.00  0.00     0.055 A 
ATOM     88  C   UNL A   1      38.919  34.444  38.259  1.00  0.00     0.041 A 
ATOM     89  F   UNL A   1      40.099  34.435  36.288  1.00  0.00    -0.206 F 
ATOM     90  C   UNL A   1      38.093  33.829  39.184  1.00  0.00     0.022 A 
BRANCH  87  91
ATOM     91  S   UNL A   1      36.577  31.653  40.051  1.00  0.00     0.124 S 
ATOM     92  O   UNL A   1      35.284  31.471  39.397  1.00  0.00    -0.237 OA
ATOM     93  O   UNL A   1      37.403  30.452  40.154  1.00  0.00    -0.237 OA
ATOM     94  O   UNL A   1      36.567  32.508  41.234  1.00  0.00    -0.744 OA
ENDBRANCH  87  91
ENDBRANCH  61  84
ENDBRANCH  35  36
ENDBRANCH  28  30
ENDBRANCH  27  28
ENDBRANCH  26  27
ENDBRANCH   1  26
TORSDOF 17
ENDMDL
