MODEL 1
REMARK VINA RESULT:     -13.1      0.000      0.000
REMARK SMILES Cc1c(CC(=O)OCCOC(=O)c2ccc(-c3c4nc(c(-c5cc(S(=O)(=O)[O-])ccc5F)c5ccc([nH]5)c(-c5cc(S(=O)(=O)[O-])ccc5F)c5nc(c(-c6cc(S(=O)(=O)[O-])ccc6F)c6ccc3[nH]6)C=C5)C=C4)cc2)cc(-c2ccc(S(C)(=O)=O)cc2)n1-c1cccc(F)c1
REMARK SMILES IDX 8 1 7 2 5 3 6 4 4 5 3 6 1 7 2 8 88 9 76 10 77 11 89 12 90 13
REMARK SMILES IDX 95 14 91 15 93 16 92 17 94 18 78 19 79 20 87 21 80 22 86 23
REMARK SMILES IDX 81 24 82 25 83 26 84 27 85 28 9 29 10 30 11 31 12 32 13 33
REMARK SMILES IDX 14 34 75 35 15 36 74 37 16 38 17 39 18 40 68 41 19 42 73 43
REMARK SMILES IDX 67 44 69 45 20 46 72 47 66 48 65 49 21 51 53 52 33 53 52 54
REMARK SMILES IDX 34 55 37 56 51 57 70 58 35 59 36 60 50 62 71 63 38 64 22 65
REMARK SMILES IDX 23 66 31 67 24 68 30 69 32 70 29 71 25 72 26 73 27 74 28 75
REMARK SMILES IDX 54 76 55 77 63 78 56 79 62 80 64 81 61 82 57 83 58 84 59 85
REMARK SMILES IDX 60 86 39 87 40 88 48 89 41 90 47 91 49 92 46 93 42 94 43 95
REMARK SMILES IDX 44 96 45 97
REMARK H PARENT 69 50 37 61
REMARK Flexibility Score: inf
ROOT
ATOM      1  C   UNL A   1      32.099  29.320  26.974  1.00  0.00     0.274 C 
ENDROOT
BRANCH   1   2
ATOM      2  O   UNL A   1      31.397  29.279  25.695  1.00  0.00    -0.462 OA
BRANCH   2   3
ATOM      3  C   UNL A   1      30.992  28.066  25.229  1.00  0.00     0.310 C 
ATOM      4  O   UNL A   1      30.609  27.879  24.073  1.00  0.00    -0.252 OA
BRANCH   3   5
ATOM      5  C   UNL A   1      31.112  26.907  26.215  1.00  0.00     0.160 C 
BRANCH   5   6
ATOM      6  C   UNL A   1      31.975  25.720  25.865  1.00  0.00    -0.015 A 
ATOM      7  C   UNL A   1      34.242  26.903  25.412  1.00  0.00     0.065 C 
ATOM      8  C   UNL A   1      33.323  25.727  25.534  1.00  0.00     0.024 A 
ATOM      9  N   UNL A   1      33.716  24.435  25.213  1.00  0.00    -0.313 N 
ATOM     10  C   UNL A   1      31.523  24.384  25.625  1.00  0.00     0.033 A 
ATOM     11  C   UNL A   1      32.591  23.609  25.195  1.00  0.00     0.053 A 
BRANCH   9  12
ATOM     12  C   UNL A   1      35.050  24.023  24.963  1.00  0.00     0.049 A 
ATOM     13  C   UNL A   1      35.430  23.589  23.686  1.00  0.00     0.027 A 
ATOM     14  C   UNL A   1      35.958  23.995  26.026  1.00  0.00     0.065 A 
ATOM     15  C   UNL A   1      36.726  23.118  23.475  1.00  0.00     0.005 A 
ATOM     16  C   UNL A   1      37.235  23.498  25.801  1.00  0.00     0.125 A 
ATOM     17  C   UNL A   1      37.627  23.061  24.538  1.00  0.00     0.039 A 
ATOM     18  F   UNL A   1      38.092  23.406  26.826  1.00  0.00    -0.207 F 
ENDBRANCH   9  12
BRANCH  11  19
ATOM     19  C   UNL A   1      32.612  22.177  24.850  1.00  0.00    -0.001 A 
ATOM     20  C   UNL A   1      33.065  21.222  25.775  1.00  0.00     0.011 A 
ATOM     21  C   UNL A   1      32.234  21.750  23.569  1.00  0.00     0.011 A 
ATOM     22  C   UNL A   1      33.179  19.874  25.419  1.00  0.00     0.021 A 
ATOM     23  C   UNL A   1      32.341  20.401  23.205  1.00  0.00     0.021 A 
ATOM     24  C   UNL A   1      32.829  19.473  24.128  1.00  0.00     0.067 A 
BRANCH  24  25
ATOM     25  S   UNL A   1      32.966  17.753  23.698  1.00  0.00     0.175 S 
ATOM     26  C   UNL A   1      32.244  16.892  25.070  1.00  0.00     0.163 C 
ATOM     27  O   UNL A   1      32.148  17.532  22.537  1.00  0.00    -0.224 OA
ATOM     28  O   UNL A   1      34.391  17.414  23.680  1.00  0.00    -0.224 OA
ENDBRANCH  24  25
ENDBRANCH  11  19
ENDBRANCH   5   6
ENDBRANCH   3   5
ENDBRANCH   2   3
ENDBRANCH   1   2
BRANCH   1  29
ATOM     29  C   UNL A   1      33.351  30.252  26.907  1.00  0.00     0.275 C 
BRANCH  29  30
ATOM     30  O   UNL A   1      34.092  30.650  28.135  1.00  0.00    -0.458 OA
BRANCH  30  31
ATOM     31  C   UNL A   1      35.173  31.494  28.035  1.00  0.00     0.338 C 
ATOM     32  O   UNL A   1      35.030  32.700  27.881  1.00  0.00    -0.246 OA
BRANCH  31  33
ATOM     33  C   UNL A   1      36.584  30.835  28.218  1.00  0.00     0.060 A 
ATOM     34  C   UNL A   1      37.173  30.172  27.142  1.00  0.00     0.016 A 
ATOM     35  C   UNL A   1      37.282  30.639  29.431  1.00  0.00     0.016 A 
ATOM     36  C   UNL A   1      38.422  29.423  27.265  1.00  0.00     0.010 A 
ATOM     37  C   UNL A   1      38.526  29.807  29.565  1.00  0.00     0.010 A 
ATOM     38  C   UNL A   1      39.174  29.172  28.479  1.00  0.00    -0.014 A 
BRANCH  38  39
ATOM     39  C   UNL A   1      40.232  27.845  28.477  1.00  0.00     0.031 A 
ATOM     40  C   UNL A   1      41.065  28.180  29.673  1.00  0.00     0.074 A 
ATOM     41  C   UNL A   1      40.665  26.672  27.792  1.00  0.00     0.049 A 
ATOM     42  N   UNL A   1      41.687  29.326  29.734  1.00  0.00    -0.248 NA
ATOM     43  C   UNL A   1      40.897  27.512  30.965  1.00  0.00     0.031 C 
ATOM     44  C   UNL A   1      40.212  26.167  26.479  1.00  0.00     0.029 A 
ATOM     45  N   UNL A   1      41.635  25.608  28.089  1.00  0.00    -0.354 N 
ATOM     46  C   UNL A   1      42.279  29.377  30.972  1.00  0.00     0.074 A 
ATOM     47  C   UNL A   1      41.551  28.377  31.748  1.00  0.00     0.031 C 
ATOM     48  C   UNL A   1      40.723  24.931  26.171  1.00  0.00     0.029 A 
ATOM     49  C   UNL A   1      41.649  24.431  27.195  1.00  0.00     0.049 A 
ATOM     50  H   UNL A   1      42.252  25.678  28.852  1.00  0.00     0.167 HD
ATOM     51  C   UNL A   1      43.630  29.583  30.959  1.00  0.00     0.034 A 
ATOM     52  C   UNL A   1      42.370  23.202  27.198  1.00  0.00     0.034 A 
ATOM     53  C   UNL A   1      44.356  28.342  31.041  1.00  0.00     0.049 A 
ATOM     54  C   UNL A   1      43.602  23.423  27.951  1.00  0.00     0.074 A 
ATOM     55  C   UNL A   1      44.226  27.241  31.864  1.00  0.00     0.029 A 
ATOM     56  N   UNL A   1      45.033  27.921  29.913  1.00  0.00    -0.354 N 
ATOM     57  N   UNL A   1      44.617  24.042  27.437  1.00  0.00    -0.248 NA
ATOM     58  C   UNL A   1      43.780  22.937  29.312  1.00  0.00     0.031 C 
ATOM     59  C   UNL A   1      44.358  26.136  30.999  1.00  0.00     0.029 A 
ATOM     60  C   UNL A   1      44.984  26.546  29.827  1.00  0.00     0.049 A 
ATOM     61  H   UNL A   1      45.482  28.514  29.269  1.00  0.00     0.167 HD
ATOM     62  C   UNL A   1      45.226  24.543  28.544  1.00  0.00     0.074 A 
ATOM     63  C   UNL A   1      44.885  23.622  29.617  1.00  0.00     0.031 C 
ATOM     64  C   UNL A   1      45.366  25.893  28.590  1.00  0.00     0.034 A 
BRANCH  51  65
ATOM     65  C   UNL A   1      44.056  30.760  30.131  1.00  0.00     0.023 A 
ATOM     66  C   UNL A   1      45.118  30.603  29.232  1.00  0.00     0.031 A 
ATOM     67  C   UNL A   1      43.521  32.055  30.300  1.00  0.00     0.131 A 
ATOM     68  C   UNL A   1      45.654  31.727  28.583  1.00  0.00     0.055 A 
ATOM     69  C   UNL A   1      44.086  33.175  29.692  1.00  0.00     0.041 A 
ATOM     70  F   UNL A   1      42.433  32.255  31.061  1.00  0.00    -0.206 F 
ATOM     71  C   UNL A   1      45.166  33.015  28.833  1.00  0.00     0.022 A 
BRANCH  68  72
ATOM     72  S   UNL A   1      46.998  31.481  27.394  1.00  0.00     0.124 S 
ATOM     73  O   UNL A   1      47.998  32.442  27.849  1.00  0.00    -0.237 OA
ATOM     74  O   UNL A   1      47.339  30.075  27.596  1.00  0.00    -0.237 OA
ATOM     75  O   UNL A   1      46.384  31.788  26.104  1.00  0.00    -0.744 OA
ENDBRANCH  68  72
ENDBRANCH  51  65
BRANCH  52  76
ATOM     76  C   UNL A   1      42.449  21.716  26.602  1.00  0.00     0.023 A 
ATOM     77  C   UNL A   1      43.548  21.215  25.760  1.00  0.00     0.031 A 
ATOM     78  C   UNL A   1      41.691  20.691  27.183  1.00  0.00     0.131 A 
ATOM     79  C   UNL A   1      43.832  19.813  25.579  1.00  0.00     0.055 A 
ATOM     80  C   UNL A   1      41.978  19.311  27.001  1.00  0.00     0.041 A 
ATOM     81  F   UNL A   1      40.705  20.991  28.040  1.00  0.00    -0.206 F 
ATOM     82  C   UNL A   1      43.045  18.867  26.221  1.00  0.00     0.022 A 
BRANCH  79  83
ATOM     83  S   UNL A   1      45.309  19.149  24.651  1.00  0.00     0.124 S 
ATOM     84  O   UNL A   1      44.784  18.906  23.314  1.00  0.00    -0.237 OA
ATOM     85  O   UNL A   1      46.290  20.220  24.786  1.00  0.00    -0.237 OA
ATOM     86  O   UNL A   1      45.662  17.928  25.385  1.00  0.00    -0.744 OA
ENDBRANCH  79  83
ENDBRANCH  52  76
BRANCH  64  87
ATOM     87  C   UNL A   1      45.755  26.597  27.287  1.00  0.00     0.023 A 
ATOM     88  C   UNL A   1      47.023  26.547  26.644  1.00  0.00     0.031 A 
ATOM     89  C   UNL A   1      44.803  27.453  26.711  1.00  0.00     0.131 A 
ATOM     90  C   UNL A   1      47.303  27.349  25.516  1.00  0.00     0.055 A 
ATOM     91  C   UNL A   1      45.065  28.214  25.569  1.00  0.00     0.041 A 
ATOM     92  F   UNL A   1      43.585  27.575  27.261  1.00  0.00    -0.206 F 
ATOM     93  C   UNL A   1      46.321  28.179  24.977  1.00  0.00     0.022 A 
BRANCH  90  94
ATOM     94  S   UNL A   1      48.979  27.389  24.788  1.00  0.00     0.124 S 
ATOM     95  O   UNL A   1      49.502  26.057  25.064  1.00  0.00    -0.237 OA
ATOM     96  O   UNL A   1      48.708  27.691  23.386  1.00  0.00    -0.237 OA
ATOM     97  O   UNL A   1      49.643  28.466  25.526  1.00  0.00    -0.744 OA
ENDBRANCH  90  94
ENDBRANCH  64  87
ENDBRANCH  38  39
ENDBRANCH  31  33
ENDBRANCH  30  31
ENDBRANCH  29  30
ENDBRANCH   1  29
TORSDOF 18
ENDMDL
MODEL 2
REMARK VINA RESULT:     -12.2      1.981      3.583
REMARK SMILES Cc1c(CC(=O)OCCOC(=O)c2ccc(-c3c4nc(c(-c5cc(S(=O)(=O)[O-])ccc5F)c5ccc([nH]5)c(-c5cc(S(=O)(=O)[O-])ccc5F)c5nc(c(-c6cc(S(=O)(=O)[O-])ccc6F)c6ccc3[nH]6)C=C5)C=C4)cc2)cc(-c2ccc(S(C)(=O)=O)cc2)n1-c1cccc(F)c1
REMARK SMILES IDX 8 1 7 2 5 3 6 4 4 5 3 6 1 7 2 8 88 9 76 10 77 11 89 12 90 13
REMARK SMILES IDX 95 14 91 15 93 16 92 17 94 18 78 19 79 20 87 21 80 22 86 23
REMARK SMILES IDX 81 24 82 25 83 26 84 27 85 28 9 29 10 30 11 31 12 32 13 33
REMARK SMILES IDX 14 34 75 35 15 36 74 37 16 38 17 39 18 40 68 41 19 42 73 43
REMARK SMILES IDX 67 44 69 45 20 46 72 47 66 48 65 49 21 51 53 52 33 53 52 54
REMARK SMILES IDX 34 55 37 56 51 57 70 58 35 59 36 60 50 62 71 63 38 64 22 65
REMARK SMILES IDX 23 66 31 67 24 68 30 69 32 70 29 71 25 72 26 73 27 74 28 75
REMARK SMILES IDX 54 76 55 77 63 78 56 79 62 80 64 81 61 82 57 83 58 84 59 85
REMARK SMILES IDX 60 86 39 87 40 88 48 89 41 90 47 91 49 92 46 93 42 94 43 95
REMARK SMILES IDX 44 96 45 97
REMARK H PARENT 69 50 37 61
REMARK Flexibility Score: inf
ROOT
ATOM      1  C   UNL A   1      34.358  33.642  28.801  1.00  0.00     0.274 C 
ENDROOT
BRANCH   1   2
ATOM      2  O   UNL A   1      35.395  33.053  27.960  1.00  0.00    -0.462 OA
BRANCH   2   3
ATOM      3  C   UNL A   1      35.379  31.704  27.778  1.00  0.00     0.310 C 
ATOM      4  O   UNL A   1      36.381  31.047  27.490  1.00  0.00    -0.252 OA
BRANCH   3   5
ATOM      5  C   UNL A   1      34.037  31.021  28.029  1.00  0.00     0.160 C 
BRANCH   5   6
ATOM      6  C   UNL A   1      33.575  29.927  27.099  1.00  0.00    -0.015 A 
ATOM      7  C   UNL A   1      31.462  31.038  26.077  1.00  0.00     0.065 C 
ATOM      8  C   UNL A   1      32.475  29.949  26.253  1.00  0.00     0.024 A 
ATOM      9  N   UNL A   1      32.364  28.717  25.623  1.00  0.00    -0.313 N 
ATOM     10  C   UNL A   1      34.075  28.588  27.049  1.00  0.00     0.033 A 
ATOM     11  C   UNL A   1      33.308  27.843  26.164  1.00  0.00     0.053 A 
BRANCH   9  12
ATOM     12  C   UNL A   1      31.450  28.408  24.583  1.00  0.00     0.049 A 
ATOM     13  C   UNL A   1      31.573  29.018  23.328  1.00  0.00     0.027 A 
ATOM     14  C   UNL A   1      30.391  27.537  24.852  1.00  0.00     0.065 A 
ATOM     15  C   UNL A   1      30.624  28.758  22.338  1.00  0.00     0.005 A 
ATOM     16  C   UNL A   1      29.442  27.313  23.864  1.00  0.00     0.125 A 
ATOM     17  C   UNL A   1      29.549  27.913  22.612  1.00  0.00     0.039 A 
ATOM     18  F   UNL A   1      28.387  26.532  24.132  1.00  0.00    -0.207 F 
ENDBRANCH   9  12
BRANCH  11  19
ATOM     19  C   UNL A   1      33.459  26.431  25.774  1.00  0.00    -0.001 A 
ATOM     20  C   UNL A   1      34.243  26.072  24.665  1.00  0.00     0.011 A 
ATOM     21  C   UNL A   1      32.774  25.425  26.471  1.00  0.00     0.011 A 
ATOM     22  C   UNL A   1      34.310  24.744  24.233  1.00  0.00     0.021 A 
ATOM     23  C   UNL A   1      32.839  24.091  26.046  1.00  0.00     0.021 A 
ATOM     24  C   UNL A   1      33.595  23.761  24.919  1.00  0.00     0.067 A 
BRANCH  24  25
ATOM     25  S   UNL A   1      33.704  22.075  24.363  1.00  0.00     0.175 S 
ATOM     26  C   UNL A   1      32.852  21.139  25.606  1.00  0.00     0.163 C 
ATOM     27  O   UNL A   1      32.968  21.979  23.133  1.00  0.00    -0.224 OA
ATOM     28  O   UNL A   1      35.114  21.681  24.419  1.00  0.00    -0.224 OA
ENDBRANCH  24  25
ENDBRANCH  11  19
ENDBRANCH   5   6
ENDBRANCH   3   5
ENDBRANCH   2   3
ENDBRANCH   1   2
BRANCH   1  29
ATOM     29  C   UNL A   1      34.657  33.413  30.318  1.00  0.00     0.275 C 
BRANCH  29  30
ATOM     30  O   UNL A   1      35.958  33.807  30.922  1.00  0.00    -0.458 OA
BRANCH  30  31
ATOM     31  C   UNL A   1      36.693  32.879  31.622  1.00  0.00     0.338 C 
ATOM     32  O   UNL A   1      36.670  32.838  32.845  1.00  0.00    -0.246 OA
BRANCH  31  33
ATOM     33  C   UNL A   1      37.482  31.831  30.764  1.00  0.00     0.060 A 
ATOM     34  C   UNL A   1      37.147  30.481  30.855  1.00  0.00     0.016 A 
ATOM     35  C   UNL A   1      38.672  32.052  30.032  1.00  0.00     0.016 A 
ATOM     36  C   UNL A   1      37.915  29.431  30.191  1.00  0.00     0.010 A 
ATOM     37  C   UNL A   1      39.497  30.960  29.413  1.00  0.00     0.010 A 
ATOM     38  C   UNL A   1      39.147  29.589  29.443  1.00  0.00    -0.014 A 
BRANCH  38  39
ATOM     39  C   UNL A   1      40.130  28.217  29.265  1.00  0.00     0.031 A 
ATOM     40  C   UNL A   1      40.963  28.336  30.502  1.00  0.00     0.074 A 
ATOM     41  C   UNL A   1      40.508  27.127  28.427  1.00  0.00     0.049 A 
ATOM     42  N   UNL A   1      41.646  29.426  30.726  1.00  0.00    -0.248 NA
ATOM     43  C   UNL A   1      40.739  27.506  31.688  1.00  0.00     0.031 C 
ATOM     44  C   UNL A   1      40.047  26.835  27.054  1.00  0.00     0.029 A 
ATOM     45  N   UNL A   1      41.413  25.979  28.580  1.00  0.00    -0.354 N 
ATOM     46  C   UNL A   1      42.221  29.272  31.963  1.00  0.00     0.074 A 
ATOM     47  C   UNL A   1      41.428  28.217  32.588  1.00  0.00     0.031 C 
ATOM     48  C   UNL A   1      40.494  25.626  26.580  1.00  0.00     0.029 A 
ATOM     49  C   UNL A   1      41.376  24.938  27.532  1.00  0.00     0.049 A 
ATOM     50  H   UNL A   1      42.022  25.908  29.350  1.00  0.00     0.167 HD
ATOM     51  C   UNL A   1      43.582  29.400  31.988  1.00  0.00     0.034 A 
ATOM     52  C   UNL A   1      42.027  23.681  27.370  1.00  0.00     0.034 A 
ATOM     53  C   UNL A   1      44.237  28.121  31.902  1.00  0.00     0.049 A 
ATOM     54  C   UNL A   1      43.258  23.726  28.155  1.00  0.00     0.074 A 
ATOM     55  C   UNL A   1      44.034  26.926  32.564  1.00  0.00     0.029 A 
ATOM     56  N   UNL A   1      44.906  27.822  30.732  1.00  0.00    -0.354 N 
ATOM     57  N   UNL A   1      44.313  24.351  27.739  1.00  0.00    -0.248 NA
ATOM     58  C   UNL A   1      43.389  23.048  29.437  1.00  0.00     0.031 C 
ATOM     59  C   UNL A   1      44.118  25.946  31.555  1.00  0.00     0.029 A 
ATOM     60  C   UNL A   1      44.783  26.477  30.455  1.00  0.00     0.049 A 
ATOM     61  H   UNL A   1      45.396  28.472  30.179  1.00  0.00     0.167 HD
ATOM     62  C   UNL A   1      44.933  24.660  28.909  1.00  0.00     0.074 A 
ATOM     63  C   UNL A   1      44.526  23.621  29.841  1.00  0.00     0.031 C 
ATOM     64  C   UNL A   1      45.146  25.980  29.142  1.00  0.00     0.034 A 
BRANCH  51  65
ATOM     65  C   UNL A   1      44.085  30.655  31.334  1.00  0.00     0.023 A 
ATOM     66  C   UNL A   1      45.098  30.554  30.374  1.00  0.00     0.031 A 
ATOM     67  C   UNL A   1      43.673  31.947  31.727  1.00  0.00     0.131 A 
ATOM     68  C   UNL A   1      45.712  31.719  29.883  1.00  0.00     0.055 A 
ATOM     69  C   UNL A   1      44.315  33.097  31.274  1.00  0.00     0.041 A 
ATOM     70  F   UNL A   1      42.632  32.113  32.558  1.00  0.00    -0.206 F 
ATOM     71  C   UNL A   1      45.349  32.986  30.352  1.00  0.00     0.022 A 
BRANCH  68  72
ATOM     72  S   UNL A   1      46.990  31.554  28.610  1.00  0.00     0.124 S 
ATOM     73  O   UNL A   1      46.228  31.735  27.378  1.00  0.00    -0.237 OA
ATOM     74  O   UNL A   1      47.908  32.639  28.948  1.00  0.00    -0.237 OA
ATOM     75  O   UNL A   1      47.520  30.209  28.820  1.00  0.00    -0.744 OA
ENDBRANCH  68  72
ENDBRANCH  51  65
BRANCH  52  76
ATOM     76  C   UNL A   1      42.033  22.290  26.574  1.00  0.00     0.023 A 
ATOM     77  C   UNL A   1      43.214  21.718  25.906  1.00  0.00     0.031 A 
ATOM     78  C   UNL A   1      41.028  21.345  26.817  1.00  0.00     0.131 A 
ATOM     79  C   UNL A   1      43.334  20.323  25.567  1.00  0.00     0.055 A 
ATOM     80  C   UNL A   1      41.155  19.969  26.481  1.00  0.00     0.041 A 
ATOM     81  F   UNL A   1      39.925  21.698  27.491  1.00  0.00    -0.206 F 
ATOM     82  C   UNL A   1      42.299  19.452  25.875  1.00  0.00     0.022 A 
BRANCH  79  83
ATOM     83  S   UNL A   1      44.877  19.538  24.867  1.00  0.00     0.124 S 
ATOM     84  O   UNL A   1      44.651  19.579  23.428  1.00  0.00    -0.237 OA
ATOM     85  O   UNL A   1      45.943  20.387  25.389  1.00  0.00    -0.237 OA
ATOM     86  O   UNL A   1      44.868  18.185  25.435  1.00  0.00    -0.744 OA
ENDBRANCH  79  83
ENDBRANCH  52  76
BRANCH  64  87
ATOM     87  C   UNL A   1      45.593  26.835  27.953  1.00  0.00     0.023 A 
ATOM     88  C   UNL A   1      46.882  26.840  27.351  1.00  0.00     0.031 A 
ATOM     89  C   UNL A   1      44.675  27.775  27.457  1.00  0.00     0.131 A 
ATOM     90  C   UNL A   1      47.215  27.772  26.343  1.00  0.00     0.055 A 
ATOM     91  C   UNL A   1      44.990  28.667  26.429  1.00  0.00     0.041 A 
ATOM     92  F   UNL A   1      43.441  27.851  27.977  1.00  0.00    -0.206 F 
ATOM     93  C   UNL A   1      46.266  28.682  25.880  1.00  0.00     0.022 A 
BRANCH  90  94
ATOM     94  S   UNL A   1      48.916  27.869  25.684  1.00  0.00     0.124 S 
ATOM     95  O   UNL A   1      48.731  27.746  24.243  1.00  0.00    -0.237 OA
ATOM     96  O   UNL A   1      49.367  29.174  26.160  1.00  0.00    -0.237 OA
ATOM     97  O   UNL A   1      49.588  26.728  26.309  1.00  0.00    -0.744 OA
ENDBRANCH  90  94
ENDBRANCH  64  87
ENDBRANCH  38  39
ENDBRANCH  31  33
ENDBRANCH  30  31
ENDBRANCH  29  30
ENDBRANCH   1  29
TORSDOF 18
ENDMDL
MODEL 3
REMARK VINA RESULT:     -11.9      4.015      9.266
REMARK SMILES Cc1c(CC(=O)OCCOC(=O)c2ccc(-c3c4nc(c(-c5cc(S(=O)(=O)[O-])ccc5F)c5ccc([nH]5)c(-c5cc(S(=O)(=O)[O-])ccc5F)c5nc(c(-c6cc(S(=O)(=O)[O-])ccc6F)c6ccc3[nH]6)C=C5)C=C4)cc2)cc(-c2ccc(S(C)(=O)=O)cc2)n1-c1cccc(F)c1
REMARK SMILES IDX 8 1 7 2 5 3 6 4 4 5 3 6 1 7 2 8 88 9 76 10 77 11 89 12 90 13
REMARK SMILES IDX 95 14 91 15 93 16 92 17 94 18 78 19 79 20 87 21 80 22 86 23
REMARK SMILES IDX 81 24 82 25 83 26 84 27 85 28 9 29 10 30 11 31 12 32 13 33
REMARK SMILES IDX 14 34 75 35 15 36 74 37 16 38 17 39 18 40 68 41 19 42 73 43
REMARK SMILES IDX 67 44 69 45 20 46 72 47 66 48 65 49 21 51 53 52 33 53 52 54
REMARK SMILES IDX 34 55 37 56 51 57 70 58 35 59 36 60 50 62 71 63 38 64 22 65
REMARK SMILES IDX 23 66 31 67 24 68 30 69 32 70 29 71 25 72 26 73 27 74 28 75
REMARK SMILES IDX 54 76 55 77 63 78 56 79 62 80 64 81 61 82 57 83 58 84 59 85
REMARK SMILES IDX 60 86 39 87 40 88 48 89 41 90 47 91 49 92 46 93 42 94 43 95
REMARK SMILES IDX 44 96 45 97
REMARK H PARENT 69 50 37 61
REMARK Flexibility Score: inf
ROOT
ATOM      1  C   UNL A   1      40.588  19.648  26.271  1.00  0.00     0.274 C 
ENDROOT
BRANCH   1   2
ATOM      2  O   UNL A   1      40.556  20.583  27.391  1.00  0.00    -0.462 OA
BRANCH   2   3
ATOM      3  C   UNL A   1      40.153  21.860  27.144  1.00  0.00     0.310 C 
ATOM      4  O   UNL A   1      40.347  22.794  27.923  1.00  0.00    -0.252 OA
BRANCH   3   5
ATOM      5  C   UNL A   1      39.501  22.094  25.783  1.00  0.00     0.160 C 
BRANCH   5   6
ATOM      6  C   UNL A   1      38.001  22.223  25.691  1.00  0.00    -0.015 A 
ATOM      7  C   UNL A   1      37.412  20.010  24.466  1.00  0.00     0.065 C 
ATOM      8  C   UNL A   1      37.110  21.316  25.136  1.00  0.00     0.024 A 
ATOM      9  N   UNL A   1      35.829  21.848  25.192  1.00  0.00    -0.313 N 
ATOM     10  C   UNL A   1      37.230  23.389  25.992  1.00  0.00     0.033 A 
ATOM     11  C   UNL A   1      35.903  23.163  25.654  1.00  0.00     0.053 A 
BRANCH   9  12
ATOM     12  C   UNL A   1      34.638  21.156  24.852  1.00  0.00     0.049 A 
ATOM     13  C   UNL A   1      33.846  21.594  23.783  1.00  0.00     0.027 A 
ATOM     14  C   UNL A   1      34.238  20.073  25.640  1.00  0.00     0.065 A 
ATOM     15  C   UNL A   1      32.641  20.947  23.506  1.00  0.00     0.005 A 
ATOM     16  C   UNL A   1      33.023  19.460  25.366  1.00  0.00     0.125 A 
ATOM     17  C   UNL A   1      32.223  19.885  24.308  1.00  0.00     0.039 A 
ATOM     18  F   UNL A   1      32.598  18.464  26.154  1.00  0.00    -0.207 F 
ENDBRANCH   9  12
BRANCH  11  19
ATOM     19  C   UNL A   1      34.746  24.062  25.803  1.00  0.00    -0.001 A 
ATOM     20  C   UNL A   1      33.663  23.709  26.625  1.00  0.00     0.011 A 
ATOM     21  C   UNL A   1      34.682  25.262  25.080  1.00  0.00     0.011 A 
ATOM     22  C   UNL A   1      32.521  24.514  26.693  1.00  0.00     0.021 A 
ATOM     23  C   UNL A   1      33.542  26.075  25.145  1.00  0.00     0.021 A 
ATOM     24  C   UNL A   1      32.461  25.687  25.939  1.00  0.00     0.067 A 
BRANCH  24  25
ATOM     25  S   UNL A   1      31.007  26.704  26.050  1.00  0.00     0.175 S 
ATOM     26  C   UNL A   1      31.265  27.984  24.849  1.00  0.00     0.163 C 
ATOM     27  O   UNL A   1      29.889  25.903  25.633  1.00  0.00    -0.224 OA
ATOM     28  O   UNL A   1      31.013  27.344  27.368  1.00  0.00    -0.224 OA
ENDBRANCH  24  25
ENDBRANCH  11  19
ENDBRANCH   5   6
ENDBRANCH   3   5
ENDBRANCH   2   3
ENDBRANCH   1   2
BRANCH   1  29
ATOM     29  C   UNL A   1      41.991  18.972  26.135  1.00  0.00     0.275 C 
BRANCH  29  30
ATOM     30  O   UNL A   1      43.248  19.740  26.340  1.00  0.00    -0.458 OA
BRANCH  30  31
ATOM     31  C   UNL A   1      43.677  20.616  25.370  1.00  0.00     0.338 C 
ATOM     32  O   UNL A   1      44.023  20.223  24.263  1.00  0.00    -0.246 OA
BRANCH  31  33
ATOM     33  C   UNL A   1      43.612  22.139  25.735  1.00  0.00     0.060 A 
ATOM     34  C   UNL A   1      43.930  22.546  27.030  1.00  0.00     0.016 A 
ATOM     35  C   UNL A   1      43.058  23.180  24.955  1.00  0.00     0.016 A 
ATOM     36  C   UNL A   1      43.771  23.924  27.486  1.00  0.00     0.010 A 
ATOM     37  C   UNL A   1      42.829  24.578  25.454  1.00  0.00     0.010 A 
ATOM     38  C   UNL A   1      43.196  25.029  26.744  1.00  0.00    -0.014 A 
BRANCH  38  39
ATOM     39  C   UNL A   1      42.603  26.343  27.640  1.00  0.00     0.031 A 
ATOM     40  C   UNL A   1      43.770  27.272  27.535  1.00  0.00     0.074 A 
ATOM     41  C   UNL A   1      41.549  26.841  28.461  1.00  0.00     0.049 A 
ATOM     42  N   UNL A   1      44.952  26.881  27.928  1.00  0.00    -0.248 NA
ATOM     43  C   UNL A   1      43.782  28.428  26.637  1.00  0.00     0.031 C 
ATOM     44  C   UNL A   1      40.354  26.120  28.944  1.00  0.00     0.029 A 
ATOM     45  N   UNL A   1      41.263  28.139  29.089  1.00  0.00    -0.354 N 
ATOM     46  C   UNL A   1      45.816  27.903  27.623  1.00  0.00     0.074 A 
ATOM     47  C   UNL A   1      45.095  28.683  26.622  1.00  0.00     0.031 C 
ATOM     48  C   UNL A   1      39.460  26.932  29.596  1.00  0.00     0.029 A 
ATOM     49  C   UNL A   1      39.935  28.317  29.712  1.00  0.00     0.049 A 
ATOM     50  H   UNL A   1      41.932  28.861  29.097  1.00  0.00     0.167 HD
ATOM     51  C   UNL A   1      46.535  28.388  28.680  1.00  0.00     0.034 A 
ATOM     52  C   UNL A   1      39.279  29.417  30.334  1.00  0.00     0.034 A 
ATOM     53  C   UNL A   1      45.909  29.547  29.259  1.00  0.00     0.049 A 
ATOM     54  C   UNL A   1      40.317  30.321  30.824  1.00  0.00     0.074 A 
ATOM     55  C   UNL A   1      45.381  30.695  28.702  1.00  0.00     0.029 A 
ATOM     56  N   UNL A   1      45.337  29.410  30.508  1.00  0.00    -0.354 N 
ATOM     57  N   UNL A   1      40.984  30.077  31.906  1.00  0.00    -0.248 NA
ATOM     58  C   UNL A   1      40.648  31.566  30.144  1.00  0.00     0.031 C 
ATOM     59  C   UNL A   1      44.171  30.899  29.395  1.00  0.00     0.029 A 
ATOM     60  C   UNL A   1      44.205  30.191  30.591  1.00  0.00     0.049 A 
ATOM     61  H   UNL A   1      45.686  28.839  31.230  1.00  0.00     0.167 HD
ATOM     62  C   UNL A   1      42.146  30.743  31.673  1.00  0.00     0.074 A 
ATOM     63  C   UNL A   1      41.786  31.838  30.788  1.00  0.00     0.031 C 
ATOM     64  C   UNL A   1      43.278  29.994  31.689  1.00  0.00     0.034 A 
BRANCH  51  65
ATOM     65  C   UNL A   1      47.245  27.325  29.469  1.00  0.00     0.023 A 
ATOM     66  C   UNL A   1      47.081  27.296  30.859  1.00  0.00     0.031 A 
ATOM     67  C   UNL A   1      48.169  26.427  28.894  1.00  0.00     0.131 A 
ATOM     68  C   UNL A   1      47.872  26.434  31.636  1.00  0.00     0.055 A 
ATOM     69  C   UNL A   1      48.986  25.608  29.671  1.00  0.00     0.041 A 
ATOM     70  F   UNL A   1      48.291  26.326  27.561  1.00  0.00    -0.206 F 
ATOM     71  C   UNL A   1      48.846  25.615  31.054  1.00  0.00     0.022 A 
BRANCH  68  72
ATOM     72  S   UNL A   1      47.603  26.391  33.427  1.00  0.00     0.124 S 
ATOM     73  O   UNL A   1      46.931  27.664  33.673  1.00  0.00    -0.237 OA
ATOM     74  O   UNL A   1      46.774  25.200  33.588  1.00  0.00    -0.237 OA
ATOM     75  O   UNL A   1      48.951  26.284  33.980  1.00  0.00    -0.744 OA
ENDBRANCH  68  72
ENDBRANCH  51  65
BRANCH  52  76
ATOM     76  C   UNL A   1      37.876  30.004  30.839  1.00  0.00     0.023 A 
ATOM     77  C   UNL A   1      37.702  30.816  32.056  1.00  0.00     0.031 A 
ATOM     78  C   UNL A   1      36.809  30.128  29.940  1.00  0.00     0.131 A 
ATOM     79  C   UNL A   1      36.565  31.673  32.280  1.00  0.00     0.055 A 
ATOM     80  C   UNL A   1      35.691  30.976  30.168  1.00  0.00     0.041 A 
ATOM     81  F   UNL A   1      36.861  29.512  28.751  1.00  0.00    -0.206 F 
ATOM     82  C   UNL A   1      35.569  31.757  31.317  1.00  0.00     0.022 A 
BRANCH  79  83
ATOM     83  S   UNL A   1      36.391  32.833  33.733  1.00  0.00     0.124 S 
ATOM     84  O   UNL A   1      37.122  34.018  33.305  1.00  0.00    -0.237 OA
ATOM     85  O   UNL A   1      34.945  32.968  33.874  1.00  0.00    -0.237 OA
ATOM     86  O   UNL A   1      37.028  32.104  34.838  1.00  0.00    -0.744 OA
ENDBRANCH  79  83
ENDBRANCH  52  76
BRANCH  64  87
ATOM     87  C   UNL A   1      43.382  28.910  32.766  1.00  0.00     0.023 A 
ATOM     88  C   UNL A   1      43.533  29.119  34.165  1.00  0.00     0.031 A 
ATOM     89  C   UNL A   1      43.424  27.575  32.332  1.00  0.00     0.131 A 
ATOM     90  C   UNL A   1      43.754  28.037  35.046  1.00  0.00     0.055 A 
ATOM     91  C   UNL A   1      43.599  26.502  33.208  1.00  0.00     0.041 A 
ATOM     92  F   UNL A   1      43.306  27.286  31.027  1.00  0.00    -0.206 F 
ATOM     93  C   UNL A   1      43.781  26.729  34.567  1.00  0.00     0.022 A 
BRANCH  90  94
ATOM     94  S   UNL A   1      44.096  28.329  36.818  1.00  0.00     0.124 S 
ATOM     95  O   UNL A   1      43.579  29.672  37.048  1.00  0.00    -0.237 OA
ATOM     96  O   UNL A   1      43.363  27.244  37.464  1.00  0.00    -0.237 OA
ATOM     97  O   UNL A   1      45.553  28.215  36.904  1.00  0.00    -0.744 OA
ENDBRANCH  90  94
ENDBRANCH  64  87
ENDBRANCH  38  39
ENDBRANCH  31  33
ENDBRANCH  30  31
ENDBRANCH  29  30
ENDBRANCH   1  29
TORSDOF 18
ENDMDL
