MODEL 1
REMARK VINA RESULT:     -12.8      0.000      0.000
REMARK SMILES CC1(C)CCCC[C@H]1NC(=O)Nc1ccccc1C(=O)OCCOC(=O)c1ccc(-c2c3nc(c(-c4cc(S(=O)(=O)[O-])ccc4F)c4ccc([nH]4)c(-c4cc(S(=O)(=O)[O-])ccc4F)c4nc(c(-c5cc(S(=O)(=O)[O-])ccc5F)c5ccc2[nH]5)C=C4)C=C3)cc1
REMARK SMILES IDX 23 1 22 2 21 3 19 4 20 5 18 6 13 7 14 8 15 9 17 10 16 11
REMARK SMILES IDX 12 12 9 13 10 14 11 16 8 18 1 19 2 20 3 21 4 22 5 23 7 24
REMARK SMILES IDX 6 25 24 26 25 27 26 28 27 29 28 30 89 31 29 32 88 33 30 34
REMARK SMILES IDX 31 35 32 36 82 37 33 38 87 39 81 40 83 41 34 42 86 43 80 44
REMARK SMILES IDX 79 45 35 47 67 48 47 49 66 50 48 51 51 52 65 53 84 54 49 55
REMARK SMILES IDX 50 56 64 58 85 59 52 60 36 61 37 62 45 63 38 64 44 65 46 66
REMARK SMILES IDX 43 67 39 68 40 69 41 70 42 71 68 72 69 73 77 74 70 75 76 76
REMARK SMILES IDX 78 77 75 78 71 79 72 80 73 81 74 82 53 83 54 84 62 85 55 86
REMARK SMILES IDX 61 87 63 88 60 89 56 90 57 91 58 92 59 93
REMARK H PARENT 9 15 12 17 83 46 51 57
REMARK Flexibility Score: inf
ROOT
ATOM      1  C   UNL A   1      31.983  30.099  26.910  1.00  0.00     0.275 C 
ENDROOT
BRANCH   1   2
ATOM      2  C   UNL A   1      32.081  28.588  27.180  1.00  0.00     0.275 C 
BRANCH   2   3
ATOM      3  O   UNL A   1      33.060  27.874  26.394  1.00  0.00    -0.458 OA
BRANCH   3   4
ATOM      4  C   UNL A   1      32.626  26.662  25.989  1.00  0.00     0.340 C 
ATOM      5  O   UNL A   1      33.186  25.604  26.206  1.00  0.00    -0.246 OA
BRANCH   4   6
ATOM      6  C   UNL A   1      31.405  26.660  25.179  1.00  0.00     0.083 A 
ATOM      7  C   UNL A   1      30.276  25.898  25.499  1.00  0.00     0.057 A 
ATOM      8  C   UNL A   1      29.133  26.027  24.689  1.00  0.00     0.027 A 
ATOM      9  C   UNL A   1      29.063  27.001  23.687  1.00  0.00     0.002 A 
ATOM     10  C   UNL A   1      31.339  27.615  24.146  1.00  0.00     0.018 A 
ATOM     11  C   UNL A   1      30.162  27.809  23.427  1.00  0.00     0.001 A 
BRANCH   7  12
ATOM     12  N   UNL A   1      30.157  24.997  26.573  1.00  0.00    -0.307 N 
ATOM     13  N   UNL A   1      30.819  22.832  25.855  1.00  0.00    -0.335 N 
ATOM     14  C   UNL A   1      30.107  23.650  26.658  1.00  0.00     0.319 C 
ATOM     15  H   UNL A   1      30.556  21.886  25.929  1.00  0.00     0.165 HD
ATOM     16  O   UNL A   1      29.487  23.138  27.593  1.00  0.00    -0.248 OA
ATOM     17  H   UNL A   1      30.095  25.443  27.449  1.00  0.00     0.171 HD
BRANCH  13  18
ATOM     18  C   UNL A   1      31.904  23.059  24.893  1.00  0.00     0.089 C 
ATOM     19  C   UNL A   1      32.358  20.586  24.319  1.00  0.00     0.013 C 
ATOM     20  C   UNL A   1      32.967  21.918  24.821  1.00  0.00    -0.015 C 
ATOM     21  C   UNL A   1      33.610  21.665  26.197  1.00  0.00     0.013 C 
ATOM     22  C   UNL A   1      34.091  22.405  23.854  1.00  0.00     0.008 C 
ATOM     23  C   UNL A   1      33.595  22.898  22.486  1.00  0.00     0.001 C 
ATOM     24  C   UNL A   1      31.332  23.310  23.482  1.00  0.00     0.025 C 
ATOM     25  C   UNL A   1      32.430  23.876  22.589  1.00  0.00     0.002 C 
ENDBRANCH  13  18
ENDBRANCH   7  12
ENDBRANCH   4   6
ENDBRANCH   3   4
ENDBRANCH   2   3
ENDBRANCH   1   2
BRANCH   1  26
ATOM     26  O   UNL A   1      33.237  30.702  26.527  1.00  0.00    -0.458 OA
BRANCH  26  27
ATOM     27  C   UNL A   1      33.772  31.555  27.435  1.00  0.00     0.338 C 
ATOM     28  O   UNL A   1      33.207  32.497  27.970  1.00  0.00    -0.246 OA
BRANCH  27  29
ATOM     29  C   UNL A   1      35.157  31.173  27.777  1.00  0.00     0.060 A 
ATOM     30  C   UNL A   1      35.425  29.838  28.088  1.00  0.00     0.016 A 
ATOM     31  C   UNL A   1      36.138  32.140  27.988  1.00  0.00     0.016 A 
ATOM     32  C   UNL A   1      36.639  29.453  28.631  1.00  0.00     0.010 A 
ATOM     33  C   UNL A   1      37.376  31.755  28.523  1.00  0.00     0.010 A 
ATOM     34  C   UNL A   1      37.619  30.412  28.872  1.00  0.00    -0.014 A 
BRANCH  34  35
ATOM     35  C   UNL A   1      38.821  30.011  29.636  1.00  0.00     0.031 A 
ATOM     36  C   UNL A   1      39.770  29.027  29.017  1.00  0.00     0.074 A 
ATOM     37  C   UNL A   1      39.113  30.599  30.811  1.00  0.00     0.049 A 
ATOM     38  N   UNL A   1      40.785  28.402  29.550  1.00  0.00    -0.248 NA
ATOM     39  C   UNL A   1      39.540  28.708  27.599  1.00  0.00     0.031 C 
ATOM     40  C   UNL A   1      38.344  31.684  31.426  1.00  0.00     0.029 A 
ATOM     41  N   UNL A   1      40.137  30.374  31.693  1.00  0.00    -0.354 N 
ATOM     42  C   UNL A   1      41.290  27.581  28.549  1.00  0.00     0.074 A 
ATOM     43  C   UNL A   1      40.468  27.790  27.376  1.00  0.00     0.031 C 
ATOM     44  C   UNL A   1      38.923  32.025  32.588  1.00  0.00     0.029 A 
ATOM     45  C   UNL A   1      40.045  31.128  32.841  1.00  0.00     0.049 A 
ATOM     46  H   UNL A   1      40.868  29.737  31.522  1.00  0.00     0.167 HD
ATOM     47  C   UNL A   1      42.337  26.723  28.617  1.00  0.00     0.034 A 
ATOM     48  C   UNL A   1      40.749  31.051  33.988  1.00  0.00     0.034 A 
ATOM     49  C   UNL A   1      43.136  26.551  29.805  1.00  0.00     0.049 A 
ATOM     50  C   UNL A   1      41.833  30.006  34.089  1.00  0.00     0.074 A 
ATOM     51  C   UNL A   1      44.186  25.677  30.027  1.00  0.00     0.029 A 
ATOM     52  N   UNL A   1      42.972  27.279  30.980  1.00  0.00    -0.354 N 
ATOM     53  N   UNL A   1      42.238  29.147  33.180  1.00  0.00    -0.248 NA
ATOM     54  C   UNL A   1      42.545  29.910  35.368  1.00  0.00     0.031 C 
ATOM     55  C   UNL A   1      44.610  25.833  31.351  1.00  0.00     0.029 A 
ATOM     56  C   UNL A   1      43.882  26.859  31.934  1.00  0.00     0.049 A 
ATOM     57  H   UNL A   1      42.303  27.991  31.112  1.00  0.00     0.167 HD
ATOM     58  C   UNL A   1      43.270  28.425  33.772  1.00  0.00     0.074 A 
ATOM     59  C   UNL A   1      43.433  28.961  35.110  1.00  0.00     0.031 C 
ATOM     60  C   UNL A   1      44.019  27.414  33.261  1.00  0.00     0.034 A 
BRANCH  47  61
ATOM     61  C   UNL A   1      42.595  25.851  27.412  1.00  0.00     0.023 A 
ATOM     62  C   UNL A   1      42.115  24.533  27.322  1.00  0.00     0.031 A 
ATOM     63  C   UNL A   1      43.401  26.330  26.363  1.00  0.00     0.131 A 
ATOM     64  C   UNL A   1      42.505  23.718  26.247  1.00  0.00     0.055 A 
ATOM     65  C   UNL A   1      43.721  25.540  25.257  1.00  0.00     0.041 A 
ATOM     66  F   UNL A   1      43.913  27.570  26.407  1.00  0.00    -0.206 F 
ATOM     67  C   UNL A   1      43.285  24.220  25.202  1.00  0.00     0.022 A 
BRANCH  64  68
ATOM     68  S   UNL A   1      42.107  21.949  26.306  1.00  0.00     0.124 S 
ATOM     69  O   UNL A   1      43.058  21.401  25.342  1.00  0.00    -0.237 OA
ATOM     70  O   UNL A   1      42.353  21.617  27.704  1.00  0.00    -0.237 OA
ATOM     71  O   UNL A   1      40.708  21.897  25.889  1.00  0.00    -0.744 OA
ENDBRANCH  64  68
ENDBRANCH  47  61
BRANCH  48  72
ATOM     72  C   UNL A   1      40.396  31.911  35.155  1.00  0.00     0.023 A 
ATOM     73  C   UNL A   1      39.397  31.534  36.067  1.00  0.00     0.031 A 
ATOM     74  C   UNL A   1      41.025  33.157  35.349  1.00  0.00     0.131 A 
ATOM     75  C   UNL A   1      39.030  32.407  37.104  1.00  0.00     0.055 A 
ATOM     76  C   UNL A   1      40.697  33.995  36.415  1.00  0.00     0.041 A 
ATOM     77  F   UNL A   1      41.981  33.574  34.505  1.00  0.00    -0.206 F 
ATOM     78  C   UNL A   1      39.684  33.628  37.294  1.00  0.00     0.022 A 
BRANCH  75  79
ATOM     79  S   UNL A   1      37.618  31.967  38.154  1.00  0.00     0.124 S 
ATOM     80  O   UNL A   1      37.352  30.596  37.734  1.00  0.00    -0.237 OA
ATOM     81  O   UNL A   1      38.175  32.132  39.494  1.00  0.00    -0.237 OA
ATOM     82  O   UNL A   1      36.598  32.944  37.782  1.00  0.00    -0.744 OA
ENDBRANCH  75  79
ENDBRANCH  48  72
BRANCH  60  83
ATOM     83  C   UNL A   1      45.119  26.873  34.138  1.00  0.00     0.023 A 
ATOM     84  C   UNL A   1      44.923  25.762  34.976  1.00  0.00     0.031 A 
ATOM     85  C   UNL A   1      46.386  27.484  34.129  1.00  0.00     0.131 A 
ATOM     86  C   UNL A   1      45.964  25.326  35.808  1.00  0.00     0.055 A 
ATOM     87  C   UNL A   1      47.435  27.010  34.916  1.00  0.00     0.041 A 
ATOM     88  F   UNL A   1      46.625  28.549  33.347  1.00  0.00    -0.206 F 
ATOM     89  C   UNL A   1      47.223  25.932  35.771  1.00  0.00     0.022 A 
BRANCH  86  90
ATOM     90  S   UNL A   1      45.627  24.004  37.003  1.00  0.00     0.124 S 
ATOM     91  O   UNL A   1      44.651  24.634  37.887  1.00  0.00    -0.237 OA
ATOM     92  O   UNL A   1      45.119  22.934  36.151  1.00  0.00    -0.237 OA
ATOM     93  O   UNL A   1      46.934  23.747  37.606  1.00  0.00    -0.744 OA
ENDBRANCH  86  90
ENDBRANCH  60  83
ENDBRANCH  34  35
ENDBRANCH  27  29
ENDBRANCH  26  27
ENDBRANCH   1  26
TORSDOF 16
ENDMDL
MODEL 2
REMARK VINA RESULT:     -12.5      2.054      2.742
REMARK SMILES CC1(C)CCCC[C@H]1NC(=O)Nc1ccccc1C(=O)OCCOC(=O)c1ccc(-c2c3nc(c(-c4cc(S(=O)(=O)[O-])ccc4F)c4ccc([nH]4)c(-c4cc(S(=O)(=O)[O-])ccc4F)c4nc(c(-c5cc(S(=O)(=O)[O-])ccc5F)c5ccc2[nH]5)C=C4)C=C3)cc1
REMARK SMILES IDX 23 1 22 2 21 3 19 4 20 5 18 6 13 7 14 8 15 9 17 10 16 11
REMARK SMILES IDX 12 12 9 13 10 14 11 16 8 18 1 19 2 20 3 21 4 22 5 23 7 24
REMARK SMILES IDX 6 25 24 26 25 27 26 28 27 29 28 30 89 31 29 32 88 33 30 34
REMARK SMILES IDX 31 35 32 36 82 37 33 38 87 39 81 40 83 41 34 42 86 43 80 44
REMARK SMILES IDX 79 45 35 47 67 48 47 49 66 50 48 51 51 52 65 53 84 54 49 55
REMARK SMILES IDX 50 56 64 58 85 59 52 60 36 61 37 62 45 63 38 64 44 65 46 66
REMARK SMILES IDX 43 67 39 68 40 69 41 70 42 71 68 72 69 73 77 74 70 75 76 76
REMARK SMILES IDX 78 77 75 78 71 79 72 80 73 81 74 82 53 83 54 84 62 85 55 86
REMARK SMILES IDX 61 87 63 88 60 89 56 90 57 91 58 92 59 93
REMARK H PARENT 9 15 12 17 83 46 51 57
REMARK Flexibility Score: inf
ROOT
ATOM      1  C   UNL A   1      31.389  30.844  25.969  1.00  0.00     0.275 C 
ENDROOT
BRANCH   1   2
ATOM      2  C   UNL A   1      31.292  29.849  24.800  1.00  0.00     0.275 C 
BRANCH   2   3
ATOM      3  O   UNL A   1      30.184  30.050  23.896  1.00  0.00    -0.458 OA
BRANCH   3   4
ATOM      4  C   UNL A   1      30.271  29.295  22.782  1.00  0.00     0.340 C 
ATOM      5  O   UNL A   1      30.505  29.715  21.663  1.00  0.00    -0.246 OA
BRANCH   4   6
ATOM      6  C   UNL A   1      30.006  27.865  22.958  1.00  0.00     0.083 A 
ATOM      7  C   UNL A   1      30.938  26.870  22.639  1.00  0.00     0.057 A 
ATOM      8  C   UNL A   1      30.603  25.532  22.914  1.00  0.00     0.027 A 
ATOM      9  C   UNL A   1      29.445  25.208  23.630  1.00  0.00     0.002 A 
ATOM     10  C   UNL A   1      28.826  27.529  23.647  1.00  0.00     0.018 A 
ATOM     11  C   UNL A   1      28.563  26.210  24.013  1.00  0.00     0.001 A 
BRANCH   7  12
ATOM     12  N   UNL A   1      32.205  27.069  22.060  1.00  0.00    -0.307 N 
ATOM     13  N   UNL A   1      33.884  26.538  23.654  1.00  0.00    -0.335 N 
ATOM     14  C   UNL A   1      33.448  27.210  22.568  1.00  0.00     0.319 C 
ATOM     15  H   UNL A   1      34.748  26.865  23.994  1.00  0.00     0.165 HD
ATOM     16  O   UNL A   1      34.271  27.880  21.940  1.00  0.00    -0.248 OA
ATOM     17  H   UNL A   1      32.179  27.118  21.078  1.00  0.00     0.171 HD
BRANCH  13  18
ATOM     18  C   UNL A   1      33.337  25.423  24.435  1.00  0.00     0.089 C 
ATOM     19  C   UNL A   1      35.581  24.504  25.313  1.00  0.00     0.013 C 
ATOM     20  C   UNL A   1      34.274  24.179  24.549  1.00  0.00    -0.015 C 
ATOM     21  C   UNL A   1      34.651  23.634  23.159  1.00  0.00     0.013 C 
ATOM     22  C   UNL A   1      33.466  23.069  25.291  1.00  0.00     0.008 C 
ATOM     23  C   UNL A   1      32.835  23.511  26.620  1.00  0.00     0.001 C 
ATOM     24  C   UNL A   1      32.945  25.894  25.851  1.00  0.00     0.025 C 
ATOM     25  C   UNL A   1      32.077  24.830  26.512  1.00  0.00     0.002 C 
ENDBRANCH  13  18
ENDBRANCH   7  12
ENDBRANCH   4   6
ENDBRANCH   3   4
ENDBRANCH   2   3
ENDBRANCH   1   2
BRANCH   1  26
ATOM     26  O   UNL A   1      32.501  30.592  26.854  1.00  0.00    -0.458 OA
BRANCH  26  27
ATOM     27  C   UNL A   1      33.159  31.695  27.288  1.00  0.00     0.338 C 
ATOM     28  O   UNL A   1      32.695  32.818  27.410  1.00  0.00    -0.246 OA
BRANCH  27  29
ATOM     29  C   UNL A   1      34.546  31.372  27.680  1.00  0.00     0.060 A 
ATOM     30  C   UNL A   1      34.853  30.055  28.027  1.00  0.00     0.016 A 
ATOM     31  C   UNL A   1      35.483  32.380  27.900  1.00  0.00     0.016 A 
ATOM     32  C   UNL A   1      36.063  29.727  28.616  1.00  0.00     0.010 A 
ATOM     33  C   UNL A   1      36.718  32.052  28.480  1.00  0.00     0.010 A 
ATOM     34  C   UNL A   1      36.999  30.727  28.865  1.00  0.00    -0.014 A 
BRANCH  34  35
ATOM     35  C   UNL A   1      38.191  30.386  29.674  1.00  0.00     0.031 A 
ATOM     36  C   UNL A   1      39.238  29.498  29.070  1.00  0.00     0.074 A 
ATOM     37  C   UNL A   1      38.383  30.951  30.880  1.00  0.00     0.049 A 
ATOM     38  N   UNL A   1      40.272  28.930  29.630  1.00  0.00    -0.248 NA
ATOM     39  C   UNL A   1      39.099  29.216  27.632  1.00  0.00     0.031 C 
ATOM     40  C   UNL A   1      37.507  31.953  31.492  1.00  0.00     0.029 A 
ATOM     41  N   UNL A   1      39.379  30.769  31.804  1.00  0.00    -0.354 N 
ATOM     42  C   UNL A   1      40.883  28.185  28.628  1.00  0.00     0.074 A 
ATOM     43  C   UNL A   1      40.103  28.377  27.424  1.00  0.00     0.031 C 
ATOM     44  C   UNL A   1      38.004  32.293  32.692  1.00  0.00     0.029 A 
ATOM     45  C   UNL A   1      39.178  31.472  32.970  1.00  0.00     0.049 A 
ATOM     46  H   UNL A   1      40.163  30.194  31.648  1.00  0.00     0.167 HD
ATOM     47  C   UNL A   1      41.987  27.405  28.719  1.00  0.00     0.034 A 
ATOM     48  C   UNL A   1      39.831  31.404  34.147  1.00  0.00     0.034 A 
ATOM     49  C   UNL A   1      42.740  27.248  29.939  1.00  0.00     0.049 A 
ATOM     50  C   UNL A   1      40.984  30.438  34.266  1.00  0.00     0.074 A 
ATOM     51  C   UNL A   1      43.841  26.446  30.183  1.00  0.00     0.029 A 
ATOM     52  N   UNL A   1      42.467  27.918  31.128  1.00  0.00    -0.354 N 
ATOM     53  N   UNL A   1      41.494  29.645  33.350  1.00  0.00    -0.248 NA
ATOM     54  C   UNL A   1      41.641  30.348  35.575  1.00  0.00     0.031 C 
ATOM     55  C   UNL A   1      44.191  26.583  31.531  1.00  0.00     0.029 A 
ATOM     56  C   UNL A   1      43.361  27.531  32.111  1.00  0.00     0.049 A 
ATOM     57  H   UNL A   1      41.742  28.574  31.251  1.00  0.00     0.167 HD
ATOM     58  C   UNL A   1      42.549  28.979  33.968  1.00  0.00     0.074 A 
ATOM     59  C   UNL A   1      42.608  29.475  35.330  1.00  0.00     0.031 C 
ATOM     60  C   UNL A   1      43.394  28.045  33.461  1.00  0.00     0.034 A 
BRANCH  47  61
ATOM     61  C   UNL A   1      42.365  26.599  27.500  1.00  0.00     0.023 A 
ATOM     62  C   UNL A   1      41.978  25.257  27.336  1.00  0.00     0.031 A 
ATOM     63  C   UNL A   1      43.192  27.169  26.515  1.00  0.00     0.131 A 
ATOM     64  C   UNL A   1      42.477  24.512  26.256  1.00  0.00     0.055 A 
ATOM     65  C   UNL A   1      43.622  26.445  25.402  1.00  0.00     0.041 A 
ATOM     66  F   UNL A   1      43.620  28.436  26.633  1.00  0.00    -0.206 F 
ATOM     67  C   UNL A   1      43.277  25.103  25.275  1.00  0.00     0.022 A 
BRANCH  64  68
ATOM     68  S   UNL A   1      42.193  22.720  26.230  1.00  0.00     0.124 S 
ATOM     69  O   UNL A   1      42.916  22.290  27.424  1.00  0.00    -0.237 OA
ATOM     70  O   UNL A   1      40.740  22.630  26.296  1.00  0.00    -0.237 OA
ATOM     71  O   UNL A   1      42.788  22.297  24.964  1.00  0.00    -0.744 OA
ENDBRANCH  64  68
ENDBRANCH  47  61
BRANCH  48  72
ATOM     72  C   UNL A   1      39.360  32.192  35.323  1.00  0.00     0.023 A 
ATOM     73  C   UNL A   1      39.781  33.514  35.537  1.00  0.00     0.031 A 
ATOM     74  C   UNL A   1      38.511  31.611  36.287  1.00  0.00     0.131 A 
ATOM     75  C   UNL A   1      39.388  34.196  36.699  1.00  0.00     0.055 A 
ATOM     76  C   UNL A   1      38.076  32.313  37.411  1.00  0.00     0.041 A 
ATOM     77  F   UNL A   1      38.083  30.348  36.141  1.00  0.00    -0.206 F 
ATOM     78  C   UNL A   1      38.525  33.610  37.630  1.00  0.00     0.022 A 
BRANCH  75  79
ATOM     79  S   UNL A   1      40.092  35.835  37.028  1.00  0.00     0.124 S 
ATOM     80  O   UNL A   1      39.719  36.566  35.822  1.00  0.00    -0.237 OA
ATOM     81  O   UNL A   1      39.399  36.221  38.254  1.00  0.00    -0.237 OA
ATOM     82  O   UNL A   1      41.520  35.568  37.181  1.00  0.00    -0.744 OA
ENDBRANCH  75  79
ENDBRANCH  48  72
BRANCH  60  83
ATOM     83  C   UNL A   1      44.490  27.554  34.373  1.00  0.00     0.023 A 
ATOM     84  C   UNL A   1      44.363  26.367  35.114  1.00  0.00     0.031 A 
ATOM     85  C   UNL A   1      45.681  28.291  34.495  1.00  0.00     0.131 A 
ATOM     86  C   UNL A   1      45.391  25.978  35.984  1.00  0.00     0.055 A 
ATOM     87  C   UNL A   1      46.724  27.868  35.318  1.00  0.00     0.041 A 
ATOM     88  F   UNL A   1      45.852  29.433  33.809  1.00  0.00    -0.206 F 
ATOM     89  C   UNL A   1      46.578  26.711  36.078  1.00  0.00     0.022 A 
BRANCH  86  90
ATOM     90  S   UNL A   1      45.126  24.539  37.057  1.00  0.00     0.124 S 
ATOM     91  O   UNL A   1      46.492  24.179  37.425  1.00  0.00    -0.237 OA
ATOM     92  O   UNL A   1      44.302  25.093  38.126  1.00  0.00    -0.237 OA
ATOM     93  O   UNL A   1      44.446  23.583  36.184  1.00  0.00    -0.744 OA
ENDBRANCH  86  90
ENDBRANCH  60  83
ENDBRANCH  34  35
ENDBRANCH  27  29
ENDBRANCH  26  27
ENDBRANCH   1  26
TORSDOF 16
ENDMDL
MODEL 3
REMARK VINA RESULT:     -12.5      1.376      1.594
REMARK SMILES CC1(C)CCCC[C@H]1NC(=O)Nc1ccccc1C(=O)OCCOC(=O)c1ccc(-c2c3nc(c(-c4cc(S(=O)(=O)[O-])ccc4F)c4ccc([nH]4)c(-c4cc(S(=O)(=O)[O-])ccc4F)c4nc(c(-c5cc(S(=O)(=O)[O-])ccc5F)c5ccc2[nH]5)C=C4)C=C3)cc1
REMARK SMILES IDX 23 1 22 2 21 3 19 4 20 5 18 6 13 7 14 8 15 9 17 10 16 11
REMARK SMILES IDX 12 12 9 13 10 14 11 16 8 18 1 19 2 20 3 21 4 22 5 23 7 24
REMARK SMILES IDX 6 25 24 26 25 27 26 28 27 29 28 30 89 31 29 32 88 33 30 34
REMARK SMILES IDX 31 35 32 36 82 37 33 38 87 39 81 40 83 41 34 42 86 43 80 44
REMARK SMILES IDX 79 45 35 47 67 48 47 49 66 50 48 51 51 52 65 53 84 54 49 55
REMARK SMILES IDX 50 56 64 58 85 59 52 60 36 61 37 62 45 63 38 64 44 65 46 66
REMARK SMILES IDX 43 67 39 68 40 69 41 70 42 71 68 72 69 73 77 74 70 75 76 76
REMARK SMILES IDX 78 77 75 78 71 79 72 80 73 81 74 82 53 83 54 84 62 85 55 86
REMARK SMILES IDX 61 87 63 88 60 89 56 90 57 91 58 92 59 93
REMARK H PARENT 9 15 12 17 83 46 51 57
REMARK Flexibility Score: inf
ROOT
ATOM      1  C   UNL A   1      31.898  30.075  27.024  1.00  0.00     0.275 C 
ENDROOT
BRANCH   1   2
ATOM      2  C   UNL A   1      32.024  28.556  27.232  1.00  0.00     0.275 C 
BRANCH   2   3
ATOM      3  O   UNL A   1      33.018  27.894  26.420  1.00  0.00    -0.458 OA
BRANCH   3   4
ATOM      4  C   UNL A   1      32.612  26.687  25.975  1.00  0.00     0.340 C 
ATOM      5  O   UNL A   1      33.198  25.635  26.156  1.00  0.00    -0.246 OA
BRANCH   4   6
ATOM      6  C   UNL A   1      31.390  26.683  25.166  1.00  0.00     0.083 A 
ATOM      7  C   UNL A   1      30.264  25.917  25.486  1.00  0.00     0.057 A 
ATOM      8  C   UNL A   1      29.120  26.045  24.677  1.00  0.00     0.027 A 
ATOM      9  C   UNL A   1      29.046  27.019  23.677  1.00  0.00     0.002 A 
ATOM     10  C   UNL A   1      31.321  27.638  24.134  1.00  0.00     0.018 A 
ATOM     11  C   UNL A   1      30.143  27.831  23.416  1.00  0.00     0.001 A 
BRANCH   7  12
ATOM     12  N   UNL A   1      30.148  25.014  26.559  1.00  0.00    -0.307 N 
ATOM     13  N   UNL A   1      30.797  22.849  25.833  1.00  0.00    -0.335 N 
ATOM     14  C   UNL A   1      30.094  23.668  26.642  1.00  0.00     0.319 C 
ATOM     15  H   UNL A   1      30.531  21.904  25.907  1.00  0.00     0.165 HD
ATOM     16  O   UNL A   1      29.477  23.156  27.580  1.00  0.00    -0.248 OA
ATOM     17  H   UNL A   1      30.093  25.459  27.436  1.00  0.00     0.171 HD
BRANCH  13  18
ATOM     18  C   UNL A   1      31.877  23.073  24.865  1.00  0.00     0.089 C 
ATOM     19  C   UNL A   1      32.345  20.598  24.313  1.00  0.00     0.013 C 
ATOM     20  C   UNL A   1      32.947  21.939  24.799  1.00  0.00    -0.015 C 
ATOM     21  C   UNL A   1      33.597  21.703  26.176  1.00  0.00     0.013 C 
ATOM     22  C   UNL A   1      34.064  22.424  23.824  1.00  0.00     0.008 C 
ATOM     23  C   UNL A   1      33.561  22.900  22.453  1.00  0.00     0.001 C 
ATOM     24  C   UNL A   1      31.299  23.307  23.453  1.00  0.00     0.025 C 
ATOM     25  C   UNL A   1      32.390  23.871  22.551  1.00  0.00     0.002 C 
ENDBRANCH  13  18
ENDBRANCH   7  12
ENDBRANCH   4   6
ENDBRANCH   3   4
ENDBRANCH   2   3
ENDBRANCH   1   2
BRANCH   1  26
ATOM     26  O   UNL A   1      33.110  30.698  26.546  1.00  0.00    -0.458 OA
BRANCH  26  27
ATOM     27  C   UNL A   1      33.651  31.624  27.376  1.00  0.00     0.338 C 
ATOM     28  O   UNL A   1      33.095  32.617  27.820  1.00  0.00    -0.246 OA
BRANCH  27  29
ATOM     29  C   UNL A   1      35.029  31.259  27.759  1.00  0.00     0.060 A 
ATOM     30  C   UNL A   1      35.283  29.950  28.174  1.00  0.00     0.016 A 
ATOM     31  C   UNL A   1      36.017  32.232  27.904  1.00  0.00     0.016 A 
ATOM     32  C   UNL A   1      36.489  29.599  28.757  1.00  0.00     0.010 A 
ATOM     33  C   UNL A   1      37.247  31.879  28.479  1.00  0.00     0.010 A 
ATOM     34  C   UNL A   1      37.475  30.566  28.932  1.00  0.00    -0.014 A 
BRANCH  34  35
ATOM     35  C   UNL A   1      38.667  30.215  29.736  1.00  0.00     0.031 A 
ATOM     36  C   UNL A   1      39.683  29.283  29.144  1.00  0.00     0.074 A 
ATOM     37  C   UNL A   1      38.888  30.806  30.925  1.00  0.00     0.049 A 
ATOM     38  N   UNL A   1      40.708  28.703  29.708  1.00  0.00    -0.248 NA
ATOM     39  C   UNL A   1      39.520  28.967  27.716  1.00  0.00     0.031 C 
ATOM     40  C   UNL A   1      38.047  31.846  31.520  1.00  0.00     0.029 A 
ATOM     41  N   UNL A   1      39.890  30.622  31.842  1.00  0.00    -0.354 N 
ATOM     42  C   UNL A   1      41.287  27.915  28.720  1.00  0.00     0.074 A 
ATOM     43  C   UNL A   1      40.498  28.096  27.520  1.00  0.00     0.031 C 
ATOM     44  C   UNL A   1      38.567  32.204  32.705  1.00  0.00     0.029 A 
ATOM     45  C   UNL A   1      39.722  31.360  32.991  1.00  0.00     0.049 A 
ATOM     46  H   UNL A   1      40.656  30.022  31.692  1.00  0.00     0.167 HD
ATOM     47  C   UNL A   1      42.371  27.108  28.819  1.00  0.00     0.034 A 
ATOM     48  C   UNL A   1      40.387  31.306  34.162  1.00  0.00     0.034 A 
ATOM     49  C   UNL A   1      43.135  26.964  30.034  1.00  0.00     0.049 A 
ATOM     50  C   UNL A   1      41.516  30.313  34.294  1.00  0.00     0.074 A 
ATOM     51  C   UNL A   1      44.216  26.139  30.287  1.00  0.00     0.029 A 
ATOM     52  N   UNL A   1      42.894  27.672  31.207  1.00  0.00    -0.354 N 
ATOM     53  N   UNL A   1      41.993  29.482  33.394  1.00  0.00    -0.248 NA
ATOM     54  C   UNL A   1      42.186  30.239  35.597  1.00  0.00     0.031 C 
ATOM     55  C   UNL A   1      44.586  26.302  31.627  1.00  0.00     0.029 A 
ATOM     56  C   UNL A   1      43.788  27.287  32.191  1.00  0.00     0.049 A 
ATOM     57  H   UNL A   1      42.188  28.350  31.321  1.00  0.00     0.167 HD
ATOM     58  C   UNL A   1      43.037  28.805  34.018  1.00  0.00     0.074 A 
ATOM     59  C   UNL A   1      43.126  29.335  35.364  1.00  0.00     0.031 C 
ATOM     60  C   UNL A   1      43.851  27.835  33.526  1.00  0.00     0.034 A 
BRANCH  47  61
ATOM     61  C   UNL A   1      42.713  26.260  27.618  1.00  0.00     0.023 A 
ATOM     62  C   UNL A   1      42.162  24.982  27.418  1.00  0.00     0.031 A 
ATOM     63  C   UNL A   1      43.668  26.716  26.690  1.00  0.00     0.131 A 
ATOM     64  C   UNL A   1      42.624  24.179  26.364  1.00  0.00     0.055 A 
ATOM     65  C   UNL A   1      44.065  25.943  25.598  1.00  0.00     0.041 A 
ATOM     66  F   UNL A   1      44.251  27.916  26.845  1.00  0.00    -0.206 F 
ATOM     67  C   UNL A   1      43.554  24.659  25.438  1.00  0.00     0.022 A 
BRANCH  64  68
ATOM     68  S   UNL A   1      42.107  22.440  26.304  1.00  0.00     0.124 S 
ATOM     69  O   UNL A   1      42.643  21.930  27.563  1.00  0.00    -0.237 OA
ATOM     70  O   UNL A   1      40.656  22.545  26.223  1.00  0.00    -0.237 OA
ATOM     71  O   UNL A   1      42.764  21.928  25.103  1.00  0.00    -0.744 OA
ENDBRANCH  64  68
ENDBRANCH  47  61
BRANCH  48  72
ATOM     72  C   UNL A   1      39.952  32.137  35.322  1.00  0.00     0.023 A 
ATOM     73  C   UNL A   1      39.095  31.625  36.310  1.00  0.00     0.031 A 
ATOM     74  C   UNL A   1      40.351  33.484  35.434  1.00  0.00     0.131 A 
ATOM     75  C   UNL A   1      38.636  32.462  37.340  1.00  0.00     0.055 A 
ATOM     76  C   UNL A   1      39.939  34.294  36.493  1.00  0.00     0.041 A 
ATOM     77  F   UNL A   1      41.163  34.030  34.516  1.00  0.00    -0.206 F 
ATOM     78  C   UNL A   1      39.064  33.787  37.448  1.00  0.00     0.022 A 
BRANCH  75  79
ATOM     79  S   UNL A   1      37.393  31.818  38.496  1.00  0.00     0.124 S 
ATOM     80  O   UNL A   1      37.152  30.484  37.958  1.00  0.00    -0.237 OA
ATOM     81  O   UNL A   1      38.105  31.879  39.769  1.00  0.00    -0.237 OA
ATOM     82  O   UNL A   1      36.283  32.757  38.359  1.00  0.00    -0.744 OA
ENDBRANCH  75  79
ENDBRANCH  48  72
BRANCH  60  83
ATOM     83  C   UNL A   1      44.945  27.340  34.438  1.00  0.00     0.023 A 
ATOM     84  C   UNL A   1      46.209  27.951  34.481  1.00  0.00     0.031 A 
ATOM     85  C   UNL A   1      44.710  26.236  35.277  1.00  0.00     0.131 A 
ATOM     86  C   UNL A   1      47.209  27.423  35.311  1.00  0.00     0.055 A 
ATOM     87  C   UNL A   1      45.689  25.752  36.144  1.00  0.00     0.041 A 
ATOM     88  F   UNL A   1      43.518  25.617  35.273  1.00  0.00    -0.206 F 
ATOM     89  C   UNL A   1      46.951  26.339  36.156  1.00  0.00     0.022 A 
BRANCH  86  90
ATOM     90  S   UNL A   1      48.879  28.122  35.216  1.00  0.00     0.124 S 
ATOM     91  O   UNL A   1      48.996  28.805  36.501  1.00  0.00    -0.237 OA
ATOM     92  O   UNL A   1      49.708  26.933  35.048  1.00  0.00    -0.237 OA
ATOM     93  O   UNL A   1      48.816  29.002  34.050  1.00  0.00    -0.744 OA
ENDBRANCH  86  90
ENDBRANCH  60  83
ENDBRANCH  34  35
ENDBRANCH  27  29
ENDBRANCH  26  27
ENDBRANCH   1  26
TORSDOF 16
ENDMDL
