MODEL 1
REMARK VINA RESULT:     -12.5      0.000      0.000
REMARK SMILES CS(=O)(=O)Nc1ccc(-c2cc(Cl)cc3c2O[C@H](C(F)(F)F)C(C(=O)OCCOC(=O)c2ccc(-c4c5nc(c(-c6cc(S(=O)(=O)[O-])ccc6F)c6ccc([nH]6)c(-c6cc(S(=O)(=O)[O-])ccc6F)c6nc(c(-c7cc(S(=O)(=O)[O-])ccc7F)c7ccc4[nH]7)C=C6)C=C5)cc2)=C3)cc1
REMARK SMILES IDX 27 1 26 2 24 3 25 4 23 5 10 6 11 7 16 8 12 9 15 10 17 11
REMARK SMILES IDX 13 12 14 13 95 14 18 15 9 16 6 17 7 18 97 19 8 20 96 21 5 22
REMARK SMILES IDX 2 24 1 25 3 26 4 27 19 28 20 29 21 30 22 31 28 32 29 33
REMARK SMILES IDX 30 34 31 35 32 36 33 37 94 38 34 39 93 40 35 41 36 42 37 43
REMARK SMILES IDX 87 44 38 45 92 46 86 47 88 48 39 49 91 50 85 51 84 52 40 54
REMARK SMILES IDX 72 55 52 56 71 57 53 58 56 59 70 60 89 61 54 62 55 63 69 65
REMARK SMILES IDX 90 66 57 67 41 68 42 69 50 70 43 71 49 72 51 73 48 74 44 75
REMARK SMILES IDX 45 76 46 77 47 78 73 79 74 80 82 81 75 82 81 83 83 84 80 85
REMARK SMILES IDX 76 86 77 87 78 88 79 89 58 90 59 91 67 92 60 93 66 94 68 95
REMARK SMILES IDX 65 96 61 97 62 98 63 99 64 100
REMARK H PARENT 5 23 88 53 56 64
REMARK Flexibility Score: inf
ROOT
ATOM      1  C   UNL A   1      32.292  28.679  26.071  1.00  0.00     0.275 C 
ENDROOT
BRANCH   1   2
ATOM      2  O   UNL A   1      33.268  27.679  25.685  1.00  0.00    -0.459 OA
BRANCH   2   3
ATOM      3  C   UNL A   1      33.503  27.648  24.347  1.00  0.00     0.338 C 
ATOM      4  O   UNL A   1      34.364  28.322  23.787  1.00  0.00    -0.246 OA
BRANCH   3   5
ATOM      5  C   UNL A   1      32.640  26.709  23.584  1.00  0.00     0.087 C 
ATOM      6  C   UNL A   1      33.001  22.754  24.363  1.00  0.00     0.026 A 
ATOM      7  C   UNL A   1      34.325  22.726  24.874  1.00  0.00     0.033 A 
ATOM      8  C   UNL A   1      32.654  23.964  23.756  1.00  0.00     0.135 A 
ATOM      9  C   UNL A   1      35.270  23.730  24.629  1.00  0.00     0.042 A 
ATOM     10  C   UNL A   1      33.682  24.822  23.286  1.00  0.00     0.019 A 
ATOM     11  O   UNL A   1      31.378  24.521  23.782  1.00  0.00    -0.475 OA
ATOM     12  Cl  UNL A   1      36.774  23.876  25.440  1.00  0.00    -0.084 Cl
ATOM     13  C   UNL A   1      34.988  24.709  23.716  1.00  0.00     0.032 A 
ATOM     14  C   UNL A   1      33.302  26.071  22.603  1.00  0.00     0.027 C 
ATOM     15  C   UNL A   1      31.412  25.997  24.128  1.00  0.00     0.316 C 
BRANCH   6  16
ATOM     16  C   UNL A   1      32.321  21.412  24.330  1.00  0.00    -0.014 A 
ATOM     17  C   UNL A   1      32.304  18.547  24.006  1.00  0.00     0.048 A 
ATOM     18  C   UNL A   1      32.293  19.135  25.272  1.00  0.00     0.027 A 
ATOM     19  C   UNL A   1      32.174  19.388  22.907  1.00  0.00     0.027 A 
ATOM     20  C   UNL A   1      32.239  20.545  25.429  1.00  0.00     0.011 A 
ATOM     21  C   UNL A   1      32.188  20.792  23.069  1.00  0.00     0.011 A 
BRANCH  17  22
ATOM     22  N   UNL A   1      32.618  17.160  23.892  1.00  0.00    -0.284 N 
ATOM     23  H   UNL A   1      31.863  16.532  23.823  1.00  0.00     0.180 HD
BRANCH  22  24
ATOM     24  S   UNL A   1      34.157  16.510  23.866  1.00  0.00     0.229 S 
ATOM     25  C   UNL A   1      35.185  17.849  24.432  1.00  0.00     0.183 C 
ATOM     26  O   UNL A   1      34.520  16.181  22.507  1.00  0.00    -0.207 OA
ATOM     27  O   UNL A   1      34.173  15.497  24.904  1.00  0.00    -0.207 OA
ENDBRANCH  22  24
ENDBRANCH  17  22
ENDBRANCH   6  16
BRANCH  15  28
ATOM     28  C   UNL A   1      30.218  26.732  23.506  1.00  0.00     0.430 C 
ATOM     29  F   UNL A   1      29.749  27.710  24.320  1.00  0.00    -0.167 F 
ATOM     30  F   UNL A   1      30.510  27.292  22.315  1.00  0.00    -0.167 F 
ATOM     31  F   UNL A   1      29.180  25.877  23.294  1.00  0.00    -0.167 F 
ENDBRANCH  15  28
ENDBRANCH   3   5
ENDBRANCH   2   3
ENDBRANCH   1   2
BRANCH   1  32
ATOM     32  C   UNL A   1      32.860  30.100  26.152  1.00  0.00     0.275 C 
BRANCH  32  33
ATOM     33  O   UNL A   1      32.994  30.547  27.514  1.00  0.00    -0.458 OA
BRANCH  33  34
ATOM     34  C   UNL A   1      33.689  31.704  27.639  1.00  0.00     0.338 C 
ATOM     35  O   UNL A   1      33.233  32.826  27.466  1.00  0.00    -0.246 OA
BRANCH  34  36
ATOM     36  C   UNL A   1      35.066  31.472  28.148  1.00  0.00     0.060 A 
ATOM     37  C   UNL A   1      35.303  30.224  28.709  1.00  0.00     0.016 A 
ATOM     38  C   UNL A   1      36.109  32.409  28.120  1.00  0.00     0.016 A 
ATOM     39  C   UNL A   1      36.576  29.910  29.185  1.00  0.00     0.010 A 
ATOM     40  C   UNL A   1      37.402  32.070  28.598  1.00  0.00     0.010 A 
ATOM     41  C   UNL A   1      37.668  30.793  29.109  1.00  0.00    -0.014 A 
BRANCH  41  42
ATOM     42  C   UNL A   1      38.998  30.296  29.636  1.00  0.00     0.031 A 
ATOM     43  C   UNL A   1      39.392  30.670  31.037  1.00  0.00     0.074 A 
ATOM     44  C   UNL A   1      39.751  29.358  29.011  1.00  0.00     0.049 A 
ATOM     45  N   UNL A   1      40.351  30.184  31.781  1.00  0.00    -0.248 NA
ATOM     46  C   UNL A   1      38.586  31.715  31.686  1.00  0.00     0.031 C 
ATOM     47  C   UNL A   1      39.480  28.846  27.685  1.00  0.00     0.029 A 
ATOM     48  N   UNL A   1      40.831  28.594  29.412  1.00  0.00    -0.354 N 
ATOM     49  C   UNL A   1      40.262  30.860  32.989  1.00  0.00     0.074 A 
ATOM     50  C   UNL A   1      39.129  31.757  32.891  1.00  0.00     0.031 C 
ATOM     51  C   UNL A   1      40.204  27.743  27.451  1.00  0.00     0.029 A 
ATOM     52  C   UNL A   1      41.174  27.583  28.525  1.00  0.00     0.049 A 
ATOM     53  H   UNL A   1      41.316  28.754  30.254  1.00  0.00     0.167 HD
ATOM     54  C   UNL A   1      41.074  30.779  34.068  1.00  0.00     0.034 A 
ATOM     55  C   UNL A   1      42.177  26.671  28.532  1.00  0.00     0.034 A 
ATOM     56  C   UNL A   1      42.275  29.989  34.123  1.00  0.00     0.049 A 
ATOM     57  C   UNL A   1      43.170  26.742  29.673  1.00  0.00     0.074 A 
ATOM     58  C   UNL A   1      43.214  29.933  35.138  1.00  0.00     0.029 A 
ATOM     59  N   UNL A   1      42.733  29.154  33.115  1.00  0.00    -0.354 N 
ATOM     60  N   UNL A   1      43.090  27.430  30.789  1.00  0.00    -0.248 NA
ATOM     61  C   UNL A   1      44.389  25.933  29.550  1.00  0.00     0.031 C 
ATOM     62  C   UNL A   1      44.269  29.120  34.715  1.00  0.00     0.029 A 
ATOM     63  C   UNL A   1      43.944  28.585  33.479  1.00  0.00     0.049 A 
ATOM     64  H   UNL A   1      42.267  28.988  32.263  1.00  0.00     0.167 HD
ATOM     65  C   UNL A   1      44.251  27.128  31.502  1.00  0.00     0.074 A 
ATOM     66  C   UNL A   1      44.981  26.157  30.715  1.00  0.00     0.031 C 
ATOM     67  C   UNL A   1      44.678  27.621  32.692  1.00  0.00     0.034 A 
BRANCH  54  68
ATOM     68  C   UNL A   1      40.737  31.684  35.218  1.00  0.00     0.023 A 
ATOM     69  C   UNL A   1      39.678  31.393  36.093  1.00  0.00     0.031 A 
ATOM     70  C   UNL A   1      41.428  32.897  35.383  1.00  0.00     0.131 A 
ATOM     71  C   UNL A   1      39.296  32.338  37.054  1.00  0.00     0.055 A 
ATOM     72  C   UNL A   1      41.091  33.798  36.392  1.00  0.00     0.041 A 
ATOM     73  F   UNL A   1      42.417  33.239  34.543  1.00  0.00    -0.206 F 
ATOM     74  C   UNL A   1      40.009  33.527  37.225  1.00  0.00     0.022 A 
BRANCH  71  75
ATOM     75  S   UNL A   1      37.746  32.069  37.958  1.00  0.00     0.124 S 
ATOM     76  O   UNL A   1      37.442  30.682  37.612  1.00  0.00    -0.237 OA
ATOM     77  O   UNL A   1      38.142  32.313  39.339  1.00  0.00    -0.237 OA
ATOM     78  O   UNL A   1      36.840  33.060  37.382  1.00  0.00    -0.744 OA
ENDBRANCH  71  75
ENDBRANCH  54  68
BRANCH  55  79
ATOM     79  C   UNL A   1      42.382  25.669  27.418  1.00  0.00     0.023 A 
ATOM     80  C   UNL A   1      41.859  24.361  27.486  1.00  0.00     0.031 A 
ATOM     81  C   UNL A   1      43.191  25.959  26.303  1.00  0.00     0.131 A 
ATOM     82  C   UNL A   1      42.159  23.408  26.493  1.00  0.00     0.055 A 
ATOM     83  C   UNL A   1      43.429  25.033  25.281  1.00  0.00     0.041 A 
ATOM     84  F   UNL A   1      43.783  27.158  26.184  1.00  0.00    -0.206 F 
ATOM     85  C   UNL A   1      42.924  23.744  25.378  1.00  0.00     0.022 A 
BRANCH  82  86
ATOM     86  S   UNL A   1      41.637  21.686  26.745  1.00  0.00     0.124 S 
ATOM     87  O   UNL A   1      42.038  21.069  25.486  1.00  0.00    -0.237 OA
ATOM     88  O   UNL A   1      42.418  21.309  27.918  1.00  0.00    -0.237 OA
ATOM     89  O   UNL A   1      40.196  21.794  26.959  1.00  0.00    -0.744 OA
ENDBRANCH  82  86
ENDBRANCH  55  79
BRANCH  67  90
ATOM     90  C   UNL A   1      45.976  27.080  33.247  1.00  0.00     0.023 A 
ATOM     91  C   UNL A   1      46.041  25.859  33.943  1.00  0.00     0.031 A 
ATOM     92  C   UNL A   1      47.172  27.802  33.075  1.00  0.00     0.131 A 
ATOM     93  C   UNL A   1      47.260  25.429  34.493  1.00  0.00     0.055 A 
ATOM     94  C   UNL A   1      48.393  27.335  33.566  1.00  0.00     0.041 A 
ATOM     95  F   UNL A   1      47.180  28.968  32.413  1.00  0.00    -0.206 F 
ATOM     96  C   UNL A   1      48.440  26.150  34.291  1.00  0.00     0.022 A 
BRANCH  93  97
ATOM     97  S   UNL A   1      47.268  23.956  35.552  1.00  0.00     0.124 S 
ATOM     98  O   UNL A   1      45.843  23.673  35.688  1.00  0.00    -0.237 OA
ATOM     99  O   UNL A   1      48.034  23.001  34.756  1.00  0.00    -0.237 OA
ATOM    100  O   UNL A   1      47.930  24.414  36.773  1.00  0.00    -0.744 OA
ENDBRANCH  93  97
ENDBRANCH  67  90
ENDBRANCH  41  42
ENDBRANCH  34  36
ENDBRANCH  33  34
ENDBRANCH  32  33
ENDBRANCH   1  32
TORSDOF 18
ENDMDL
MODEL 2
REMARK VINA RESULT:     -12.4      5.418     10.508
REMARK SMILES CS(=O)(=O)Nc1ccc(-c2cc(Cl)cc3c2O[C@H](C(F)(F)F)C(C(=O)OCCOC(=O)c2ccc(-c4c5nc(c(-c6cc(S(=O)(=O)[O-])ccc6F)c6ccc([nH]6)c(-c6cc(S(=O)(=O)[O-])ccc6F)c6nc(c(-c7cc(S(=O)(=O)[O-])ccc7F)c7ccc4[nH]7)C=C6)C=C5)cc2)=C3)cc1
REMARK SMILES IDX 27 1 26 2 24 3 25 4 23 5 10 6 11 7 16 8 12 9 15 10 17 11
REMARK SMILES IDX 13 12 14 13 95 14 18 15 9 16 6 17 7 18 97 19 8 20 96 21 5 22
REMARK SMILES IDX 2 24 1 25 3 26 4 27 19 28 20 29 21 30 22 31 28 32 29 33
REMARK SMILES IDX 30 34 31 35 32 36 33 37 94 38 34 39 93 40 35 41 36 42 37 43
REMARK SMILES IDX 87 44 38 45 92 46 86 47 88 48 39 49 91 50 85 51 84 52 40 54
REMARK SMILES IDX 72 55 52 56 71 57 53 58 56 59 70 60 89 61 54 62 55 63 69 65
REMARK SMILES IDX 90 66 57 67 41 68 42 69 50 70 43 71 49 72 51 73 48 74 44 75
REMARK SMILES IDX 45 76 46 77 47 78 73 79 74 80 82 81 75 82 81 83 83 84 80 85
REMARK SMILES IDX 76 86 77 87 78 88 79 89 58 90 59 91 67 92 60 93 66 94 68 95
REMARK SMILES IDX 65 96 61 97 62 98 63 99 64 100
REMARK H PARENT 5 23 88 53 56 64
REMARK Flexibility Score: inf
ROOT
ATOM      1  C   UNL A   1      38.451  19.982  24.975  1.00  0.00     0.275 C 
ENDROOT
BRANCH   1   2
ATOM      2  O   UNL A   1      37.230  20.258  25.707  1.00  0.00    -0.459 OA
BRANCH   2   3
ATOM      3  C   UNL A   1      36.354  21.032  25.013  1.00  0.00     0.338 C 
ATOM      4  O   UNL A   1      35.311  20.612  24.519  1.00  0.00    -0.246 OA
BRANCH   3   5
ATOM      5  C   UNL A   1      36.739  22.464  24.902  1.00  0.00     0.087 C 
ATOM      6  C   UNL A   1      33.775  25.198  24.562  1.00  0.00     0.026 A 
ATOM      7  C   UNL A   1      32.749  24.379  24.022  1.00  0.00     0.033 A 
ATOM      8  C   UNL A   1      35.037  24.597  24.564  1.00  0.00     0.135 A 
ATOM      9  C   UNL A   1      32.992  23.164  23.369  1.00  0.00     0.042 A 
ATOM     10  C   UNL A   1      35.294  23.525  23.670  1.00  0.00     0.019 A 
ATOM     11  O   UNL A   1      36.006  24.802  25.543  1.00  0.00    -0.475 OA
ATOM     12  Cl  UNL A   1      31.784  22.022  22.948  1.00  0.00    -0.084 Cl
ATOM     13  C   UNL A   1      34.279  22.808  23.070  1.00  0.00     0.032 A 
ATOM     14  C   UNL A   1      36.643  22.934  23.647  1.00  0.00     0.027 C 
ATOM     15  C   UNL A   1      36.624  23.499  26.009  1.00  0.00     0.316 C 
BRANCH   6  16
ATOM     16  C   UNL A   1      33.374  26.631  24.782  1.00  0.00    -0.014 A 
ATOM     17  C   UNL A   1      31.693  28.927  24.320  1.00  0.00     0.048 A 
ATOM     18  C   UNL A   1      31.546  28.137  25.463  1.00  0.00     0.027 A 
ATOM     19  C   UNL A   1      32.772  28.657  23.488  1.00  0.00     0.027 A 
ATOM     20  C   UNL A   1      32.415  27.045  25.718  1.00  0.00     0.011 A 
ATOM     21  C   UNL A   1      33.590  27.528  23.713  1.00  0.00     0.011 A 
BRANCH  17  22
ATOM     22  N   UNL A   1      30.652  29.841  23.976  1.00  0.00    -0.284 N 
ATOM     23  H   UNL A   1      30.629  30.699  24.457  1.00  0.00     0.180 HD
BRANCH  22  24
ATOM     24  S   UNL A   1      29.470  29.579  22.825  1.00  0.00     0.229 S 
ATOM     25  C   UNL A   1      28.405  30.997  22.990  1.00  0.00     0.183 C 
ATOM     26  O   UNL A   1      28.722  28.389  23.161  1.00  0.00    -0.207 OA
ATOM     27  O   UNL A   1      30.136  29.698  21.542  1.00  0.00    -0.207 OA
ENDBRANCH  22  24
ENDBRANCH  17  22
ENDBRANCH   6  16
BRANCH  15  28
ATOM     28  C   UNL A   1      38.061  23.720  26.498  1.00  0.00     0.430 C 
ATOM     29  F   UNL A   1      38.785  24.456  25.619  1.00  0.00    -0.167 F 
ATOM     30  F   UNL A   1      38.118  24.336  27.696  1.00  0.00    -0.167 F 
ATOM     31  F   UNL A   1      38.714  22.533  26.635  1.00  0.00    -0.167 F 
ENDBRANCH  15  28
ENDBRANCH   3   5
ENDBRANCH   2   3
ENDBRANCH   1   2
BRANCH   1  32
ATOM     32  C   UNL A   1      39.468  19.145  25.761  1.00  0.00     0.275 C 
BRANCH  32  33
ATOM     33  O   UNL A   1      40.822  19.453  25.382  1.00  0.00    -0.458 OA
BRANCH  33  34
ATOM     34  C   UNL A   1      41.642  19.678  26.438  1.00  0.00     0.338 C 
ATOM     35  O   UNL A   1      42.230  18.814  27.075  1.00  0.00    -0.246 OA
BRANCH  34  36
ATOM     36  C   UNL A   1      41.865  21.129  26.668  1.00  0.00     0.060 A 
ATOM     37  C   UNL A   1      42.291  21.483  27.942  1.00  0.00     0.016 A 
ATOM     38  C   UNL A   1      41.661  22.141  25.719  1.00  0.00     0.016 A 
ATOM     39  C   UNL A   1      42.554  22.821  28.236  1.00  0.00     0.010 A 
ATOM     40  C   UNL A   1      41.944  23.497  26.031  1.00  0.00     0.010 A 
ATOM     41  C   UNL A   1      42.433  23.857  27.293  1.00  0.00    -0.014 A 
BRANCH  41  42
ATOM     42  C   UNL A   1      42.789  25.256  27.752  1.00  0.00     0.031 A 
ATOM     43  C   UNL A   1      44.100  25.839  27.304  1.00  0.00     0.074 A 
ATOM     44  C   UNL A   1      41.911  26.095  28.354  1.00  0.00     0.049 A 
ATOM     45  N   UNL A   1      44.517  27.076  27.369  1.00  0.00    -0.248 NA
ATOM     46  C   UNL A   1      45.053  24.905  26.686  1.00  0.00     0.031 C 
ATOM     47  C   UNL A   1      40.588  25.712  28.798  1.00  0.00     0.029 A 
ATOM     48  N   UNL A   1      41.935  27.452  28.621  1.00  0.00    -0.354 N 
ATOM     49  C   UNL A   1      45.779  27.073  26.796  1.00  0.00     0.074 A 
ATOM     50  C   UNL A   1      46.040  25.719  26.351  1.00  0.00     0.031 C 
ATOM     51  C   UNL A   1      39.856  26.797  29.084  1.00  0.00     0.029 A 
ATOM     52  C   UNL A   1      40.724  27.966  29.066  1.00  0.00     0.049 A 
ATOM     53  H   UNL A   1      42.742  28.006  28.507  1.00  0.00     0.167 HD
ATOM     54  C   UNL A   1      46.665  28.090  26.689  1.00  0.00     0.034 A 
ATOM     55  C   UNL A   1      40.359  29.207  29.468  1.00  0.00     0.034 A 
ATOM     56  C   UNL A   1      46.466  29.402  27.245  1.00  0.00     0.049 A 
ATOM     57  C   UNL A   1      41.437  30.270  29.503  1.00  0.00     0.074 A 
ATOM     58  C   UNL A   1      47.357  30.459  27.276  1.00  0.00     0.029 A 
ATOM     59  N   UNL A   1      45.323  29.828  27.905  1.00  0.00    -0.354 N 
ATOM     60  N   UNL A   1      42.648  30.228  28.998  1.00  0.00    -0.248 NA
ATOM     61  C   UNL A   1      41.109  31.534  30.175  1.00  0.00     0.031 C 
ATOM     62  C   UNL A   1      46.781  31.498  28.012  1.00  0.00     0.029 A 
ATOM     63  C   UNL A   1      45.489  31.129  28.354  1.00  0.00     0.049 A 
ATOM     64  H   UNL A   1      44.512  29.287  28.037  1.00  0.00     0.167 HD
ATOM     65  C   UNL A   1      43.222  31.465  29.289  1.00  0.00     0.074 A 
ATOM     66  C   UNL A   1      42.206  32.246  29.962  1.00  0.00     0.031 C 
ATOM     67  C   UNL A   1      44.479  31.908  29.033  1.00  0.00     0.034 A 
BRANCH  54  68
ATOM     68  C   UNL A   1      47.983  27.755  26.052  1.00  0.00     0.023 A 
ATOM     69  C   UNL A   1      48.176  27.871  24.666  1.00  0.00     0.031 A 
ATOM     70  C   UNL A   1      49.026  27.226  26.832  1.00  0.00     0.131 A 
ATOM     71  C   UNL A   1      49.365  27.399  24.092  1.00  0.00     0.055 A 
ATOM     72  C   UNL A   1      50.235  26.831  26.263  1.00  0.00     0.041 A 
ATOM     73  F   UNL A   1      48.870  27.054  28.154  1.00  0.00    -0.206 F 
ATOM     74  C   UNL A   1      50.405  26.903  24.883  1.00  0.00     0.022 A 
BRANCH  71  75
ATOM     75  S   UNL A   1      49.462  27.282  22.285  1.00  0.00     0.124 S 
ATOM     76  O   UNL A   1      48.776  28.505  21.874  1.00  0.00    -0.237 OA
ATOM     77  O   UNL A   1      50.899  27.244  22.050  1.00  0.00    -0.237 OA
ATOM     78  O   UNL A   1      48.744  26.045  21.985  1.00  0.00    -0.744 OA
ENDBRANCH  71  75
ENDBRANCH  54  68
BRANCH  55  79
ATOM     79  C   UNL A   1      38.965  29.534  29.956  1.00  0.00     0.023 A 
ATOM     80  C   UNL A   1      38.048  30.256  29.165  1.00  0.00     0.031 A 
ATOM     81  C   UNL A   1      38.547  29.220  31.263  1.00  0.00     0.131 A 
ATOM     82  C   UNL A   1      36.798  30.650  29.681  1.00  0.00     0.055 A 
ATOM     83  C   UNL A   1      37.277  29.550  31.750  1.00  0.00     0.041 A 
ATOM     84  F   UNL A   1      39.376  28.588  32.110  1.00  0.00    -0.206 F 
ATOM     85  C   UNL A   1      36.398  30.281  30.963  1.00  0.00     0.022 A 
BRANCH  82  86
ATOM     86  S   UNL A   1      35.752  31.761  28.693  1.00  0.00     0.124 S 
ATOM     87  O   UNL A   1      34.688  32.081  29.637  1.00  0.00    -0.237 OA
ATOM     88  O   UNL A   1      36.680  32.844  28.386  1.00  0.00    -0.237 OA
ATOM     89  O   UNL A   1      35.356  30.934  27.556  1.00  0.00    -0.744 OA
ENDBRANCH  82  86
ENDBRANCH  55  79
BRANCH  67  90
ATOM     90  C   UNL A   1      44.816  33.326  29.438  1.00  0.00     0.023 A 
ATOM     91  C   UNL A   1      44.434  34.436  28.663  1.00  0.00     0.031 A 
ATOM     92  C   UNL A   1      45.534  33.570  30.623  1.00  0.00     0.131 A 
ATOM     93  C   UNL A   1      44.824  35.729  29.048  1.00  0.00     0.055 A 
ATOM     94  C   UNL A   1      45.861  34.863  31.036  1.00  0.00     0.041 A 
ATOM     95  F   UNL A   1      45.920  32.555  31.412  1.00  0.00    -0.206 F 
ATOM     96  C   UNL A   1      45.517  35.950  30.241  1.00  0.00     0.022 A 
BRANCH  93  97
ATOM     97  S   UNL A   1      44.489  37.113  27.925  1.00  0.00     0.124 S 
ATOM     98  O   UNL A   1      45.822  37.671  27.725  1.00  0.00    -0.237 OA
ATOM     99  O   UNL A   1      43.899  36.444  26.769  1.00  0.00    -0.237 OA
ATOM    100  O   UNL A   1      43.569  37.958  28.685  1.00  0.00    -0.744 OA
ENDBRANCH  93  97
ENDBRANCH  67  90
ENDBRANCH  41  42
ENDBRANCH  34  36
ENDBRANCH  33  34
ENDBRANCH  32  33
ENDBRANCH   1  32
TORSDOF 18
ENDMDL
MODEL 3
REMARK VINA RESULT:     -12.1      1.873      2.082
REMARK SMILES CS(=O)(=O)Nc1ccc(-c2cc(Cl)cc3c2O[C@H](C(F)(F)F)C(C(=O)OCCOC(=O)c2ccc(-c4c5nc(c(-c6cc(S(=O)(=O)[O-])ccc6F)c6ccc([nH]6)c(-c6cc(S(=O)(=O)[O-])ccc6F)c6nc(c(-c7cc(S(=O)(=O)[O-])ccc7F)c7ccc4[nH]7)C=C6)C=C5)cc2)=C3)cc1
REMARK SMILES IDX 27 1 26 2 24 3 25 4 23 5 10 6 11 7 16 8 12 9 15 10 17 11
REMARK SMILES IDX 13 12 14 13 95 14 18 15 9 16 6 17 7 18 97 19 8 20 96 21 5 22
REMARK SMILES IDX 2 24 1 25 3 26 4 27 19 28 20 29 21 30 22 31 28 32 29 33
REMARK SMILES IDX 30 34 31 35 32 36 33 37 94 38 34 39 93 40 35 41 36 42 37 43
REMARK SMILES IDX 87 44 38 45 92 46 86 47 88 48 39 49 91 50 85 51 84 52 40 54
REMARK SMILES IDX 72 55 52 56 71 57 53 58 56 59 70 60 89 61 54 62 55 63 69 65
REMARK SMILES IDX 90 66 57 67 41 68 42 69 50 70 43 71 49 72 51 73 48 74 44 75
REMARK SMILES IDX 45 76 46 77 47 78 73 79 74 80 82 81 75 82 81 83 83 84 80 85
REMARK SMILES IDX 76 86 77 87 78 88 79 89 58 90 59 91 67 92 60 93 66 94 68 95
REMARK SMILES IDX 65 96 61 97 62 98 63 99 64 100
REMARK H PARENT 5 23 88 53 56 64
REMARK Flexibility Score: inf
ROOT
ATOM      1  C   UNL A   1      31.790  29.170  26.393  1.00  0.00     0.275 C 
ENDROOT
BRANCH   1   2
ATOM      2  O   UNL A   1      32.696  28.059  26.172  1.00  0.00    -0.459 OA
BRANCH   2   3
ATOM      3  C   UNL A   1      33.171  28.001  24.900  1.00  0.00     0.338 C 
ATOM      4  O   UNL A   1      34.160  28.615  24.509  1.00  0.00    -0.246 OA
BRANCH   3   5
ATOM      5  C   UNL A   1      32.407  27.109  23.989  1.00  0.00     0.087 C 
ATOM      6  C   UNL A   1      32.822  23.112  24.470  1.00  0.00     0.026 A 
ATOM      7  C   UNL A   1      34.097  23.073  25.093  1.00  0.00     0.033 A 
ATOM      8  C   UNL A   1      32.491  24.360  23.936  1.00  0.00     0.135 A 
ATOM      9  C   UNL A   1      35.028  24.116  25.016  1.00  0.00     0.042 A 
ATOM     10  C   UNL A   1      33.529  25.279  23.631  1.00  0.00     0.019 A 
ATOM     11  O   UNL A   1      31.201  24.883  23.894  1.00  0.00    -0.475 OA
ATOM     12  Cl  UNL A   1      36.451  24.229  25.967  1.00  0.00    -0.084 Cl
ATOM     13  C   UNL A   1      34.796  25.162  24.165  1.00  0.00     0.032 A 
ATOM     14  C   UNL A   1      33.171  26.572  23.022  1.00  0.00     0.027 C 
ATOM     15  C   UNL A   1      31.159  26.325  24.361  1.00  0.00     0.316 C 
BRANCH   6  16
ATOM     16  C   UNL A   1      32.189  21.762  24.267  1.00  0.00    -0.014 A 
ATOM     17  C   UNL A   1      32.291  18.932  23.728  1.00  0.00     0.048 A 
ATOM     18  C   UNL A   1      32.137  19.419  25.028  1.00  0.00     0.027 A 
ATOM     19  C   UNL A   1      32.246  19.853  22.688  1.00  0.00     0.027 A 
ATOM     20  C   UNL A   1      32.024  20.810  25.284  1.00  0.00     0.011 A 
ATOM     21  C   UNL A   1      32.202  21.239  22.956  1.00  0.00     0.011 A 
BRANCH  17  22
ATOM     22  N   UNL A   1      32.657  17.565  23.543  1.00  0.00    -0.284 N 
ATOM     23  H   UNL A   1      31.962  16.956  23.204  1.00  0.00     0.180 HD
BRANCH  22  24
ATOM     24  S   UNL A   1      34.163  16.911  23.851  1.00  0.00     0.229 S 
ATOM     25  C   UNL A   1      33.855  15.762  25.177  1.00  0.00     0.183 C 
ATOM     26  O   UNL A   1      35.053  17.945  24.324  1.00  0.00    -0.207 OA
ATOM     27  O   UNL A   1      34.497  16.124  22.679  1.00  0.00    -0.207 OA
ENDBRANCH  22  24
ENDBRANCH  17  22
ENDBRANCH   6  16
BRANCH  15  28
ATOM     28  C   UNL A   1      30.001  27.081  23.697  1.00  0.00     0.430 C 
ATOM     29  F   UNL A   1      28.796  26.580  24.066  1.00  0.00    -0.167 F 
ATOM     30  F   UNL A   1      30.004  28.398  23.983  1.00  0.00    -0.167 F 
ATOM     31  F   UNL A   1      30.065  26.972  22.342  1.00  0.00    -0.167 F 
ENDBRANCH  15  28
ENDBRANCH   3   5
ENDBRANCH   2   3
ENDBRANCH   1   2
BRANCH   1  32
ATOM     32  C   UNL A   1      32.492  30.469  26.804  1.00  0.00     0.275 C 
BRANCH  32  33
ATOM     33  O   UNL A   1      33.628  30.219  27.651  1.00  0.00    -0.458 OA
BRANCH  33  34
ATOM     34  C   UNL A   1      34.322  31.338  27.973  1.00  0.00     0.338 C 
ATOM     35  O   UNL A   1      33.856  32.468  28.031  1.00  0.00    -0.246 OA
BRANCH  34  36
ATOM     36  C   UNL A   1      35.715  31.028  28.386  1.00  0.00     0.060 A 
ATOM     37  C   UNL A   1      35.947  29.726  28.810  1.00  0.00     0.016 A 
ATOM     38  C   UNL A   1      36.780  31.941  28.398  1.00  0.00     0.016 A 
ATOM     39  C   UNL A   1      37.233  29.339  29.188  1.00  0.00     0.010 A 
ATOM     40  C   UNL A   1      38.085  31.528  28.774  1.00  0.00     0.010 A 
ATOM     41  C   UNL A   1      38.342  30.202  29.143  1.00  0.00    -0.014 A 
BRANCH  41  42
ATOM     42  C   UNL A   1      39.683  29.627  29.550  1.00  0.00     0.031 A 
ATOM     43  C   UNL A   1      40.267  30.051  30.869  1.00  0.00     0.074 A 
ATOM     44  C   UNL A   1      40.282  28.592  28.912  1.00  0.00     0.049 A 
ATOM     45  N   UNL A   1      41.267  29.532  31.532  1.00  0.00    -0.248 NA
ATOM     46  C   UNL A   1      39.626  31.198  31.529  1.00  0.00     0.031 C 
ATOM     47  C   UNL A   1      39.818  28.025  27.664  1.00  0.00     0.029 A 
ATOM     48  N   UNL A   1      41.340  27.765  29.242  1.00  0.00    -0.354 N 
ATOM     49  C   UNL A   1      41.373  30.285  32.692  1.00  0.00     0.074 A 
ATOM     50  C   UNL A   1      40.309  31.267  32.659  1.00  0.00     0.031 C 
ATOM     51  C   UNL A   1      40.422  26.852  27.429  1.00  0.00     0.029 A 
ATOM     52  C   UNL A   1      41.497  26.676  28.395  1.00  0.00     0.049 A 
ATOM     53  H   UNL A   1      41.932  27.935  30.011  1.00  0.00     0.167 HD
ATOM     54  C   UNL A   1      42.298  30.201  33.675  1.00  0.00     0.034 A 
ATOM     55  C   UNL A   1      42.420  25.685  28.354  1.00  0.00     0.034 A 
ATOM     56  C   UNL A   1      43.433  29.317  33.651  1.00  0.00     0.049 A 
ATOM     57  C   UNL A   1      43.543  25.741  29.368  1.00  0.00     0.074 A 
ATOM     58  C   UNL A   1      44.477  29.244  34.555  1.00  0.00     0.029 A 
ATOM     59  N   UNL A   1      43.703  28.387  32.658  1.00  0.00    -0.354 N 
ATOM     60  N   UNL A   1      43.649  26.500  30.434  1.00  0.00    -0.248 NA
ATOM     61  C   UNL A   1      44.674  24.826  29.165  1.00  0.00     0.031 C 
ATOM     62  C   UNL A   1      45.410  28.320  34.074  1.00  0.00     0.029 A 
ATOM     63  C   UNL A   1      44.900  27.740  32.923  1.00  0.00     0.049 A 
ATOM     64  H   UNL A   1      43.128  28.210  31.879  1.00  0.00     0.167 HD
ATOM     65  C   UNL A   1      44.859  26.145  31.031  1.00  0.00     0.074 A 
ATOM     66  C   UNL A   1      45.414  25.069  30.237  1.00  0.00     0.031 C 
ATOM     67  C   UNL A   1      45.460  26.672  32.128  1.00  0.00     0.034 A 
BRANCH  54  68
ATOM     68  C   UNL A   1      42.170  31.200  34.790  1.00  0.00     0.023 A 
ATOM     69  C   UNL A   1      42.732  32.483  34.691  1.00  0.00     0.031 A 
ATOM     70  C   UNL A   1      41.557  30.829  35.999  1.00  0.00     0.131 A 
ATOM     71  C   UNL A   1      42.728  33.327  35.810  1.00  0.00     0.055 A 
ATOM     72  C   UNL A   1      41.489  31.703  37.081  1.00  0.00     0.041 A 
ATOM     73  F   UNL A   1      41.046  29.597  36.155  1.00  0.00    -0.206 F 
ATOM     74  C   UNL A   1      42.089  32.956  36.996  1.00  0.00     0.022 A 
BRANCH  71  75
ATOM     75  S   UNL A   1      43.721  34.844  35.748  1.00  0.00     0.124 S 
ATOM     76  O   UNL A   1      44.153  34.855  34.352  1.00  0.00    -0.237 OA
ATOM     77  O   UNL A   1      42.755  35.867  36.128  1.00  0.00    -0.237 OA
ATOM     78  O   UNL A   1      44.784  34.594  36.719  1.00  0.00    -0.744 OA
ENDBRANCH  71  75
ENDBRANCH  54  68
BRANCH  55  79
ATOM     79  C   UNL A   1      42.415  24.603  27.297  1.00  0.00     0.023 A 
ATOM     80  C   UNL A   1      41.712  23.393  27.471  1.00  0.00     0.031 A 
ATOM     81  C   UNL A   1      43.193  24.708  26.128  1.00  0.00     0.131 A 
ATOM     82  C   UNL A   1      41.815  22.352  26.528  1.00  0.00     0.055 A 
ATOM     83  C   UNL A   1      43.236  23.701  25.156  1.00  0.00     0.041 A 
ATOM     84  F   UNL A   1      43.946  25.797  25.906  1.00  0.00    -0.206 F 
ATOM     85  C   UNL A   1      42.555  22.508  25.359  1.00  0.00     0.022 A 
BRANCH  82  86
ATOM     86  S   UNL A   1      41.063  20.743  26.913  1.00  0.00     0.124 S 
ATOM     87  O   UNL A   1      42.151  19.826  26.597  1.00  0.00    -0.237 OA
ATOM     88  O   UNL A   1      40.747  20.897  28.328  1.00  0.00    -0.237 OA
ATOM     89  O   UNL A   1      39.911  20.682  26.016  1.00  0.00    -0.744 OA
ENDBRANCH  82  86
ENDBRANCH  55  79
BRANCH  67  90
ATOM     90  C   UNL A   1      46.769  26.057  32.570  1.00  0.00     0.023 A 
ATOM     91  C   UNL A   1      46.826  25.011  33.508  1.00  0.00     0.031 A 
ATOM     92  C   UNL A   1      47.985  26.530  32.040  1.00  0.00     0.131 A 
ATOM     93  C   UNL A   1      48.070  24.515  33.933  1.00  0.00     0.055 A 
ATOM     94  C   UNL A   1      49.215  25.987  32.416  1.00  0.00     0.041 A 
ATOM     95  F   UNL A   1      47.999  27.520  31.134  1.00  0.00    -0.206 F 
ATOM     96  C   UNL A   1      49.263  24.983  33.377  1.00  0.00     0.022 A 
BRANCH  93  97
ATOM     97  S   UNL A   1      48.112  23.309  35.287  1.00  0.00     0.124 S 
ATOM     98  O   UNL A   1      47.352  22.198  34.726  1.00  0.00    -0.237 OA
ATOM     99  O   UNL A   1      49.544  23.078  35.458  1.00  0.00    -0.237 OA
ATOM    100  O   UNL A   1      47.463  24.011  36.393  1.00  0.00    -0.744 OA
ENDBRANCH  93  97
ENDBRANCH  67  90
ENDBRANCH  41  42
ENDBRANCH  34  36
ENDBRANCH  33  34
ENDBRANCH  32  33
ENDBRANCH   1  32
TORSDOF 18
ENDMDL
