MODEL 1
REMARK VINA RESULT:     -12.9      0.000      0.000
REMARK SMILES O=C(NC(=S)Nc1cc(C(=O)OCCOC(=O)c2ccc(-c3c4nc(c(-c5cc(S(=O)(=O)[O-])ccc5F)c5ccc([nH]5)c(-c5cc(S(=O)(=O)[O-])ccc5F)c5nc(c(-c6cc(S(=O)(=O)[O-])ccc6F)c6ccc3[nH]6)C=C5)C=C4)cc2)ccc1Br)c1ccc(F)cc1
REMARK SMILES IDX 13 1 12 2 10 3 11 4 9 5 7 6 8 7 83 8 82 9 84 10 81 11 6 12
REMARK SMILES IDX 4 14 5 15 3 16 1 17 2 18 85 20 86 21 91 22 87 23 90 24 88 25
REMARK SMILES IDX 89 26 14 27 15 28 16 29 17 30 18 31 19 32 80 33 20 34 79 35
REMARK SMILES IDX 21 36 22 37 23 38 73 39 24 40 78 41 72 42 74 43 25 44 77 45
REMARK SMILES IDX 71 46 70 47 26 49 58 50 38 51 57 52 39 53 42 54 56 55 75 56
REMARK SMILES IDX 40 57 41 58 55 60 76 61 43 62 27 63 28 64 36 65 29 66 35 67
REMARK SMILES IDX 37 68 34 69 30 70 31 71 32 72 33 73 59 74 60 75 68 76 61 77
REMARK SMILES IDX 67 78 69 79 66 80 62 81 63 82 64 83 65 84 44 85 45 86 53 87
REMARK SMILES IDX 46 88 52 89 54 90 51 91 47 92 48 93 49 94 50 95
REMARK H PARENT 6 13 3 19 74 48 42 59
REMARK Flexibility Score: inf
ROOT
ATOM      1  C   UNL A   1      34.953  21.634  24.295  1.00  0.00     0.275 C 
ENDROOT
BRANCH   1   2
ATOM      2  O   UNL A   1      33.624  21.102  24.129  1.00  0.00    -0.458 OA
BRANCH   2   3
ATOM      3  C   UNL A   1      32.634  21.850  24.669  1.00  0.00     0.338 C 
ATOM      4  O   UNL A   1      31.756  21.495  25.435  1.00  0.00    -0.246 OA
BRANCH   3   5
ATOM      5  C   UNL A   1      32.857  23.257  24.306  1.00  0.00     0.062 A 
ATOM      6  C   UNL A   1      33.764  26.296  25.316  1.00  0.00     0.055 A 
ATOM      7  C   UNL A   1      33.409  24.389  25.819  1.00  0.00     0.043 A 
ATOM      8  C   UNL A   1      33.545  26.786  23.417  1.00  0.00     0.041 A 
ATOM      9  C   UNL A   1      32.991  25.641  21.909  1.00  0.00     0.019 A 
ATOM     10  Br  UNL A   1      33.870  28.614  22.939  1.00  0.00    -0.049 Br
ATOM     11  C   UNL A   1      32.613  23.743  22.418  1.00  0.00     0.017 A 
BRANCH   6  12
ATOM     12  N   UNL A   1      33.506  27.259  26.299  1.00  0.00    -0.331 N 
ATOM     13  H   UNL A   1      34.273  27.689  26.740  1.00  0.00     0.169 HD
BRANCH  12  14
ATOM     14  C   UNL A   1      32.259  27.633  26.675  1.00  0.00     0.177 C 
ATOM     15  S   UNL A   1      31.965  29.230  27.066  1.00  0.00    -0.040 S 
BRANCH  14  16
ATOM     16  N   UNL A   1      31.217  26.719  26.825  1.00  0.00    -0.299 N 
ATOM     17  O   UNL A   1      29.504  25.208  26.757  1.00  0.00    -0.269 OA
ATOM     18  C   UNL A   1      30.234  25.975  26.123  1.00  0.00     0.257 C 
ATOM     19  H   UNL A   1      31.130  26.511  27.784  1.00  0.00     0.172 HD
BRANCH  18  20
ATOM     20  C   UNL A   1      30.025  25.959  24.652  1.00  0.00     0.040 A 
ATOM     21  C   UNL A   1      30.093  27.072  24.003  1.00  0.00     0.017 A 
ATOM     22  C   UNL A   1      29.138  26.559  23.929  1.00  0.00     0.017 A 
ATOM     23  C   UNL A   1      29.292  28.709  23.061  1.00  0.00     0.040 A 
ATOM     24  C   UNL A   1      28.323  28.175  22.969  1.00  0.00     0.040 A 
ATOM     25  C   UNL A   1      28.291  29.426  22.699  1.00  0.00     0.123 A 
ATOM     26  F   UNL A   1      28.109  29.938  21.482  1.00  0.00    -0.207 F 
ENDBRANCH  18  20
ENDBRANCH  14  16
ENDBRANCH  12  14
ENDBRANCH   6  12
ENDBRANCH   3   5
ENDBRANCH   2   3
ENDBRANCH   1   2
BRANCH   1  27
ATOM     27  C   UNL A   1      35.790  20.700  25.173  1.00  0.00     0.275 C 
BRANCH  27  28
ATOM     28  O   UNL A   1      36.712  21.491  25.934  1.00  0.00    -0.458 OA
BRANCH  28  29
ATOM     29  C   UNL A   1      38.027  21.231  25.748  1.00  0.00     0.338 C 
ATOM     30  O   UNL A   1      38.498  20.190  25.320  1.00  0.00    -0.246 OA
BRANCH  29  31
ATOM     31  C   UNL A   1      38.828  22.415  26.167  1.00  0.00     0.060 A 
ATOM     32  C   UNL A   1      38.417  23.719  25.865  1.00  0.00     0.016 A 
ATOM     33  C   UNL A   1      40.019  22.221  26.876  1.00  0.00     0.016 A 
ATOM     34  C   UNL A   1      39.180  24.819  26.264  1.00  0.00     0.010 A 
ATOM     35  C   UNL A   1      40.771  23.325  27.302  1.00  0.00     0.010 A 
ATOM     36  C   UNL A   1      40.355  24.632  27.001  1.00  0.00    -0.014 A 
BRANCH  36  37
ATOM     37  C   UNL A   1      41.152  25.802  27.448  1.00  0.00     0.031 A 
ATOM     38  C   UNL A   1      40.551  26.807  28.387  1.00  0.00     0.074 A 
ATOM     39  C   UNL A   1      42.422  25.956  27.027  1.00  0.00     0.049 A 
ATOM     40  N   UNL A   1      41.010  27.976  28.750  1.00  0.00    -0.248 NA
ATOM     41  C   UNL A   1      39.264  26.443  28.996  1.00  0.00     0.031 C 
ATOM     42  C   UNL A   1      43.150  25.026  26.162  1.00  0.00     0.029 A 
ATOM     43  N   UNL A   1      43.327  26.954  27.281  1.00  0.00    -0.354 N 
ATOM     44  C   UNL A   1      40.046  28.514  29.595  1.00  0.00     0.074 A 
ATOM     45  C   UNL A   1      38.988  27.529  29.704  1.00  0.00     0.031 C 
ATOM     46  C   UNL A   1      44.399  25.487  25.978  1.00  0.00     0.029 A 
ATOM     47  C   UNL A   1      44.539  26.768  26.661  1.00  0.00     0.049 A 
ATOM     48  H   UNL A   1      43.128  27.729  27.854  1.00  0.00     0.167 HD
ATOM     49  C   UNL A   1      40.035  29.726  30.203  1.00  0.00     0.034 A 
ATOM     50  C   UNL A   1      45.626  27.561  26.616  1.00  0.00     0.034 A 
ATOM     51  C   UNL A   1      41.094  30.698  30.094  1.00  0.00     0.049 A 
ATOM     52  C   UNL A   1      45.585  28.909  27.276  1.00  0.00     0.074 A 
ATOM     53  C   UNL A   1      41.156  31.979  30.617  1.00  0.00     0.029 A 
ATOM     54  N   UNL A   1      42.290  30.489  29.422  1.00  0.00    -0.354 N 
ATOM     55  N   UNL A   1      44.607  29.467  27.949  1.00  0.00    -0.248 NA
ATOM     56  C   UNL A   1      46.784  29.747  27.136  1.00  0.00     0.031 C 
ATOM     57  C   UNL A   1      42.378  32.553  30.238  1.00  0.00     0.029 A 
ATOM     58  C   UNL A   1      43.093  31.615  29.511  1.00  0.00     0.049 A 
ATOM     59  H   UNL A   1      42.533  29.660  28.950  1.00  0.00     0.167 HD
ATOM     60  C   UNL A   1      45.061  30.737  28.283  1.00  0.00     0.074 A 
ATOM     61  C   UNL A   1      46.410  30.852  27.767  1.00  0.00     0.031 C 
ATOM     62  C   UNL A   1      44.415  31.725  28.949  1.00  0.00     0.034 A 
BRANCH  49  63
ATOM     63  C   UNL A   1      38.790  30.085  30.964  1.00  0.00     0.023 A 
ATOM     64  C   UNL A   1      37.750  30.825  30.376  1.00  0.00     0.031 A 
ATOM     65  C   UNL A   1      38.677  29.738  32.321  1.00  0.00     0.131 A 
ATOM     66  C   UNL A   1      36.665  31.241  31.161  1.00  0.00     0.055 A 
ATOM     67  C   UNL A   1      37.569  30.109  33.084  1.00  0.00     0.041 A 
ATOM     68  F   UNL A   1      39.657  29.055  32.934  1.00  0.00    -0.206 F 
ATOM     69  C   UNL A   1      36.561  30.877  32.508  1.00  0.00     0.022 A 
BRANCH  66  70
ATOM     70  S   UNL A   1      35.456  32.385  30.439  1.00  0.00     0.124 S 
ATOM     71  O   UNL A   1      36.247  33.604  30.289  1.00  0.00    -0.237 OA
ATOM     72  O   UNL A   1      35.083  31.705  29.205  1.00  0.00    -0.237 OA
ATOM     73  O   UNL A   1      34.407  32.458  31.454  1.00  0.00    -0.744 OA
ENDBRANCH  66  70
ENDBRANCH  49  63
BRANCH  50  74
ATOM     74  C   UNL A   1      46.818  27.142  25.838  1.00  0.00     0.023 A 
ATOM     75  C   UNL A   1      47.009  27.584  24.521  1.00  0.00     0.031 A 
ATOM     76  C   UNL A   1      47.770  26.278  26.403  1.00  0.00     0.131 A 
ATOM     77  C   UNL A   1      48.128  27.143  23.800  1.00  0.00     0.055 A 
ATOM     78  C   UNL A   1      48.891  25.857  25.688  1.00  0.00     0.041 A 
ATOM     79  F   UNL A   1      47.623  25.841  27.664  1.00  0.00    -0.206 F 
ATOM     80  C   UNL A   1      49.072  26.288  24.376  1.00  0.00     0.022 A 
BRANCH  77  81
ATOM     81  S   UNL A   1      48.339  27.706  22.089  1.00  0.00     0.124 S 
ATOM     82  O   UNL A   1      47.139  28.512  21.891  1.00  0.00    -0.237 OA
ATOM     83  O   UNL A   1      49.602  28.433  22.159  1.00  0.00    -0.237 OA
ATOM     84  O   UNL A   1      48.388  26.459  21.328  1.00  0.00    -0.744 OA
ENDBRANCH  77  81
ENDBRANCH  50  74
BRANCH  62  85
ATOM     85  C   UNL A   1      45.165  33.012  29.127  1.00  0.00     0.023 A 
ATOM     86  C   UNL A   1      44.963  34.092  28.250  1.00  0.00     0.031 A 
ATOM     87  C   UNL A   1      46.107  33.150  30.159  1.00  0.00     0.131 A 
ATOM     88  C   UNL A   1      45.720  35.262  28.404  1.00  0.00     0.055 A 
ATOM     89  C   UNL A   1      46.842  34.326  30.321  1.00  0.00     0.041 A 
ATOM     90  F   UNL A   1      46.336  32.142  31.013  1.00  0.00    -0.206 F 
ATOM     91  C   UNL A   1      46.654  35.388  29.438  1.00  0.00     0.022 A 
BRANCH  88  92
ATOM     92  S   UNL A   1      45.498  36.610  27.211  1.00  0.00     0.124 S 
ATOM     93  O   UNL A   1      44.141  36.370  26.728  1.00  0.00    -0.237 OA
ATOM     94  O   UNL A   1      45.679  37.796  28.041  1.00  0.00    -0.237 OA
ATOM     95  O   UNL A   1      46.554  36.376  26.228  1.00  0.00    -0.744 OA
ENDBRANCH  88  92
ENDBRANCH  62  85
ENDBRANCH  36  37
ENDBRANCH  29  31
ENDBRANCH  28  29
ENDBRANCH  27  28
ENDBRANCH   1  27
TORSDOF 18
ENDMDL
MODEL 2
REMARK VINA RESULT:     -12.4      5.189     10.083
REMARK SMILES O=C(NC(=S)Nc1cc(C(=O)OCCOC(=O)c2ccc(-c3c4nc(c(-c5cc(S(=O)(=O)[O-])ccc5F)c5ccc([nH]5)c(-c5cc(S(=O)(=O)[O-])ccc5F)c5nc(c(-c6cc(S(=O)(=O)[O-])ccc6F)c6ccc3[nH]6)C=C5)C=C4)cc2)ccc1Br)c1ccc(F)cc1
REMARK SMILES IDX 13 1 12 2 10 3 11 4 9 5 7 6 8 7 83 8 82 9 84 10 81 11 6 12
REMARK SMILES IDX 4 14 5 15 3 16 1 17 2 18 85 20 86 21 91 22 87 23 90 24 88 25
REMARK SMILES IDX 89 26 14 27 15 28 16 29 17 30 18 31 19 32 80 33 20 34 79 35
REMARK SMILES IDX 21 36 22 37 23 38 73 39 24 40 78 41 72 42 74 43 25 44 77 45
REMARK SMILES IDX 71 46 70 47 26 49 58 50 38 51 57 52 39 53 42 54 56 55 75 56
REMARK SMILES IDX 40 57 41 58 55 60 76 61 43 62 27 63 28 64 36 65 29 66 35 67
REMARK SMILES IDX 37 68 34 69 30 70 31 71 32 72 33 73 59 74 60 75 68 76 61 77
REMARK SMILES IDX 67 78 69 79 66 80 62 81 63 82 64 83 65 84 44 85 45 86 53 87
REMARK SMILES IDX 46 88 52 89 54 90 51 91 47 92 48 93 49 94 50 95
REMARK H PARENT 6 13 3 19 74 48 42 59
REMARK Flexibility Score: inf
ROOT
ATOM      1  C   UNL A   1      31.873  29.019  24.090  1.00  0.00     0.275 C 
ENDROOT
BRANCH   1   2
ATOM      2  O   UNL A   1      31.273  29.281  22.806  1.00  0.00    -0.458 OA
BRANCH   2   3
ATOM      3  C   UNL A   1      30.273  28.438  22.455  1.00  0.00     0.338 C 
ATOM      4  O   UNL A   1      29.180  28.718  22.000  1.00  0.00    -0.246 OA
BRANCH   3   5
ATOM      5  C   UNL A   1      30.764  27.057  22.566  1.00  0.00     0.062 A 
ATOM      6  C   UNL A   1      30.475  24.099  24.063  1.00  0.00     0.055 A 
ATOM      7  C   UNL A   1      29.844  25.996  23.946  1.00  0.00     0.043 A 
ATOM      8  C   UNL A   1      31.884  23.534  22.802  1.00  0.00     0.041 A 
ATOM      9  C   UNL A   1      32.799  24.607  21.422  1.00  0.00     0.019 A 
ATOM     10  Br  UNL A   1      32.499  21.722  22.925  1.00  0.00    -0.049 Br
ATOM     11  C   UNL A   1      32.184  26.510  21.323  1.00  0.00     0.017 A 
BRANCH   6  12
ATOM     12  N   UNL A   1      30.417  23.498  25.326  1.00  0.00    -0.331 N 
ATOM     13  H   UNL A   1      29.763  22.777  25.468  1.00  0.00     0.169 HD
BRANCH  12  14
ATOM     14  C   UNL A   1      31.211  23.854  26.365  1.00  0.00     0.177 C 
ATOM     15  S   UNL A   1      32.138  22.691  27.125  1.00  0.00    -0.040 S 
BRANCH  14  16
ATOM     16  N   UNL A   1      31.232  25.148  26.882  1.00  0.00    -0.299 N 
ATOM     17  O   UNL A   1      31.505  27.323  27.530  1.00  0.00    -0.269 OA
ATOM     18  C   UNL A   1      31.948  26.373  26.877  1.00  0.00     0.257 C 
ATOM     19  H   UNL A   1      30.454  25.252  27.476  1.00  0.00     0.172 HD
BRANCH  18  20
ATOM     20  C   UNL A   1      33.172  26.676  26.092  1.00  0.00     0.040 A 
ATOM     21  C   UNL A   1      33.565  25.828  25.202  1.00  0.00     0.017 A 
ATOM     22  C   UNL A   1      34.283  26.023  25.994  1.00  0.00     0.017 A 
ATOM     23  C   UNL A   1      34.741  24.299  24.504  1.00  0.00     0.040 A 
ATOM     24  C   UNL A   1      35.484  24.514  25.302  1.00  0.00     0.040 A 
ATOM     25  C   UNL A   1      35.659  23.417  24.664  1.00  0.00     0.123 A 
ATOM     26  F   UNL A   1      36.660  23.181  23.817  1.00  0.00    -0.207 F 
ENDBRANCH  18  20
ENDBRANCH  14  16
ENDBRANCH  12  14
ENDBRANCH   6  12
ENDBRANCH   3   5
ENDBRANCH   2   3
ENDBRANCH   1   2
BRANCH   1  27
ATOM     27  C   UNL A   1      31.511  30.129  25.079  1.00  0.00     0.275 C 
BRANCH  27  28
ATOM     28  O   UNL A   1      32.332  29.990  26.246  1.00  0.00    -0.458 OA
BRANCH  28  29
ATOM     29  C   UNL A   1      32.711  31.136  26.858  1.00  0.00     0.338 C 
ATOM     30  O   UNL A   1      32.138  32.210  26.784  1.00  0.00    -0.246 OA
BRANCH  29  31
ATOM     31  C   UNL A   1      33.963  30.893  27.628  1.00  0.00     0.060 A 
ATOM     32  C   UNL A   1      34.386  29.596  27.943  1.00  0.00     0.016 A 
ATOM     33  C   UNL A   1      34.731  31.983  28.050  1.00  0.00     0.016 A 
ATOM     34  C   UNL A   1      35.561  29.384  28.668  1.00  0.00     0.010 A 
ATOM     35  C   UNL A   1      35.926  31.771  28.752  1.00  0.00     0.010 A 
ATOM     36  C   UNL A   1      36.351  30.470  29.064  1.00  0.00    -0.014 A 
BRANCH  36  37
ATOM     37  C   UNL A   1      37.613  30.244  29.811  1.00  0.00     0.031 A 
ATOM     38  C   UNL A   1      38.739  29.483  29.173  1.00  0.00     0.074 A 
ATOM     39  C   UNL A   1      37.759  30.736  31.056  1.00  0.00     0.049 A 
ATOM     40  N   UNL A   1      39.839  29.029  29.713  1.00  0.00    -0.248 NA
ATOM     41  C   UNL A   1      38.603  29.199  27.738  1.00  0.00     0.031 C 
ATOM     42  C   UNL A   1      36.770  31.543  31.774  1.00  0.00     0.029 A 
ATOM     43  N   UNL A   1      38.807  30.632  31.935  1.00  0.00    -0.354 N 
ATOM     44  C   UNL A   1      40.511  28.361  28.697  1.00  0.00     0.074 A 
ATOM     45  C   UNL A   1      39.699  28.491  27.503  1.00  0.00     0.031 C 
ATOM     46  C   UNL A   1      37.271  31.881  32.974  1.00  0.00     0.029 A 
ATOM     47  C   UNL A   1      38.584  31.267  33.132  1.00  0.00     0.049 A 
ATOM     48  H   UNL A   1      39.639  30.148  31.727  1.00  0.00     0.167 HD
ATOM     49  C   UNL A   1      41.684  27.683  28.760  1.00  0.00     0.034 A 
ATOM     50  C   UNL A   1      39.340  31.317  34.246  1.00  0.00     0.034 A 
ATOM     51  C   UNL A   1      42.488  27.563  29.950  1.00  0.00     0.049 A 
ATOM     52  C   UNL A   1      40.623  30.540  34.304  1.00  0.00     0.074 A 
ATOM     53  C   UNL A   1      43.660  26.848  30.139  1.00  0.00     0.029 A 
ATOM     54  N   UNL A   1      42.209  28.188  31.156  1.00  0.00    -0.354 N 
ATOM     55  N   UNL A   1      41.174  29.789  33.381  1.00  0.00    -0.248 NA
ATOM     56  C   UNL A   1      41.366  30.589  35.572  1.00  0.00     0.031 C 
ATOM     57  C   UNL A   1      44.072  27.020  31.468  1.00  0.00     0.029 A 
ATOM     58  C   UNL A   1      43.179  27.873  32.095  1.00  0.00     0.049 A 
ATOM     59  H   UNL A   1      41.434  28.771  31.321  1.00  0.00     0.167 HD
ATOM     60  C   UNL A   1      42.311  29.249  33.967  1.00  0.00     0.074 A 
ATOM     61  C   UNL A   1      42.386  29.783  35.312  1.00  0.00     0.031 C 
ATOM     62  C   UNL A   1      43.209  28.378  33.443  1.00  0.00     0.034 A 
BRANCH  49  63
ATOM     63  C   UNL A   1      42.104  26.950  27.516  1.00  0.00     0.023 A 
ATOM     64  C   UNL A   1      41.885  25.571  27.359  1.00  0.00     0.031 A 
ATOM     65  C   UNL A   1      42.798  27.635  26.503  1.00  0.00     0.131 A 
ATOM     66  C   UNL A   1      42.404  24.909  26.237  1.00  0.00     0.055 A 
ATOM     67  C   UNL A   1      43.267  26.980  25.364  1.00  0.00     0.041 A 
ATOM     68  F   UNL A   1      43.056  28.947  26.621  1.00  0.00    -0.206 F 
ATOM     69  C   UNL A   1      43.083  25.607  25.232  1.00  0.00     0.022 A 
BRANCH  66  70
ATOM     70  S   UNL A   1      42.308  23.098  26.172  1.00  0.00     0.124 S 
ATOM     71  O   UNL A   1      42.832  22.817  24.839  1.00  0.00    -0.237 OA
ATOM     72  O   UNL A   1      43.153  22.702  27.292  1.00  0.00    -0.237 OA
ATOM     73  O   UNL A   1      40.882  22.826  26.339  1.00  0.00    -0.744 OA
ENDBRANCH  66  70
ENDBRANCH  49  63
BRANCH  50  74
ATOM     74  C   UNL A   1      38.855  32.056  35.438  1.00  0.00     0.023 A 
ATOM     75  C   UNL A   1      38.219  31.383  36.492  1.00  0.00     0.031 A 
ATOM     76  C   UNL A   1      39.009  33.449  35.524  1.00  0.00     0.131 A 
ATOM     77  C   UNL A   1      37.742  32.114  37.589  1.00  0.00     0.055 A 
ATOM     78  C   UNL A   1      38.550  34.169  36.627  1.00  0.00     0.041 A 
ATOM     79  F   UNL A   1      39.620  34.124  34.538  1.00  0.00    -0.206 F 
ATOM     80  C   UNL A   1      37.908  33.500  37.666  1.00  0.00     0.022 A 
BRANCH  77  81
ATOM     81  S   UNL A   1      36.897  31.227  38.926  1.00  0.00     0.124 S 
ATOM     82  O   UNL A   1      36.806  29.879  38.377  1.00  0.00    -0.237 OA
ATOM     83  O   UNL A   1      37.819  31.408  40.044  1.00  0.00    -0.237 OA
ATOM     84  O   UNL A   1      35.627  31.939  39.054  1.00  0.00    -0.744 OA
ENDBRANCH  77  81
ENDBRANCH  50  74
BRANCH  62  85
ATOM     85  C   UNL A   1      44.326  27.946  34.347  1.00  0.00     0.023 A 
ATOM     86  C   UNL A   1      44.190  26.815  35.171  1.00  0.00     0.031 A 
ATOM     87  C   UNL A   1      45.519  28.684  34.408  1.00  0.00     0.131 A 
ATOM     88  C   UNL A   1      45.227  26.468  36.048  1.00  0.00     0.055 A 
ATOM     89  C   UNL A   1      46.556  28.320  35.267  1.00  0.00     0.041 A 
ATOM     90  F   UNL A   1      45.686  29.775  33.645  1.00  0.00    -0.206 F 
ATOM     91  C   UNL A   1      46.412  27.210  36.097  1.00  0.00     0.022 A 
BRANCH  88  92
ATOM     92  S   UNL A   1      44.995  25.051  37.157  1.00  0.00     0.124 S 
ATOM     93  O   UNL A   1      44.307  24.097  36.293  1.00  0.00    -0.237 OA
ATOM     94  O   UNL A   1      46.366  24.710  37.520  1.00  0.00    -0.237 OA
ATOM     95  O   UNL A   1      44.185  25.596  38.245  1.00  0.00    -0.744 OA
ENDBRANCH  88  92
ENDBRANCH  62  85
ENDBRANCH  36  37
ENDBRANCH  29  31
ENDBRANCH  28  29
ENDBRANCH  27  28
ENDBRANCH   1  27
TORSDOF 18
ENDMDL
MODEL 3
REMARK VINA RESULT:     -12.0      5.500     10.310
REMARK SMILES O=C(NC(=S)Nc1cc(C(=O)OCCOC(=O)c2ccc(-c3c4nc(c(-c5cc(S(=O)(=O)[O-])ccc5F)c5ccc([nH]5)c(-c5cc(S(=O)(=O)[O-])ccc5F)c5nc(c(-c6cc(S(=O)(=O)[O-])ccc6F)c6ccc3[nH]6)C=C5)C=C4)cc2)ccc1Br)c1ccc(F)cc1
REMARK SMILES IDX 13 1 12 2 10 3 11 4 9 5 7 6 8 7 83 8 82 9 84 10 81 11 6 12
REMARK SMILES IDX 4 14 5 15 3 16 1 17 2 18 85 20 86 21 91 22 87 23 90 24 88 25
REMARK SMILES IDX 89 26 14 27 15 28 16 29 17 30 18 31 19 32 80 33 20 34 79 35
REMARK SMILES IDX 21 36 22 37 23 38 73 39 24 40 78 41 72 42 74 43 25 44 77 45
REMARK SMILES IDX 71 46 70 47 26 49 58 50 38 51 57 52 39 53 42 54 56 55 75 56
REMARK SMILES IDX 40 57 41 58 55 60 76 61 43 62 27 63 28 64 36 65 29 66 35 67
REMARK SMILES IDX 37 68 34 69 30 70 31 71 32 72 33 73 59 74 60 75 68 76 61 77
REMARK SMILES IDX 67 78 69 79 66 80 62 81 63 82 64 83 65 84 44 85 45 86 53 87
REMARK SMILES IDX 46 88 52 89 54 90 51 91 47 92 48 93 49 94 50 95
REMARK H PARENT 6 13 3 19 74 48 42 59
REMARK Flexibility Score: inf
ROOT
ATOM      1  C   UNL A   1      31.603  29.627  24.874  1.00  0.00     0.275 C 
ENDROOT
BRANCH   1   2
ATOM      2  O   UNL A   1      32.838  29.626  24.130  1.00  0.00    -0.458 OA
BRANCH   2   3
ATOM      3  C   UNL A   1      33.001  28.579  23.288  1.00  0.00     0.338 C 
ATOM      4  O   UNL A   1      33.605  28.551  22.232  1.00  0.00    -0.246 OA
BRANCH   3   5
ATOM      5  C   UNL A   1      32.448  27.375  23.925  1.00  0.00     0.062 A 
ATOM      6  C   UNL A   1      32.921  24.883  26.080  1.00  0.00     0.055 A 
ATOM      7  C   UNL A   1      33.691  26.494  25.173  1.00  0.00     0.043 A 
ATOM      8  C   UNL A   1      31.057  24.402  25.643  1.00  0.00     0.041 A 
ATOM      9  C   UNL A   1      29.820  25.294  24.390  1.00  0.00     0.019 A 
ATOM     10  Br  UNL A   1      30.326  22.851  26.500  1.00  0.00    -0.049 Br
ATOM     11  C   UNL A   1      30.601  26.889  23.466  1.00  0.00     0.017 A 
BRANCH   6  12
ATOM     12  N   UNL A   1      33.822  23.865  26.416  1.00  0.00    -0.331 N 
ATOM     13  H   UNL A   1      34.092  23.776  27.357  1.00  0.00     0.169 HD
BRANCH  12  14
ATOM     14  C   UNL A   1      34.342  22.995  25.516  1.00  0.00     0.177 C 
ATOM     15  S   UNL A   1      35.465  21.867  26.022  1.00  0.00    -0.040 S 
BRANCH  14  16
ATOM     16  N   UNL A   1      34.033  23.049  24.158  1.00  0.00    -0.299 N 
ATOM     17  O   UNL A   1      33.294  22.938  21.998  1.00  0.00    -0.269 OA
ATOM     18  C   UNL A   1      33.213  22.488  23.146  1.00  0.00     0.257 C 
ATOM     19  H   UNL A   1      34.601  23.738  23.744  1.00  0.00     0.172 HD
BRANCH  18  20
ATOM     20  C   UNL A   1      32.181  21.435  23.329  1.00  0.00     0.040 A 
ATOM     21  C   UNL A   1      32.500  20.357  23.962  1.00  0.00     0.017 A 
ATOM     22  C   UNL A   1      32.167  20.204  22.938  1.00  0.00     0.017 A 
ATOM     23  C   UNL A   1      33.054  18.386  24.083  1.00  0.00     0.040 A 
ATOM     24  C   UNL A   1      32.695  18.227  23.044  1.00  0.00     0.040 A 
ATOM     25  C   UNL A   1      33.387  17.271  23.542  1.00  0.00     0.123 A 
ATOM     26  F   UNL A   1      32.904  16.075  23.877  1.00  0.00    -0.207 F 
ENDBRANCH  18  20
ENDBRANCH  14  16
ENDBRANCH  12  14
ENDBRANCH   6  12
ENDBRANCH   3   5
ENDBRANCH   2   3
ENDBRANCH   1   2
BRANCH   1  27
ATOM     27  C   UNL A   1      31.755  30.457  26.150  1.00  0.00     0.275 C 
BRANCH  27  28
ATOM     28  O   UNL A   1      33.139  30.473  26.525  1.00  0.00    -0.458 OA
BRANCH  28  29
ATOM     29  C   UNL A   1      33.560  31.547  27.233  1.00  0.00     0.338 C 
ATOM     30  O   UNL A   1      33.008  32.633  27.284  1.00  0.00    -0.246 OA
BRANCH  29  31
ATOM     31  C   UNL A   1      34.828  31.206  27.936  1.00  0.00     0.060 A 
ATOM     32  C   UNL A   1      35.862  32.142  28.074  1.00  0.00     0.016 A 
ATOM     33  C   UNL A   1      34.995  29.923  28.468  1.00  0.00     0.016 A 
ATOM     34  C   UNL A   1      37.046  31.807  28.735  1.00  0.00     0.010 A 
ATOM     35  C   UNL A   1      36.171  29.594  29.156  1.00  0.00     0.010 A 
ATOM     36  C   UNL A   1      37.204  30.534  29.297  1.00  0.00    -0.014 A 
BRANCH  36  37
ATOM     37  C   UNL A   1      38.452  30.187  30.021  1.00  0.00     0.031 A 
ATOM     38  C   UNL A   1      39.479  29.308  29.370  1.00  0.00     0.074 A 
ATOM     39  C   UNL A   1      38.675  30.675  31.256  1.00  0.00     0.049 A 
ATOM     40  N   UNL A   1      40.538  28.748  29.894  1.00  0.00    -0.248 NA
ATOM     41  C   UNL A   1      39.284  29.023  27.942  1.00  0.00     0.031 C 
ATOM     42  C   UNL A   1      37.790  31.587  31.983  1.00  0.00     0.029 A 
ATOM     43  N   UNL A   1      39.725  30.473  32.114  1.00  0.00    -0.354 N 
ATOM     44  C   UNL A   1      41.116  28.003  28.872  1.00  0.00     0.074 A 
ATOM     45  C   UNL A   1      40.296  28.203  27.693  1.00  0.00     0.031 C 
ATOM     46  C   UNL A   1      38.348  31.885  33.169  1.00  0.00     0.029 A 
ATOM     47  C   UNL A   1      39.595  31.141  33.308  1.00  0.00     0.049 A 
ATOM     48  H   UNL A   1      40.498  29.904  31.896  1.00  0.00     0.167 HD
ATOM     49  C   UNL A   1      42.214  27.208  28.920  1.00  0.00     0.034 A 
ATOM     50  C   UNL A   1      40.375  31.125  34.406  1.00  0.00     0.034 A 
ATOM     51  C   UNL A   1      43.027  27.019  30.095  1.00  0.00     0.049 A 
ATOM     52  C   UNL A   1      41.573  30.220  34.447  1.00  0.00     0.074 A 
ATOM     53  C   UNL A   1      44.123  26.189  30.270  1.00  0.00     0.029 A 
ATOM     54  N   UNL A   1      42.841  27.683  31.299  1.00  0.00    -0.354 N 
ATOM     55  N   UNL A   1      42.023  29.407  33.523  1.00  0.00    -0.248 NA
ATOM     56  C   UNL A   1      42.343  30.207  35.699  1.00  0.00     0.031 C 
ATOM     57  C   UNL A   1      44.580  26.333  31.588  1.00  0.00     0.029 A 
ATOM     58  C   UNL A   1      43.792  27.280  32.222  1.00  0.00     0.049 A 
ATOM     59  H   UNL A   1      42.133  28.345  31.472  1.00  0.00     0.167 HD
ATOM     60  C   UNL A   1      43.111  28.758  34.093  1.00  0.00     0.074 A 
ATOM     61  C   UNL A   1      43.270  29.296  35.429  1.00  0.00     0.031 C 
ATOM     62  C   UNL A   1      43.903  27.794  33.562  1.00  0.00     0.034 A 
BRANCH  49  63
ATOM     63  C   UNL A   1      42.530  26.423  27.678  1.00  0.00     0.023 A 
ATOM     64  C   UNL A   1      42.093  25.098  27.509  1.00  0.00     0.031 A 
ATOM     65  C   UNL A   1      43.340  26.991  26.680  1.00  0.00     0.131 A 
ATOM     66  C   UNL A   1      42.517  24.366  26.390  1.00  0.00     0.055 A 
ATOM     67  C   UNL A   1      43.715  26.274  25.543  1.00  0.00     0.041 A 
ATOM     68  F   UNL A   1      43.804  28.244  26.810  1.00  0.00    -0.206 F 
ATOM     69  C   UNL A   1      43.314  24.949  25.400  1.00  0.00     0.022 A 
BRANCH  66  70
ATOM     70  S   UNL A   1      42.131  22.594  26.312  1.00  0.00     0.124 S 
ATOM     71  O   UNL A   1      40.677  22.597  26.449  1.00  0.00    -0.237 OA
ATOM     72  O   UNL A   1      42.651  22.221  25.003  1.00  0.00    -0.237 OA
ATOM     73  O   UNL A   1      42.852  22.037  27.454  1.00  0.00    -0.744 OA
ENDBRANCH  66  70
ENDBRANCH  49  63
BRANCH  50  74
ATOM     74  C   UNL A   1      39.995  31.923  35.597  1.00  0.00     0.023 A 
ATOM     75  C   UNL A   1      38.989  31.480  36.468  1.00  0.00     0.031 A 
ATOM     76  C   UNL A   1      40.626  33.148  35.865  1.00  0.00     0.131 A 
ATOM     77  C   UNL A   1      38.628  32.273  37.567  1.00  0.00     0.055 A 
ATOM     78  C   UNL A   1      40.277  33.924  36.970  1.00  0.00     0.041 A 
ATOM     79  F   UNL A   1      41.598  33.599  35.057  1.00  0.00    -0.206 F 
ATOM     80  C   UNL A   1      39.269  33.488  37.827  1.00  0.00     0.022 A 
BRANCH  77  81
ATOM     81  S   UNL A   1      37.305  31.694  38.663  1.00  0.00     0.124 S 
ATOM     82  O   UNL A   1      36.275  32.703  38.445  1.00  0.00    -0.237 OA
ATOM     83  O   UNL A   1      37.028  30.363  38.132  1.00  0.00    -0.237 OA
ATOM     84  O   UNL A   1      37.930  31.712  39.985  1.00  0.00    -0.744 OA
ENDBRANCH  77  81
ENDBRANCH  50  74
BRANCH  62  85
ATOM     85  C   UNL A   1      44.989  27.259  34.449  1.00  0.00     0.023 A 
ATOM     86  C   UNL A   1      44.791  26.092  35.207  1.00  0.00     0.031 A 
ATOM     87  C   UNL A   1      46.215  27.934  34.560  1.00  0.00     0.131 A 
ATOM     88  C   UNL A   1      45.801  25.646  36.071  1.00  0.00     0.055 A 
ATOM     89  C   UNL A   1      47.225  27.473  35.405  1.00  0.00     0.041 A 
ATOM     90  F   UNL A   1      46.442  29.056  33.860  1.00  0.00    -0.206 F 
ATOM     91  C   UNL A   1      47.019  26.327  36.171  1.00  0.00     0.022 A 
BRANCH  88  92
ATOM     92  S   UNL A   1      45.491  24.184  37.097  1.00  0.00     0.124 S 
ATOM     93  O   UNL A   1      44.705  24.741  38.194  1.00  0.00    -0.237 OA
ATOM     94  O   UNL A   1      44.774  23.303  36.181  1.00  0.00    -0.237 OA
ATOM     95  O   UNL A   1      46.832  23.732  37.465  1.00  0.00    -0.744 OA
ENDBRANCH  88  92
ENDBRANCH  62  85
ENDBRANCH  36  37
ENDBRANCH  29  31
ENDBRANCH  28  29
ENDBRANCH  27  28
ENDBRANCH   1  27
TORSDOF 18
ENDMDL
