MODEL 1
REMARK VINA RESULT:     -11.0      0.000      0.000
REMARK SMILES O=C(OCCOC(=O)c1cc(SCc2csc(-c3ccsc3)n2)ccn1)c1ccc(-c2c3nc(c(-c4cc(S(=O)(=O)[O-])ccc4F)c4ccc([nH]4)c(-c4cc(S(=O)(=O)[O-])ccc4F)c4nc(c(-c5cc(S(=O)(=O)[O-])ccc5F)c5ccc2[nH]5)C=C4)C=C3)cc1
REMARK SMILES IDX 5 1 4 2 3 3 2 4 1 5 27 6 28 7 89 8 29 9 88 10 30 11 31 12
REMARK SMILES IDX 32 13 82 14 33 15 87 16 81 17 83 18 34 19 86 20 80 21 79 22
REMARK SMILES IDX 35 24 67 25 47 26 66 27 48 28 51 29 65 30 84 31 49 32 50 33
REMARK SMILES IDX 64 35 85 36 52 37 36 38 37 39 45 40 38 41 44 42 46 43 43 44
REMARK SMILES IDX 39 45 40 46 41 47 42 48 68 49 69 50 77 51 70 52 76 53 78 54
REMARK SMILES IDX 75 55 71 56 72 57 73 58 74 59 53 60 54 61 62 62 55 63 61 64
REMARK SMILES IDX 63 65 60 66 56 67 57 68 58 69 59 70 6 71 7 72 8 73 9 74
REMARK SMILES IDX 10 75 26 76 11 77 25 78 24 79 12 80 13 81 14 82 15 83 23 84
REMARK SMILES IDX 16 85 17 86 18 87 19 88 22 89 20 90 21 91
REMARK H PARENT 83 23 51 34
REMARK Flexibility Score: inf
ROOT
ATOM      1  C   UNL A   1      30.981  29.703  24.417  1.00  0.00     0.275 C 
ENDROOT
BRANCH   1   2
ATOM      2  C   UNL A   1      31.669  29.632  25.784  1.00  0.00     0.275 C 
BRANCH   2   3
ATOM      3  O   UNL A   1      32.786  30.542  25.856  1.00  0.00    -0.458 OA
BRANCH   3   4
ATOM      4  C   UNL A   1      33.331  31.204  26.907  1.00  0.00     0.338 C 
ATOM      5  O   UNL A   1      32.797  32.262  27.249  1.00  0.00    -0.246 OA
BRANCH   4   6
ATOM      6  C   UNL A   1      34.564  30.776  27.661  1.00  0.00     0.060 A 
ATOM      7  C   UNL A   1      34.871  29.482  28.057  1.00  0.00     0.016 A 
ATOM      8  C   UNL A   1      35.528  31.767  27.953  1.00  0.00     0.016 A 
ATOM      9  C   UNL A   1      36.059  29.201  28.744  1.00  0.00     0.010 A 
ATOM     10  C   UNL A   1      36.739  31.471  28.620  1.00  0.00     0.010 A 
ATOM     11  C   UNL A   1      37.015  30.170  29.037  1.00  0.00    -0.014 A 
BRANCH  11  12
ATOM     12  C   UNL A   1      38.246  29.770  29.789  1.00  0.00     0.031 A 
ATOM     13  C   UNL A   1      39.252  28.861  29.163  1.00  0.00     0.074 A 
ATOM     14  C   UNL A   1      38.550  30.302  30.991  1.00  0.00     0.049 A 
ATOM     15  N   UNL A   1      40.369  28.412  29.672  1.00  0.00    -0.248 NA
ATOM     16  C   UNL A   1      38.988  28.432  27.786  1.00  0.00     0.031 C 
ATOM     17  C   UNL A   1      37.741  31.317  31.633  1.00  0.00     0.029 A 
ATOM     18  N   UNL A   1      39.592  30.120  31.874  1.00  0.00    -0.354 N 
ATOM     19  C   UNL A   1      40.928  27.609  28.694  1.00  0.00     0.074 A 
ATOM     20  C   UNL A   1      40.033  27.653  27.552  1.00  0.00     0.031 C 
ATOM     21  C   UNL A   1      38.292  31.657  32.803  1.00  0.00     0.029 A 
ATOM     22  C   UNL A   1      39.494  30.884  33.021  1.00  0.00     0.049 A 
ATOM     23  H   UNL A   1      40.339  29.501  31.704  1.00  0.00     0.167 HD
ATOM     24  C   UNL A   1      42.071  26.886  28.761  1.00  0.00     0.034 A 
ATOM     25  C   UNL A   1      40.252  30.984  34.134  1.00  0.00     0.034 A 
ATOM     26  C   UNL A   1      42.954  26.852  29.902  1.00  0.00     0.049 A 
ATOM     27  C   UNL A   1      41.476  30.122  34.206  1.00  0.00     0.074 A 
ATOM     28  C   UNL A   1      44.111  26.109  30.066  1.00  0.00     0.029 A 
ATOM     29  N   UNL A   1      42.780  27.571  31.077  1.00  0.00    -0.354 N 
ATOM     30  N   UNL A   1      41.969  29.340  33.275  1.00  0.00    -0.248 NA
ATOM     31  C   UNL A   1      42.237  30.134  35.460  1.00  0.00     0.031 C 
ATOM     32  C   UNL A   1      44.591  26.319  31.363  1.00  0.00     0.029 A 
ATOM     33  C   UNL A   1      43.776  27.246  31.989  1.00  0.00     0.049 A 
ATOM     34  H   UNL A   1      42.057  28.219  31.240  1.00  0.00     0.167 HD
ATOM     35  C   UNL A   1      43.089  28.750  33.840  1.00  0.00     0.074 A 
ATOM     36  C   UNL A   1      43.240  29.321  35.163  1.00  0.00     0.031 C 
ATOM     37  C   UNL A   1      43.897  27.794  33.319  1.00  0.00     0.034 A 
BRANCH  24  38
ATOM     38  C   UNL A   1      42.345  25.973  27.601  1.00  0.00     0.023 A 
ATOM     39  C   UNL A   1      41.870  24.652  27.557  1.00  0.00     0.031 A 
ATOM     40  C   UNL A   1      43.162  26.426  26.551  1.00  0.00     0.131 A 
ATOM     41  C   UNL A   1      42.269  23.811  26.508  1.00  0.00     0.055 A 
ATOM     42  C   UNL A   1      43.496  25.606  25.475  1.00  0.00     0.041 A 
ATOM     43  F   UNL A   1      43.667  27.670  26.570  1.00  0.00    -0.206 F 
ATOM     44  C   UNL A   1      43.058  24.286  25.455  1.00  0.00     0.022 A 
BRANCH  41  45
ATOM     45  S   UNL A   1      41.849  22.050  26.599  1.00  0.00     0.124 S 
ATOM     46  O   UNL A   1      40.390  22.098  26.636  1.00  0.00    -0.237 OA
ATOM     47  O   UNL A   1      42.439  21.519  25.375  1.00  0.00    -0.237 OA
ATOM     48  O   UNL A   1      42.484  21.609  27.839  1.00  0.00    -0.744 OA
ENDBRANCH  41  45
ENDBRANCH  24  38
BRANCH  25  49
ATOM     49  C   UNL A   1      39.862  31.877  35.279  1.00  0.00     0.023 A 
ATOM     50  C   UNL A   1      39.009  31.439  36.307  1.00  0.00     0.031 A 
ATOM     51  C   UNL A   1      40.306  33.215  35.342  1.00  0.00     0.131 A 
ATOM     52  C   UNL A   1      38.601  32.329  37.319  1.00  0.00     0.055 A 
ATOM     53  C   UNL A   1      39.960  34.072  36.388  1.00  0.00     0.041 A 
ATOM     54  F   UNL A   1      41.109  33.711  34.385  1.00  0.00    -0.206 F 
ATOM     55  C   UNL A   1      39.089  33.635  37.377  1.00  0.00     0.022 A 
BRANCH  52  56
ATOM     56  S   UNL A   1      37.329  31.797  38.501  1.00  0.00     0.124 S 
ATOM     57  O   UNL A   1      38.010  31.977  39.778  1.00  0.00    -0.237 OA
ATOM     58  O   UNL A   1      36.249  32.736  38.212  1.00  0.00    -0.237 OA
ATOM     59  O   UNL A   1      37.069  30.411  38.121  1.00  0.00    -0.744 OA
ENDBRANCH  52  56
ENDBRANCH  25  49
BRANCH  37  60
ATOM     60  C   UNL A   1      44.993  27.296  34.222  1.00  0.00     0.023 A 
ATOM     61  C   UNL A   1      44.807  26.147  35.011  1.00  0.00     0.031 A 
ATOM     62  C   UNL A   1      46.204  27.996  34.339  1.00  0.00     0.131 A 
ATOM     63  C   UNL A   1      45.788  25.771  35.937  1.00  0.00     0.055 A 
ATOM     64  C   UNL A   1      47.206  27.577  35.214  1.00  0.00     0.041 A 
ATOM     65  F   UNL A   1      46.427  29.104  33.613  1.00  0.00    -0.206 F 
ATOM     66  C   UNL A   1      46.996  26.468  36.031  1.00  0.00     0.022 A 
BRANCH  63  67
ATOM     67  S   UNL A   1      45.420  24.418  37.085  1.00  0.00     0.124 S 
ATOM     68  O   UNL A   1      46.753  23.907  37.384  1.00  0.00    -0.237 OA
ATOM     69  O   UNL A   1      44.741  25.106  38.178  1.00  0.00    -0.237 OA
ATOM     70  O   UNL A   1      44.574  23.523  36.298  1.00  0.00    -0.744 OA
ENDBRANCH  63  67
ENDBRANCH  37  60
ENDBRANCH  11  12
ENDBRANCH   4   6
ENDBRANCH   3   4
ENDBRANCH   2   3
ENDBRANCH   1   2
BRANCH   1  71
ATOM     71  O   UNL A   1      30.882  28.405  23.824  1.00  0.00    -0.457 OA
BRANCH  71  72
ATOM     72  C   UNL A   1      31.996  27.973  23.165  1.00  0.00     0.357 C 
ATOM     73  O   UNL A   1      32.855  28.657  22.656  1.00  0.00    -0.244 OA
BRANCH  72  74
ATOM     74  C   UNL A   1      31.997  26.491  23.259  1.00  0.00     0.149 A 
ATOM     75  C   UNL A   1      31.497  25.892  24.408  1.00  0.00     0.051 A 
ATOM     76  N   UNL A   1      32.545  25.824  22.215  1.00  0.00    -0.249 NA
ATOM     77  C   UNL A   1      31.553  24.514  24.501  1.00  0.00     0.012 A 
ATOM     78  C   UNL A   1      32.598  24.483  22.329  1.00  0.00     0.113 A 
ATOM     79  C   UNL A   1      32.087  23.793  23.421  1.00  0.00     0.035 A 
BRANCH  77  80
ATOM     80  S   UNL A   1      30.929  23.628  25.919  1.00  0.00    -0.120 SA
BRANCH  80  81
ATOM     81  C   UNL A   1      32.396  23.169  26.922  1.00  0.00     0.132 C 
BRANCH  81  82
ATOM     82  C   UNL A   1      33.402  22.226  26.320  1.00  0.00     0.062 A 
ATOM     83  C   UNL A   1      34.771  22.420  26.246  1.00  0.00     0.091 A 
ATOM     84  N   UNL A   1      32.954  21.110  25.602  1.00  0.00    -0.240 NA
ATOM     85  S   UNL A   1      35.519  21.147  25.381  1.00  0.00    -0.122 S 
ATOM     86  C   UNL A   1      33.979  20.449  25.088  1.00  0.00     0.124 A 
BRANCH  86  87
ATOM     87  C   UNL A   1      33.780  19.127  24.382  1.00  0.00     0.021 A 
ATOM     88  C   UNL A   1      32.679  18.840  23.516  1.00  0.00     0.023 A 
ATOM     89  C   UNL A   1      34.584  18.017  24.562  1.00  0.00     0.076 A 
ATOM     90  C   UNL A   1      32.674  17.530  23.090  1.00  0.00     0.065 A 
ATOM     91  S   UNL A   1      33.979  16.638  23.742  1.00  0.00    -0.152 S 
ENDBRANCH  86  87
ENDBRANCH  81  82
ENDBRANCH  80  81
ENDBRANCH  77  80
ENDBRANCH  72  74
ENDBRANCH  71  72
ENDBRANCH   1  71
TORSDOF 18
ENDMDL
MODEL 2
REMARK VINA RESULT:     -10.9      1.605      7.727
REMARK SMILES O=C(OCCOC(=O)c1cc(SCc2csc(-c3ccsc3)n2)ccn1)c1ccc(-c2c3nc(c(-c4cc(S(=O)(=O)[O-])ccc4F)c4ccc([nH]4)c(-c4cc(S(=O)(=O)[O-])ccc4F)c4nc(c(-c5cc(S(=O)(=O)[O-])ccc5F)c5ccc2[nH]5)C=C4)C=C3)cc1
REMARK SMILES IDX 5 1 4 2 3 3 2 4 1 5 27 6 28 7 89 8 29 9 88 10 30 11 31 12
REMARK SMILES IDX 32 13 82 14 33 15 87 16 81 17 83 18 34 19 86 20 80 21 79 22
REMARK SMILES IDX 35 24 67 25 47 26 66 27 48 28 51 29 65 30 84 31 49 32 50 33
REMARK SMILES IDX 64 35 85 36 52 37 36 38 37 39 45 40 38 41 44 42 46 43 43 44
REMARK SMILES IDX 39 45 40 46 41 47 42 48 68 49 69 50 77 51 70 52 76 53 78 54
REMARK SMILES IDX 75 55 71 56 72 57 73 58 74 59 53 60 54 61 62 62 55 63 61 64
REMARK SMILES IDX 63 65 60 66 56 67 57 68 58 69 59 70 6 71 7 72 8 73 9 74
REMARK SMILES IDX 10 75 26 76 11 77 25 78 24 79 12 80 13 81 14 82 15 83 23 84
REMARK SMILES IDX 16 85 17 86 18 87 19 88 22 89 20 90 21 91
REMARK H PARENT 83 23 51 34
REMARK Flexibility Score: inf
ROOT
ATOM      1  C   UNL A   1      31.681  31.602  26.894  1.00  0.00     0.275 C 
ENDROOT
BRANCH   1   2
ATOM      2  C   UNL A   1      32.088  33.055  26.628  1.00  0.00     0.275 C 
BRANCH   2   3
ATOM      3  O   UNL A   1      32.192  33.802  27.857  1.00  0.00    -0.458 OA
BRANCH   3   4
ATOM      4  C   UNL A   1      33.260  34.381  28.462  1.00  0.00     0.338 C 
ATOM      5  O   UNL A   1      33.309  35.612  28.468  1.00  0.00    -0.246 OA
BRANCH   4   6
ATOM      6  C   UNL A   1      34.414  33.640  29.086  1.00  0.00     0.060 A 
ATOM      7  C   UNL A   1      34.335  32.440  29.780  1.00  0.00     0.016 A 
ATOM      8  C   UNL A   1      35.708  34.179  28.912  1.00  0.00     0.016 A 
ATOM      9  C   UNL A   1      35.483  31.835  30.306  1.00  0.00     0.010 A 
ATOM     10  C   UNL A   1      36.866  33.547  29.419  1.00  0.00     0.010 A 
ATOM     11  C   UNL A   1      36.763  32.359  30.141  1.00  0.00    -0.014 A 
BRANCH  11  12
ATOM     12  C   UNL A   1      37.925  31.643  30.755  1.00  0.00     0.031 A 
ATOM     13  C   UNL A   1      38.302  31.895  32.177  1.00  0.00     0.074 A 
ATOM     14  C   UNL A   1      38.589  30.669  30.098  1.00  0.00     0.049 A 
ATOM     15  N   UNL A   1      39.279  31.366  32.865  1.00  0.00    -0.248 NA
ATOM     16  C   UNL A   1      37.458  32.830  32.929  1.00  0.00     0.031 C 
ATOM     17  C   UNL A   1      38.217  30.215  28.773  1.00  0.00     0.029 A 
ATOM     18  N   UNL A   1      39.662  29.866  30.421  1.00  0.00    -0.354 N 
ATOM     19  C   UNL A   1      39.200  31.933  34.125  1.00  0.00     0.074 A 
ATOM     20  C   UNL A   1      38.061  32.832  34.108  1.00  0.00     0.031 C 
ATOM     21  C   UNL A   1      39.045  29.240  28.385  1.00  0.00     0.029 A 
ATOM     22  C   UNL A   1      40.026  28.989  29.418  1.00  0.00     0.049 A 
ATOM     23  H   UNL A   1      40.127  29.914  31.287  1.00  0.00     0.167 HD
ATOM     24  C   UNL A   1      40.020  31.733  35.183  1.00  0.00     0.034 A 
ATOM     25  C   UNL A   1      41.017  28.080  29.299  1.00  0.00     0.034 A 
ATOM     26  C   UNL A   1      41.149  30.835  35.187  1.00  0.00     0.049 A 
ATOM     27  C   UNL A   1      41.949  27.930  30.463  1.00  0.00     0.074 A 
ATOM     28  C   UNL A   1      42.058  30.608  36.207  1.00  0.00     0.029 A 
ATOM     29  N   UNL A   1      41.539  30.027  34.127  1.00  0.00    -0.354 N 
ATOM     30  N   UNL A   1      41.872  28.507  31.639  1.00  0.00    -0.248 NA
ATOM     31  C   UNL A   1      43.098  27.033  30.296  1.00  0.00     0.031 C 
ATOM     32  C   UNL A   1      43.037  29.727  35.738  1.00  0.00     0.029 A 
ATOM     33  C   UNL A   1      42.706  29.345  34.450  1.00  0.00     0.049 A 
ATOM     34  H   UNL A   1      41.058  29.947  33.272  1.00  0.00     0.167 HD
ATOM     35  C   UNL A   1      42.976  28.058  32.346  1.00  0.00     0.074 A 
ATOM     36  C   UNL A   1      43.661  27.108  31.492  1.00  0.00     0.031 C 
ATOM     37  C   UNL A   1      43.402  28.428  33.578  1.00  0.00     0.034 A 
BRANCH  24  38
ATOM     38  C   UNL A   1      39.788  32.616  36.376  1.00  0.00     0.023 A 
ATOM     39  C   UNL A   1      38.957  32.235  37.441  1.00  0.00     0.031 A 
ATOM     40  C   UNL A   1      40.364  33.897  36.402  1.00  0.00     0.131 A 
ATOM     41  C   UNL A   1      38.679  33.155  38.462  1.00  0.00     0.055 A 
ATOM     42  C   UNL A   1      40.141  34.781  37.455  1.00  0.00     0.041 A 
ATOM     43  F   UNL A   1      41.137  34.316  35.387  1.00  0.00    -0.206 F 
ATOM     44  C   UNL A   1      39.284  34.416  38.489  1.00  0.00     0.022 A 
BRANCH  41  45
ATOM     45  S   UNL A   1      37.415  32.733  39.692  1.00  0.00     0.124 S 
ATOM     46  O   UNL A   1      36.213  32.664  38.865  1.00  0.00    -0.237 OA
ATOM     47  O   UNL A   1      37.899  31.464  40.221  1.00  0.00    -0.237 OA
ATOM     48  O   UNL A   1      37.459  33.856  40.627  1.00  0.00    -0.744 OA
ENDBRANCH  41  45
ENDBRANCH  24  38
BRANCH  25  49
ATOM     49  C   UNL A   1      41.217  27.288  28.036  1.00  0.00     0.023 A 
ATOM     50  C   UNL A   1      40.927  25.913  27.966  1.00  0.00     0.031 A 
ATOM     51  C   UNL A   1      41.751  27.890  26.877  1.00  0.00     0.131 A 
ATOM     52  C   UNL A   1      41.204  25.189  26.791  1.00  0.00     0.055 A 
ATOM     53  C   UNL A   1      41.954  27.183  25.690  1.00  0.00     0.041 A 
ATOM     54  F   UNL A   1      42.070  29.195  26.874  1.00  0.00    -0.206 F 
ATOM     55  C   UNL A   1      41.695  25.820  25.647  1.00  0.00     0.022 A 
BRANCH  52  56
ATOM     56  S   UNL A   1      41.027  23.381  26.807  1.00  0.00     0.124 S 
ATOM     57  O   UNL A   1      41.456  23.049  28.161  1.00  0.00    -0.237 OA
ATOM     58  O   UNL A   1      39.603  23.222  26.528  1.00  0.00    -0.237 OA
ATOM     59  O   UNL A   1      41.924  22.942  25.742  1.00  0.00    -0.744 OA
ENDBRANCH  52  56
ENDBRANCH  25  49
BRANCH  37  60
ATOM     60  C   UNL A   1      44.695  27.813  34.041  1.00  0.00     0.023 A 
ATOM     61  C   UNL A   1      44.703  26.573  34.702  1.00  0.00     0.031 A 
ATOM     62  C   UNL A   1      45.914  28.487  33.874  1.00  0.00     0.131 A 
ATOM     63  C   UNL A   1      45.898  26.075  35.237  1.00  0.00     0.055 A 
ATOM     64  C   UNL A   1      47.113  27.955  34.349  1.00  0.00     0.041 A 
ATOM     65  F   UNL A   1      45.958  29.680  33.257  1.00  0.00    -0.206 F 
ATOM     66  C   UNL A   1      47.107  26.750  35.049  1.00  0.00     0.022 A 
BRANCH  63  67
ATOM     67  S   UNL A   1      45.831  24.586  36.267  1.00  0.00     0.124 S 
ATOM     68  O   UNL A   1      46.369  23.573  35.366  1.00  0.00    -0.237 OA
ATOM     69  O   UNL A   1      46.677  24.946  37.400  1.00  0.00    -0.237 OA
ATOM     70  O   UNL A   1      44.409  24.449  36.577  1.00  0.00    -0.744 OA
ENDBRANCH  63  67
ENDBRANCH  37  60
ENDBRANCH  11  12
ENDBRANCH   4   6
ENDBRANCH   3   4
ENDBRANCH   2   3
ENDBRANCH   1   2
BRANCH   1  71
ATOM     71  O   UNL A   1      31.449  30.900  25.668  1.00  0.00    -0.457 OA
BRANCH  71  72
ATOM     72  C   UNL A   1      32.197  29.773  25.485  1.00  0.00     0.357 C 
ATOM     73  O   UNL A   1      33.343  29.593  25.830  1.00  0.00    -0.244 OA
BRANCH  72  74
ATOM     74  C   UNL A   1      31.305  28.771  24.849  1.00  0.00     0.149 A 
ATOM     75  C   UNL A   1      31.337  27.460  25.305  1.00  0.00     0.051 A 
ATOM     76  N   UNL A   1      30.548  29.212  23.814  1.00  0.00    -0.249 NA
ATOM     77  C   UNL A   1      30.538  26.529  24.668  1.00  0.00     0.012 A 
ATOM     78  C   UNL A   1      29.785  28.288  23.202  1.00  0.00     0.113 A 
ATOM     79  C   UNL A   1      29.720  26.963  23.612  1.00  0.00     0.035 A 
BRANCH  77  80
ATOM     80  S   UNL A   1      30.481  24.817  25.171  1.00  0.00    -0.120 SA
BRANCH  80  81
ATOM     81  C   UNL A   1      31.778  24.617  26.453  1.00  0.00     0.132 C 
BRANCH  81  82
ATOM     82  C   UNL A   1      32.697  23.430  26.354  1.00  0.00     0.062 A 
ATOM     83  C   UNL A   1      34.033  23.392  26.713  1.00  0.00     0.091 A 
ATOM     84  N   UNL A   1      32.262  22.277  25.688  1.00  0.00    -0.240 NA
ATOM     85  S   UNL A   1      34.723  21.874  26.328  1.00  0.00    -0.122 S 
ATOM     86  C   UNL A   1      33.232  21.378  25.639  1.00  0.00     0.124 A 
BRANCH  86  87
ATOM     87  C   UNL A   1      32.983  19.990  25.095  1.00  0.00     0.021 A 
ATOM     88  C   UNL A   1      32.611  19.716  23.741  1.00  0.00     0.023 A 
ATOM     89  C   UNL A   1      32.993  18.838  25.858  1.00  0.00     0.076 A 
ATOM     90  C   UNL A   1      32.336  18.382  23.532  1.00  0.00     0.065 A 
ATOM     91  S   UNL A   1      32.505  17.460  24.962  1.00  0.00    -0.152 S 
ENDBRANCH  86  87
ENDBRANCH  81  82
ENDBRANCH  80  81
ENDBRANCH  77  80
ENDBRANCH  72  74
ENDBRANCH  71  72
ENDBRANCH   1  71
TORSDOF 18
ENDMDL
MODEL 3
REMARK VINA RESULT:     -10.8      5.355     10.632
REMARK SMILES O=C(OCCOC(=O)c1cc(SCc2csc(-c3ccsc3)n2)ccn1)c1ccc(-c2c3nc(c(-c4cc(S(=O)(=O)[O-])ccc4F)c4ccc([nH]4)c(-c4cc(S(=O)(=O)[O-])ccc4F)c4nc(c(-c5cc(S(=O)(=O)[O-])ccc5F)c5ccc2[nH]5)C=C4)C=C3)cc1
REMARK SMILES IDX 5 1 4 2 3 3 2 4 1 5 27 6 28 7 89 8 29 9 88 10 30 11 31 12
REMARK SMILES IDX 32 13 82 14 33 15 87 16 81 17 83 18 34 19 86 20 80 21 79 22
REMARK SMILES IDX 35 24 67 25 47 26 66 27 48 28 51 29 65 30 84 31 49 32 50 33
REMARK SMILES IDX 64 35 85 36 52 37 36 38 37 39 45 40 38 41 44 42 46 43 43 44
REMARK SMILES IDX 39 45 40 46 41 47 42 48 68 49 69 50 77 51 70 52 76 53 78 54
REMARK SMILES IDX 75 55 71 56 72 57 73 58 74 59 53 60 54 61 62 62 55 63 61 64
REMARK SMILES IDX 63 65 60 66 56 67 57 68 58 69 59 70 6 71 7 72 8 73 9 74
REMARK SMILES IDX 10 75 26 76 11 77 25 78 24 79 12 80 13 81 14 82 15 83 23 84
REMARK SMILES IDX 16 85 17 86 18 87 19 88 22 89 20 90 21 91
REMARK H PARENT 83 23 51 34
REMARK Flexibility Score: inf
ROOT
ATOM      1  C   UNL A   1      34.802  20.978  25.478  1.00  0.00     0.275 C 
ENDROOT
BRANCH   1   2
ATOM      2  C   UNL A   1      36.214  20.894  24.890  1.00  0.00     0.275 C 
BRANCH   2   3
ATOM      3  O   UNL A   1      37.205  20.742  25.927  1.00  0.00    -0.458 OA
BRANCH   3   4
ATOM      4  C   UNL A   1      38.552  20.895  25.903  1.00  0.00     0.338 C 
ATOM      5  O   UNL A   1      39.228  19.920  25.570  1.00  0.00    -0.246 OA
BRANCH   4   6
ATOM      6  C   UNL A   1      39.293  22.148  26.294  1.00  0.00     0.060 A 
ATOM      7  C   UNL A   1      40.541  22.205  26.899  1.00  0.00     0.016 A 
ATOM      8  C   UNL A   1      38.694  23.387  25.974  1.00  0.00     0.016 A 
ATOM      9  C   UNL A   1      41.139  23.434  27.204  1.00  0.00     0.010 A 
ATOM     10  C   UNL A   1      39.317  24.625  26.257  1.00  0.00     0.010 A 
ATOM     11  C   UNL A   1      40.556  24.661  26.894  1.00  0.00    -0.014 A 
BRANCH  11  12
ATOM     12  C   UNL A   1      41.271  25.920  27.276  1.00  0.00     0.031 A 
ATOM     13  C   UNL A   1      40.641  26.889  28.220  1.00  0.00     0.074 A 
ATOM     14  C   UNL A   1      42.540  26.164  26.886  1.00  0.00     0.049 A 
ATOM     15  N   UNL A   1      41.117  28.027  28.654  1.00  0.00    -0.248 NA
ATOM     16  C   UNL A   1      39.332  26.520  28.771  1.00  0.00     0.031 C 
ATOM     17  C   UNL A   1      43.321  25.227  26.105  1.00  0.00     0.029 A 
ATOM     18  N   UNL A   1      43.412  27.211  27.093  1.00  0.00    -0.354 N 
ATOM     19  C   UNL A   1      40.148  28.538  29.500  1.00  0.00     0.074 A 
ATOM     20  C   UNL A   1      39.067  27.571  29.533  1.00  0.00     0.031 C 
ATOM     21  C   UNL A   1      44.536  25.735  25.880  1.00  0.00     0.029 A 
ATOM     22  C   UNL A   1      44.641  27.044  26.485  1.00  0.00     0.049 A 
ATOM     23  H   UNL A   1      43.180  28.006  27.626  1.00  0.00     0.167 HD
ATOM     24  C   UNL A   1      40.159  29.718  30.164  1.00  0.00     0.034 A 
ATOM     25  C   UNL A   1      45.743  27.819  26.398  1.00  0.00     0.034 A 
ATOM     26  C   UNL A   1      41.241  30.671  30.125  1.00  0.00     0.049 A 
ATOM     27  C   UNL A   1      45.699  29.149  27.089  1.00  0.00     0.074 A 
ATOM     28  C   UNL A   1      41.311  31.912  30.736  1.00  0.00     0.029 A 
ATOM     29  N   UNL A   1      42.434  30.508  29.431  1.00  0.00    -0.354 N 
ATOM     30  N   UNL A   1      44.751  29.627  27.860  1.00  0.00    -0.248 NA
ATOM     31  C   UNL A   1      46.843  30.046  26.898  1.00  0.00     0.031 C 
ATOM     32  C   UNL A   1      42.506  32.528  30.350  1.00  0.00     0.029 A 
ATOM     33  C   UNL A   1      43.218  31.648  29.553  1.00  0.00     0.049 A 
ATOM     34  H   UNL A   1      42.687  29.701  28.927  1.00  0.00     0.167 HD
ATOM     35  C   UNL A   1      45.177  30.892  28.231  1.00  0.00     0.074 A 
ATOM     36  C   UNL A   1      46.497  31.074  27.659  1.00  0.00     0.031 C 
ATOM     37  C   UNL A   1      44.516  31.833  28.950  1.00  0.00     0.034 A 
BRANCH  24  38
ATOM     38  C   UNL A   1      38.892  30.085  30.881  1.00  0.00     0.023 A 
ATOM     39  C   UNL A   1      37.927  30.934  30.314  1.00  0.00     0.031 A 
ATOM     40  C   UNL A   1      38.688  29.622  32.192  1.00  0.00     0.131 A 
ATOM     41  C   UNL A   1      36.829  31.341  31.085  1.00  0.00     0.055 A 
ATOM     42  C   UNL A   1      37.558  29.973  32.927  1.00  0.00     0.041 A 
ATOM     43  F   UNL A   1      39.601  28.837  32.786  1.00  0.00    -0.206 F 
ATOM     44  C   UNL A   1      36.625  30.848  32.378  1.00  0.00     0.022 A 
BRANCH  41  45
ATOM     45  S   UNL A   1      35.733  32.625  30.425  1.00  0.00     0.124 S 
ATOM     46  O   UNL A   1      35.760  32.327  28.995  1.00  0.00    -0.237 OA
ATOM     47  O   UNL A   1      34.474  32.350  31.109  1.00  0.00    -0.237 OA
ATOM     48  O   UNL A   1      36.392  33.871  30.810  1.00  0.00    -0.744 OA
ENDBRANCH  41  45
ENDBRANCH  24  38
BRANCH  25  49
ATOM     49  C   UNL A   1      46.945  27.399  25.597  1.00  0.00     0.023 A 
ATOM     50  C   UNL A   1      47.137  27.817  24.268  1.00  0.00     0.031 A 
ATOM     51  C   UNL A   1      47.910  26.525  26.141  1.00  0.00     0.131 A 
ATOM     52  C   UNL A   1      48.232  27.337  23.525  1.00  0.00     0.055 A 
ATOM     53  C   UNL A   1      49.035  26.111  25.424  1.00  0.00     0.041 A 
ATOM     54  F   UNL A   1      47.784  26.068  27.397  1.00  0.00    -0.206 F 
ATOM     55  C   UNL A   1      49.193  26.505  24.102  1.00  0.00     0.022 A 
BRANCH  52  56
ATOM     56  S   UNL A   1      48.329  27.717  21.752  1.00  0.00     0.124 S 
ATOM     57  O   UNL A   1      49.434  28.669  21.708  1.00  0.00    -0.237 OA
ATOM     58  O   UNL A   1      48.593  26.400  21.182  1.00  0.00    -0.237 OA
ATOM     59  O   UNL A   1      47.013  28.275  21.451  1.00  0.00    -0.744 OA
ENDBRANCH  52  56
ENDBRANCH  25  49
BRANCH  37  60
ATOM     60  C   UNL A   1      45.222  33.151  29.116  1.00  0.00     0.023 A 
ATOM     61  C   UNL A   1      45.309  34.058  28.045  1.00  0.00     0.031 A 
ATOM     62  C   UNL A   1      45.858  33.482  30.322  1.00  0.00     0.131 A 
ATOM     63  C   UNL A   1      46.076  35.223  28.178  1.00  0.00     0.055 A 
ATOM     64  C   UNL A   1      46.564  34.676  30.471  1.00  0.00     0.041 A 
ATOM     65  F   UNL A   1      45.811  32.645  31.372  1.00  0.00    -0.206 F 
ATOM     66  C   UNL A   1      46.689  35.547  29.391  1.00  0.00     0.022 A 
BRANCH  63  67
ATOM     67  S   UNL A   1      46.342  36.256  26.713  1.00  0.00     0.124 S 
ATOM     68  O   UNL A   1      45.749  35.440  25.659  1.00  0.00    -0.237 OA
ATOM     69  O   UNL A   1      45.623  37.479  27.054  1.00  0.00    -0.237 OA
ATOM     70  O   UNL A   1      47.796  36.391  26.649  1.00  0.00    -0.744 OA
ENDBRANCH  63  67
ENDBRANCH  37  60
ENDBRANCH  11  12
ENDBRANCH   4   6
ENDBRANCH   3   4
ENDBRANCH   2   3
ENDBRANCH   1   2
BRANCH   1  71
ATOM     71  O   UNL A   1      34.753  21.905  26.567  1.00  0.00    -0.457 OA
BRANCH  71  72
ATOM     72  C   UNL A   1      34.517  23.204  26.224  1.00  0.00     0.357 C 
ATOM     73  O   UNL A   1      35.340  24.072  26.037  1.00  0.00    -0.244 OA
BRANCH  72  74
ATOM     74  C   UNL A   1      33.050  23.335  26.043  1.00  0.00     0.149 A 
ATOM     75  C   UNL A   1      32.560  23.753  24.813  1.00  0.00     0.051 A 
ATOM     76  N   UNL A   1      32.285  23.080  27.133  1.00  0.00    -0.249 NA
ATOM     77  C   UNL A   1      31.194  23.920  24.677  1.00  0.00     0.012 A 
ATOM     78  C   UNL A   1      30.959  23.257  26.982  1.00  0.00     0.113 A 
ATOM     79  C   UNL A   1      30.374  23.633  25.780  1.00  0.00     0.035 A 
BRANCH  77  80
ATOM     80  S   UNL A   1      30.444  24.438  23.142  1.00  0.00    -0.120 SA
BRANCH  80  81
ATOM     81  C   UNL A   1      31.468  25.825  22.515  1.00  0.00     0.132 C 
BRANCH  81  82
ATOM     82  C   UNL A   1      31.251  27.192  23.105  1.00  0.00     0.062 A 
ATOM     83  C   UNL A   1      31.704  27.640  24.334  1.00  0.00     0.091 A 
ATOM     84  N   UNL A   1      30.375  28.083  22.471  1.00  0.00    -0.240 NA
ATOM     85  S   UNL A   1      31.133  29.222  24.653  1.00  0.00    -0.122 S 
ATOM     86  C   UNL A   1      30.257  29.196  23.177  1.00  0.00     0.124 A 
BRANCH  86  87
ATOM     87  C   UNL A   1      29.478  30.378  22.647  1.00  0.00     0.021 A 
ATOM     88  C   UNL A   1      29.113  31.514  23.435  1.00  0.00     0.023 A 
ATOM     89  C   UNL A   1      28.949  30.457  21.372  1.00  0.00     0.076 A 
ATOM     90  C   UNL A   1      28.311  32.396  22.745  1.00  0.00     0.065 A 
ATOM     91  S   UNL A   1      27.981  31.856  21.157  1.00  0.00    -0.152 S 
ENDBRANCH  86  87
ENDBRANCH  81  82
ENDBRANCH  80  81
ENDBRANCH  77  80
ENDBRANCH  72  74
ENDBRANCH  71  72
ENDBRANCH   1  71
TORSDOF 18
ENDMDL
