MODEL 1
REMARK VINA RESULT:     -11.7      0.000      0.000
REMARK SMILES O=C(COCC(=O)OCCOC(=O)c1ccc(-c2c3nc(c(-c4cc(S(=O)(=O)[O-])ccc4F)c4ccc([nH]4)c(-c4cc(S(=O)(=O)[O-])ccc4F)c4nc(c(-c5cc(S(=O)(=O)[O-])ccc5F)c5ccc2[nH]5)C=C4)C=C3)cc1)/[NH+]=C1\S[C@@H]2CS(=O)(=O)C[C@H]2N1c1ccc(Cl)cc1
REMARK SMILES IDX 9 1 8 2 6 3 7 4 5 5 4 6 3 7 2 8 1 9 77 10 78 11 79 13 87 14
REMARK SMILES IDX 80 15 86 16 81 17 85 18 82 19 83 20 84 21 88 22 89 23 94 24
REMARK SMILES IDX 90 25 93 26 91 27 92 28 10 29 11 30 12 31 13 32 14 33 15 34
REMARK SMILES IDX 76 35 16 36 75 37 17 38 18 39 19 40 69 41 20 42 74 43 68 44
REMARK SMILES IDX 70 45 21 46 73 47 67 48 66 49 22 51 54 52 34 53 53 54 35 55
REMARK SMILES IDX 38 56 52 57 71 58 36 59 37 60 51 62 72 63 39 64 23 65 24 66
REMARK SMILES IDX 32 67 25 68 31 69 33 70 30 71 26 72 27 73 28 74 29 75 55 76
REMARK SMILES IDX 56 77 64 78 57 79 63 80 65 81 62 82 58 83 59 84 60 85 61 86
REMARK SMILES IDX 40 87 41 88 49 89 42 90 48 91 50 92 47 93 43 94 44 95 45 96
REMARK SMILES IDX 46 97
REMARK H PARENT 77 12 70 50 38 61
REMARK Flexibility Score: inf
ROOT
ATOM      1  C   UNL A   1      34.674  21.077  24.826  1.00  0.00     0.274 C 
ENDROOT
BRANCH   1   2
ATOM      2  O   UNL A   1      33.599  22.029  24.699  1.00  0.00    -0.460 OA
BRANCH   2   3
ATOM      3  C   UNL A   1      32.346  21.533  24.904  1.00  0.00     0.332 C 
ATOM      4  O   UNL A   1      32.090  20.362  25.157  1.00  0.00    -0.250 OA
BRANCH   3   5
ATOM      5  C   UNL A   1      31.261  22.610  24.788  1.00  0.00     0.283 C 
BRANCH   5   6
ATOM      6  O   UNL A   1      30.848  23.054  23.508  1.00  0.00    -0.358 OA
BRANCH   6   7
ATOM      7  C   UNL A   1      30.897  24.465  23.344  1.00  0.00     0.288 C 
BRANCH   7   8
ATOM      8  C   UNL A   1      32.175  25.271  23.701  1.00  0.00     0.333 C 
ATOM      9  O   UNL A   1      33.275  24.851  23.349  1.00  0.00    -0.244 OA
ATOM     10  N   UNL A   1      32.046  26.409  24.460  1.00  0.00    -0.202 N 
ATOM     11  C   UNL A   1      31.508  27.466  23.952  1.00  0.00     0.319 C 
ATOM     12  H   UNL A   1      32.365  26.418  25.391  1.00  0.00     0.316 HD
ATOM     13  S   UNL A   1      30.695  27.510  22.347  1.00  0.00    -0.029 SA
ATOM     14  N   UNL A   1      31.366  28.723  24.564  1.00  0.00    -0.217 N 
ATOM     15  C   UNL A   1      29.594  28.771  22.999  1.00  0.00     0.120 C 
ATOM     16  C   UNL A   1      30.595  29.671  23.736  1.00  0.00     0.212 C 
ATOM     17  C   UNL A   1      28.786  29.640  22.077  1.00  0.00     0.156 C 
ATOM     18  C   UNL A   1      29.713  30.715  24.384  1.00  0.00     0.188 C 
ATOM     19  S   UNL A   1      28.532  31.102  23.084  1.00  0.00     0.155 S 
ATOM     20  O   UNL A   1      27.198  31.050  23.649  1.00  0.00    -0.229 OA
ATOM     21  O   UNL A   1      29.007  32.249  22.344  1.00  0.00    -0.229 OA
BRANCH  14  22
ATOM     22  C   UNL A   1      32.329  29.272  25.439  1.00  0.00     0.128 A 
ATOM     23  C   UNL A   1      33.639  28.765  25.487  1.00  0.00     0.053 A 
ATOM     24  C   UNL A   1      32.017  30.326  26.317  1.00  0.00     0.053 A 
ATOM     25  C   UNL A   1      34.580  29.246  26.405  1.00  0.00     0.025 A 
ATOM     26  C   UNL A   1      32.957  30.816  27.236  1.00  0.00     0.025 A 
ATOM     27  C   UNL A   1      34.231  30.266  27.284  1.00  0.00     0.041 A 
ATOM     28  Cl  UNL A   1      35.386  30.832  28.425  1.00  0.00    -0.084 Cl
ENDBRANCH  14  22
ENDBRANCH   7   8
ENDBRANCH   6   7
ENDBRANCH   5   6
ENDBRANCH   3   5
ENDBRANCH   2   3
ENDBRANCH   1   2
BRANCH   1  29
ATOM     29  C   UNL A   1      35.547  21.421  26.031  1.00  0.00     0.275 C 
BRANCH  29  30
ATOM     30  O   UNL A   1      36.614  22.295  25.623  1.00  0.00    -0.458 OA
BRANCH  30  31
ATOM     31  C   UNL A   1      37.859  21.772  25.717  1.00  0.00     0.338 C 
ATOM     32  O   UNL A   1      38.197  20.636  25.428  1.00  0.00    -0.246 OA
BRANCH  31  33
ATOM     33  C   UNL A   1      38.798  22.785  26.232  1.00  0.00     0.060 A 
ATOM     34  C   UNL A   1      39.894  22.426  27.022  1.00  0.00     0.016 A 
ATOM     35  C   UNL A   1      38.516  24.130  25.994  1.00  0.00     0.016 A 
ATOM     36  C   UNL A   1      40.676  23.414  27.622  1.00  0.00     0.010 A 
ATOM     37  C   UNL A   1      39.346  25.115  26.530  1.00  0.00     0.010 A 
ATOM     38  C   UNL A   1      40.422  24.770  27.366  1.00  0.00    -0.014 A 
BRANCH  38  39
ATOM     39  C   UNL A   1      41.269  25.844  27.948  1.00  0.00     0.031 A 
ATOM     40  C   UNL A   1      40.653  26.892  28.835  1.00  0.00     0.074 A 
ATOM     41  C   UNL A   1      42.573  25.920  27.618  1.00  0.00     0.049 A 
ATOM     42  N   UNL A   1      41.153  28.032  29.241  1.00  0.00    -0.248 NA
ATOM     43  C   UNL A   1      39.287  26.628  29.314  1.00  0.00     0.031 C 
ATOM     44  C   UNL A   1      43.294  24.948  26.794  1.00  0.00     0.029 A 
ATOM     45  N   UNL A   1      43.520  26.870  27.914  1.00  0.00    -0.354 N 
ATOM     46  C   UNL A   1      40.154  28.640  29.995  1.00  0.00     0.074 A 
ATOM     47  C   UNL A   1      39.013  27.746  29.972  1.00  0.00     0.031 C 
ATOM     48  C   UNL A   1      44.565  25.353  26.647  1.00  0.00     0.029 A 
ATOM     49  C   UNL A   1      44.729  26.649  27.296  1.00  0.00     0.049 A 
ATOM     50  H   UNL A   1      43.349  27.636  28.510  1.00  0.00     0.167 HD
ATOM     51  C   UNL A   1      40.190  29.832  30.642  1.00  0.00     0.034 A 
ATOM     52  C   UNL A   1      45.830  27.422  27.214  1.00  0.00     0.034 A 
ATOM     53  C   UNL A   1      41.344  30.701  30.662  1.00  0.00     0.049 A 
ATOM     54  C   UNL A   1      45.825  28.769  27.890  1.00  0.00     0.074 A 
ATOM     55  C   UNL A   1      41.495  31.921  31.300  1.00  0.00     0.029 A 
ATOM     56  N   UNL A   1      42.547  30.444  30.018  1.00  0.00    -0.354 N 
ATOM     57  N   UNL A   1      44.863  29.348  28.570  1.00  0.00    -0.248 NA
ATOM     58  C   UNL A   1      47.054  29.565  27.785  1.00  0.00     0.031 C 
ATOM     59  C   UNL A   1      42.763  32.427  30.995  1.00  0.00     0.029 A 
ATOM     60  C   UNL A   1      43.434  31.491  30.224  1.00  0.00     0.049 A 
ATOM     61  H   UNL A   1      42.743  29.636  29.492  1.00  0.00     0.167 HD
ATOM     62  C   UNL A   1      45.382  30.567  28.994  1.00  0.00     0.074 A 
ATOM     63  C   UNL A   1      46.745  30.631  28.509  1.00  0.00     0.031 C 
ATOM     64  C   UNL A   1      44.786  31.546  29.722  1.00  0.00     0.034 A 
BRANCH  51  65
ATOM     65  C   UNL A   1      38.931  30.289  31.341  1.00  0.00     0.023 A 
ATOM     66  C   UNL A   1      38.151  31.352  30.851  1.00  0.00     0.031 A 
ATOM     67  C   UNL A   1      38.502  29.644  32.515  1.00  0.00     0.131 A 
ATOM     68  C   UNL A   1      37.014  31.770  31.560  1.00  0.00     0.055 A 
ATOM     69  C   UNL A   1      37.333  30.020  33.178  1.00  0.00     0.041 A 
ATOM     70  F   UNL A   1      39.215  28.634  33.040  1.00  0.00    -0.206 F 
ATOM     71  C   UNL A   1      36.586  31.096  32.707  1.00  0.00     0.022 A 
BRANCH  68  72
ATOM     72  S   UNL A   1      36.155  33.273  31.019  1.00  0.00     0.124 S 
ATOM     73  O   UNL A   1      34.763  32.828  30.991  1.00  0.00    -0.237 OA
ATOM     74  O   UNL A   1      36.495  34.228  32.067  1.00  0.00    -0.237 OA
ATOM     75  O   UNL A   1      36.739  33.551  29.708  1.00  0.00    -0.744 OA
ENDBRANCH  68  72
ENDBRANCH  51  65
BRANCH  52  76
ATOM     76  C   UNL A   1      47.005  26.977  26.413  1.00  0.00     0.023 A 
ATOM     77  C   UNL A   1      47.216  27.453  25.111  1.00  0.00     0.031 A 
ATOM     78  C   UNL A   1      47.916  26.034  26.926  1.00  0.00     0.131 A 
ATOM     79  C   UNL A   1      48.284  26.956  24.349  1.00  0.00     0.055 A 
ATOM     80  C   UNL A   1      49.009  25.584  26.186  1.00  0.00     0.041 A 
ATOM     81  F   UNL A   1      47.761  25.545  28.167  1.00  0.00    -0.206 F 
ATOM     82  C   UNL A   1      49.191  26.036  24.882  1.00  0.00     0.022 A 
BRANCH  79  83
ATOM     83  S   UNL A   1      48.419  27.461  22.612  1.00  0.00     0.124 S 
ATOM     84  O   UNL A   1      49.649  28.243  22.625  1.00  0.00    -0.237 OA
ATOM     85  O   UNL A   1      48.485  26.174  21.928  1.00  0.00    -0.237 OA
ATOM     86  O   UNL A   1      47.195  28.225  22.384  1.00  0.00    -0.744 OA
ENDBRANCH  79  83
ENDBRANCH  52  76
BRANCH  64  87
ATOM     87  C   UNL A   1      45.636  32.743  30.072  1.00  0.00     0.023 A 
ATOM     88  C   UNL A   1      45.757  33.843  29.205  1.00  0.00     0.031 A 
ATOM     89  C   UNL A   1      46.363  32.763  31.276  1.00  0.00     0.131 A 
ATOM     90  C   UNL A   1      46.632  34.892  29.527  1.00  0.00     0.055 A 
ATOM     91  C   UNL A   1      47.187  33.836  31.617  1.00  0.00     0.041 A 
ATOM     92  F   UNL A   1      46.286  31.737  32.138  1.00  0.00    -0.206 F 
ATOM     93  C   UNL A   1      47.336  34.902  30.734  1.00  0.00     0.022 A 
BRANCH  90  94
ATOM     94  S   UNL A   1      46.912  36.201  28.303  1.00  0.00     0.124 S 
ATOM     95  O   UNL A   1      47.912  35.594  27.432  1.00  0.00    -0.237 OA
ATOM     96  O   UNL A   1      45.584  36.375  27.723  1.00  0.00    -0.237 OA
ATOM     97  O   UNL A   1      47.389  37.326  29.105  1.00  0.00    -0.744 OA
ENDBRANCH  90  94
ENDBRANCH  64  87
ENDBRANCH  38  39
ENDBRANCH  31  33
ENDBRANCH  30  31
ENDBRANCH  29  30
ENDBRANCH   1  29
TORSDOF 18
ENDMDL
MODEL 2
REMARK VINA RESULT:     -11.5      1.986      2.321
REMARK SMILES O=C(COCC(=O)OCCOC(=O)c1ccc(-c2c3nc(c(-c4cc(S(=O)(=O)[O-])ccc4F)c4ccc([nH]4)c(-c4cc(S(=O)(=O)[O-])ccc4F)c4nc(c(-c5cc(S(=O)(=O)[O-])ccc5F)c5ccc2[nH]5)C=C4)C=C3)cc1)/[NH+]=C1\S[C@@H]2CS(=O)(=O)C[C@H]2N1c1ccc(Cl)cc1
REMARK SMILES IDX 9 1 8 2 6 3 7 4 5 5 4 6 3 7 2 8 1 9 77 10 78 11 79 13 87 14
REMARK SMILES IDX 80 15 86 16 81 17 85 18 82 19 83 20 84 21 88 22 89 23 94 24
REMARK SMILES IDX 90 25 93 26 91 27 92 28 10 29 11 30 12 31 13 32 14 33 15 34
REMARK SMILES IDX 76 35 16 36 75 37 17 38 18 39 19 40 69 41 20 42 74 43 68 44
REMARK SMILES IDX 70 45 21 46 73 47 67 48 66 49 22 51 54 52 34 53 53 54 35 55
REMARK SMILES IDX 38 56 52 57 71 58 36 59 37 60 51 62 72 63 39 64 23 65 24 66
REMARK SMILES IDX 32 67 25 68 31 69 33 70 30 71 26 72 27 73 28 74 29 75 55 76
REMARK SMILES IDX 56 77 64 78 57 79 63 80 65 81 62 82 58 83 59 84 60 85 61 86
REMARK SMILES IDX 40 87 41 88 49 89 42 90 48 91 50 92 47 93 43 94 44 95 45 96
REMARK SMILES IDX 46 97
REMARK H PARENT 77 12 70 50 38 61
REMARK Flexibility Score: inf
ROOT
ATOM      1  C   UNL A   1      34.867  20.687  25.325  1.00  0.00     0.274 C 
ENDROOT
BRANCH   1   2
ATOM      2  O   UNL A   1      33.850  21.336  24.537  1.00  0.00    -0.460 OA
BRANCH   2   3
ATOM      3  C   UNL A   1      32.565  21.011  24.852  1.00  0.00     0.332 C 
ATOM      4  O   UNL A   1      32.165  19.876  25.082  1.00  0.00    -0.250 OA
BRANCH   3   5
ATOM      5  C   UNL A   1      31.642  22.236  24.896  1.00  0.00     0.283 C 
BRANCH   5   6
ATOM      6  O   UNL A   1      30.728  22.387  25.968  1.00  0.00    -0.358 OA
BRANCH   6   7
ATOM      7  C   UNL A   1      30.817  23.644  26.627  1.00  0.00     0.288 C 
BRANCH   7   8
ATOM      8  C   UNL A   1      32.157  24.424  26.693  1.00  0.00     0.333 C 
ATOM      9  O   UNL A   1      33.216  23.805  26.759  1.00  0.00    -0.244 OA
ATOM     10  N   UNL A   1      32.120  25.796  26.737  1.00  0.00    -0.202 N 
ATOM     11  C   UNL A   1      31.768  26.468  25.692  1.00  0.00     0.319 C 
ATOM     12  H   UNL A   1      32.361  26.269  27.566  1.00  0.00     0.316 HD
ATOM     13  S   UNL A   1      31.098  25.722  24.197  1.00  0.00    -0.029 SA
ATOM     14  N   UNL A   1      31.745  27.865  25.550  1.00  0.00    -0.217 N 
ATOM     15  C   UNL A   1      30.125  27.213  23.955  1.00  0.00     0.120 C 
ATOM     16  C   UNL A   1      31.174  28.291  24.257  1.00  0.00     0.212 C 
ATOM     17  C   UNL A   1      29.514  27.527  22.618  1.00  0.00     0.156 C 
ATOM     18  C   UNL A   1      30.389  29.580  24.152  1.00  0.00     0.188 C 
ATOM     19  S   UNL A   1      29.377  29.314  22.690  1.00  0.00     0.155 S 
ATOM     20  O   UNL A   1      28.007  29.660  23.014  1.00  0.00    -0.229 OA
ATOM     21  O   UNL A   1      30.057  29.866  21.540  1.00  0.00    -0.229 OA
BRANCH  14  22
ATOM     22  C   UNL A   1      32.699  28.720  26.143  1.00  0.00     0.128 A 
ATOM     23  C   UNL A   1      34.063  28.384  26.160  1.00  0.00     0.053 A 
ATOM     24  C   UNL A   1      32.328  29.926  26.765  1.00  0.00     0.053 A 
ATOM     25  C   UNL A   1      35.009  29.183  26.815  1.00  0.00     0.025 A 
ATOM     26  C   UNL A   1      33.271  30.734  27.418  1.00  0.00     0.025 A 
ATOM     27  C   UNL A   1      34.606  30.352  27.450  1.00  0.00     0.041 A 
ATOM     28  Cl  UNL A   1      35.770  31.313  28.273  1.00  0.00    -0.084 Cl
ENDBRANCH  14  22
ENDBRANCH   7   8
ENDBRANCH   6   7
ENDBRANCH   5   6
ENDBRANCH   3   5
ENDBRANCH   2   3
ENDBRANCH   1   2
BRANCH   1  29
ATOM     29  C   UNL A   1      35.681  21.723  26.097  1.00  0.00     0.275 C 
BRANCH  29  30
ATOM     30  O   UNL A   1      36.763  22.199  25.277  1.00  0.00    -0.458 OA
BRANCH  30  31
ATOM     31  C   UNL A   1      37.993  21.755  25.627  1.00  0.00     0.338 C 
ATOM     32  O   UNL A   1      38.442  20.635  25.448  1.00  0.00    -0.246 OA
BRANCH  31  33
ATOM     33  C   UNL A   1      38.757  22.834  26.279  1.00  0.00     0.060 A 
ATOM     34  C   UNL A   1      38.360  24.170  26.175  1.00  0.00     0.016 A 
ATOM     35  C   UNL A   1      39.947  22.504  26.925  1.00  0.00     0.016 A 
ATOM     36  C   UNL A   1      39.184  25.183  26.670  1.00  0.00     0.010 A 
ATOM     37  C   UNL A   1      40.729  23.512  27.490  1.00  0.00     0.010 A 
ATOM     38  C   UNL A   1      40.368  24.863  27.350  1.00  0.00    -0.014 A 
BRANCH  38  39
ATOM     39  C   UNL A   1      41.239  25.917  27.935  1.00  0.00     0.031 A 
ATOM     40  C   UNL A   1      40.652  26.959  28.848  1.00  0.00     0.074 A 
ATOM     41  C   UNL A   1      42.539  25.979  27.586  1.00  0.00     0.049 A 
ATOM     42  N   UNL A   1      41.173  28.085  29.264  1.00  0.00    -0.248 NA
ATOM     43  C   UNL A   1      39.290  26.706  29.343  1.00  0.00     0.031 C 
ATOM     44  C   UNL A   1      43.234  25.011  26.735  1.00  0.00     0.029 A 
ATOM     45  N   UNL A   1      43.504  26.911  27.882  1.00  0.00    -0.354 N 
ATOM     46  C   UNL A   1      40.195  28.694  30.042  1.00  0.00     0.074 A 
ATOM     47  C   UNL A   1      39.041  27.817  30.024  1.00  0.00     0.031 C 
ATOM     48  C   UNL A   1      44.508  25.401  26.575  1.00  0.00     0.029 A 
ATOM     49  C   UNL A   1      44.700  26.684  27.242  1.00  0.00     0.049 A 
ATOM     50  H   UNL A   1      43.353  27.670  28.492  1.00  0.00     0.167 HD
ATOM     51  C   UNL A   1      40.257  29.876  30.707  1.00  0.00     0.034 A 
ATOM     52  C   UNL A   1      45.810  27.443  27.155  1.00  0.00     0.034 A 
ATOM     53  C   UNL A   1      41.423  30.728  30.724  1.00  0.00     0.049 A 
ATOM     54  C   UNL A   1      45.834  28.779  27.852  1.00  0.00     0.074 A 
ATOM     55  C   UNL A   1      41.601  31.936  31.378  1.00  0.00     0.029 A 
ATOM     56  N   UNL A   1      42.613  30.465  30.057  1.00  0.00    -0.354 N 
ATOM     57  N   UNL A   1      44.891  29.360  28.556  1.00  0.00    -0.248 NA
ATOM     58  C   UNL A   1      47.073  29.560  27.741  1.00  0.00     0.031 C 
ATOM     59  C   UNL A   1      42.872  32.429  31.061  1.00  0.00     0.029 A 
ATOM     60  C   UNL A   1      43.518  31.496  30.266  1.00  0.00     0.049 A 
ATOM     61  H   UNL A   1      42.790  29.662  29.515  1.00  0.00     0.167 HD
ATOM     62  C   UNL A   1      45.433  30.566  28.991  1.00  0.00     0.074 A 
ATOM     63  C   UNL A   1      46.790  30.618  28.486  1.00  0.00     0.031 C 
ATOM     64  C   UNL A   1      44.863  31.541  29.743  1.00  0.00     0.034 A 
BRANCH  51  65
ATOM     65  C   UNL A   1      39.016  30.339  31.433  1.00  0.00     0.023 A 
ATOM     66  C   UNL A   1      38.249  31.425  30.977  1.00  0.00     0.031 A 
ATOM     67  C   UNL A   1      38.591  29.675  32.598  1.00  0.00     0.131 A 
ATOM     68  C   UNL A   1      37.128  31.847  31.710  1.00  0.00     0.055 A 
ATOM     69  C   UNL A   1      37.437  30.056  33.284  1.00  0.00     0.041 A 
ATOM     70  F   UNL A   1      39.292  28.641  33.091  1.00  0.00    -0.206 F 
ATOM     71  C   UNL A   1      36.703  31.155  32.848  1.00  0.00     0.022 A 
BRANCH  68  72
ATOM     72  S   UNL A   1      36.289  33.377  31.214  1.00  0.00     0.124 S 
ATOM     73  O   UNL A   1      34.940  32.897  30.923  1.00  0.00    -0.237 OA
ATOM     74  O   UNL A   1      36.424  34.212  32.402  1.00  0.00    -0.237 OA
ATOM     75  O   UNL A   1      37.049  33.825  30.049  1.00  0.00    -0.744 OA
ENDBRANCH  68  72
ENDBRANCH  51  65
BRANCH  52  76
ATOM     76  C   UNL A   1      46.967  26.994  26.329  1.00  0.00     0.023 A 
ATOM     77  C   UNL A   1      48.078  26.373  26.918  1.00  0.00     0.031 A 
ATOM     78  C   UNL A   1      46.996  27.220  24.940  1.00  0.00     0.131 A 
ATOM     79  C   UNL A   1      49.189  26.035  26.130  1.00  0.00     0.055 A 
ATOM     80  C   UNL A   1      48.079  26.831  24.152  1.00  0.00     0.041 A 
ATOM     81  F   UNL A   1      45.959  27.811  24.325  1.00  0.00    -0.206 F 
ATOM     82  C   UNL A   1      49.191  26.247  24.749  1.00  0.00     0.022 A 
BRANCH  79  83
ATOM     83  S   UNL A   1      50.674  25.398  26.954  1.00  0.00     0.124 S 
ATOM     84  O   UNL A   1      51.523  25.061  25.817  1.00  0.00    -0.237 OA
ATOM     85  O   UNL A   1      51.094  26.546  27.750  1.00  0.00    -0.237 OA
ATOM     86  O   UNL A   1      50.175  24.258  27.720  1.00  0.00    -0.744 OA
ENDBRANCH  79  83
ENDBRANCH  52  76
BRANCH  64  87
ATOM     87  C   UNL A   1      45.735  32.720  30.099  1.00  0.00     0.023 A 
ATOM     88  C   UNL A   1      46.523  32.732  31.262  1.00  0.00     0.031 A 
ATOM     89  C   UNL A   1      45.747  33.861  29.276  1.00  0.00     0.131 A 
ATOM     90  C   UNL A   1      47.246  33.886  31.603  1.00  0.00     0.055 A 
ATOM     91  C   UNL A   1      46.513  34.984  29.591  1.00  0.00     0.041 A 
ATOM     92  F   UNL A   1      45.010  33.904  28.155  1.00  0.00    -0.206 F 
ATOM     93  C   UNL A   1      47.257  35.006  30.768  1.00  0.00     0.022 A 
BRANCH  90  94
ATOM     94  S   UNL A   1      48.098  33.939  33.204  1.00  0.00     0.124 S 
ATOM     95  O   UNL A   1      48.929  35.130  33.067  1.00  0.00    -0.237 OA
ATOM     96  O   UNL A   1      46.988  34.041  34.145  1.00  0.00    -0.237 OA
ATOM     97  O   UNL A   1      48.830  32.674  33.246  1.00  0.00    -0.744 OA
ENDBRANCH  90  94
ENDBRANCH  64  87
ENDBRANCH  38  39
ENDBRANCH  31  33
ENDBRANCH  30  31
ENDBRANCH  29  30
ENDBRANCH   1  29
TORSDOF 18
ENDMDL
MODEL 3
REMARK VINA RESULT:     -11.4      1.201      7.400
REMARK SMILES O=C(COCC(=O)OCCOC(=O)c1ccc(-c2c3nc(c(-c4cc(S(=O)(=O)[O-])ccc4F)c4ccc([nH]4)c(-c4cc(S(=O)(=O)[O-])ccc4F)c4nc(c(-c5cc(S(=O)(=O)[O-])ccc5F)c5ccc2[nH]5)C=C4)C=C3)cc1)/[NH+]=C1\S[C@@H]2CS(=O)(=O)C[C@H]2N1c1ccc(Cl)cc1
REMARK SMILES IDX 9 1 8 2 6 3 7 4 5 5 4 6 3 7 2 8 1 9 77 10 78 11 79 13 87 14
REMARK SMILES IDX 80 15 86 16 81 17 85 18 82 19 83 20 84 21 88 22 89 23 94 24
REMARK SMILES IDX 90 25 93 26 91 27 92 28 10 29 11 30 12 31 13 32 14 33 15 34
REMARK SMILES IDX 76 35 16 36 75 37 17 38 18 39 19 40 69 41 20 42 74 43 68 44
REMARK SMILES IDX 70 45 21 46 73 47 67 48 66 49 22 51 54 52 34 53 53 54 35 55
REMARK SMILES IDX 38 56 52 57 71 58 36 59 37 60 51 62 72 63 39 64 23 65 24 66
REMARK SMILES IDX 32 67 25 68 31 69 33 70 30 71 26 72 27 73 28 74 29 75 55 76
REMARK SMILES IDX 56 77 64 78 57 79 63 80 65 81 62 82 58 83 59 84 60 85 61 86
REMARK SMILES IDX 40 87 41 88 49 89 42 90 48 91 50 92 47 93 43 94 44 95 45 96
REMARK SMILES IDX 46 97
REMARK H PARENT 77 12 70 50 38 61
REMARK Flexibility Score: inf
ROOT
ATOM      1  C   UNL A   1      35.326  20.828  25.502  1.00  0.00     0.274 C 
ENDROOT
BRANCH   1   2
ATOM      2  O   UNL A   1      34.303  20.424  24.571  1.00  0.00    -0.460 OA
BRANCH   2   3
ATOM      3  C   UNL A   1      33.124  20.027  25.127  1.00  0.00     0.332 C 
ATOM      4  O   UNL A   1      32.867  18.882  25.480  1.00  0.00    -0.250 OA
BRANCH   3   5
ATOM      5  C   UNL A   1      32.125  21.181  25.275  1.00  0.00     0.283 C 
BRANCH   5   6
ATOM      6  O   UNL A   1      32.237  22.067  26.375  1.00  0.00    -0.358 OA
BRANCH   6   7
ATOM      7  C   UNL A   1      32.101  23.439  26.024  1.00  0.00     0.288 C 
BRANCH   7   8
ATOM      8  C   UNL A   1      33.286  24.429  26.182  1.00  0.00     0.333 C 
ATOM      9  O   UNL A   1      34.437  24.001  26.188  1.00  0.00    -0.244 OA
ATOM     10  N   UNL A   1      33.011  25.761  26.374  1.00  0.00    -0.202 N 
ATOM     11  C   UNL A   1      32.534  26.469  25.405  1.00  0.00     0.319 C 
ATOM     12  H   UNL A   1      33.177  26.177  27.250  1.00  0.00     0.316 HD
ATOM     13  S   UNL A   1      31.985  25.783  23.834  1.00  0.00    -0.029 SA
ATOM     14  N   UNL A   1      32.266  27.848  25.414  1.00  0.00    -0.217 N 
ATOM     15  C   UNL A   1      30.764  27.098  23.749  1.00  0.00     0.120 C 
ATOM     16  C   UNL A   1      31.613  28.304  24.171  1.00  0.00     0.212 C 
ATOM     17  C   UNL A   1      30.091  27.441  22.449  1.00  0.00     0.156 C 
ATOM     18  C   UNL A   1      30.615  29.440  24.201  1.00  0.00     0.188 C 
ATOM     19  S   UNL A   1      29.645  29.159  22.713  1.00  0.00     0.155 S 
ATOM     20  O   UNL A   1      28.240  29.224  23.064  1.00  0.00    -0.229 OA
ATOM     21  O   UNL A   1      30.204  29.941  21.633  1.00  0.00    -0.229 OA
BRANCH  14  22
ATOM     22  C   UNL A   1      33.065  28.787  26.102  1.00  0.00     0.128 A 
ATOM     23  C   UNL A   1      34.417  28.526  26.379  1.00  0.00     0.053 A 
ATOM     24  C   UNL A   1      32.540  30.009  26.561  1.00  0.00     0.053 A 
ATOM     25  C   UNL A   1      35.198  29.414  27.130  1.00  0.00     0.025 A 
ATOM     26  C   UNL A   1      33.319  30.905  27.310  1.00  0.00     0.025 A 
ATOM     27  C   UNL A   1      34.642  30.598  27.600  1.00  0.00     0.041 A 
ATOM     28  Cl  UNL A   1      35.602  31.669  28.542  1.00  0.00    -0.084 Cl
ENDBRANCH  14  22
ENDBRANCH   7   8
ENDBRANCH   6   7
ENDBRANCH   5   6
ENDBRANCH   3   5
ENDBRANCH   2   3
ENDBRANCH   1   2
BRANCH   1  29
ATOM     29  C   UNL A   1      36.693  20.327  25.041  1.00  0.00     0.275 C 
BRANCH  29  30
ATOM     30  O   UNL A   1      37.637  21.413  25.056  1.00  0.00    -0.458 OA
BRANCH  30  31
ATOM     31  C   UNL A   1      38.768  21.187  25.765  1.00  0.00     0.338 C 
ATOM     32  O   UNL A   1      39.260  20.101  26.024  1.00  0.00    -0.246 OA
BRANCH  31  33
ATOM     33  C   UNL A   1      39.357  22.465  26.204  1.00  0.00     0.060 A 
ATOM     34  C   UNL A   1      38.612  23.648  26.200  1.00  0.00     0.016 A 
ATOM     35  C   UNL A   1      40.711  22.488  26.535  1.00  0.00     0.016 A 
ATOM     36  C   UNL A   1      39.237  24.866  26.473  1.00  0.00     0.010 A 
ATOM     37  C   UNL A   1      41.315  23.697  26.885  1.00  0.00     0.010 A 
ATOM     38  C   UNL A   1      40.591  24.901  26.837  1.00  0.00    -0.014 A 
BRANCH  38  39
ATOM     39  C   UNL A   1      41.272  26.176  27.185  1.00  0.00     0.031 A 
ATOM     40  C   UNL A   1      42.656  26.457  26.667  1.00  0.00     0.074 A 
ATOM     41  C   UNL A   1      40.675  27.045  28.025  1.00  0.00     0.049 A 
ATOM     42  N   UNL A   1      43.509  27.378  27.039  1.00  0.00    -0.248 NA
ATOM     43  C   UNL A   1      43.151  25.572  25.602  1.00  0.00     0.031 C 
ATOM     44  C   UNL A   1      39.323  26.902  28.569  1.00  0.00     0.029 A 
ATOM     45  N   UNL A   1      41.137  28.208  28.590  1.00  0.00    -0.354 N 
ATOM     46  C   UNL A   1      44.655  27.166  26.280  1.00  0.00     0.074 A 
ATOM     47  C   UNL A   1      44.391  26.015  25.439  1.00  0.00     0.031 C 
ATOM     48  C   UNL A   1      39.068  27.932  29.390  1.00  0.00     0.029 A 
ATOM     49  C   UNL A   1      40.262  28.764  29.493  1.00  0.00     0.049 A 
ATOM     50  H   UNL A   1      42.012  28.605  28.370  1.00  0.00     0.167 HD
ATOM     51  C   UNL A   1      45.817  27.868  26.288  1.00  0.00     0.034 A 
ATOM     52  C   UNL A   1      40.416  29.793  30.350  1.00  0.00     0.034 A 
ATOM     53  C   UNL A   1      46.053  29.022  27.125  1.00  0.00     0.049 A 
ATOM     54  C   UNL A   1      41.736  30.520  30.384  1.00  0.00     0.074 A 
ATOM     55  C   UNL A   1      47.185  29.816  27.200  1.00  0.00     0.029 A 
ATOM     56  N   UNL A   1      45.143  29.549  28.032  1.00  0.00    -0.354 N 
ATOM     57  N   UNL A   1      42.824  30.289  29.686  1.00  0.00    -0.248 NA
ATOM     58  C   UNL A   1      41.848  31.644  31.321  1.00  0.00     0.031 C 
ATOM     59  C   UNL A   1      46.981  30.784  28.190  1.00  0.00     0.029 A 
ATOM     60  C   UNL A   1      45.696  30.641  28.686  1.00  0.00     0.049 A 
ATOM     61  H   UNL A   1      44.236  29.198  28.188  1.00  0.00     0.167 HD
ATOM     62  C   UNL A   1      43.741  31.256  30.086  1.00  0.00     0.074 A 
ATOM     63  C   UNL A   1      43.073  32.082  31.070  1.00  0.00     0.031 C 
ATOM     64  C   UNL A   1      45.021  31.446  29.675  1.00  0.00     0.034 A 
BRANCH  51  65
ATOM     65  C   UNL A   1      46.937  27.380  25.400  1.00  0.00     0.023 A 
ATOM     66  C   UNL A   1      47.136  27.891  24.105  1.00  0.00     0.031 A 
ATOM     67  C   UNL A   1      47.823  26.391  25.861  1.00  0.00     0.131 A 
ATOM     68  C   UNL A   1      48.164  27.375  23.299  1.00  0.00     0.055 A 
ATOM     69  C   UNL A   1      48.886  25.930  25.081  1.00  0.00     0.041 A 
ATOM     70  F   UNL A   1      47.673  25.853  27.082  1.00  0.00    -0.206 F 
ATOM     71  C   UNL A   1      49.054  26.414  23.787  1.00  0.00     0.022 A 
BRANCH  68  72
ATOM     72  S   UNL A   1      48.260  27.902  21.566  1.00  0.00     0.124 S 
ATOM     73  O   UNL A   1      48.546  26.640  20.886  1.00  0.00    -0.237 OA
ATOM     74  O   UNL A   1      46.935  28.463  21.332  1.00  0.00    -0.237 OA
ATOM     75  O   UNL A   1      49.357  28.868  21.561  1.00  0.00    -0.744 OA
ENDBRANCH  68  72
ENDBRANCH  51  65
BRANCH  52  76
ATOM     76  C   UNL A   1      39.320  30.162  31.290  1.00  0.00     0.023 A 
ATOM     77  C   UNL A   1      38.542  31.310  31.079  1.00  0.00     0.031 A 
ATOM     78  C   UNL A   1      39.062  29.392  32.440  1.00  0.00     0.131 A 
ATOM     79  C   UNL A   1      37.572  31.680  32.023  1.00  0.00     0.055 A 
ATOM     80  C   UNL A   1      38.058  29.732  33.346  1.00  0.00     0.041 A 
ATOM     81  F   UNL A   1      39.777  28.283  32.690  1.00  0.00    -0.206 F 
ATOM     82  C   UNL A   1      37.314  30.891  33.147  1.00  0.00     0.022 A 
BRANCH  79  83
ATOM     83  S   UNL A   1      36.711  33.262  31.807  1.00  0.00     0.124 S 
ATOM     84  O   UNL A   1      36.957  33.911  33.090  1.00  0.00    -0.237 OA
ATOM     85  O   UNL A   1      37.407  33.830  30.658  1.00  0.00    -0.237 OA
ATOM     86  O   UNL A   1      35.326  32.865  31.563  1.00  0.00    -0.744 OA
ENDBRANCH  79  83
ENDBRANCH  52  76
BRANCH  64  87
ATOM     87  C   UNL A   1      45.752  32.629  30.262  1.00  0.00     0.023 A 
ATOM     88  C   UNL A   1      45.709  33.898  29.659  1.00  0.00     0.031 A 
ATOM     89  C   UNL A   1      46.530  32.471  31.422  1.00  0.00     0.131 A 
ATOM     90  C   UNL A   1      46.480  34.947  30.185  1.00  0.00     0.055 A 
ATOM     91  C   UNL A   1      47.249  33.532  31.974  1.00  0.00     0.041 A 
ATOM     92  F   UNL A   1      46.609  31.279  32.036  1.00  0.00    -0.206 F 
ATOM     93  C   UNL A   1      47.238  34.775  31.347  1.00  0.00     0.022 A 
BRANCH  90  94
ATOM     94  S   UNL A   1      46.554  36.514  29.277  1.00  0.00     0.124 S 
ATOM     95  O   UNL A   1      47.663  37.195  29.935  1.00  0.00    -0.237 OA
ATOM     96  O   UNL A   1      46.801  36.071  27.908  1.00  0.00    -0.237 OA
ATOM     97  O   UNL A   1      45.238  37.108  29.507  1.00  0.00    -0.744 OA
ENDBRANCH  90  94
ENDBRANCH  64  87
ENDBRANCH  38  39
ENDBRANCH  31  33
ENDBRANCH  30  31
ENDBRANCH  29  30
ENDBRANCH   1  29
TORSDOF 18
ENDMDL
