MODEL 1
REMARK VINA RESULT:     -10.8      0.000      0.000
REMARK SMILES O=C(OCCOC(=O)[C@H]1CC[C@@H](CNc2ccccc2C(F)(F)F)O1)c1ccc(-c2c3nc(c(-c4cc(S(=O)(=O)[O-])ccc4F)c4ccc([nH]4)c(-c4cc(S(=O)(=O)[O-])ccc4F)c4nc(c(-c5cc(S(=O)(=O)[O-])ccc5F)c5ccc2[nH]5)C=C4)C=C3)cc1
REMARK SMILES IDX 5 1 4 2 3 3 2 4 1 5 26 6 27 7 88 8 28 9 87 10 29 11 30 12
REMARK SMILES IDX 31 13 81 14 32 15 86 16 80 17 82 18 33 19 85 20 79 21 78 22
REMARK SMILES IDX 34 24 66 25 46 26 65 27 47 28 50 29 64 30 83 31 48 32 49 33
REMARK SMILES IDX 63 35 84 36 51 37 35 38 36 39 44 40 37 41 43 42 45 43 42 44
REMARK SMILES IDX 38 45 39 46 40 47 41 48 67 49 68 50 76 51 69 52 75 53 77 54
REMARK SMILES IDX 74 55 70 56 71 57 72 58 73 59 52 60 53 61 61 62 54 63 60 64
REMARK SMILES IDX 62 65 59 66 55 67 56 68 57 69 58 70 6 71 7 72 8 73 9 74
REMARK SMILES IDX 10 75 25 76 11 77 12 78 13 79 14 80 15 82 16 83 20 84 17 85
REMARK SMILES IDX 19 86 18 87 21 88 22 89 23 90 24 91
REMARK H PARENT 82 23 50 34 14 81
REMARK Flexibility Score: inf
ROOT
ATOM      1  C   UNL A   1      41.529  19.967  26.346  1.00  0.00     0.274 C 
ENDROOT
BRANCH   1   2
ATOM      2  C   UNL A   1      41.129  21.045  27.356  1.00  0.00     0.275 C 
BRANCH   2   3
ATOM      3  O   UNL A   1      39.750  21.441  27.239  1.00  0.00    -0.458 OA
BRANCH   3   4
ATOM      4  C   UNL A   1      39.212  22.498  26.581  1.00  0.00     0.338 C 
ATOM      5  O   UNL A   1      38.482  22.276  25.616  1.00  0.00    -0.246 OA
BRANCH   4   6
ATOM      6  C   UNL A   1      39.612  23.919  26.848  1.00  0.00     0.060 A 
ATOM      7  C   UNL A   1      40.212  24.799  25.942  1.00  0.00     0.016 A 
ATOM      8  C   UNL A   1      39.321  24.408  28.137  1.00  0.00     0.016 A 
ATOM      9  C   UNL A   1      40.411  26.146  26.259  1.00  0.00     0.010 A 
ATOM     10  C   UNL A   1      39.526  25.752  28.467  1.00  0.00     0.010 A 
ATOM     11  C   UNL A   1      40.060  26.633  27.519  1.00  0.00    -0.014 A 
BRANCH  11  12
ATOM     12  C   UNL A   1      40.459  27.998  27.914  1.00  0.00     0.031 A 
ATOM     13  C   UNL A   1      41.917  28.323  27.832  1.00  0.00     0.074 A 
ATOM     14  C   UNL A   1      39.560  28.913  28.319  1.00  0.00     0.049 A 
ATOM     15  N   UNL A   1      42.543  29.419  28.156  1.00  0.00    -0.248 NA
ATOM     16  C   UNL A   1      42.781  27.257  27.303  1.00  0.00     0.031 C 
ATOM     17  C   UNL A   1      38.115  28.712  28.359  1.00  0.00     0.029 A 
ATOM     18  N   UNL A   1      39.729  30.190  28.794  1.00  0.00    -0.354 N 
ATOM     19  C   UNL A   1      43.879  29.178  27.861  1.00  0.00     0.074 A 
ATOM     20  C   UNL A   1      43.974  27.815  27.388  1.00  0.00     0.031 C 
ATOM     21  C   UNL A   1      37.529  29.803  28.883  1.00  0.00     0.029 A 
ATOM     22  C   UNL A   1      38.561  30.774  29.231  1.00  0.00     0.049 A 
ATOM     23  H   UNL A   1      40.601  30.644  28.818  1.00  0.00     0.167 HD
ATOM     24  C   UNL A   1      44.928  30.028  27.965  1.00  0.00     0.034 A 
ATOM     25  C   UNL A   1      38.361  31.946  29.868  1.00  0.00     0.034 A 
ATOM     26  C   UNL A   1      44.802  31.354  28.510  1.00  0.00     0.049 A 
ATOM     27  C   UNL A   1      39.557  32.832  30.108  1.00  0.00     0.074 A 
ATOM     28  C   UNL A   1      45.784  32.303  28.713  1.00  0.00     0.029 A 
ATOM     29  N   UNL A   1      43.611  31.902  28.978  1.00  0.00    -0.354 N 
ATOM     30  N   UNL A   1      40.818  32.610  29.805  1.00  0.00    -0.248 NA
ATOM     31  C   UNL A   1      39.315  34.128  30.753  1.00  0.00     0.031 C 
ATOM     32  C   UNL A   1      45.204  33.388  29.379  1.00  0.00     0.029 A 
ATOM     33  C   UNL A   1      43.840  33.160  29.506  1.00  0.00     0.049 A 
ATOM     34  H   UNL A   1      42.733  31.458  28.940  1.00  0.00     0.167 HD
ATOM     35  C   UNL A   1      41.512  33.756  30.184  1.00  0.00     0.074 A 
ATOM     36  C   UNL A   1      40.530  34.662  30.747  1.00  0.00     0.031 C 
ATOM     37  C   UNL A   1      42.833  34.040  30.059  1.00  0.00     0.034 A 
BRANCH  24  38
ATOM     38  C   UNL A   1      46.275  29.478  27.566  1.00  0.00     0.023 A 
ATOM     39  C   UNL A   1      46.577  29.186  26.222  1.00  0.00     0.031 A 
ATOM     40  C   UNL A   1      47.204  29.094  28.547  1.00  0.00     0.131 A 
ATOM     41  C   UNL A   1      47.705  28.414  25.912  1.00  0.00     0.055 A 
ATOM     42  C   UNL A   1      48.381  28.418  28.219  1.00  0.00     0.041 A 
ATOM     43  F   UNL A   1      46.958  29.319  29.846  1.00  0.00    -0.206 F 
ATOM     44  C   UNL A   1      48.622  28.048  26.898  1.00  0.00     0.022 A 
BRANCH  41  45
ATOM     45  S   UNL A   1      47.825  27.696  24.248  1.00  0.00     0.124 S 
ATOM     46  O   UNL A   1      49.257  27.808  23.979  1.00  0.00    -0.237 OA
ATOM     47  O   UNL A   1      47.319  26.343  24.451  1.00  0.00    -0.237 OA
ATOM     48  O   UNL A   1      46.976  28.566  23.437  1.00  0.00    -0.744 OA
ENDBRANCH  41  45
ENDBRANCH  24  38
BRANCH  25  49
ATOM     49  C   UNL A   1      36.999  32.317  30.355  1.00  0.00     0.023 A 
ATOM     50  C   UNL A   1      36.085  33.013  29.548  1.00  0.00     0.031 A 
ATOM     51  C   UNL A   1      36.592  31.976  31.660  1.00  0.00     0.131 A 
ATOM     52  C   UNL A   1      34.824  33.368  30.061  1.00  0.00     0.055 A 
ATOM     53  C   UNL A   1      35.325  32.296  32.151  1.00  0.00     0.041 A 
ATOM     54  F   UNL A   1      37.422  31.304  32.475  1.00  0.00    -0.206 F 
ATOM     55  C   UNL A   1      34.435  33.004  31.352  1.00  0.00     0.022 A 
BRANCH  52  56
ATOM     56  S   UNL A   1      33.705  34.359  29.031  1.00  0.00     0.124 S 
ATOM     57  O   UNL A   1      34.616  35.352  28.473  1.00  0.00    -0.237 OA
ATOM     58  O   UNL A   1      33.191  33.362  28.097  1.00  0.00    -0.237 OA
ATOM     59  O   UNL A   1      32.727  34.874  29.987  1.00  0.00    -0.744 OA
ENDBRANCH  52  56
ENDBRANCH  25  49
BRANCH  37  60
ATOM     60  C   UNL A   1      43.290  35.414  30.476  1.00  0.00     0.023 A 
ATOM     61  C   UNL A   1      43.689  35.703  31.790  1.00  0.00     0.031 A 
ATOM     62  C   UNL A   1      43.395  36.431  29.508  1.00  0.00     0.131 A 
ATOM     63  C   UNL A   1      44.159  36.987  32.106  1.00  0.00     0.055 A 
ATOM     64  C   UNL A   1      43.916  37.686  29.815  1.00  0.00     0.041 A 
ATOM     65  F   UNL A   1      43.022  36.204  28.238  1.00  0.00    -0.206 F 
ATOM     66  C   UNL A   1      44.298  37.971  31.122  1.00  0.00     0.022 A 
BRANCH  63  67
ATOM     67  S   UNL A   1      44.548  37.374  33.834  1.00  0.00     0.124 S 
ATOM     68  O   UNL A   1      44.177  38.783  33.918  1.00  0.00    -0.237 OA
ATOM     69  O   UNL A   1      43.694  36.444  34.565  1.00  0.00    -0.237 OA
ATOM     70  O   UNL A   1      45.982  37.105  33.930  1.00  0.00    -0.744 OA
ENDBRANCH  63  67
ENDBRANCH  37  60
ENDBRANCH  11  12
ENDBRANCH   4   6
ENDBRANCH   3   4
ENDBRANCH   2   3
ENDBRANCH   1   2
BRANCH   1  71
ATOM     71  O   UNL A   1      42.938  19.982  26.072  1.00  0.00    -0.460 OA
BRANCH  71  72
ATOM     72  C   UNL A   1      43.481  18.807  25.627  1.00  0.00     0.335 C 
ATOM     73  O   UNL A   1      42.880  17.746  25.550  1.00  0.00    -0.249 OA
BRANCH  72  74
ATOM     74  C   UNL A   1      44.932  19.034  25.178  1.00  0.00     0.228 C 
ATOM     75  C   UNL A   1      45.099  19.158  23.682  1.00  0.00     0.047 C 
ATOM     76  O   UNL A   1      45.446  20.251  25.729  1.00  0.00    -0.361 OA
ATOM     77  C   UNL A   1      44.868  20.631  23.464  1.00  0.00     0.037 C 
ATOM     78  C   UNL A   1      45.464  21.269  24.711  1.00  0.00     0.138 C 
BRANCH  78  79
ATOM     79  C   UNL A   1      44.755  22.519  25.265  1.00  0.00     0.145 C 
BRANCH  79  80
ATOM     80  N   UNL A   1      44.547  22.492  26.715  1.00  0.00    -0.382 N 
ATOM     81  H   UNL A   1      43.916  21.851  27.113  1.00  0.00     0.160 HD
BRANCH  80  82
ATOM     82  C   UNL A   1      45.250  23.381  27.525  1.00  0.00     0.046 A 
ATOM     83  C   UNL A   1      46.466  23.884  27.022  1.00  0.00     0.026 A 
ATOM     84  C   UNL A   1      44.782  23.886  28.751  1.00  0.00     0.079 A 
ATOM     85  C   UNL A   1      47.182  24.886  27.677  1.00  0.00     0.002 A 
ATOM     86  C   UNL A   1      45.518  24.904  29.403  1.00  0.00     0.015 A 
ATOM     87  C   UNL A   1      46.704  25.404  28.870  1.00  0.00     0.001 A 
BRANCH  84  88
ATOM     88  C   UNL A   1      43.543  23.398  29.465  1.00  0.00     0.418 C 
ATOM     89  F   UNL A   1      43.604  23.660  30.810  1.00  0.00    -0.166 F 
ATOM     90  F   UNL A   1      42.413  24.031  29.039  1.00  0.00    -0.166 F 
ATOM     91  F   UNL A   1      43.281  22.064  29.389  1.00  0.00    -0.166 F 
ENDBRANCH  84  88
ENDBRANCH  80  82
ENDBRANCH  79  80
ENDBRANCH  78  79
ENDBRANCH  72  74
ENDBRANCH  71  72
ENDBRANCH   1  71
TORSDOF 18
ENDMDL
MODEL 2
REMARK VINA RESULT:     -10.7      1.530      2.041
REMARK SMILES O=C(OCCOC(=O)[C@H]1CC[C@@H](CNc2ccccc2C(F)(F)F)O1)c1ccc(-c2c3nc(c(-c4cc(S(=O)(=O)[O-])ccc4F)c4ccc([nH]4)c(-c4cc(S(=O)(=O)[O-])ccc4F)c4nc(c(-c5cc(S(=O)(=O)[O-])ccc5F)c5ccc2[nH]5)C=C4)C=C3)cc1
REMARK SMILES IDX 5 1 4 2 3 3 2 4 1 5 26 6 27 7 88 8 28 9 87 10 29 11 30 12
REMARK SMILES IDX 31 13 81 14 32 15 86 16 80 17 82 18 33 19 85 20 79 21 78 22
REMARK SMILES IDX 34 24 66 25 46 26 65 27 47 28 50 29 64 30 83 31 48 32 49 33
REMARK SMILES IDX 63 35 84 36 51 37 35 38 36 39 44 40 37 41 43 42 45 43 42 44
REMARK SMILES IDX 38 45 39 46 40 47 41 48 67 49 68 50 76 51 69 52 75 53 77 54
REMARK SMILES IDX 74 55 70 56 71 57 72 58 73 59 52 60 53 61 61 62 54 63 60 64
REMARK SMILES IDX 62 65 59 66 55 67 56 68 57 69 58 70 6 71 7 72 8 73 9 74
REMARK SMILES IDX 10 75 25 76 11 77 12 78 13 79 14 80 15 82 16 83 20 84 17 85
REMARK SMILES IDX 19 86 18 87 21 88 22 89 23 90 24 91
REMARK H PARENT 82 23 50 34 14 81
REMARK Flexibility Score: inf
ROOT
ATOM      1  C   UNL A   1      41.973  20.535  26.174  1.00  0.00     0.274 C 
ENDROOT
BRANCH   1   2
ATOM      2  C   UNL A   1      41.237  21.101  27.391  1.00  0.00     0.275 C 
BRANCH   2   3
ATOM      3  O   UNL A   1      39.847  21.371  27.132  1.00  0.00    -0.458 OA
BRANCH   3   4
ATOM      4  C   UNL A   1      39.278  22.445  26.529  1.00  0.00     0.338 C 
ATOM      5  O   UNL A   1      38.505  22.248  25.592  1.00  0.00    -0.246 OA
BRANCH   4   6
ATOM      6  C   UNL A   1      39.688  23.859  26.818  1.00  0.00     0.060 A 
ATOM      7  C   UNL A   1      40.302  24.745  25.926  1.00  0.00     0.016 A 
ATOM      8  C   UNL A   1      39.392  24.334  28.110  1.00  0.00     0.016 A 
ATOM      9  C   UNL A   1      40.511  26.087  26.263  1.00  0.00     0.010 A 
ATOM     10  C   UNL A   1      39.607  25.672  28.459  1.00  0.00     0.010 A 
ATOM     11  C   UNL A   1      40.154  26.560  27.526  1.00  0.00    -0.014 A 
BRANCH  11  12
ATOM     12  C   UNL A   1      40.563  27.917  27.942  1.00  0.00     0.031 A 
ATOM     13  C   UNL A   1      42.026  28.222  27.896  1.00  0.00     0.074 A 
ATOM     14  C   UNL A   1      39.666  28.841  28.333  1.00  0.00     0.049 A 
ATOM     15  N   UNL A   1      42.659  29.307  28.244  1.00  0.00    -0.248 NA
ATOM     16  C   UNL A   1      42.888  27.149  27.380  1.00  0.00     0.031 C 
ATOM     17  C   UNL A   1      38.218  28.659  28.337  1.00  0.00     0.029 A 
ATOM     18  N   UNL A   1      39.841  30.111  28.822  1.00  0.00    -0.354 N 
ATOM     19  C   UNL A   1      43.998  29.050  27.979  1.00  0.00     0.074 A 
ATOM     20  C   UNL A   1      44.086  27.690  27.498  1.00  0.00     0.031 C 
ATOM     21  C   UNL A   1      37.635  29.754  28.856  1.00  0.00     0.029 A 
ATOM     22  C   UNL A   1      38.671  30.708  29.236  1.00  0.00     0.049 A 
ATOM     23  H   UNL A   1      40.719  30.553  28.870  1.00  0.00     0.167 HD
ATOM     24  C   UNL A   1      45.056  29.885  28.114  1.00  0.00     0.034 A 
ATOM     25  C   UNL A   1      38.472  31.877  29.878  1.00  0.00     0.034 A 
ATOM     26  C   UNL A   1      44.935  31.208  28.668  1.00  0.00     0.049 A 
ATOM     27  C   UNL A   1      39.674  32.745  30.153  1.00  0.00     0.074 A 
ATOM     28  C   UNL A   1      45.924  32.142  28.901  1.00  0.00     0.029 A 
ATOM     29  N   UNL A   1      43.740  31.769  29.112  1.00  0.00    -0.354 N 
ATOM     30  N   UNL A   1      40.938  32.508  29.878  1.00  0.00    -0.248 NA
ATOM     31  C   UNL A   1      39.433  34.039  30.802  1.00  0.00     0.031 C 
ATOM     32  C   UNL A   1      45.344  33.230  29.562  1.00  0.00     0.029 A 
ATOM     33  C   UNL A   1      43.973  33.020  29.654  1.00  0.00     0.049 A 
ATOM     34  H   UNL A   1      42.858  31.337  29.049  1.00  0.00     0.167 HD
ATOM     35  C   UNL A   1      41.638  33.642  30.282  1.00  0.00     0.074 A 
ATOM     36  C   UNL A   1      40.656  34.557  30.829  1.00  0.00     0.031 C 
ATOM     37  C   UNL A   1      42.966  33.909  30.191  1.00  0.00     0.034 A 
BRANCH  24  38
ATOM     38  C   UNL A   1      46.404  29.320  27.743  1.00  0.00     0.023 A 
ATOM     39  C   UNL A   1      46.683  28.896  26.429  1.00  0.00     0.031 A 
ATOM     40  C   UNL A   1      47.361  29.055  28.736  1.00  0.00     0.131 A 
ATOM     41  C   UNL A   1      47.820  28.116  26.174  1.00  0.00     0.055 A 
ATOM     42  C   UNL A   1      48.544  28.369  28.452  1.00  0.00     0.041 A 
ATOM     43  F   UNL A   1      47.139  29.409  30.011  1.00  0.00    -0.206 F 
ATOM     44  C   UNL A   1      48.764  27.869  27.171  1.00  0.00     0.022 A 
BRANCH  41  45
ATOM     45  S   UNL A   1      47.917  27.232  24.590  1.00  0.00     0.124 S 
ATOM     46  O   UNL A   1      46.504  27.072  24.252  1.00  0.00    -0.237 OA
ATOM     47  O   UNL A   1      48.670  28.162  23.755  1.00  0.00    -0.237 OA
ATOM     48  O   UNL A   1      48.613  25.994  24.931  1.00  0.00    -0.744 OA
ENDBRANCH  41  45
ENDBRANCH  24  38
BRANCH  25  49
ATOM     49  C   UNL A   1      37.104  32.263  30.335  1.00  0.00     0.023 A 
ATOM     50  C   UNL A   1      36.200  32.934  29.496  1.00  0.00     0.031 A 
ATOM     51  C   UNL A   1      36.680  31.962  31.645  1.00  0.00     0.131 A 
ATOM     52  C   UNL A   1      34.934  33.304  29.981  1.00  0.00     0.055 A 
ATOM     53  C   UNL A   1      35.407  32.297  32.109  1.00  0.00     0.041 A 
ATOM     54  F   UNL A   1      37.499  31.316  32.491  1.00  0.00    -0.206 F 
ATOM     55  C   UNL A   1      34.527  32.980  31.277  1.00  0.00     0.022 A 
BRANCH  52  56
ATOM     56  S   UNL A   1      33.828  34.263  28.906  1.00  0.00     0.124 S 
ATOM     57  O   UNL A   1      34.740  35.258  28.353  1.00  0.00    -0.237 OA
ATOM     58  O   UNL A   1      33.349  33.244  27.978  1.00  0.00    -0.237 OA
ATOM     59  O   UNL A   1      32.821  34.784  29.829  1.00  0.00    -0.744 OA
ENDBRANCH  52  56
ENDBRANCH  25  49
BRANCH  37  60
ATOM     60  C   UNL A   1      43.431  35.274  30.629  1.00  0.00     0.023 A 
ATOM     61  C   UNL A   1      43.412  36.382  29.768  1.00  0.00     0.031 A 
ATOM     62  C   UNL A   1      43.831  35.472  31.964  1.00  0.00     0.131 A 
ATOM     63  C   UNL A   1      43.805  37.640  30.250  1.00  0.00     0.055 A 
ATOM     64  C   UNL A   1      44.164  36.734  32.451  1.00  0.00     0.041 A 
ATOM     65  F   UNL A   1      43.869  34.442  32.825  1.00  0.00    -0.206 F 
ATOM     66  C   UNL A   1      44.156  37.827  31.590  1.00  0.00     0.022 A 
BRANCH  63  67
ATOM     67  S   UNL A   1      43.895  39.030  29.089  1.00  0.00     0.124 S 
ATOM     68  O   UNL A   1      42.667  38.860  28.320  1.00  0.00    -0.237 OA
ATOM     69  O   UNL A   1      43.935  40.184  29.981  1.00  0.00    -0.237 OA
ATOM     70  O   UNL A   1      45.130  38.778  28.347  1.00  0.00    -0.744 OA
ENDBRANCH  63  67
ENDBRANCH  37  60
ENDBRANCH  11  12
ENDBRANCH   4   6
ENDBRANCH   3   4
ENDBRANCH   2   3
ENDBRANCH   1   2
BRANCH   1  71
ATOM     71  O   UNL A   1      43.378  20.826  26.210  1.00  0.00    -0.460 OA
BRANCH  71  72
ATOM     72  C   UNL A   1      43.831  21.736  25.294  1.00  0.00     0.335 C 
ATOM     73  O   UNL A   1      43.129  22.546  24.709  1.00  0.00    -0.249 OA
BRANCH  72  74
ATOM     74  C   UNL A   1      45.358  21.633  25.162  1.00  0.00     0.228 C 
ATOM     75  C   UNL A   1      45.916  22.317  23.937  1.00  0.00     0.047 C 
ATOM     76  O   UNL A   1      46.004  22.251  26.281  1.00  0.00    -0.361 OA
ATOM     77  C   UNL A   1      46.118  23.726  24.431  1.00  0.00     0.037 C 
ATOM     78  C   UNL A   1      46.525  23.534  25.886  1.00  0.00     0.138 C 
BRANCH  78  79
ATOM     79  C   UNL A   1      46.032  24.587  26.895  1.00  0.00     0.145 C 
BRANCH  79  80
ATOM     80  N   UNL A   1      46.308  24.247  28.293  1.00  0.00    -0.382 N 
ATOM     81  H   UNL A   1      46.987  23.570  28.513  1.00  0.00     0.160 HD
BRANCH  80  82
ATOM     82  C   UNL A   1      45.603  24.890  29.308  1.00  0.00     0.046 A 
ATOM     83  C   UNL A   1      46.295  25.865  30.054  1.00  0.00     0.026 A 
ATOM     84  C   UNL A   1      44.232  24.711  29.566  1.00  0.00     0.079 A 
ATOM     85  C   UNL A   1      45.654  26.672  30.994  1.00  0.00     0.002 A 
ATOM     86  C   UNL A   1      43.595  25.539  30.521  1.00  0.00     0.015 A 
ATOM     87  C   UNL A   1      44.298  26.514  31.225  1.00  0.00     0.001 A 
BRANCH  84  88
ATOM     88  C   UNL A   1      43.366  23.658  28.914  1.00  0.00     0.418 C 
ATOM     89  F   UNL A   1      43.983  22.433  28.910  1.00  0.00    -0.166 F 
ATOM     90  F   UNL A   1      42.196  23.456  29.586  1.00  0.00    -0.166 F 
ATOM     91  F   UNL A   1      43.022  23.870  27.613  1.00  0.00    -0.166 F 
ENDBRANCH  84  88
ENDBRANCH  80  82
ENDBRANCH  79  80
ENDBRANCH  78  79
ENDBRANCH  72  74
ENDBRANCH  71  72
ENDBRANCH   1  71
TORSDOF 18
ENDMDL
MODEL 3
REMARK VINA RESULT:     -10.3      6.250     12.067
REMARK SMILES O=C(OCCOC(=O)[C@H]1CC[C@@H](CNc2ccccc2C(F)(F)F)O1)c1ccc(-c2c3nc(c(-c4cc(S(=O)(=O)[O-])ccc4F)c4ccc([nH]4)c(-c4cc(S(=O)(=O)[O-])ccc4F)c4nc(c(-c5cc(S(=O)(=O)[O-])ccc5F)c5ccc2[nH]5)C=C4)C=C3)cc1
REMARK SMILES IDX 5 1 4 2 3 3 2 4 1 5 26 6 27 7 88 8 28 9 87 10 29 11 30 12
REMARK SMILES IDX 31 13 81 14 32 15 86 16 80 17 82 18 33 19 85 20 79 21 78 22
REMARK SMILES IDX 34 24 66 25 46 26 65 27 47 28 50 29 64 30 83 31 48 32 49 33
REMARK SMILES IDX 63 35 84 36 51 37 35 38 36 39 44 40 37 41 43 42 45 43 42 44
REMARK SMILES IDX 38 45 39 46 40 47 41 48 67 49 68 50 76 51 69 52 75 53 77 54
REMARK SMILES IDX 74 55 70 56 71 57 72 58 73 59 52 60 53 61 61 62 54 63 60 64
REMARK SMILES IDX 62 65 59 66 55 67 56 68 57 69 58 70 6 71 7 72 8 73 9 74
REMARK SMILES IDX 10 75 25 76 11 77 12 78 13 79 14 80 15 82 16 83 20 84 17 85
REMARK SMILES IDX 19 86 18 87 21 88 22 89 23 90 24 91
REMARK H PARENT 82 23 50 34 14 81
REMARK Flexibility Score: inf
ROOT
ATOM      1  C   UNL A   1      33.991  28.736  25.970  1.00  0.00     0.274 C 
ENDROOT
BRANCH   1   2
ATOM      2  C   UNL A   1      33.133  29.999  26.070  1.00  0.00     0.275 C 
BRANCH   2   3
ATOM      3  O   UNL A   1      33.368  30.745  27.279  1.00  0.00    -0.458 OA
BRANCH   3   4
ATOM      4  C   UNL A   1      34.492  31.384  27.688  1.00  0.00     0.338 C 
ATOM      5  O   UNL A   1      34.617  32.578  27.418  1.00  0.00    -0.246 OA
BRANCH   4   6
ATOM      6  C   UNL A   1      35.670  30.670  28.283  1.00  0.00     0.060 A 
ATOM      7  C   UNL A   1      35.634  29.715  29.304  1.00  0.00     0.016 A 
ATOM      8  C   UNL A   1      36.925  30.983  27.727  1.00  0.00     0.016 A 
ATOM      9  C   UNL A   1      36.781  29.012  29.683  1.00  0.00     0.010 A 
ATOM     10  C   UNL A   1      38.081  30.292  28.107  1.00  0.00     0.010 A 
ATOM     11  C   UNL A   1      38.008  29.288  29.079  1.00  0.00    -0.014 A 
BRANCH  11  12
ATOM     12  C   UNL A   1      39.244  28.690  29.624  1.00  0.00     0.031 A 
ATOM     13  C   UNL A   1      39.833  29.346  30.831  1.00  0.00     0.074 A 
ATOM     14  C   UNL A   1      39.811  27.602  29.072  1.00  0.00     0.049 A 
ATOM     15  N   UNL A   1      40.926  29.060  31.482  1.00  0.00    -0.248 NA
ATOM     16  C   UNL A   1      39.074  30.482  31.377  1.00  0.00     0.031 C 
ATOM     17  C   UNL A   1      39.268  26.851  27.943  1.00  0.00     0.029 A 
ATOM     18  N   UNL A   1      40.979  26.947  29.372  1.00  0.00    -0.354 N 
ATOM     19  C   UNL A   1      40.980  29.976  32.525  1.00  0.00     0.074 A 
ATOM     20  C   UNL A   1      39.844  30.859  32.380  1.00  0.00     0.031 C 
ATOM     21  C   UNL A   1      40.125  25.871  27.608  1.00  0.00     0.029 A 
ATOM     22  C   UNL A   1      41.287  25.936  28.489  1.00  0.00     0.049 A 
ATOM     23  H   UNL A   1      41.542  27.178  30.145  1.00  0.00     0.167 HD
ATOM     24  C   UNL A   1      41.895  30.061  33.520  1.00  0.00     0.034 A 
ATOM     25  C   UNL A   1      42.397  25.176  28.391  1.00  0.00     0.034 A 
ATOM     26  C   UNL A   1      43.053  29.209  33.585  1.00  0.00     0.049 A 
ATOM     27  C   UNL A   1      43.479  25.370  29.423  1.00  0.00     0.074 A 
ATOM     28  C   UNL A   1      44.079  29.213  34.510  1.00  0.00     0.029 A 
ATOM     29  N   UNL A   1      43.355  28.219  32.654  1.00  0.00    -0.354 N 
ATOM     30  N   UNL A   1      43.516  26.224  30.423  1.00  0.00    -0.248 NA
ATOM     31  C   UNL A   1      44.655  24.498  29.335  1.00  0.00     0.031 C 
ATOM     32  C   UNL A   1      45.039  28.285  34.092  1.00  0.00     0.029 A 
ATOM     33  C   UNL A   1      44.569  27.632  32.959  1.00  0.00     0.049 A 
ATOM     34  H   UNL A   1      42.786  27.973  31.889  1.00  0.00     0.167 HD
ATOM     35  C   UNL A   1      44.699  25.962  31.108  1.00  0.00     0.074 A 
ATOM     36  C   UNL A   1      45.351  24.878  30.400  1.00  0.00     0.031 C 
ATOM     37  C   UNL A   1      45.191  26.548  32.229  1.00  0.00     0.034 A 
BRANCH  24  38
ATOM     38  C   UNL A   1      41.691  31.172  34.520  1.00  0.00     0.023 A 
ATOM     39  C   UNL A   1      40.690  31.094  35.507  1.00  0.00     0.031 A 
ATOM     40  C   UNL A   1      42.393  32.382  34.390  1.00  0.00     0.131 A 
ATOM     41  C   UNL A   1      40.329  32.241  36.227  1.00  0.00     0.055 A 
ATOM     42  C   UNL A   1      42.099  33.490  35.187  1.00  0.00     0.041 A 
ATOM     43  F   UNL A   1      43.339  32.526  33.449  1.00  0.00    -0.206 F 
ATOM     44  C   UNL A   1      41.042  33.433  36.091  1.00  0.00     0.022 A 
BRANCH  41  45
ATOM     45  S   UNL A   1      38.769  32.217  37.157  1.00  0.00     0.124 S 
ATOM     46  O   UNL A   1      38.053  33.347  36.567  1.00  0.00    -0.237 OA
ATOM     47  O   UNL A   1      38.237  30.894  36.847  1.00  0.00    -0.237 OA
ATOM     48  O   UNL A   1      39.192  32.412  38.542  1.00  0.00    -0.744 OA
ENDBRANCH  41  45
ENDBRANCH  24  38
BRANCH  25  49
ATOM     49  C   UNL A   1      42.552  24.211  27.262  1.00  0.00     0.023 A 
ATOM     50  C   UNL A   1      42.022  22.913  27.315  1.00  0.00     0.031 A 
ATOM     51  C   UNL A   1      43.252  24.585  26.097  1.00  0.00     0.131 A 
ATOM     52  C   UNL A   1      42.220  22.028  26.240  1.00  0.00     0.055 A 
ATOM     53  C   UNL A   1      43.413  23.716  25.017  1.00  0.00     0.041 A 
ATOM     54  F   UNL A   1      43.777  25.816  25.987  1.00  0.00    -0.206 F 
ATOM     55  C   UNL A   1      42.902  22.425  25.087  1.00  0.00     0.022 A 
BRANCH  52  56
ATOM     56  S   UNL A   1      41.613  20.323  26.382  1.00  0.00     0.124 S 
ATOM     57  O   UNL A   1      42.015  19.977  27.741  1.00  0.00    -0.237 OA
ATOM     58  O   UNL A   1      40.181  20.492  26.158  1.00  0.00    -0.237 OA
ATOM     59  O   UNL A   1      42.328  19.617  25.321  1.00  0.00    -0.744 OA
ENDBRANCH  52  56
ENDBRANCH  25  49
BRANCH  37  60
ATOM     60  C   UNL A   1      46.465  25.987  32.805  1.00  0.00     0.023 A 
ATOM     61  C   UNL A   1      46.468  24.900  33.693  1.00  0.00     0.031 A 
ATOM     62  C   UNL A   1      47.703  26.514  32.390  1.00  0.00     0.131 A 
ATOM     63  C   UNL A   1      47.690  24.384  34.153  1.00  0.00     0.055 A 
ATOM     64  C   UNL A   1      48.912  25.961  32.805  1.00  0.00     0.041 A 
ATOM     65  F   UNL A   1      47.751  27.556  31.545  1.00  0.00    -0.206 F 
ATOM     66  C   UNL A   1      48.910  24.891  33.695  1.00  0.00     0.022 A 
BRANCH  63  67
ATOM     67  S   UNL A   1      47.668  23.065  35.396  1.00  0.00     0.124 S 
ATOM     68  O   UNL A   1      46.549  23.466  36.242  1.00  0.00    -0.237 OA
ATOM     69  O   UNL A   1      47.459  21.870  34.584  1.00  0.00    -0.237 OA
ATOM     70  O   UNL A   1      48.985  23.163  36.024  1.00  0.00    -0.744 OA
ENDBRANCH  63  67
ENDBRANCH  37  60
ENDBRANCH  11  12
ENDBRANCH   4   6
ENDBRANCH   3   4
ENDBRANCH   2   3
ENDBRANCH   1   2
BRANCH   1  71
ATOM     71  O   UNL A   1      33.487  27.818  24.989  1.00  0.00    -0.460 OA
BRANCH  71  72
ATOM     72  C   UNL A   1      33.390  26.509  25.378  1.00  0.00     0.335 C 
ATOM     73  O   UNL A   1      32.898  26.128  26.429  1.00  0.00    -0.249 OA
BRANCH  72  74
ATOM     74  C   UNL A   1      33.928  25.590  24.271  1.00  0.00     0.228 C 
ATOM     75  C   UNL A   1      33.234  24.251  24.192  1.00  0.00     0.047 C 
ATOM     76  O   UNL A   1      33.755  26.194  22.985  1.00  0.00    -0.361 OA
ATOM     77  C   UNL A   1      32.071  24.557  23.284  1.00  0.00     0.037 C 
ATOM     78  C   UNL A   1      32.643  25.577  22.310  1.00  0.00     0.138 C 
BRANCH  78  79
ATOM     79  C   UNL A   1      31.695  26.689  21.824  1.00  0.00     0.145 C 
BRANCH  79  80
ATOM     80  N   UNL A   1      31.370  27.684  22.849  1.00  0.00    -0.382 N 
ATOM     81  H   UNL A   1      32.005  27.871  23.577  1.00  0.00     0.160 HD
BRANCH  80  82
ATOM     82  C   UNL A   1      30.154  28.362  22.786  1.00  0.00     0.046 A 
ATOM     83  C   UNL A   1      30.152  29.619  22.150  1.00  0.00     0.026 A 
ATOM     84  C   UNL A   1      28.923  27.836  23.214  1.00  0.00     0.079 A 
ATOM     85  C   UNL A   1      28.973  30.322  21.900  1.00  0.00     0.002 A 
ATOM     86  C   UNL A   1      27.735  28.559  22.951  1.00  0.00     0.015 A 
ATOM     87  C   UNL A   1      27.759  29.788  22.296  1.00  0.00     0.001 A 
BRANCH  84  88
ATOM     88  C   UNL A   1      28.760  26.543  23.980  1.00  0.00     0.418 C 
ATOM     89  F   UNL A   1      27.485  26.407  24.467  1.00  0.00    -0.166 F 
ATOM     90  F   UNL A   1      28.953  25.445  23.195  1.00  0.00    -0.166 F 
ATOM     91  F   UNL A   1      29.560  26.374  25.069  1.00  0.00    -0.166 F 
ENDBRANCH  84  88
ENDBRANCH  80  82
ENDBRANCH  79  80
ENDBRANCH  78  79
ENDBRANCH  72  74
ENDBRANCH  71  72
ENDBRANCH   1  71
TORSDOF 18
ENDMDL
