MODEL 1
REMARK VINA RESULT:     -10.1      0.000      0.000
REMARK SMILES Cc1nc([C@H](C)[NH2+]CC(=O)OCCOC(=O)c2ccc(-c3c4nc(c(-c5cc(S(=O)(=O)[O-])ccc5F)c5ccc([nH]5)c(-c5cc(S(=O)(=O)[O-])ccc5F)c5nc(c(-c6cc(S(=O)(=O)[O-])ccc6F)c6ccc3[nH]6)C=C5)C=C4)cc2)cs1
REMARK SMILES IDX 12 1 11 2 9 3 10 4 8 5 7 6 5 9 6 10 4 11 1 12 2 13 3 14
REMARK SMILES IDX 81 15 80 16 13 17 14 18 15 19 16 20 17 21 18 22 79 23 19 24
REMARK SMILES IDX 78 25 20 26 21 27 22 28 72 29 23 30 77 31 71 32 73 33 24 34
REMARK SMILES IDX 76 35 70 36 69 37 25 39 57 40 37 41 56 42 38 43 41 44 55 45
REMARK SMILES IDX 74 46 39 47 40 48 54 50 75 51 42 52 26 53 27 54 35 55 28 56
REMARK SMILES IDX 34 57 36 58 33 59 29 60 30 61 31 62 32 63 58 64 59 65 67 66
REMARK SMILES IDX 60 67 66 68 68 69 65 70 61 71 62 72 63 73 64 74 43 75 44 76
REMARK SMILES IDX 52 77 45 78 51 79 53 80 50 81 46 82 47 83 48 84 49 85
REMARK H PARENT 7 7 7 8 73 38 41 49
REMARK Flexibility Score: inf
ROOT
ATOM      1  C   UNL A   1      37.742  19.775  24.822  1.00  0.00     0.274 C 
ENDROOT
BRANCH   1   2
ATOM      2  O   UNL A   1      37.049  20.886  25.413  1.00  0.00    -0.458 OA
BRANCH   2   3
ATOM      3  C   UNL A   1      36.409  21.741  24.578  1.00  0.00     0.361 C 
ATOM      4  O   UNL A   1      36.972  22.465  23.765  1.00  0.00    -0.245 OA
BRANCH   3   5
ATOM      5  C   UNL A   1      34.899  21.743  24.793  1.00  0.00     0.385 C 
BRANCH   5   6
ATOM      6  N   UNL A   1      34.405  20.758  25.767  1.00  0.00    -0.330 N 
ATOM      7  H   UNL A   1      35.124  20.042  25.879  1.00  0.00     0.347 HD
ATOM      8  H   UNL A   1      34.207  21.285  26.618  1.00  0.00     0.347 HD
BRANCH   6   9
ATOM      9  C   UNL A   1      33.152  20.086  25.415  1.00  0.00     0.230 C 
ATOM     10  C   UNL A   1      32.579  20.789  24.182  1.00  0.00     0.082 C 
BRANCH   9  11
ATOM     11  C   UNL A   1      33.372  18.617  25.145  1.00  0.00     0.108 A 
ATOM     12  C   UNL A   1      32.154  15.237  25.833  1.00  0.00     0.079 C 
ATOM     13  C   UNL A   1      32.881  16.461  25.395  1.00  0.00     0.090 A 
ATOM     14  N   UNL A   1      32.585  17.675  25.797  1.00  0.00    -0.240 NA
ATOM     15  S   UNL A   1      34.162  16.360  24.256  1.00  0.00    -0.127 S 
ATOM     16  C   UNL A   1      34.304  18.069  24.282  1.00  0.00     0.096 A 
ENDBRANCH   9  11
ENDBRANCH   6   9
ENDBRANCH   5   6
ENDBRANCH   3   5
ENDBRANCH   2   3
ENDBRANCH   1   2
BRANCH   1  17
ATOM     17  C   UNL A   1      38.938  19.380  25.688  1.00  0.00     0.275 C 
BRANCH  17  18
ATOM     18  O   UNL A   1      39.875  20.461  25.806  1.00  0.00    -0.458 OA
BRANCH  18  19
ATOM     19  C   UNL A   1      40.495  20.565  27.006  1.00  0.00     0.338 C 
ATOM     20  O   UNL A   1      40.849  19.667  27.744  1.00  0.00    -0.246 OA
BRANCH  19  21
ATOM     21  C   UNL A   1      40.842  21.970  27.219  1.00  0.00     0.060 A 
ATOM     22  C   UNL A   1      41.590  22.300  28.352  1.00  0.00     0.016 A 
ATOM     23  C   UNL A   1      40.433  22.945  26.309  1.00  0.00     0.016 A 
ATOM     24  C   UNL A   1      41.963  23.619  28.568  1.00  0.00     0.010 A 
ATOM     25  C   UNL A   1      40.813  24.266  26.525  1.00  0.00     0.010 A 
ATOM     26  C   UNL A   1      41.583  24.605  27.650  1.00  0.00    -0.014 A 
BRANCH  26  27
ATOM     27  C   UNL A   1      41.970  26.011  27.880  1.00  0.00     0.031 A 
ATOM     28  C   UNL A   1      43.343  26.465  27.491  1.00  0.00     0.074 A 
ATOM     29  C   UNL A   1      41.084  26.851  28.445  1.00  0.00     0.049 A 
ATOM     30  N   UNL A   1      43.922  27.616  27.697  1.00  0.00    -0.248 NA
ATOM     31  C   UNL A   1      44.178  25.481  26.786  1.00  0.00     0.031 C 
ATOM     32  C   UNL A   1      39.711  26.500  28.817  1.00  0.00     0.029 A 
ATOM     33  N   UNL A   1      41.204  28.165  28.809  1.00  0.00    -0.354 N 
ATOM     34  C   UNL A   1      45.199  27.496  27.159  1.00  0.00     0.074 A 
ATOM     35  C   UNL A   1      45.318  26.143  26.655  1.00  0.00     0.031 C 
ATOM     36  C   UNL A   1      39.115  27.577  29.354  1.00  0.00     0.029 A 
ATOM     37  C   UNL A   1      40.077  28.670  29.417  1.00  0.00     0.049 A 
ATOM     38  H   UNL A   1      42.016  28.698  28.652  1.00  0.00     0.167 HD
ATOM     39  C   UNL A   1      46.172  28.436  27.091  1.00  0.00     0.034 A 
ATOM     40  C   UNL A   1      39.867  29.872  29.988  1.00  0.00     0.034 A 
ATOM     41  C   UNL A   1      46.018  29.770  27.621  1.00  0.00     0.049 A 
ATOM     42  C   UNL A   1      40.995  30.872  29.977  1.00  0.00     0.074 A 
ATOM     43  C   UNL A   1      46.926  30.814  27.614  1.00  0.00     0.029 A 
ATOM     44  N   UNL A   1      44.878  30.242  28.265  1.00  0.00    -0.354 N 
ATOM     45  N   UNL A   1      42.202  30.751  29.469  1.00  0.00    -0.248 NA
ATOM     46  C   UNL A   1      40.734  32.170  30.609  1.00  0.00     0.031 C 
ATOM     47  C   UNL A   1      46.365  31.885  28.319  1.00  0.00     0.029 A 
ATOM     48  C   UNL A   1      45.073  31.547  28.689  1.00  0.00     0.049 A 
ATOM     49  H   UNL A   1      44.051  29.723  28.399  1.00  0.00     0.167 HD
ATOM     50  C   UNL A   1      42.833  31.971  29.693  1.00  0.00     0.074 A 
ATOM     51  C   UNL A   1      41.866  32.815  30.366  1.00  0.00     0.031 C 
ATOM     52  C   UNL A   1      44.093  32.363  29.370  1.00  0.00     0.034 A 
BRANCH  39  53
ATOM     53  C   UNL A   1      47.493  28.025  26.483  1.00  0.00     0.023 A 
ATOM     54  C   UNL A   1      47.689  27.988  25.090  1.00  0.00     0.031 A 
ATOM     55  C   UNL A   1      48.554  27.610  27.305  1.00  0.00     0.131 A 
ATOM     56  C   UNL A   1      48.884  27.472  24.564  1.00  0.00     0.055 A 
ATOM     57  C   UNL A   1      49.774  27.179  26.777  1.00  0.00     0.041 A 
ATOM     58  F   UNL A   1      48.420  27.596  28.641  1.00  0.00    -0.206 F 
ATOM     59  C   UNL A   1      49.938  27.091  25.398  1.00  0.00     0.022 A 
BRANCH  56  60
ATOM     60  S   UNL A   1      48.980  27.151  22.781  1.00  0.00     0.124 S 
ATOM     61  O   UNL A   1      50.424  27.128  22.562  1.00  0.00    -0.237 OA
ATOM     62  O   UNL A   1      48.293  25.871  22.654  1.00  0.00    -0.237 OA
ATOM     63  O   UNL A   1      48.285  28.292  22.188  1.00  0.00    -0.744 OA
ENDBRANCH  56  60
ENDBRANCH  39  53
BRANCH  40  64
ATOM     64  C   UNL A   1      38.563  30.184  30.642  1.00  0.00     0.023 A 
ATOM     65  C   UNL A   1      37.576  30.922  29.971  1.00  0.00     0.031 A 
ATOM     66  C   UNL A   1      38.299  29.781  31.964  1.00  0.00     0.131 A 
ATOM     67  C   UNL A   1      36.393  31.278  30.638  1.00  0.00     0.055 A 
ATOM     68  C   UNL A   1      37.094  30.085  32.602  1.00  0.00     0.041 A 
ATOM     69  F   UNL A   1      39.207  29.075  32.655  1.00  0.00    -0.206 F 
ATOM     70  C   UNL A   1      36.138  30.851  31.943  1.00  0.00     0.022 A 
BRANCH  67  71
ATOM     71  S   UNL A   1      35.228  32.390  29.804  1.00  0.00     0.124 S 
ATOM     72  O   UNL A   1      34.712  31.536  28.741  1.00  0.00    -0.237 OA
ATOM     73  O   UNL A   1      34.295  32.713  30.879  1.00  0.00    -0.237 OA
ATOM     74  O   UNL A   1      36.073  33.498  29.362  1.00  0.00    -0.744 OA
ENDBRANCH  67  71
ENDBRANCH  40  64
BRANCH  52  75
ATOM     75  C   UNL A   1      44.466  33.787  29.701  1.00  0.00     0.023 A 
ATOM     76  C   UNL A   1      44.109  34.860  28.868  1.00  0.00     0.031 A 
ATOM     77  C   UNL A   1      45.203  34.069  30.866  1.00  0.00     0.131 A 
ATOM     78  C   UNL A   1      44.543  36.158  29.178  1.00  0.00     0.055 A 
ATOM     79  C   UNL A   1      45.572  35.370  31.206  1.00  0.00     0.041 A 
ATOM     80  F   UNL A   1      45.576  33.080  31.696  1.00  0.00    -0.206 F 
ATOM     81  C   UNL A   1      45.254  36.422  30.352  1.00  0.00     0.022 A 
BRANCH  78  82
ATOM     82  S   UNL A   1      44.255  37.482  27.973  1.00  0.00     0.124 S 
ATOM     83  O   UNL A   1      43.605  36.764  26.883  1.00  0.00    -0.237 OA
ATOM     84  O   UNL A   1      43.411  38.408  28.721  1.00  0.00    -0.237 OA
ATOM     85  O   UNL A   1      45.600  37.974  27.676  1.00  0.00    -0.744 OA
ENDBRANCH  78  82
ENDBRANCH  52  75
ENDBRANCH  26  27
ENDBRANCH  19  21
ENDBRANCH  18  19
ENDBRANCH  17  18
ENDBRANCH   1  17
TORSDOF 17
ENDMDL
MODEL 2
REMARK VINA RESULT:      -9.8      5.600      8.246
REMARK SMILES Cc1nc([C@H](C)[NH2+]CC(=O)OCCOC(=O)c2ccc(-c3c4nc(c(-c5cc(S(=O)(=O)[O-])ccc5F)c5ccc([nH]5)c(-c5cc(S(=O)(=O)[O-])ccc5F)c5nc(c(-c6cc(S(=O)(=O)[O-])ccc6F)c6ccc3[nH]6)C=C5)C=C4)cc2)cs1
REMARK SMILES IDX 12 1 11 2 9 3 10 4 8 5 7 6 5 9 6 10 4 11 1 12 2 13 3 14
REMARK SMILES IDX 81 15 80 16 13 17 14 18 15 19 16 20 17 21 18 22 79 23 19 24
REMARK SMILES IDX 78 25 20 26 21 27 22 28 72 29 23 30 77 31 71 32 73 33 24 34
REMARK SMILES IDX 76 35 70 36 69 37 25 39 57 40 37 41 56 42 38 43 41 44 55 45
REMARK SMILES IDX 74 46 39 47 40 48 54 50 75 51 42 52 26 53 27 54 35 55 28 56
REMARK SMILES IDX 34 57 36 58 33 59 29 60 30 61 31 62 32 63 58 64 59 65 67 66
REMARK SMILES IDX 60 67 66 68 68 69 65 70 61 71 62 72 63 73 64 74 43 75 44 76
REMARK SMILES IDX 52 77 45 78 51 79 53 80 50 81 46 82 47 83 48 84 49 85
REMARK H PARENT 7 7 7 8 73 38 41 49
REMARK Flexibility Score: inf
ROOT
ATOM      1  C   UNL A   1      31.504  28.625  24.972  1.00  0.00     0.274 C 
ENDROOT
BRANCH   1   2
ATOM      2  O   UNL A   1      32.250  28.290  23.791  1.00  0.00    -0.458 OA
BRANCH   2   3
ATOM      3  C   UNL A   1      31.578  27.705  22.770  1.00  0.00     0.361 C 
ATOM      4  O   UNL A   1      30.409  27.942  22.487  1.00  0.00    -0.245 OA
BRANCH   3   5
ATOM      5  C   UNL A   1      32.424  26.675  22.030  1.00  0.00     0.385 C 
BRANCH   5   6
ATOM      6  N   UNL A   1      31.961  25.284  22.151  1.00  0.00    -0.330 N 
ATOM      7  H   UNL A   1      31.054  25.215  21.689  1.00  0.00     0.347 HD
ATOM      8  H   UNL A   1      32.689  24.711  21.724  1.00  0.00     0.347 HD
BRANCH   6   9
ATOM      9  C   UNL A   1      31.809  24.780  23.518  1.00  0.00     0.230 C 
ATOM     10  C   UNL A   1      30.719  23.706  23.498  1.00  0.00     0.082 C 
BRANCH   9  11
ATOM     11  C   UNL A   1      33.107  24.221  24.048  1.00  0.00     0.108 A 
ATOM     12  C   UNL A   1      36.413  22.954  23.129  1.00  0.00     0.079 C 
ATOM     13  C   UNL A   1      35.156  23.389  23.798  1.00  0.00     0.090 A 
ATOM     14  N   UNL A   1      34.081  23.787  23.157  1.00  0.00    -0.240 NA
ATOM     15  S   UNL A   1      35.050  23.450  25.511  1.00  0.00    -0.127 S 
ATOM     16  C   UNL A   1      33.463  24.085  25.379  1.00  0.00     0.096 A 
ENDBRANCH   9  11
ENDBRANCH   6   9
ENDBRANCH   5   6
ENDBRANCH   3   5
ENDBRANCH   2   3
ENDBRANCH   1   2
BRANCH   1  17
ATOM     17  C   UNL A   1      31.793  30.069  25.385  1.00  0.00     0.275 C 
BRANCH  17  18
ATOM     18  O   UNL A   1      33.105  30.195  25.953  1.00  0.00    -0.458 OA
BRANCH  18  19
ATOM     19  C   UNL A   1      33.245  31.171  26.881  1.00  0.00     0.338 C 
ATOM     20  O   UNL A   1      32.449  32.041  27.177  1.00  0.00    -0.246 OA
BRANCH  19  21
ATOM     21  C   UNL A   1      34.479  30.917  27.625  1.00  0.00     0.060 A 
ATOM     22  C   UNL A   1      34.705  29.624  28.103  1.00  0.00     0.016 A 
ATOM     23  C   UNL A   1      35.397  31.945  27.844  1.00  0.00     0.016 A 
ATOM     24  C   UNL A   1      35.880  29.342  28.786  1.00  0.00     0.010 A 
ATOM     25  C   UNL A   1      36.576  31.658  28.523  1.00  0.00     0.010 A 
ATOM     26  C   UNL A   1      36.823  30.356  28.990  1.00  0.00    -0.014 A 
BRANCH  26  27
ATOM     27  C   UNL A   1      38.071  30.062  29.724  1.00  0.00     0.031 A 
ATOM     28  C   UNL A   1      39.059  29.104  29.133  1.00  0.00     0.074 A 
ATOM     29  C   UNL A   1      38.288  30.654  30.912  1.00  0.00     0.049 A 
ATOM     30  N   UNL A   1      40.158  28.627  29.650  1.00  0.00    -0.248 NA
ATOM     31  C   UNL A   1      38.755  28.609  27.782  1.00  0.00     0.031 C 
ATOM     32  C   UNL A   1      37.395  31.631  31.541  1.00  0.00     0.029 A 
ATOM     33  N   UNL A   1      39.317  30.518  31.804  1.00  0.00    -0.354 N 
ATOM     34  C   UNL A   1      40.677  27.761  28.693  1.00  0.00     0.074 A 
ATOM     35  C   UNL A   1      39.746  27.752  27.584  1.00  0.00     0.031 C 
ATOM     36  C   UNL A   1      37.921  32.009  32.716  1.00  0.00     0.029 A 
ATOM     37  C   UNL A   1      39.150  31.261  32.950  1.00  0.00     0.049 A 
ATOM     38  H   UNL A   1      40.100  29.945  31.643  1.00  0.00     0.167 HD
ATOM     39  C   UNL A   1      41.829  27.049  28.744  1.00  0.00     0.034 A 
ATOM     40  C   UNL A   1      39.895  31.302  34.072  1.00  0.00     0.034 A 
ATOM     41  C   UNL A   1      42.722  27.075  29.878  1.00  0.00     0.049 A 
ATOM     42  C   UNL A   1      41.127  30.435  34.140  1.00  0.00     0.074 A 
ATOM     43  C   UNL A   1      43.919  26.402  30.053  1.00  0.00     0.029 A 
ATOM     44  N   UNL A   1      42.508  27.809  31.041  1.00  0.00    -0.354 N 
ATOM     45  N   UNL A   1      41.611  29.615  33.233  1.00  0.00    -0.248 NA
ATOM     46  C   UNL A   1      41.914  30.500  35.375  1.00  0.00     0.031 C 
ATOM     47  C   UNL A   1      44.385  26.668  31.344  1.00  0.00     0.029 A 
ATOM     48  C   UNL A   1      43.530  27.578  31.948  1.00  0.00     0.049 A 
ATOM     49  H   UNL A   1      41.741  28.407  31.196  1.00  0.00     0.167 HD
ATOM     50  C   UNL A   1      42.779  29.091  33.779  1.00  0.00     0.074 A 
ATOM     51  C   UNL A   1      42.931  29.702  35.085  1.00  0.00     0.031 C 
ATOM     52  C   UNL A   1      43.651  28.193  33.251  1.00  0.00     0.034 A 
BRANCH  39  53
ATOM     53  C   UNL A   1      42.139  26.147  27.572  1.00  0.00     0.023 A 
ATOM     54  C   UNL A   1      41.680  24.819  27.517  1.00  0.00     0.031 A 
ATOM     55  C   UNL A   1      42.953  26.604  26.521  1.00  0.00     0.131 A 
ATOM     56  C   UNL A   1      42.102  23.974  26.478  1.00  0.00     0.055 A 
ATOM     57  C   UNL A   1      43.299  25.783  25.445  1.00  0.00     0.041 A 
ATOM     58  F   UNL A   1      43.445  27.853  26.529  1.00  0.00    -0.206 F 
ATOM     59  C   UNL A   1      42.888  24.454  25.428  1.00  0.00     0.022 A 
BRANCH  56  60
ATOM     60  S   UNL A   1      41.748  22.199  26.605  1.00  0.00     0.124 S 
ATOM     61  O   UNL A   1      42.442  21.847  27.842  1.00  0.00    -0.237 OA
ATOM     62  O   UNL A   1      40.291  22.172  26.660  1.00  0.00    -0.237 OA
ATOM     63  O   UNL A   1      42.337  21.644  25.388  1.00  0.00    -0.744 OA
ENDBRANCH  56  60
ENDBRANCH  39  53
BRANCH  40  64
ATOM     64  C   UNL A   1      39.486  32.156  35.224  1.00  0.00     0.023 A 
ATOM     65  C   UNL A   1      38.763  31.621  36.301  1.00  0.00     0.031 A 
ATOM     66  C   UNL A   1      39.779  33.532  35.248  1.00  0.00     0.131 A 
ATOM     67  C   UNL A   1      38.315  32.462  37.331  1.00  0.00     0.055 A 
ATOM     68  C   UNL A   1      39.383  34.354  36.306  1.00  0.00     0.041 A 
ATOM     69  F   UNL A   1      40.466  34.099  34.244  1.00  0.00    -0.206 F 
ATOM     70  C   UNL A   1      38.633  33.822  37.349  1.00  0.00     0.022 A 
BRANCH  67  71
ATOM     71  S   UNL A   1      37.224  31.770  38.604  1.00  0.00     0.124 S 
ATOM     72  O   UNL A   1      36.067  32.653  38.515  1.00  0.00    -0.237 OA
ATOM     73  O   UNL A   1      37.028  30.405  38.127  1.00  0.00    -0.237 OA
ATOM     74  O   UNL A   1      38.011  31.892  39.830  1.00  0.00    -0.744 OA
ENDBRANCH  67  71
ENDBRANCH  40  64
BRANCH  52  75
ATOM     75  C   UNL A   1      44.870  27.865  34.078  1.00  0.00     0.023 A 
ATOM     76  C   UNL A   1      44.894  26.772  34.960  1.00  0.00     0.031 A 
ATOM     77  C   UNL A   1      46.020  28.670  33.987  1.00  0.00     0.131 A 
ATOM     78  C   UNL A   1      46.023  26.549  35.764  1.00  0.00     0.055 A 
ATOM     79  C   UNL A   1      47.165  28.402  34.738  1.00  0.00     0.041 A 
ATOM     80  F   UNL A   1      46.050  29.730  33.164  1.00  0.00    -0.206 F 
ATOM     81  C   UNL A   1      47.165  27.345  35.643  1.00  0.00     0.022 A 
BRANCH  78  82
ATOM     82  S   UNL A   1      45.939  25.269  37.045  1.00  0.00     0.124 S 
ATOM     83  O   UNL A   1      46.648  25.901  38.152  1.00  0.00    -0.237 OA
ATOM     84  O   UNL A   1      44.501  25.098  37.223  1.00  0.00    -0.237 OA
ATOM     85  O   UNL A   1      46.627  24.130  36.438  1.00  0.00    -0.744 OA
ENDBRANCH  78  82
ENDBRANCH  52  75
ENDBRANCH  26  27
ENDBRANCH  19  21
ENDBRANCH  18  19
ENDBRANCH  17  18
ENDBRANCH   1  17
TORSDOF 17
ENDMDL
MODEL 3
REMARK VINA RESULT:      -9.6      6.356      9.027
REMARK SMILES Cc1nc([C@H](C)[NH2+]CC(=O)OCCOC(=O)c2ccc(-c3c4nc(c(-c5cc(S(=O)(=O)[O-])ccc5F)c5ccc([nH]5)c(-c5cc(S(=O)(=O)[O-])ccc5F)c5nc(c(-c6cc(S(=O)(=O)[O-])ccc6F)c6ccc3[nH]6)C=C5)C=C4)cc2)cs1
REMARK SMILES IDX 12 1 11 2 9 3 10 4 8 5 7 6 5 9 6 10 4 11 1 12 2 13 3 14
REMARK SMILES IDX 81 15 80 16 13 17 14 18 15 19 16 20 17 21 18 22 79 23 19 24
REMARK SMILES IDX 78 25 20 26 21 27 22 28 72 29 23 30 77 31 71 32 73 33 24 34
REMARK SMILES IDX 76 35 70 36 69 37 25 39 57 40 37 41 56 42 38 43 41 44 55 45
REMARK SMILES IDX 74 46 39 47 40 48 54 50 75 51 42 52 26 53 27 54 35 55 28 56
REMARK SMILES IDX 34 57 36 58 33 59 29 60 30 61 31 62 32 63 58 64 59 65 67 66
REMARK SMILES IDX 60 67 66 68 68 69 65 70 61 71 62 72 63 73 64 74 43 75 44 76
REMARK SMILES IDX 52 77 45 78 51 79 53 80 50 81 46 82 47 83 48 84 49 85
REMARK H PARENT 7 7 7 8 73 38 41 49
REMARK Flexibility Score: inf
ROOT
ATOM      1  C   UNL A   1      33.148  28.439  25.010  1.00  0.00     0.274 C 
ENDROOT
BRANCH   1   2
ATOM      2  O   UNL A   1      32.389  27.582  24.142  1.00  0.00    -0.458 OA
BRANCH   2   3
ATOM      3  C   UNL A   1      31.238  27.058  24.628  1.00  0.00     0.361 C 
ATOM      4  O   UNL A   1      31.145  26.467  25.698  1.00  0.00    -0.245 OA
BRANCH   3   5
ATOM      5  C   UNL A   1      30.064  27.244  23.672  1.00  0.00     0.385 C 
BRANCH   5   6
ATOM      6  N   UNL A   1      29.478  28.592  23.656  1.00  0.00    -0.330 N 
ATOM      7  H   UNL A   1      29.083  28.772  24.579  1.00  0.00     0.347 HD
ATOM      8  H   UNL A   1      30.239  29.222  23.400  1.00  0.00     0.347 HD
BRANCH   6   9
ATOM      9  C   UNL A   1      28.424  28.817  22.664  1.00  0.00     0.230 C 
ATOM     10  C   UNL A   1      27.096  28.387  23.292  1.00  0.00     0.082 C 
BRANCH   9  11
ATOM     11  C   UNL A   1      28.373  30.263  22.232  1.00  0.00     0.108 A 
ATOM     12  C   UNL A   1      29.121  33.706  23.216  1.00  0.00     0.079 C 
ATOM     13  C   UNL A   1      28.692  32.442  22.557  1.00  0.00     0.090 A 
ATOM     14  N   UNL A   1      28.748  31.260  23.126  1.00  0.00    -0.240 NA
ATOM     15  S   UNL A   1      28.128  32.446  20.935  1.00  0.00    -0.127 S 
ATOM     16  C   UNL A   1      27.981  30.739  20.993  1.00  0.00     0.096 A 
ENDBRANCH   9  11
ENDBRANCH   6   9
ENDBRANCH   5   6
ENDBRANCH   3   5
ENDBRANCH   2   3
ENDBRANCH   1   2
BRANCH   1  17
ATOM     17  C   UNL A   1      32.309  29.651  25.417  1.00  0.00     0.275 C 
BRANCH  17  18
ATOM     18  O   UNL A   1      32.489  29.965  26.805  1.00  0.00    -0.458 OA
BRANCH  18  19
ATOM     19  C   UNL A   1      33.064  31.165  27.061  1.00  0.00     0.338 C 
ATOM     20  O   UNL A   1      32.587  32.271  26.901  1.00  0.00    -0.246 OA
BRANCH  19  21
ATOM     21  C   UNL A   1      34.337  30.924  27.741  1.00  0.00     0.060 A 
ATOM     22  C   UNL A   1      35.171  32.018  27.985  1.00  0.00     0.016 A 
ATOM     23  C   UNL A   1      34.697  29.634  28.131  1.00  0.00     0.016 A 
ATOM     24  C   UNL A   1      36.371  31.829  28.656  1.00  0.00     0.010 A 
ATOM     25  C   UNL A   1      35.897  29.448  28.808  1.00  0.00     0.010 A 
ATOM     26  C   UNL A   1      36.734  30.545  29.078  1.00  0.00    -0.014 A 
BRANCH  26  27
ATOM     27  C   UNL A   1      38.013  30.337  29.785  1.00  0.00     0.031 A 
ATOM     28  C   UNL A   1      39.071  29.488  29.150  1.00  0.00     0.074 A 
ATOM     29  C   UNL A   1      38.196  30.907  30.990  1.00  0.00     0.049 A 
ATOM     30  N   UNL A   1      40.215  29.092  29.637  1.00  0.00    -0.248 NA
ATOM     31  C   UNL A   1      38.791  29.012  27.787  1.00  0.00     0.031 C 
ATOM     32  C   UNL A   1      37.232  31.782  31.662  1.00  0.00     0.029 A 
ATOM     33  N   UNL A   1      39.247  30.833  31.864  1.00  0.00    -0.354 N 
ATOM     34  C   UNL A   1      40.793  28.306  28.645  1.00  0.00     0.074 A 
ATOM     35  C   UNL A   1      39.849  28.252  27.548  1.00  0.00     0.031 C 
ATOM     36  C   UNL A   1      37.741  32.166  32.843  1.00  0.00     0.029 A 
ATOM     37  C   UNL A   1      39.034  31.521  33.036  1.00  0.00     0.049 A 
ATOM     38  H   UNL A   1      40.074  30.335  31.674  1.00  0.00     0.167 HD
ATOM     39  C   UNL A   1      42.002  27.696  28.658  1.00  0.00     0.034 A 
ATOM     40  C   UNL A   1      39.790  31.590  34.150  1.00  0.00     0.034 A 
ATOM     41  C   UNL A   1      42.907  27.762  29.781  1.00  0.00     0.049 A 
ATOM     42  C   UNL A   1      41.093  30.831  34.172  1.00  0.00     0.074 A 
ATOM     43  C   UNL A   1      44.160  27.191  29.918  1.00  0.00     0.029 A 
ATOM     44  N   UNL A   1      42.649  28.437  30.970  1.00  0.00    -0.354 N 
ATOM     45  N   UNL A   1      41.632  30.086  33.232  1.00  0.00    -0.248 NA
ATOM     46  C   UNL A   1      41.890  30.925  35.400  1.00  0.00     0.031 C 
ATOM     47  C   UNL A   1      44.621  27.455  31.212  1.00  0.00     0.029 A 
ATOM     48  C   UNL A   1      43.701  28.267  31.857  1.00  0.00     0.049 A 
ATOM     49  H   UNL A   1      41.835  28.961  31.155  1.00  0.00     0.167 HD
ATOM     50  C   UNL A   1      42.849  29.649  33.746  1.00  0.00     0.074 A 
ATOM     51  C   UNL A   1      42.968  30.228  35.070  1.00  0.00     0.031 C 
ATOM     52  C   UNL A   1      43.787  28.848  33.177  1.00  0.00     0.034 A 
BRANCH  39  53
ATOM     53  C   UNL A   1      42.372  26.863  27.453  1.00  0.00     0.023 A 
ATOM     54  C   UNL A   1      42.253  25.461  27.456  1.00  0.00     0.031 A 
ATOM     55  C   UNL A   1      42.902  27.473  26.303  1.00  0.00     0.131 A 
ATOM     56  C   UNL A   1      42.733  24.715  26.368  1.00  0.00     0.055 A 
ATOM     57  C   UNL A   1      43.297  26.731  25.188  1.00  0.00     0.041 A 
ATOM     58  F   UNL A   1      43.065  28.805  26.248  1.00  0.00    -0.206 F 
ATOM     59  C   UNL A   1      43.230  25.341  25.223  1.00  0.00     0.022 A 
BRANCH  56  60
ATOM     60  S   UNL A   1      42.850  22.912  26.536  1.00  0.00     0.124 S 
ATOM     61  O   UNL A   1      44.284  22.727  26.744  1.00  0.00    -0.237 OA
ATOM     62  O   UNL A   1      41.997  22.647  27.690  1.00  0.00    -0.237 OA
ATOM     63  O   UNL A   1      42.343  22.414  25.259  1.00  0.00    -0.744 OA
ENDBRANCH  56  60
ENDBRANCH  39  53
BRANCH  40  64
ATOM     64  C   UNL A   1      39.327  32.368  35.334  1.00  0.00     0.023 A 
ATOM     65  C   UNL A   1      39.761  33.685  35.549  1.00  0.00     0.031 A 
ATOM     66  C   UNL A   1      38.472  31.792  36.293  1.00  0.00     0.131 A 
ATOM     67  C   UNL A   1      39.381  34.366  36.716  1.00  0.00     0.055 A 
ATOM     68  C   UNL A   1      38.048  32.496  37.422  1.00  0.00     0.041 A 
ATOM     69  F   UNL A   1      38.028  30.535  36.141  1.00  0.00    -0.206 F 
ATOM     70  C   UNL A   1      38.514  33.786  37.646  1.00  0.00     0.022 A 
BRANCH  67  71
ATOM     71  S   UNL A   1      40.113  35.991  37.050  1.00  0.00     0.124 S 
ATOM     72  O   UNL A   1      39.771  36.725  35.837  1.00  0.00    -0.237 OA
ATOM     73  O   UNL A   1      39.413  36.397  38.264  1.00  0.00    -0.237 OA
ATOM     74  O   UNL A   1      41.534  35.695  37.222  1.00  0.00    -0.744 OA
ENDBRANCH  67  71
ENDBRANCH  40  64
BRANCH  52  75
ATOM     75  C   UNL A   1      45.043  28.600  33.977  1.00  0.00     0.023 A 
ATOM     76  C   UNL A   1      45.180  27.478  34.813  1.00  0.00     0.031 A 
ATOM     77  C   UNL A   1      46.112  29.511  33.910  1.00  0.00     0.131 A 
ATOM     78  C   UNL A   1      46.336  27.329  35.595  1.00  0.00     0.055 A 
ATOM     79  C   UNL A   1      47.287  29.320  34.637  1.00  0.00     0.041 A 
ATOM     80  F   UNL A   1      46.033  30.603  33.131  1.00  0.00    -0.206 F 
ATOM     81  C   UNL A   1      47.398  28.231  35.496  1.00  0.00     0.022 A 
BRANCH  78  82
ATOM     82  S   UNL A   1      46.388  25.995  36.822  1.00  0.00     0.124 S 
ATOM     83  O   UNL A   1      47.279  26.549  37.835  1.00  0.00    -0.237 OA
ATOM     84  O   UNL A   1      44.986  25.868  37.206  1.00  0.00    -0.237 OA
ATOM     85  O   UNL A   1      46.929  24.861  36.073  1.00  0.00    -0.744 OA
ENDBRANCH  78  82
ENDBRANCH  52  75
ENDBRANCH  26  27
ENDBRANCH  19  21
ENDBRANCH  18  19
ENDBRANCH  17  18
ENDBRANCH   1  17
TORSDOF 17
ENDMDL
