MODEL 1
REMARK VINA RESULT:     -12.6      0.000      0.000
REMARK SMILES O=C(OCCOC(=O)c1c(S(=O)(=O)N2CCCCC2)sc2c1CC[NH2+]C2)c1ccc(-c2c3nc(c(-c4cc(S(=O)(=O)[O-])ccc4F)c4ccc([nH]4)c(-c4cc(S(=O)(=O)[O-])ccc4F)c4nc(c(-c5cc(S(=O)(=O)[O-])ccc5F)c5ccc2[nH]5)C=C4)C=C3)cc1
REMARK SMILES IDX 4 1 3 2 2 3 1 4 27 5 28 6 89 7 29 8 88 9 30 10 31 11 32 12
REMARK SMILES IDX 82 13 33 14 87 15 81 16 83 17 34 18 86 19 80 20 79 21 35 23
REMARK SMILES IDX 67 24 47 25 66 26 48 27 51 28 65 29 84 30 49 31 50 32 64 34
REMARK SMILES IDX 85 35 52 36 36 37 37 38 45 39 38 40 44 41 46 42 43 43 39 44
REMARK SMILES IDX 40 45 41 46 42 47 68 48 69 49 77 50 70 51 76 52 78 53 75 54
REMARK SMILES IDX 71 55 72 56 73 57 74 58 53 59 54 60 62 61 55 62 61 63 63 64
REMARK SMILES IDX 60 65 56 66 57 67 58 68 59 69 5 70 6 71 7 72 8 73 9 74 10 75
REMARK SMILES IDX 22 76 20 77 21 78 23 79 26 80 24 81 25 82 11 85 12 86 13 87
REMARK SMILES IDX 14 88 15 89 19 90 16 91 18 92 17 93
REMARK H PARENT 83 22 51 33 25 83 25 84
REMARK Flexibility Score: inf
ROOT
ATOM      1  C   UNL A   1      34.577  29.314  27.502  1.00  0.00     0.275 C 
ENDROOT
BRANCH   1   2
ATOM      2  O   UNL A   1      35.979  29.604  27.590  1.00  0.00    -0.458 OA
BRANCH   2   3
ATOM      3  C   UNL A   1      36.542  29.622  28.810  1.00  0.00     0.338 C 
ATOM      4  O   UNL A   1      35.928  29.873  29.836  1.00  0.00    -0.246 OA
BRANCH   3   5
ATOM      5  C   UNL A   1      37.928  29.114  28.825  1.00  0.00     0.060 A 
ATOM      6  C   UNL A   1      38.452  28.227  29.775  1.00  0.00     0.016 A 
ATOM      7  C   UNL A   1      38.699  29.503  27.734  1.00  0.00     0.016 A 
ATOM      8  C   UNL A   1      39.765  27.785  29.654  1.00  0.00     0.010 A 
ATOM      9  C   UNL A   1      39.945  28.957  27.546  1.00  0.00     0.010 A 
ATOM     10  C   UNL A   1      40.520  28.179  28.545  1.00  0.00    -0.014 A 
BRANCH  10  11
ATOM     11  C   UNL A   1      41.900  27.737  28.376  1.00  0.00     0.031 A 
ATOM     12  C   UNL A   1      42.067  26.455  27.635  1.00  0.00     0.074 A 
ATOM     13  C   UNL A   1      42.941  28.529  28.724  1.00  0.00     0.049 A 
ATOM     14  N   UNL A   1      42.461  25.321  28.106  1.00  0.00    -0.248 NA
ATOM     15  C   UNL A   1      41.582  26.368  26.249  1.00  0.00     0.031 C 
ATOM     16  C   UNL A   1      42.914  29.895  29.267  1.00  0.00     0.029 A 
ATOM     17  N   UNL A   1      44.272  28.317  28.564  1.00  0.00    -0.354 N 
ATOM     18  C   UNL A   1      42.544  24.452  27.020  1.00  0.00     0.074 A 
ATOM     19  C   UNL A   1      41.797  25.082  25.965  1.00  0.00     0.031 C 
ATOM     20  C   UNL A   1      44.130  30.469  29.136  1.00  0.00     0.029 A 
ATOM     21  C   UNL A   1      45.067  29.456  28.692  1.00  0.00     0.049 A 
ATOM     22  H   UNL A   1      44.648  27.427  28.373  1.00  0.00     0.167 HD
ATOM     23  C   UNL A   1      43.437  23.422  27.017  1.00  0.00     0.034 A 
ATOM     24  C   UNL A   1      46.407  29.567  28.472  1.00  0.00     0.034 A 
ATOM     25  C   UNL A   1      43.920  23.168  28.360  1.00  0.00     0.049 A 
ATOM     26  C   UNL A   1      46.954  28.194  28.621  1.00  0.00     0.074 A 
ATOM     27  C   UNL A   1      43.314  22.829  29.555  1.00  0.00     0.029 A 
ATOM     28  N   UNL A   1      45.157  23.667  28.709  1.00  0.00    -0.354 N 
ATOM     29  N   UNL A   1      46.916  27.545  29.754  1.00  0.00    -0.248 NA
ATOM     30  C   UNL A   1      47.025  27.357  27.432  1.00  0.00     0.031 C 
ATOM     31  C   UNL A   1      43.972  23.633  30.534  1.00  0.00     0.029 A 
ATOM     32  C   UNL A   1      45.011  24.326  29.906  1.00  0.00     0.049 A 
ATOM     33  H   UNL A   1      45.991  23.569  28.195  1.00  0.00     0.167 HD
ATOM     34  C   UNL A   1      46.507  26.263  29.421  1.00  0.00     0.074 A 
ATOM     35  C   UNL A   1      46.678  26.181  27.967  1.00  0.00     0.031 C 
ATOM     36  C   UNL A   1      45.787  25.492  30.293  1.00  0.00     0.034 A 
BRANCH  23  37
ATOM     37  C   UNL A   1      44.186  22.918  25.799  1.00  0.00     0.023 A 
ATOM     38  C   UNL A   1      44.180  21.525  25.586  1.00  0.00     0.031 A 
ATOM     39  C   UNL A   1      45.134  23.646  25.047  1.00  0.00     0.131 A 
ATOM     40  C   UNL A   1      45.166  20.908  24.799  1.00  0.00     0.055 A 
ATOM     41  C   UNL A   1      46.074  23.032  24.211  1.00  0.00     0.041 A 
ATOM     42  F   UNL A   1      45.269  24.973  25.134  1.00  0.00    -0.206 F 
ATOM     43  C   UNL A   1      46.122  21.652  24.115  1.00  0.00     0.022 A 
BRANCH  40  44
ATOM     44  S   UNL A   1      45.295  19.103  24.857  1.00  0.00     0.124 S 
ATOM     45  O   UNL A   1      46.630  18.925  25.417  1.00  0.00    -0.237 OA
ATOM     46  O   UNL A   1      44.177  18.751  25.727  1.00  0.00    -0.237 OA
ATOM     47  O   UNL A   1      45.144  18.708  23.458  1.00  0.00    -0.744 OA
ENDBRANCH  40  44
ENDBRANCH  23  37
BRANCH  24  48
ATOM     48  C   UNL A   1      47.108  30.688  27.774  1.00  0.00     0.023 A 
ATOM     49  C   UNL A   1      46.439  31.738  27.105  1.00  0.00     0.031 A 
ATOM     50  C   UNL A   1      48.499  30.855  27.970  1.00  0.00     0.131 A 
ATOM     51  C   UNL A   1      47.157  32.884  26.670  1.00  0.00     0.055 A 
ATOM     52  C   UNL A   1      49.198  31.988  27.546  1.00  0.00     0.041 A 
ATOM     53  F   UNL A   1      49.216  29.953  28.659  1.00  0.00    -0.206 F 
ATOM     54  C   UNL A   1      48.528  33.013  26.901  1.00  0.00     0.022 A 
BRANCH  51  55
ATOM     55  S   UNL A   1      46.303  34.274  25.848  1.00  0.00     0.124 S 
ATOM     56  O   UNL A   1      45.823  35.059  26.979  1.00  0.00    -0.237 OA
ATOM     57  O   UNL A   1      47.368  34.870  25.050  1.00  0.00    -0.237 OA
ATOM     58  O   UNL A   1      45.251  33.620  25.068  1.00  0.00    -0.744 OA
ENDBRANCH  51  55
ENDBRANCH  24  48
BRANCH  36  59
ATOM     59  C   UNL A   1      45.629  25.977  31.725  1.00  0.00     0.023 A 
ATOM     60  C   UNL A   1      44.462  26.572  32.264  1.00  0.00     0.031 A 
ATOM     61  C   UNL A   1      46.680  25.696  32.615  1.00  0.00     0.131 A 
ATOM     62  C   UNL A   1      44.390  26.873  33.641  1.00  0.00     0.055 A 
ATOM     63  C   UNL A   1      46.598  25.975  33.979  1.00  0.00     0.041 A 
ATOM     64  F   UNL A   1      47.802  25.102  32.175  1.00  0.00    -0.206 F 
ATOM     65  C   UNL A   1      45.454  26.571  34.496  1.00  0.00     0.022 A 
BRANCH  62  66
ATOM     66  S   UNL A   1      42.916  27.683  34.352  1.00  0.00     0.124 S 
ATOM     67  O   UNL A   1      42.295  28.332  33.204  1.00  0.00    -0.237 OA
ATOM     68  O   UNL A   1      42.181  26.558  34.924  1.00  0.00    -0.237 OA
ATOM     69  O   UNL A   1      43.477  28.604  35.343  1.00  0.00    -0.744 OA
ENDBRANCH  62  66
ENDBRANCH  36  59
ENDBRANCH  10  11
ENDBRANCH   3   5
ENDBRANCH   2   3
ENDBRANCH   1   2
BRANCH   1  70
ATOM     70  C   UNL A   1      34.096  28.502  26.288  1.00  0.00     0.275 C 
BRANCH  70  71
ATOM     71  O   UNL A   1      33.376  27.305  26.664  1.00  0.00    -0.458 OA
BRANCH  71  72
ATOM     72  C   UNL A   1      32.013  27.411  26.799  1.00  0.00     0.340 C 
ATOM     73  O   UNL A   1      31.422  27.613  27.846  1.00  0.00    -0.246 OA
BRANCH  72  74
ATOM     74  C   UNL A   1      31.318  27.260  25.519  1.00  0.00     0.095 A 
ATOM     75  C   UNL A   1      30.945  26.010  25.035  1.00  0.00     0.150 A 
ATOM     76  C   UNL A   1      30.804  28.308  24.656  1.00  0.00    -0.007 A 
ATOM     77  S   UNL A   1      30.303  26.120  23.458  1.00  0.00    -0.120 S 
ATOM     78  C   UNL A   1      30.197  27.791  23.530  1.00  0.00     0.064 A 
ATOM     79  C   UNL A   1      30.902  29.794  24.812  1.00  0.00     0.099 C 
ATOM     80  C   UNL A   1      29.523  28.590  22.464  1.00  0.00     0.308 C 
ATOM     81  C   UNL A   1      30.164  30.577  23.694  1.00  0.00     0.265 C 
ATOM     82  N   UNL A   1      30.121  29.924  22.372  1.00  0.00    -0.342 N 
ATOM     83  H   UNL A   1      31.071  29.838  22.012  1.00  0.00     0.346 HD
ATOM     84  H   UNL A   1      29.551  30.493  21.747  1.00  0.00     0.346 HD
BRANCH  75  85
ATOM     85  S   UNL A   1      30.988  24.383  25.781  1.00  0.00     0.253 S 
ATOM     86  O   UNL A   1      30.099  24.461  26.915  1.00  0.00    -0.206 OA
ATOM     87  O   UNL A   1      30.705  23.494  24.668  1.00  0.00    -0.206 OA
BRANCH  85  88
ATOM     88  N   UNL A   1      32.580  24.000  26.340  1.00  0.00    -0.197 NA
ATOM     89  C   UNL A   1      32.641  22.790  27.205  1.00  0.00     0.102 C 
ATOM     90  C   UNL A   1      33.655  24.182  25.325  1.00  0.00     0.102 C 
ATOM     91  C   UNL A   1      34.053  22.479  27.680  1.00  0.00     0.017 C 
ATOM     92  C   UNL A   1      35.035  23.775  25.822  1.00  0.00     0.017 C 
ATOM     93  C   UNL A   1      35.018  22.419  26.508  1.00  0.00     0.003 C 
ENDBRANCH  85  88
ENDBRANCH  75  85
ENDBRANCH  72  74
ENDBRANCH  71  72
ENDBRANCH  70  71
ENDBRANCH   1  70
TORSDOF 16
ENDMDL
MODEL 2
REMARK VINA RESULT:     -12.4      2.451      7.125
REMARK SMILES O=C(OCCOC(=O)c1c(S(=O)(=O)N2CCCCC2)sc2c1CC[NH2+]C2)c1ccc(-c2c3nc(c(-c4cc(S(=O)(=O)[O-])ccc4F)c4ccc([nH]4)c(-c4cc(S(=O)(=O)[O-])ccc4F)c4nc(c(-c5cc(S(=O)(=O)[O-])ccc5F)c5ccc2[nH]5)C=C4)C=C3)cc1
REMARK SMILES IDX 4 1 3 2 2 3 1 4 27 5 28 6 89 7 29 8 88 9 30 10 31 11 32 12
REMARK SMILES IDX 82 13 33 14 87 15 81 16 83 17 34 18 86 19 80 20 79 21 35 23
REMARK SMILES IDX 67 24 47 25 66 26 48 27 51 28 65 29 84 30 49 31 50 32 64 34
REMARK SMILES IDX 85 35 52 36 36 37 37 38 45 39 38 40 44 41 46 42 43 43 39 44
REMARK SMILES IDX 40 45 41 46 42 47 68 48 69 49 77 50 70 51 76 52 78 53 75 54
REMARK SMILES IDX 71 55 72 56 73 57 74 58 53 59 54 60 62 61 55 62 61 63 63 64
REMARK SMILES IDX 60 65 56 66 57 67 58 68 59 69 5 70 6 71 7 72 8 73 9 74 10 75
REMARK SMILES IDX 22 76 20 77 21 78 23 79 26 80 24 81 25 82 11 85 12 86 13 87
REMARK SMILES IDX 14 88 15 89 19 90 16 91 18 92 17 93
REMARK H PARENT 83 22 51 33 25 83 25 84
REMARK Flexibility Score: inf
ROOT
ATOM      1  C   UNL A   1      33.765  30.845  27.469  1.00  0.00     0.275 C 
ENDROOT
BRANCH   1   2
ATOM      2  O   UNL A   1      35.174  31.007  27.250  1.00  0.00    -0.458 OA
BRANCH   2   3
ATOM      3  C   UNL A   1      35.883  31.659  28.186  1.00  0.00     0.338 C 
ATOM      4  O   UNL A   1      35.469  32.633  28.796  1.00  0.00    -0.246 OA
BRANCH   3   5
ATOM      5  C   UNL A   1      37.136  30.972  28.558  1.00  0.00     0.060 A 
ATOM      6  C   UNL A   1      38.235  31.579  29.180  1.00  0.00     0.016 A 
ATOM      7  C   UNL A   1      37.130  29.598  28.338  1.00  0.00     0.016 A 
ATOM      8  C   UNL A   1      39.344  30.811  29.522  1.00  0.00     0.010 A 
ATOM      9  C   UNL A   1      38.167  28.825  28.801  1.00  0.00     0.010 A 
ATOM     10  C   UNL A   1      39.314  29.431  29.302  1.00  0.00    -0.014 A 
BRANCH  10  11
ATOM     11  C   UNL A   1      40.453  28.586  29.649  1.00  0.00     0.031 A 
ATOM     12  C   UNL A   1      40.705  28.434  31.109  1.00  0.00     0.074 A 
ATOM     13  C   UNL A   1      41.110  27.871  28.706  1.00  0.00     0.049 A 
ATOM     14  N   UNL A   1      41.696  28.904  31.788  1.00  0.00    -0.248 NA
ATOM     15  C   UNL A   1      39.659  27.837  31.952  1.00  0.00     0.031 C 
ATOM     16  C   UNL A   1      40.829  27.769  27.267  1.00  0.00     0.029 A 
ATOM     17  N   UNL A   1      42.126  26.981  28.857  1.00  0.00    -0.354 N 
ATOM     18  C   UNL A   1      41.545  28.425  33.087  1.00  0.00     0.074 A 
ATOM     19  C   UNL A   1      40.185  27.965  33.172  1.00  0.00     0.031 C 
ATOM     20  C   UNL A   1      41.460  26.694  26.747  1.00  0.00     0.029 A 
ATOM     21  C   UNL A   1      42.346  26.151  27.758  1.00  0.00     0.049 A 
ATOM     22  H   UNL A   1      42.666  26.928  29.679  1.00  0.00     0.167 HD
ATOM     23  C   UNL A   1      42.631  28.216  33.884  1.00  0.00     0.034 A 
ATOM     24  C   UNL A   1      43.209  25.101  27.667  1.00  0.00     0.034 A 
ATOM     25  C   UNL A   1      43.789  28.907  33.352  1.00  0.00     0.049 A 
ATOM     26  C   UNL A   1      44.245  25.340  28.704  1.00  0.00     0.074 A 
ATOM     27  C   UNL A   1      44.075  30.227  33.063  1.00  0.00     0.029 A 
ATOM     28  N   UNL A   1      44.712  28.170  32.641  1.00  0.00    -0.354 N 
ATOM     29  N   UNL A   1      45.055  26.365  28.660  1.00  0.00    -0.248 NA
ATOM     30  C   UNL A   1      44.020  24.787  30.031  1.00  0.00     0.031 C 
ATOM     31  C   UNL A   1      44.762  30.181  31.811  1.00  0.00     0.029 A 
ATOM     32  C   UNL A   1      44.956  28.840  31.467  1.00  0.00     0.049 A 
ATOM     33  H   UNL A   1      45.122  27.320  32.924  1.00  0.00     0.167 HD
ATOM     34  C   UNL A   1      45.079  26.859  29.956  1.00  0.00     0.074 A 
ATOM     35  C   UNL A   1      44.495  25.792  30.775  1.00  0.00     0.031 C 
ATOM     36  C   UNL A   1      45.284  28.188  30.210  1.00  0.00     0.034 A 
BRANCH  23  37
ATOM     37  C   UNL A   1      42.775  27.088  34.888  1.00  0.00     0.023 A 
ATOM     38  C   UNL A   1      43.573  25.994  34.498  1.00  0.00     0.031 A 
ATOM     39  C   UNL A   1      41.958  26.875  36.020  1.00  0.00     0.131 A 
ATOM     40  C   UNL A   1      43.428  24.738  35.108  1.00  0.00     0.055 A 
ATOM     41  C   UNL A   1      41.866  25.637  36.667  1.00  0.00     0.041 A 
ATOM     42  F   UNL A   1      41.143  27.810  36.516  1.00  0.00    -0.206 F 
ATOM     43  C   UNL A   1      42.571  24.548  36.187  1.00  0.00     0.022 A 
BRANCH  40  44
ATOM     44  S   UNL A   1      44.230  23.314  34.327  1.00  0.00     0.124 S 
ATOM     45  O   UNL A   1      43.308  23.026  33.234  1.00  0.00    -0.237 OA
ATOM     46  O   UNL A   1      45.525  23.872  33.949  1.00  0.00    -0.237 OA
ATOM     47  O   UNL A   1      44.267  22.319  35.395  1.00  0.00    -0.744 OA
ENDBRANCH  40  44
ENDBRANCH  23  37
BRANCH  24  48
ATOM     48  C   UNL A   1      42.941  23.778  27.026  1.00  0.00     0.023 A 
ATOM     49  C   UNL A   1      43.879  23.087  26.225  1.00  0.00     0.031 A 
ATOM     50  C   UNL A   1      41.789  23.051  27.408  1.00  0.00     0.131 A 
ATOM     51  C   UNL A   1      43.644  21.739  25.845  1.00  0.00     0.055 A 
ATOM     52  C   UNL A   1      41.567  21.722  27.038  1.00  0.00     0.041 A 
ATOM     53  F   UNL A   1      40.872  23.587  28.230  1.00  0.00    -0.206 F 
ATOM     54  C   UNL A   1      42.500  21.056  26.261  1.00  0.00     0.022 A 
BRANCH  51  55
ATOM     55  S   UNL A   1      44.867  20.814  24.852  1.00  0.00     0.124 S 
ATOM     56  O   UNL A   1      44.672  21.371  23.518  1.00  0.00    -0.237 OA
ATOM     57  O   UNL A   1      46.124  21.141  25.514  1.00  0.00    -0.237 OA
ATOM     58  O   UNL A   1      44.445  19.420  24.998  1.00  0.00    -0.744 OA
ENDBRANCH  51  55
ENDBRANCH  24  48
BRANCH  36  59
ATOM     59  C   UNL A   1      45.709  29.088  29.061  1.00  0.00     0.023 A 
ATOM     60  C   UNL A   1      44.852  29.961  28.346  1.00  0.00     0.031 A 
ATOM     61  C   UNL A   1      47.082  29.150  28.770  1.00  0.00     0.131 A 
ATOM     62  C   UNL A   1      45.383  30.837  27.375  1.00  0.00     0.055 A 
ATOM     63  C   UNL A   1      47.606  30.032  27.826  1.00  0.00     0.041 A 
ATOM     64  F   UNL A   1      47.953  28.372  29.435  1.00  0.00    -0.206 F 
ATOM     65  C   UNL A   1      46.757  30.875  27.120  1.00  0.00     0.022 A 
BRANCH  62  66
ATOM     66  S   UNL A   1      44.295  31.940  26.407  1.00  0.00     0.124 S 
ATOM     67  O   UNL A   1      43.240  31.051  25.936  1.00  0.00    -0.237 OA
ATOM     68  O   UNL A   1      43.895  32.938  27.395  1.00  0.00    -0.237 OA
ATOM     69  O   UNL A   1      45.177  32.450  25.354  1.00  0.00    -0.744 OA
ENDBRANCH  62  66
ENDBRANCH  36  59
ENDBRANCH  10  11
ENDBRANCH   3   5
ENDBRANCH   2   3
ENDBRANCH   1   2
BRANCH   1  70
ATOM     70  C   UNL A   1      33.140  29.491  27.089  1.00  0.00     0.275 C 
BRANCH  70  71
ATOM     71  O   UNL A   1      32.070  29.621  26.124  1.00  0.00    -0.458 OA
BRANCH  71  72
ATOM     72  C   UNL A   1      32.224  28.965  24.927  1.00  0.00     0.340 C 
ATOM     73  O   UNL A   1      33.276  28.834  24.325  1.00  0.00    -0.246 OA
BRANCH  72  74
ATOM     74  C   UNL A   1      30.961  28.413  24.433  1.00  0.00     0.095 A 
ATOM     75  C   UNL A   1      30.623  27.077  24.627  1.00  0.00     0.150 A 
ATOM     76  C   UNL A   1      29.855  29.128  23.823  1.00  0.00    -0.007 A 
ATOM     77  S   UNL A   1      29.180  26.675  23.809  1.00  0.00    -0.120 S 
ATOM     78  C   UNL A   1      28.821  28.280  23.487  1.00  0.00     0.064 A 
ATOM     79  C   UNL A   1      29.739  30.584  23.489  1.00  0.00     0.099 C 
ATOM     80  C   UNL A   1      27.516  28.695  22.889  1.00  0.00     0.308 C 
ATOM     81  C   UNL A   1      28.358  30.968  22.895  1.00  0.00     0.265 C 
ATOM     82  N   UNL A   1      27.684  29.921  22.104  1.00  0.00    -0.342 N 
ATOM     83  H   UNL A   1      28.246  29.713  21.279  1.00  0.00     0.346 HD
ATOM     84  H   UNL A   1      26.762  30.262  21.833  1.00  0.00     0.346 HD
BRANCH  75  85
ATOM     85  S   UNL A   1      31.398  25.781  25.588  1.00  0.00     0.253 S 
ATOM     86  O   UNL A   1      31.660  26.370  26.879  1.00  0.00    -0.206 OA
ATOM     87  O   UNL A   1      30.482  24.663  25.446  1.00  0.00    -0.206 OA
BRANCH  85  88
ATOM     88  N   UNL A   1      32.899  25.296  24.878  1.00  0.00    -0.197 NA
ATOM     89  C   UNL A   1      33.928  24.875  25.867  1.00  0.00     0.102 C 
ATOM     90  C   UNL A   1      32.765  24.490  23.632  1.00  0.00     0.102 C 
ATOM     91  C   UNL A   1      35.236  24.454  25.212  1.00  0.00     0.017 C 
ATOM     92  C   UNL A   1      34.097  24.020  23.064  1.00  0.00     0.017 C 
ATOM     93  C   UNL A   1      34.990  23.413  24.134  1.00  0.00     0.003 C 
ENDBRANCH  85  88
ENDBRANCH  75  85
ENDBRANCH  72  74
ENDBRANCH  71  72
ENDBRANCH  70  71
ENDBRANCH   1  70
TORSDOF 16
ENDMDL
MODEL 3
REMARK VINA RESULT:     -12.2      0.949      3.148
REMARK SMILES O=C(OCCOC(=O)c1c(S(=O)(=O)N2CCCCC2)sc2c1CC[NH2+]C2)c1ccc(-c2c3nc(c(-c4cc(S(=O)(=O)[O-])ccc4F)c4ccc([nH]4)c(-c4cc(S(=O)(=O)[O-])ccc4F)c4nc(c(-c5cc(S(=O)(=O)[O-])ccc5F)c5ccc2[nH]5)C=C4)C=C3)cc1
REMARK SMILES IDX 4 1 3 2 2 3 1 4 27 5 28 6 89 7 29 8 88 9 30 10 31 11 32 12
REMARK SMILES IDX 82 13 33 14 87 15 81 16 83 17 34 18 86 19 80 20 79 21 35 23
REMARK SMILES IDX 67 24 47 25 66 26 48 27 51 28 65 29 84 30 49 31 50 32 64 34
REMARK SMILES IDX 85 35 52 36 36 37 37 38 45 39 38 40 44 41 46 42 43 43 39 44
REMARK SMILES IDX 40 45 41 46 42 47 68 48 69 49 77 50 70 51 76 52 78 53 75 54
REMARK SMILES IDX 71 55 72 56 73 57 74 58 53 59 54 60 62 61 55 62 61 63 63 64
REMARK SMILES IDX 60 65 56 66 57 67 58 68 59 69 5 70 6 71 7 72 8 73 9 74 10 75
REMARK SMILES IDX 22 76 20 77 21 78 23 79 26 80 24 81 25 82 11 85 12 86 13 87
REMARK SMILES IDX 14 88 15 89 19 90 16 91 18 92 17 93
REMARK H PARENT 83 22 51 33 25 83 25 84
REMARK Flexibility Score: inf
ROOT
ATOM      1  C   UNL A   1      34.822  29.669  27.077  1.00  0.00     0.275 C 
ENDROOT
BRANCH   1   2
ATOM      2  O   UNL A   1      35.564  29.053  28.139  1.00  0.00    -0.458 OA
BRANCH   2   3
ATOM      3  C   UNL A   1      36.427  29.818  28.829  1.00  0.00     0.338 C 
ATOM      4  O   UNL A   1      36.091  30.780  29.503  1.00  0.00    -0.246 OA
BRANCH   3   5
ATOM      5  C   UNL A   1      37.799  29.273  28.862  1.00  0.00     0.060 A 
ATOM      6  C   UNL A   1      38.275  28.344  29.797  1.00  0.00     0.016 A 
ATOM      7  C   UNL A   1      38.606  29.673  27.802  1.00  0.00     0.016 A 
ATOM      8  C   UNL A   1      39.580  27.871  29.694  1.00  0.00     0.010 A 
ATOM      9  C   UNL A   1      39.842  29.100  27.627  1.00  0.00     0.010 A 
ATOM     10  C   UNL A   1      40.371  28.278  28.616  1.00  0.00    -0.014 A 
BRANCH  10  11
ATOM     11  C   UNL A   1      41.744  27.804  28.466  1.00  0.00     0.031 A 
ATOM     12  C   UNL A   1      41.896  26.542  27.690  1.00  0.00     0.074 A 
ATOM     13  C   UNL A   1      42.795  28.558  28.864  1.00  0.00     0.049 A 
ATOM     14  N   UNL A   1      42.249  25.383  28.135  1.00  0.00    -0.248 NA
ATOM     15  C   UNL A   1      41.444  26.510  26.290  1.00  0.00     0.031 C 
ATOM     16  C   UNL A   1      42.791  29.906  29.448  1.00  0.00     0.029 A 
ATOM     17  N   UNL A   1      44.125  28.315  28.729  1.00  0.00    -0.354 N 
ATOM     18  C   UNL A   1      42.336  24.547  27.025  1.00  0.00     0.074 A 
ATOM     19  C   UNL A   1      41.632  25.227  25.972  1.00  0.00     0.031 C 
ATOM     20  C   UNL A   1      44.024  30.452  29.365  1.00  0.00     0.029 A 
ATOM     21  C   UNL A   1      44.946  29.428  28.912  1.00  0.00     0.049 A 
ATOM     22  H   UNL A   1      44.482  27.422  28.521  1.00  0.00     0.167 HD
ATOM     23  C   UNL A   1      43.202  23.494  27.012  1.00  0.00     0.034 A 
ATOM     24  C   UNL A   1      46.293  29.510  28.728  1.00  0.00     0.034 A 
ATOM     25  C   UNL A   1      43.644  23.186  28.357  1.00  0.00     0.049 A 
ATOM     26  C   UNL A   1      46.800  28.120  28.847  1.00  0.00     0.074 A 
ATOM     27  C   UNL A   1      43.000  22.827  29.526  1.00  0.00     0.029 A 
ATOM     28  N   UNL A   1      44.885  23.641  28.751  1.00  0.00    -0.354 N 
ATOM     29  N   UNL A   1      46.717  27.437  29.959  1.00  0.00    -0.248 NA
ATOM     30  C   UNL A   1      46.880  27.317  27.635  1.00  0.00     0.031 C 
ATOM     31  C   UNL A   1      43.654  23.583  30.545  1.00  0.00     0.029 A 
ATOM     32  C   UNL A   1      44.726  24.267  29.964  1.00  0.00     0.049 A 
ATOM     33  H   UNL A   1      45.729  23.536  28.255  1.00  0.00     0.167 HD
ATOM     34  C   UNL A   1      46.283  26.177  29.576  1.00  0.00     0.074 A 
ATOM     35  C   UNL A   1      46.488  26.135  28.125  1.00  0.00     0.031 C 
ATOM     36  C   UNL A   1      45.522  25.400  30.406  1.00  0.00     0.034 A 
BRANCH  23  37
ATOM     37  C   UNL A   1      43.968  23.007  25.797  1.00  0.00     0.023 A 
ATOM     38  C   UNL A   1      43.967  21.616  25.565  1.00  0.00     0.031 A 
ATOM     39  C   UNL A   1      44.925  23.746  25.067  1.00  0.00     0.131 A 
ATOM     40  C   UNL A   1      44.964  21.012  24.783  1.00  0.00     0.055 A 
ATOM     41  C   UNL A   1      45.877  23.145  24.236  1.00  0.00     0.041 A 
ATOM     42  F   UNL A   1      45.056  25.072  25.174  1.00  0.00    -0.206 F 
ATOM     43  C   UNL A   1      45.928  21.766  24.122  1.00  0.00     0.022 A 
BRANCH  40  44
ATOM     44  S   UNL A   1      45.096  19.206  24.818  1.00  0.00     0.124 S 
ATOM     45  O   UNL A   1      43.977  18.851  25.684  1.00  0.00    -0.237 OA
ATOM     46  O   UNL A   1      44.951  18.869  23.406  1.00  0.00    -0.237 OA
ATOM     47  O   UNL A   1      46.423  18.975  25.382  1.00  0.00    -0.744 OA
ENDBRANCH  40  44
ENDBRANCH  23  37
BRANCH  24  48
ATOM     48  C   UNL A   1      47.040  30.632  28.082  1.00  0.00     0.023 A 
ATOM     49  C   UNL A   1      46.425  31.647  27.313  1.00  0.00     0.031 A 
ATOM     50  C   UNL A   1      48.395  30.844  28.429  1.00  0.00     0.131 A 
ATOM     51  C   UNL A   1      47.158  32.801  26.930  1.00  0.00     0.055 A 
ATOM     52  C   UNL A   1      49.109  31.985  28.055  1.00  0.00     0.041 A 
ATOM     53  F   UNL A   1      49.052  29.979  29.219  1.00  0.00    -0.206 F 
ATOM     54  C   UNL A   1      48.490  32.974  27.310  1.00  0.00     0.022 A 
BRANCH  51  55
ATOM     55  S   UNL A   1      46.368  34.146  25.978  1.00  0.00     0.124 S 
ATOM     56  O   UNL A   1      47.442  34.572  25.089  1.00  0.00    -0.237 OA
ATOM     57  O   UNL A   1      45.238  33.468  25.353  1.00  0.00    -0.237 OA
ATOM     58  O   UNL A   1      46.001  35.123  27.004  1.00  0.00    -0.744 OA
ENDBRANCH  51  55
ENDBRANCH  24  48
BRANCH  36  59
ATOM     59  C   UNL A   1      45.341  25.844  31.849  1.00  0.00     0.023 A 
ATOM     60  C   UNL A   1      44.165  26.423  32.386  1.00  0.00     0.031 A 
ATOM     61  C   UNL A   1      46.378  25.541  32.747  1.00  0.00     0.131 A 
ATOM     62  C   UNL A   1      44.071  26.687  33.769  1.00  0.00     0.055 A 
ATOM     63  C   UNL A   1      46.275  25.782  34.116  1.00  0.00     0.041 A 
ATOM     64  F   UNL A   1      47.508  24.961  32.309  1.00  0.00    -0.206 F 
ATOM     65  C   UNL A   1      45.122  26.363  34.632  1.00  0.00     0.022 A 
BRANCH  62  66
ATOM     66  S   UNL A   1      42.584  27.474  34.479  1.00  0.00     0.124 S 
ATOM     67  O   UNL A   1      43.127  28.529  35.325  1.00  0.00    -0.237 OA
ATOM     68  O   UNL A   1      41.861  27.917  33.289  1.00  0.00    -0.237 OA
ATOM     69  O   UNL A   1      41.935  26.382  35.208  1.00  0.00    -0.744 OA
ENDBRANCH  62  66
ENDBRANCH  36  59
ENDBRANCH  10  11
ENDBRANCH   3   5
ENDBRANCH   2   3
ENDBRANCH   1   2
BRANCH   1  70
ATOM     70  C   UNL A   1      34.005  28.748  26.155  1.00  0.00     0.275 C 
BRANCH  70  71
ATOM     71  O   UNL A   1      34.450  27.372  26.204  1.00  0.00    -0.458 OA
BRANCH  71  72
ATOM     72  C   UNL A   1      33.982  26.528  25.227  1.00  0.00     0.340 C 
ATOM     73  O   UNL A   1      33.960  26.775  24.033  1.00  0.00    -0.246 OA
BRANCH  72  74
ATOM     74  C   UNL A   1      33.503  25.258  25.776  1.00  0.00     0.095 A 
ATOM     75  C   UNL A   1      32.213  25.122  26.282  1.00  0.00     0.150 A 
ATOM     76  C   UNL A   1      34.178  23.973  25.768  1.00  0.00    -0.007 A 
ATOM     77  S   UNL A   1      31.985  23.591  27.001  1.00  0.00    -0.120 S 
ATOM     78  C   UNL A   1      33.419  22.993  26.372  1.00  0.00     0.064 A 
ATOM     79  C   UNL A   1      35.543  23.626  25.259  1.00  0.00     0.099 C 
ATOM     80  C   UNL A   1      33.795  21.552  26.488  1.00  0.00     0.308 C 
ATOM     81  C   UNL A   1      35.875  22.115  25.380  1.00  0.00     0.265 C 
ATOM     82  N   UNL A   1      35.252  21.408  26.515  1.00  0.00    -0.342 N 
ATOM     83  H   UNL A   1      35.609  21.797  27.387  1.00  0.00     0.346 HD
ATOM     84  H   UNL A   1      35.482  20.416  26.445  1.00  0.00     0.346 HD
BRANCH  75  85
ATOM     85  S   UNL A   1      30.805  26.227  26.264  1.00  0.00     0.253 S 
ATOM     86  O   UNL A   1      29.647  25.367  26.222  1.00  0.00    -0.206 OA
ATOM     87  O   UNL A   1      31.048  27.101  27.398  1.00  0.00    -0.206 OA
BRANCH  85  88
ATOM     88  N   UNL A   1      30.816  27.223  24.849  1.00  0.00    -0.197 NA
ATOM     89  C   UNL A   1      29.893  26.760  23.777  1.00  0.00     0.102 C 
ATOM     90  C   UNL A   1      30.885  28.686  25.120  1.00  0.00     0.102 C 
ATOM     91  C   UNL A   1      29.925  27.655  22.547  1.00  0.00     0.017 C 
ATOM     92  C   UNL A   1      30.827  29.541  23.862  1.00  0.00     0.017 C 
ATOM     93  C   UNL A   1      29.706  29.109  22.930  1.00  0.00     0.003 C 
ENDBRANCH  85  88
ENDBRANCH  75  85
ENDBRANCH  72  74
ENDBRANCH  71  72
ENDBRANCH  70  71
ENDBRANCH   1  70
TORSDOF 16
ENDMDL
