MODEL 1
REMARK VINA RESULT:      -9.4      0.000      0.000
REMARK SMILES COc1cccc2cc(/C=C/c3cc(C(=O)OCCOC(=O)c4ccc(-c5c6nc(c(-c7cc(S(=O)(=O)[O-])ccc7F)c7ccc([nH]7)c(-c7cc(S(=O)(=O)[O-])ccc7F)c7nc(c(-c8cc(S(=O)(=O)[O-])ccc8F)c8ccc5[nH]8)C=C7)C=C6)cc4)ncn3)oc12
REMARK SMILES IDX 18 1 17 2 15 3 16 4 14 5 12 6 13 7 88 8 87 9 86 10 11 11
REMARK SMILES IDX 10 12 9 13 3 14 4 15 90 16 5 17 7 18 89 19 6 20 8 21 2 22
REMARK SMILES IDX 1 23 19 24 20 25 21 26 22 27 23 28 24 29 85 30 25 31 84 32
REMARK SMILES IDX 26 33 27 34 28 35 78 36 29 37 83 38 77 39 79 40 30 41 82 42
REMARK SMILES IDX 76 43 75 44 31 46 63 47 43 48 62 49 44 50 47 51 61 52 80 53
REMARK SMILES IDX 45 54 46 55 60 57 81 58 48 59 32 60 33 61 41 62 34 63 40 64
REMARK SMILES IDX 42 65 39 66 35 67 36 68 37 69 38 70 64 71 65 72 73 73 66 74
REMARK SMILES IDX 72 75 74 76 71 77 67 78 68 79 69 80 70 81 49 82 50 83 58 84
REMARK SMILES IDX 51 85 57 86 59 87 56 88 52 89 53 90 54 91 55 92
REMARK H PARENT 79 45 47 56
REMARK Flexibility Score: inf
ROOT
ATOM      1  C   UNL A   1      41.036  19.146  26.128  1.00  0.00     0.275 C 
ENDROOT
BRANCH   1   2
ATOM      2  O   UNL A   1      42.021  19.550  25.156  1.00  0.00    -0.457 OA
BRANCH   2   3
ATOM      3  C   UNL A   1      43.279  19.064  25.353  1.00  0.00     0.357 C 
ATOM      4  O   UNL A   1      43.580  17.885  25.395  1.00  0.00    -0.244 OA
BRANCH   3   5
ATOM      5  C   UNL A   1      44.267  20.184  25.443  1.00  0.00     0.152 A 
ATOM      6  C   UNL A   1      44.972  22.303  26.085  1.00  0.00     0.067 A 
ATOM      7  C   UNL A   1      43.953  21.374  26.052  1.00  0.00     0.064 A 
ATOM      8  N   UNL A   1      46.163  22.124  25.486  1.00  0.00    -0.237 NA
ATOM      9  C   UNL A   1      46.361  20.933  24.916  1.00  0.00     0.223 A 
ATOM     10  N   UNL A   1      45.483  19.928  24.907  1.00  0.00    -0.229 NA
BRANCH   6  11
ATOM     11  C   UNL A   1      44.858  23.553  26.831  1.00  0.00     0.032 C 
ATOM     12  C   UNL A   1      44.824  23.545  28.171  1.00  0.00     0.049 C 
BRANCH  12  13
ATOM     13  C   UNL A   1      44.795  24.722  28.960  1.00  0.00     0.128 A 
ATOM     14  C   UNL A   1      46.547  27.499  30.368  1.00  0.00     0.162 A 
ATOM     15  C   UNL A   1      46.026  28.530  31.158  1.00  0.00     0.050 A 
ATOM     16  C   UNL A   1      45.645  26.525  29.938  1.00  0.00     0.176 A 
ATOM     17  C   UNL A   1      44.673  28.550  31.510  1.00  0.00     0.005 A 
ATOM     18  C   UNL A   1      44.299  26.515  30.265  1.00  0.00     0.025 A 
ATOM     19  O   UNL A   1      45.943  25.454  29.160  1.00  0.00    -0.453 OA
ATOM     20  C   UNL A   1      43.794  27.549  31.072  1.00  0.00     0.012 A 
ATOM     21  C   UNL A   1      43.762  25.365  29.631  1.00  0.00     0.059 A 
BRANCH  14  22
ATOM     22  O   UNL A   1      47.854  27.479  29.955  1.00  0.00    -0.493 OA
ATOM     23  C   UNL A   1      48.368  28.797  29.782  1.00  0.00     0.278 C 
ENDBRANCH  14  22
ENDBRANCH  12  13
ENDBRANCH   6  11
ENDBRANCH   3   5
ENDBRANCH   2   3
ENDBRANCH   1   2
BRANCH   1  24
ATOM     24  C   UNL A   1      39.616  19.512  25.684  1.00  0.00     0.275 C 
BRANCH  24  25
ATOM     25  O   UNL A   1      39.025  20.516  26.531  1.00  0.00    -0.458 OA
BRANCH  25  26
ATOM     26  C   UNL A   1      38.520  21.592  25.881  1.00  0.00     0.338 C 
ATOM     27  O   UNL A   1      37.553  21.608  25.136  1.00  0.00    -0.246 OA
BRANCH  26  28
ATOM     28  C   UNL A   1      39.218  22.807  26.328  1.00  0.00     0.060 A 
ATOM     29  C   UNL A   1      38.757  24.024  25.830  1.00  0.00     0.016 A 
ATOM     30  C   UNL A   1      40.336  22.770  27.158  1.00  0.00     0.016 A 
ATOM     31  C   UNL A   1      39.400  25.213  26.146  1.00  0.00     0.010 A 
ATOM     32  C   UNL A   1      40.975  23.972  27.497  1.00  0.00     0.010 A 
ATOM     33  C   UNL A   1      40.511  25.202  26.993  1.00  0.00    -0.014 A 
BRANCH  33  34
ATOM     34  C   UNL A   1      41.181  26.484  27.322  1.00  0.00     0.031 A 
ATOM     35  C   UNL A   1      42.546  26.779  26.772  1.00  0.00     0.074 A 
ATOM     36  C   UNL A   1      40.542  27.396  28.080  1.00  0.00     0.049 A 
ATOM     37  N   UNL A   1      43.344  27.782  27.029  1.00  0.00    -0.248 NA
ATOM     38  C   UNL A   1      43.083  25.813  25.804  1.00  0.00     0.031 C 
ATOM     39  C   UNL A   1      39.185  27.247  28.611  1.00  0.00     0.029 A 
ATOM     40  N   UNL A   1      40.945  28.624  28.539  1.00  0.00    -0.354 N 
ATOM     41  C   UNL A   1      44.493  27.555  26.281  1.00  0.00     0.074 A 
ATOM     42  C   UNL A   1      44.289  26.309  25.570  1.00  0.00     0.031 C 
ATOM     43  C   UNL A   1      38.868  28.343  29.319  1.00  0.00     0.029 A 
ATOM     44  C   UNL A   1      40.022  29.237  29.354  1.00  0.00     0.049 A 
ATOM     45  H   UNL A   1      41.811  29.029  28.305  1.00  0.00     0.167 HD
ATOM     46  C   UNL A   1      45.612  28.319  26.200  1.00  0.00     0.034 A 
ATOM     47  C   UNL A   1      40.111  30.363  30.089  1.00  0.00     0.034 A 
ATOM     48  C   UNL A   1      45.785  29.563  26.911  1.00  0.00     0.049 A 
ATOM     49  C   UNL A   1      41.394  31.150  30.050  1.00  0.00     0.074 A 
ATOM     50  C   UNL A   1      46.867  30.427  26.891  1.00  0.00     0.029 A 
ATOM     51  N   UNL A   1      44.851  30.122  27.776  1.00  0.00    -0.354 N 
ATOM     52  N   UNL A   1      42.490  30.907  29.369  1.00  0.00    -0.248 NA
ATOM     53  C   UNL A   1      41.458  32.354  30.887  1.00  0.00     0.031 C 
ATOM     54  C   UNL A   1      46.616  31.468  27.793  1.00  0.00     0.029 A 
ATOM     55  C   UNL A   1      45.347  31.295  28.324  1.00  0.00     0.049 A 
ATOM     56  H   UNL A   1      43.965  29.739  27.972  1.00  0.00     0.167 HD
ATOM     57  C   UNL A   1      43.371  31.935  29.689  1.00  0.00     0.074 A 
ATOM     58  C   UNL A   1      42.671  32.810  30.608  1.00  0.00     0.031 C 
ATOM     59  C   UNL A   1      44.643  32.139  29.261  1.00  0.00     0.034 A 
BRANCH  46  60
ATOM     60  C   UNL A   1      46.754  27.784  25.372  1.00  0.00     0.023 A 
ATOM     61  C   UNL A   1      46.979  28.202  24.048  1.00  0.00     0.031 A 
ATOM     62  C   UNL A   1      47.609  26.804  25.907  1.00  0.00     0.131 A 
ATOM     63  C   UNL A   1      47.986  27.591  23.284  1.00  0.00     0.055 A 
ATOM     64  C   UNL A   1      48.656  26.255  25.165  1.00  0.00     0.041 A 
ATOM     65  F   UNL A   1      47.430  26.350  27.158  1.00  0.00    -0.206 F 
ATOM     66  C   UNL A   1      48.840  26.635  23.840  1.00  0.00     0.022 A 
BRANCH  63  67
ATOM     67  S   UNL A   1      48.073  27.957  21.509  1.00  0.00     0.124 S 
ATOM     68  O   UNL A   1      48.273  26.625  20.941  1.00  0.00    -0.237 OA
ATOM     69  O   UNL A   1      46.777  28.574  21.250  1.00  0.00    -0.237 OA
ATOM     70  O   UNL A   1      49.223  28.851  21.398  1.00  0.00    -0.744 OA
ENDBRANCH  63  67
ENDBRANCH  46  60
BRANCH  47  71
ATOM     71  C   UNL A   1      38.989  30.764  30.984  1.00  0.00     0.023 A 
ATOM     72  C   UNL A   1      37.937  31.571  30.526  1.00  0.00     0.031 A 
ATOM     73  C   UNL A   1      38.974  30.362  32.334  1.00  0.00     0.131 A 
ATOM     74  C   UNL A   1      36.927  31.974  31.416  1.00  0.00     0.055 A 
ATOM     75  C   UNL A   1      37.942  30.723  33.201  1.00  0.00     0.041 A 
ATOM     76  F   UNL A   1      39.960  29.595  32.825  1.00  0.00    -0.206 F 
ATOM     77  C   UNL A   1      36.915  31.543  32.745  1.00  0.00     0.022 A 
BRANCH  74  78
ATOM     78  S   UNL A   1      35.660  33.132  30.830  1.00  0.00     0.124 S 
ATOM     79  O   UNL A   1      35.950  33.194  29.402  1.00  0.00    -0.237 OA
ATOM     80  O   UNL A   1      34.427  32.447  31.205  1.00  0.00    -0.237 OA
ATOM     81  O   UNL A   1      35.943  34.355  31.577  1.00  0.00    -0.744 OA
ENDBRANCH  74  78
ENDBRANCH  47  71
BRANCH  59  82
ATOM     82  C   UNL A   1      45.339  33.375  29.772  1.00  0.00     0.023 A 
ATOM     83  C   UNL A   1      45.196  34.618  29.132  1.00  0.00     0.031 A 
ATOM     84  C   UNL A   1      46.168  33.302  30.906  1.00  0.00     0.131 A 
ATOM     85  C   UNL A   1      45.908  35.732  29.603  1.00  0.00     0.055 A 
ATOM     86  C   UNL A   1      46.833  34.425  31.399  1.00  0.00     0.041 A 
ATOM     87  F   UNL A   1      46.340  32.138  31.551  1.00  0.00    -0.206 F 
ATOM     88  C   UNL A   1      46.713  35.646  30.742  1.00  0.00     0.022 A 
BRANCH  85  89
ATOM     89  S   UNL A   1      45.825  37.282  28.666  1.00  0.00     0.124 S 
ATOM     90  O   UNL A   1      47.053  37.954  29.080  1.00  0.00    -0.237 OA
ATOM     91  O   UNL A   1      45.791  36.811  27.284  1.00  0.00    -0.237 OA
ATOM     92  O   UNL A   1      44.588  37.903  29.138  1.00  0.00    -0.744 OA
ENDBRANCH  85  89
ENDBRANCH  59  82
ENDBRANCH  33  34
ENDBRANCH  26  28
ENDBRANCH  25  26
ENDBRANCH  24  25
ENDBRANCH   1  24
TORSDOF 17
ENDMDL
MODEL 2
REMARK VINA RESULT:      -9.3      3.815     11.354
REMARK SMILES COc1cccc2cc(/C=C/c3cc(C(=O)OCCOC(=O)c4ccc(-c5c6nc(c(-c7cc(S(=O)(=O)[O-])ccc7F)c7ccc([nH]7)c(-c7cc(S(=O)(=O)[O-])ccc7F)c7nc(c(-c8cc(S(=O)(=O)[O-])ccc8F)c8ccc5[nH]8)C=C7)C=C6)cc4)ncn3)oc12
REMARK SMILES IDX 18 1 17 2 15 3 16 4 14 5 12 6 13 7 88 8 87 9 86 10 11 11
REMARK SMILES IDX 10 12 9 13 3 14 4 15 90 16 5 17 7 18 89 19 6 20 8 21 2 22
REMARK SMILES IDX 1 23 19 24 20 25 21 26 22 27 23 28 24 29 85 30 25 31 84 32
REMARK SMILES IDX 26 33 27 34 28 35 78 36 29 37 83 38 77 39 79 40 30 41 82 42
REMARK SMILES IDX 76 43 75 44 31 46 63 47 43 48 62 49 44 50 47 51 61 52 80 53
REMARK SMILES IDX 45 54 46 55 60 57 81 58 48 59 32 60 33 61 41 62 34 63 40 64
REMARK SMILES IDX 42 65 39 66 35 67 36 68 37 69 38 70 64 71 65 72 73 73 66 74
REMARK SMILES IDX 72 75 74 76 71 77 67 78 68 79 69 80 70 81 49 82 50 83 58 84
REMARK SMILES IDX 51 85 57 86 59 87 56 88 52 89 53 90 54 91 55 92
REMARK H PARENT 79 45 47 56
REMARK Flexibility Score: inf
ROOT
ATOM      1  C   UNL A   1      33.721  33.896  28.173  1.00  0.00     0.275 C 
ENDROOT
BRANCH   1   2
ATOM      2  O   UNL A   1      32.863  34.294  29.262  1.00  0.00    -0.457 OA
BRANCH   2   3
ATOM      3  C   UNL A   1      32.762  35.637  29.471  1.00  0.00     0.357 C 
ATOM      4  O   UNL A   1      32.214  36.428  28.726  1.00  0.00    -0.244 OA
BRANCH   3   5
ATOM      5  C   UNL A   1      33.359  36.009  30.793  1.00  0.00     0.152 A 
ATOM      6  C   UNL A   1      34.678  35.637  32.668  1.00  0.00     0.067 A 
ATOM      7  C   UNL A   1      34.179  35.148  31.480  1.00  0.00     0.064 A 
ATOM      8  N   UNL A   1      34.327  36.826  33.191  1.00  0.00    -0.237 NA
ATOM      9  C   UNL A   1      33.520  37.581  32.443  1.00  0.00     0.223 A 
ATOM     10  N   UNL A   1      33.052  37.249  31.238  1.00  0.00    -0.229 NA
BRANCH   6  11
ATOM     11  C   UNL A   1      35.686  34.916  33.441  1.00  0.00     0.032 C 
ATOM     12  C   UNL A   1      36.479  34.012  32.850  1.00  0.00     0.049 C 
BRANCH  12  13
ATOM     13  C   UNL A   1      37.529  33.335  33.518  1.00  0.00     0.128 A 
ATOM     14  C   UNL A   1      39.204  30.266  34.254  1.00  0.00     0.162 A 
ATOM     15  C   UNL A   1      40.343  30.080  35.045  1.00  0.00     0.050 A 
ATOM     16  C   UNL A   1      38.743  31.576  34.121  1.00  0.00     0.176 A 
ATOM     17  C   UNL A   1      40.959  31.161  35.682  1.00  0.00     0.005 A 
ATOM     18  C   UNL A   1      39.330  32.672  34.735  1.00  0.00     0.025 A 
ATOM     19  O   UNL A   1      37.668  31.971  33.396  1.00  0.00    -0.453 OA
ATOM     20  C   UNL A   1      40.465  32.466  35.538  1.00  0.00     0.012 A 
ATOM     21  C   UNL A   1      38.553  33.791  34.340  1.00  0.00     0.059 A 
BRANCH  14  22
ATOM     22  O   UNL A   1      38.610  29.239  33.568  1.00  0.00    -0.493 OA
ATOM     23  C   UNL A   1      39.571  28.297  33.101  1.00  0.00     0.278 C 
ENDBRANCH  14  22
ENDBRANCH  12  13
ENDBRANCH   6  11
ENDBRANCH   3   5
ENDBRANCH   2   3
ENDBRANCH   1   2
BRANCH   1  24
ATOM     24  C   UNL A   1      33.675  32.383  27.938  1.00  0.00     0.275 C 
BRANCH  24  25
ATOM     25  O   UNL A   1      34.992  31.806  27.859  1.00  0.00    -0.458 OA
BRANCH  25  26
ATOM     26  C   UNL A   1      35.032  30.453  27.908  1.00  0.00     0.338 C 
ATOM     27  O   UNL A   1      34.159  29.682  27.543  1.00  0.00    -0.246 OA
BRANCH  26  28
ATOM     28  C   UNL A   1      36.372  30.016  28.330  1.00  0.00     0.060 A 
ATOM     29  C   UNL A   1      37.409  30.168  27.411  1.00  0.00     0.016 A 
ATOM     30  C   UNL A   1      36.614  29.413  29.562  1.00  0.00     0.016 A 
ATOM     31  C   UNL A   1      38.690  29.721  27.701  1.00  0.00     0.010 A 
ATOM     32  C   UNL A   1      37.913  28.979  29.868  1.00  0.00     0.010 A 
ATOM     33  C   UNL A   1      38.959  29.130  28.938  1.00  0.00    -0.014 A 
BRANCH  33  34
ATOM     34  C   UNL A   1      40.337  28.663  29.232  1.00  0.00     0.031 A 
ATOM     35  C   UNL A   1      41.223  29.465  30.139  1.00  0.00     0.074 A 
ATOM     36  C   UNL A   1      40.770  27.497  28.715  1.00  0.00     0.049 A 
ATOM     37  N   UNL A   1      42.486  29.291  30.430  1.00  0.00    -0.248 NA
ATOM     38  C   UNL A   1      40.604  30.619  30.805  1.00  0.00     0.031 C 
ATOM     39  C   UNL A   1      39.971  26.598  27.878  1.00  0.00     0.029 A 
ATOM     40  N   UNL A   1      41.984  26.867  28.813  1.00  0.00    -0.354 N 
ATOM     41  C   UNL A   1      42.825  30.330  31.289  1.00  0.00     0.074 A 
ATOM     42  C   UNL A   1      41.633  31.136  31.459  1.00  0.00     0.031 C 
ATOM     43  C   UNL A   1      40.716  25.533  27.542  1.00  0.00     0.029 A 
ATOM     44  C   UNL A   1      42.063  25.707  28.077  1.00  0.00     0.049 A 
ATOM     45  H   UNL A   1      42.728  27.211  29.359  1.00  0.00     0.167 HD
ATOM     46  C   UNL A   1      44.022  30.582  31.876  1.00  0.00     0.034 A 
ATOM     47  C   UNL A   1      43.113  24.902  27.818  1.00  0.00     0.034 A 
ATOM     48  C   UNL A   1      45.191  29.755  31.698  1.00  0.00     0.049 A 
ATOM     49  C   UNL A   1      44.452  25.250  28.411  1.00  0.00     0.074 A 
ATOM     50  C   UNL A   1      46.449  29.906  32.256  1.00  0.00     0.029 A 
ATOM     51  N   UNL A   1      45.249  28.621  30.896  1.00  0.00    -0.354 N 
ATOM     52  N   UNL A   1      44.772  26.256  29.192  1.00  0.00    -0.248 NA
ATOM     53  C   UNL A   1      45.574  24.362  28.080  1.00  0.00     0.031 C 
ATOM     54  C   UNL A   1      47.283  28.907  31.740  1.00  0.00     0.029 A 
ATOM     55  C   UNL A   1      46.529  28.087  30.914  1.00  0.00     0.049 A 
ATOM     56  H   UNL A   1      44.492  28.252  30.388  1.00  0.00     0.167 HD
ATOM     57  C   UNL A   1      46.131  26.117  29.453  1.00  0.00     0.074 A 
ATOM     58  C   UNL A   1      46.565  24.917  28.763  1.00  0.00     0.031 C 
ATOM     59  C   UNL A   1      46.948  26.906  30.196  1.00  0.00     0.034 A 
BRANCH  46  60
ATOM     60  C   UNL A   1      44.134  31.842  32.699  1.00  0.00     0.023 A 
ATOM     61  C   UNL A   1      44.305  33.108  32.111  1.00  0.00     0.031 A 
ATOM     62  C   UNL A   1      44.111  31.766  34.104  1.00  0.00     0.131 A 
ATOM     63  C   UNL A   1      44.518  34.233  32.923  1.00  0.00     0.055 A 
ATOM     64  C   UNL A   1      44.248  32.901  34.905  1.00  0.00     0.041 A 
ATOM     65  F   UNL A   1      43.973  30.583  34.722  1.00  0.00    -0.206 F 
ATOM     66  C   UNL A   1      44.469  34.142  34.317  1.00  0.00     0.022 A 
BRANCH  63  67
ATOM     67  S   UNL A   1      45.003  35.794  32.136  1.00  0.00     0.124 S 
ATOM     68  O   UNL A   1      44.092  35.847  30.995  1.00  0.00    -0.237 OA
ATOM     69  O   UNL A   1      44.761  36.769  33.193  1.00  0.00    -0.237 OA
ATOM     70  O   UNL A   1      46.408  35.583  31.791  1.00  0.00    -0.744 OA
ENDBRANCH  63  67
ENDBRANCH  46  60
BRANCH  47  71
ATOM     71  C   UNL A   1      42.959  23.745  26.892  1.00  0.00     0.023 A 
ATOM     72  C   UNL A   1      42.324  22.561  27.296  1.00  0.00     0.031 A 
ATOM     73  C   UNL A   1      43.477  23.803  25.584  1.00  0.00     0.131 A 
ATOM     74  C   UNL A   1      42.249  21.472  26.412  1.00  0.00     0.055 A 
ATOM     75  C   UNL A   1      43.355  22.737  24.692  1.00  0.00     0.041 A 
ATOM     76  F   UNL A   1      44.099  24.910  25.148  1.00  0.00    -0.206 F 
ATOM     77  C   UNL A   1      42.746  21.558  25.108  1.00  0.00     0.022 A 
BRANCH  74  78
ATOM     78  S   UNL A   1      41.551  19.909  27.011  1.00  0.00     0.124 S 
ATOM     79  O   UNL A   1      42.737  19.227  27.517  1.00  0.00    -0.237 OA
ATOM     80  O   UNL A   1      40.596  20.368  28.015  1.00  0.00    -0.237 OA
ATOM     81  O   UNL A   1      40.957  19.319  25.813  1.00  0.00    -0.744 OA
ENDBRANCH  74  78
ENDBRANCH  47  71
BRANCH  59  82
ATOM     82  C   UNL A   1      48.387  26.471  30.314  1.00  0.00     0.023 A 
ATOM     83  C   UNL A   1      49.327  26.761  29.309  1.00  0.00     0.031 A 
ATOM     84  C   UNL A   1      48.818  25.746  31.438  1.00  0.00     0.131 A 
ATOM     85  C   UNL A   1      50.642  26.288  29.427  1.00  0.00     0.055 A 
ATOM     86  C   UNL A   1      50.140  25.322  31.573  1.00  0.00     0.041 A 
ATOM     87  F   UNL A   1      47.959  25.441  32.424  1.00  0.00    -0.206 F 
ATOM     88  C   UNL A   1      51.058  25.584  30.561  1.00  0.00     0.022 A 
BRANCH  85  89
ATOM     89  S   UNL A   1      51.789  26.542  28.045  1.00  0.00     0.124 S 
ATOM     90  O   UNL A   1      51.715  25.262  27.348  1.00  0.00    -0.237 OA
ATOM     91  O   UNL A   1      51.196  27.682  27.352  1.00  0.00    -0.237 OA
ATOM     92  O   UNL A   1      53.065  26.816  28.705  1.00  0.00    -0.744 OA
ENDBRANCH  85  89
ENDBRANCH  59  82
ENDBRANCH  33  34
ENDBRANCH  26  28
ENDBRANCH  25  26
ENDBRANCH  24  25
ENDBRANCH   1  24
TORSDOF 17
ENDMDL
MODEL 3
REMARK VINA RESULT:      -9.3      4.270     11.600
REMARK SMILES COc1cccc2cc(/C=C/c3cc(C(=O)OCCOC(=O)c4ccc(-c5c6nc(c(-c7cc(S(=O)(=O)[O-])ccc7F)c7ccc([nH]7)c(-c7cc(S(=O)(=O)[O-])ccc7F)c7nc(c(-c8cc(S(=O)(=O)[O-])ccc8F)c8ccc5[nH]8)C=C7)C=C6)cc4)ncn3)oc12
REMARK SMILES IDX 18 1 17 2 15 3 16 4 14 5 12 6 13 7 88 8 87 9 86 10 11 11
REMARK SMILES IDX 10 12 9 13 3 14 4 15 90 16 5 17 7 18 89 19 6 20 8 21 2 22
REMARK SMILES IDX 1 23 19 24 20 25 21 26 22 27 23 28 24 29 85 30 25 31 84 32
REMARK SMILES IDX 26 33 27 34 28 35 78 36 29 37 83 38 77 39 79 40 30 41 82 42
REMARK SMILES IDX 76 43 75 44 31 46 63 47 43 48 62 49 44 50 47 51 61 52 80 53
REMARK SMILES IDX 45 54 46 55 60 57 81 58 48 59 32 60 33 61 41 62 34 63 40 64
REMARK SMILES IDX 42 65 39 66 35 67 36 68 37 69 38 70 64 71 65 72 73 73 66 74
REMARK SMILES IDX 72 75 74 76 71 77 67 78 68 79 69 80 70 81 49 82 50 83 58 84
REMARK SMILES IDX 51 85 57 86 59 87 56 88 52 89 53 90 54 91 55 92
REMARK H PARENT 79 45 47 56
REMARK Flexibility Score: inf
ROOT
ATOM      1  C   UNL A   1      33.364  35.033  28.724  1.00  0.00     0.275 C 
ENDROOT
BRANCH   1   2
ATOM      2  O   UNL A   1      32.611  34.949  29.951  1.00  0.00    -0.457 OA
BRANCH   2   3
ATOM      3  C   UNL A   1      33.280  35.315  31.080  1.00  0.00     0.357 C 
ATOM      4  O   UNL A   1      32.983  36.246  31.805  1.00  0.00    -0.244 OA
BRANCH   3   5
ATOM      5  C   UNL A   1      34.404  34.366  31.354  1.00  0.00     0.152 A 
ATOM      6  C   UNL A   1      36.644  33.767  31.507  1.00  0.00     0.067 A 
ATOM      7  C   UNL A   1      35.716  34.736  31.189  1.00  0.00     0.064 A 
ATOM      8  N   UNL A   1      36.317  32.511  31.861  1.00  0.00    -0.237 NA
ATOM      9  C   UNL A   1      35.013  32.255  31.985  1.00  0.00     0.223 A 
ATOM     10  N   UNL A   1      34.033  33.141  31.794  1.00  0.00    -0.229 NA
BRANCH   6  11
ATOM     11  C   UNL A   1      38.077  34.046  31.540  1.00  0.00     0.032 C 
ATOM     12  C   UNL A   1      38.786  34.096  30.404  1.00  0.00     0.049 C 
BRANCH  12  13
ATOM     13  C   UNL A   1      40.159  34.440  30.353  1.00  0.00     0.128 A 
ATOM     14  C   UNL A   1      42.881  35.892  28.550  1.00  0.00     0.162 A 
ATOM     15  C   UNL A   1      44.208  36.035  28.970  1.00  0.00     0.050 A 
ATOM     16  C   UNL A   1      42.003  35.286  29.450  1.00  0.00     0.176 A 
ATOM     17  C   UNL A   1      44.620  35.565  30.220  1.00  0.00     0.005 A 
ATOM     18  C   UNL A   1      42.375  34.812  30.698  1.00  0.00     0.025 A 
ATOM     19  O   UNL A   1      40.681  35.064  29.243  1.00  0.00    -0.453 OA
ATOM     20  C   UNL A   1      43.715  34.950  31.099  1.00  0.00     0.012 A 
ATOM     21  C   UNL A   1      41.192  34.279  31.271  1.00  0.00     0.059 A 
BRANCH  14  22
ATOM     22  O   UNL A   1      42.430  36.393  27.357  1.00  0.00    -0.493 OA
ATOM     23  C   UNL A   1      42.722  35.513  26.275  1.00  0.00     0.278 C 
ENDBRANCH  14  22
ENDBRANCH  12  13
ENDBRANCH   6  11
ENDBRANCH   3   5
ENDBRANCH   2   3
ENDBRANCH   1   2
BRANCH   1  24
ATOM     24  C   UNL A   1      33.423  33.684  28.000  1.00  0.00     0.275 C 
BRANCH  24  25
ATOM     25  O   UNL A   1      34.656  32.985  28.255  1.00  0.00    -0.458 OA
BRANCH  25  26
ATOM     26  C   UNL A   1      34.588  31.637  28.141  1.00  0.00     0.338 C 
ATOM     27  O   UNL A   1      33.673  30.989  27.660  1.00  0.00    -0.246 OA
BRANCH  26  28
ATOM     28  C   UNL A   1      35.872  31.045  28.547  1.00  0.00     0.060 A 
ATOM     29  C   UNL A   1      35.822  29.891  29.327  1.00  0.00     0.016 A 
ATOM     30  C   UNL A   1      37.100  31.626  28.238  1.00  0.00     0.016 A 
ATOM     31  C   UNL A   1      36.984  29.305  29.810  1.00  0.00     0.010 A 
ATOM     32  C   UNL A   1      38.278  31.024  28.706  1.00  0.00     0.010 A 
ATOM     33  C   UNL A   1      38.227  29.860  29.495  1.00  0.00    -0.014 A 
BRANCH  33  34
ATOM     34  C   UNL A   1      39.458  29.216  30.017  1.00  0.00     0.031 A 
ATOM     35  C   UNL A   1      40.118  29.753  31.254  1.00  0.00     0.074 A 
ATOM     36  C   UNL A   1      39.954  28.126  29.401  1.00  0.00     0.049 A 
ATOM     37  N   UNL A   1      41.252  29.408  31.803  1.00  0.00    -0.248 NA
ATOM     38  C   UNL A   1      39.403  30.822  31.964  1.00  0.00     0.031 C 
ATOM     39  C   UNL A   1      39.356  27.474  28.233  1.00  0.00     0.029 A 
ATOM     40  N   UNL A   1      41.071  27.375  29.665  1.00  0.00    -0.354 N 
ATOM     41  C   UNL A   1      41.407  30.238  32.908  1.00  0.00     0.074 A 
ATOM     42  C   UNL A   1      40.252  31.112  32.939  1.00  0.00     0.031 C 
ATOM     43  C   UNL A   1      40.111  26.420  27.885  1.00  0.00     0.029 A 
ATOM     44  C   UNL A   1      41.281  26.364  28.755  1.00  0.00     0.049 A 
ATOM     45  H   UNL A   1      41.664  27.541  30.433  1.00  0.00     0.167 HD
ATOM     46  C   UNL A   1      42.423  30.265  33.808  1.00  0.00     0.034 A 
ATOM     47  C   UNL A   1      42.322  25.522  28.606  1.00  0.00     0.034 A 
ATOM     48  C   UNL A   1      43.558  29.374  33.760  1.00  0.00     0.049 A 
ATOM     49  C   UNL A   1      43.478  25.626  29.565  1.00  0.00     0.074 A 
ATOM     50  C   UNL A   1      44.635  29.300  34.627  1.00  0.00     0.029 A 
ATOM     51  N   UNL A   1      43.767  28.403  32.787  1.00  0.00    -0.354 N 
ATOM     52  N   UNL A   1      43.633  26.440  30.584  1.00  0.00    -0.248 NA
ATOM     53  C   UNL A   1      44.603  24.708  29.349  1.00  0.00     0.031 C 
ATOM     54  C   UNL A   1      45.525  28.334  34.142  1.00  0.00     0.029 A 
ATOM     55  C   UNL A   1      44.972  27.753  33.011  1.00  0.00     0.049 A 
ATOM     56  H   UNL A   1      43.150  28.205  32.047  1.00  0.00     0.167 HD
ATOM     57  C   UNL A   1      44.871  26.125  31.136  1.00  0.00     0.074 A 
ATOM     58  C   UNL A   1      45.410  25.034  30.349  1.00  0.00     0.031 C 
ATOM     59  C   UNL A   1      45.504  26.685  32.198  1.00  0.00     0.034 A 
BRANCH  46  60
ATOM     60  C   UNL A   1      42.379  31.339  34.866  1.00  0.00     0.023 A 
ATOM     61  C   UNL A   1      42.939  32.613  34.664  1.00  0.00     0.031 A 
ATOM     62  C   UNL A   1      41.800  31.065  36.119  1.00  0.00     0.131 A 
ATOM     63  C   UNL A   1      42.972  33.537  35.720  1.00  0.00     0.055 A 
ATOM     64  C   UNL A   1      41.770  32.017  37.140  1.00  0.00     0.041 A 
ATOM     65  F   UNL A   1      41.269  29.860  36.378  1.00  0.00    -0.206 F 
ATOM     66  C   UNL A   1      42.372  33.256  36.950  1.00  0.00     0.022 A 
BRANCH  63  67
ATOM     67  S   UNL A   1      43.937  35.060  35.512  1.00  0.00     0.124 S 
ATOM     68  O   UNL A   1      44.579  35.185  36.818  1.00  0.00    -0.237 OA
ATOM     69  O   UNL A   1      44.816  34.727  34.397  1.00  0.00    -0.237 OA
ATOM     70  O   UNL A   1      42.923  36.073  35.227  1.00  0.00    -0.744 OA
ENDBRANCH  63  67
ENDBRANCH  46  60
BRANCH  47  71
ATOM     71  C   UNL A   1      42.358  24.570  27.460  1.00  0.00     0.023 A 
ATOM     72  C   UNL A   1      41.626  23.373  27.477  1.00  0.00     0.031 A 
ATOM     73  C   UNL A   1      43.158  24.839  26.333  1.00  0.00     0.131 A 
ATOM     74  C   UNL A   1      41.729  22.476  26.401  1.00  0.00     0.055 A 
ATOM     75  C   UNL A   1      43.218  23.969  25.244  1.00  0.00     0.041 A 
ATOM     76  F   UNL A   1      43.883  25.967  26.268  1.00  0.00    -0.206 F 
ATOM     77  C   UNL A   1      42.508  22.773  25.279  1.00  0.00     0.022 A 
BRANCH  74  78
ATOM     78  S   UNL A   1      40.884  20.875  26.516  1.00  0.00     0.124 S 
ATOM     79  O   UNL A   1      41.765  20.016  25.733  1.00  0.00    -0.237 OA
ATOM     80  O   UNL A   1      40.873  20.641  27.956  1.00  0.00    -0.237 OA
ATOM     81  O   UNL A   1      39.576  21.136  25.918  1.00  0.00    -0.744 OA
ENDBRANCH  74  78
ENDBRANCH  47  71
BRANCH  59  82
ATOM     82  C   UNL A   1      46.843  26.100  32.574  1.00  0.00     0.023 A 
ATOM     83  C   UNL A   1      46.953  25.067  33.521  1.00  0.00     0.031 A 
ATOM     84  C   UNL A   1      48.021  26.593  31.988  1.00  0.00     0.131 A 
ATOM     85  C   UNL A   1      48.220  24.590  33.888  1.00  0.00     0.055 A 
ATOM     86  C   UNL A   1      49.275  26.080  32.320  1.00  0.00     0.041 A 
ATOM     87  F   UNL A   1      47.970  27.581  31.080  1.00  0.00    -0.206 F 
ATOM     88  C   UNL A   1      49.381  25.080  33.282  1.00  0.00     0.022 A 
BRANCH  85  89
ATOM     89  S   UNL A   1      48.341  23.369  35.224  1.00  0.00     0.124 S 
ATOM     90  O   UNL A   1      47.534  22.269  34.704  1.00  0.00    -0.237 OA
ATOM     91  O   UNL A   1      49.778  23.126  35.298  1.00  0.00    -0.237 OA
ATOM     92  O   UNL A   1      47.771  24.064  36.377  1.00  0.00    -0.744 OA
ENDBRANCH  85  89
ENDBRANCH  59  82
ENDBRANCH  33  34
ENDBRANCH  26  28
ENDBRANCH  25  26
ENDBRANCH  24  25
ENDBRANCH   1  24
TORSDOF 17
ENDMDL
