MODEL 1
REMARK VINA RESULT:     -11.1      0.000      0.000
REMARK SMILES Cc1cc([C@@H]([NH3+])C[C@H](C)CC(=O)OCCOC(=O)c2ccc(-c3c4nc(c(-c5cc(S(=O)(=O)[O-])ccc5F)c5ccc([nH]5)c(-c5cc(S(=O)(=O)[O-])ccc5F)c5nc(c(-c6cc(S(=O)(=O)[O-])ccc6F)c6ccc3[nH]6)C=C5)C=C4)cc2)ccc1F
REMARK SMILES IDX 14 1 13 2 11 3 12 4 10 5 8 6 9 7 7 8 5 9 4 10 1 11 2 12 3 13
REMARK SMILES IDX 84 14 83 15 85 16 82 17 6 18 15 22 16 23 17 24 18 25 19 26
REMARK SMILES IDX 20 27 81 28 21 29 80 30 22 31 23 32 24 33 74 34 25 35 79 36
REMARK SMILES IDX 73 37 75 38 26 39 78 40 72 41 71 42 27 44 59 45 39 46 58 47
REMARK SMILES IDX 40 48 43 49 57 50 76 51 41 52 42 53 56 55 77 56 44 57 28 58
REMARK SMILES IDX 29 59 37 60 30 61 36 62 38 63 35 64 31 65 32 66 33 67 34 68
REMARK SMILES IDX 60 69 61 70 69 71 62 72 68 73 70 74 67 75 63 76 64 77 65 78
REMARK SMILES IDX 66 79 45 80 46 81 54 82 47 83 53 84 55 85 52 86 48 87 49 88
REMARK SMILES IDX 50 89 51 90
REMARK H PARENT 6 19 6 20 6 21 75 43 43 54
REMARK Flexibility Score: inf
ROOT
ATOM      1  C   UNL A   1      33.104  30.352  26.651  1.00  0.00     0.274 C 
ENDROOT
BRANCH   1   2
ATOM      2  O   UNL A   1      31.828  29.775  26.998  1.00  0.00    -0.462 OA
BRANCH   2   3
ATOM      3  C   UNL A   1      31.762  28.420  27.110  1.00  0.00     0.306 C 
ATOM      4  O   UNL A   1      31.345  27.842  28.110  1.00  0.00    -0.252 OA
BRANCH   3   5
ATOM      5  C   UNL A   1      32.290  27.670  25.891  1.00  0.00     0.126 C 
BRANCH   5   6
ATOM      6  C   UNL A   1      31.281  27.284  24.785  1.00  0.00     0.003 C 
ATOM      7  C   UNL A   1      31.874  27.548  23.394  1.00  0.00     0.008 C 
BRANCH   6   8
ATOM      8  C   UNL A   1      30.827  25.799  24.929  1.00  0.00     0.074 C 
BRANCH   8   9
ATOM      9  C   UNL A   1      31.415  24.826  23.872  1.00  0.00     0.212 C 
BRANCH   9  10
ATOM     10  C   UNL A   1      32.523  23.910  24.360  1.00  0.00     0.010 A 
ATOM     11  C   UNL A   1      33.774  22.554  27.710  1.00  0.00     0.047 C 
ATOM     12  C   UNL A   1      33.661  22.822  26.242  1.00  0.00    -0.015 A 
ATOM     13  C   UNL A   1      32.690  23.696  25.744  1.00  0.00     0.016 A 
ATOM     14  C   UNL A   1      34.490  22.172  25.330  1.00  0.00     0.126 A 
ATOM     15  C   UNL A   1      34.364  22.383  23.960  1.00  0.00     0.040 A 
ATOM     16  F   UNL A   1      35.421  21.313  25.771  1.00  0.00    -0.207 F 
ATOM     17  C   UNL A   1      33.379  23.243  23.475  1.00  0.00     0.013 A 
ENDBRANCH   9  10
BRANCH   9  18
ATOM     18  N   UNL A   1      30.343  24.074  23.199  1.00  0.00    -0.351 N 
ATOM     19  H   UNL A   1      30.689  23.704  22.315  1.00  0.00     0.345 HD
ATOM     20  H   UNL A   1      29.552  24.694  23.022  1.00  0.00     0.345 HD
ATOM     21  H   UNL A   1      30.042  23.303  23.796  1.00  0.00     0.345 HD
ENDBRANCH   9  18
ENDBRANCH   8   9
ENDBRANCH   6   8
ENDBRANCH   5   6
ENDBRANCH   3   5
ENDBRANCH   2   3
ENDBRANCH   1   2
BRANCH   1  22
ATOM     22  C   UNL A   1      33.565  31.392  27.675  1.00  0.00     0.275 C 
BRANCH  22  23
ATOM     23  O   UNL A   1      34.881  31.878  27.382  1.00  0.00    -0.458 OA
BRANCH  23  24
ATOM     24  C   UNL A   1      35.760  31.575  28.365  1.00  0.00     0.338 C 
ATOM     25  O   UNL A   1      36.271  32.363  29.144  1.00  0.00    -0.246 OA
BRANCH  24  26
ATOM     26  C   UNL A   1      36.270  30.212  28.248  1.00  0.00     0.060 A 
ATOM     27  C   UNL A   1      36.502  29.540  29.454  1.00  0.00     0.016 A 
ATOM     28  C   UNL A   1      37.044  29.983  27.111  1.00  0.00     0.016 A 
ATOM     29  C   UNL A   1      37.686  28.834  29.606  1.00  0.00     0.010 A 
ATOM     30  C   UNL A   1      38.225  29.295  27.274  1.00  0.00     0.010 A 
ATOM     31  C   UNL A   1      38.586  28.815  28.544  1.00  0.00    -0.014 A 
BRANCH  31  32
ATOM     32  C   UNL A   1      39.944  28.316  28.659  1.00  0.00     0.031 A 
ATOM     33  C   UNL A   1      40.208  26.875  28.585  1.00  0.00     0.074 A 
ATOM     34  C   UNL A   1      40.979  29.181  28.729  1.00  0.00     0.049 A 
ATOM     35  N   UNL A   1      41.314  26.327  28.960  1.00  0.00    -0.248 NA
ATOM     36  C   UNL A   1      39.211  25.928  28.107  1.00  0.00     0.031 C 
ATOM     37  C   UNL A   1      42.369  28.923  28.385  1.00  0.00     0.029 A 
ATOM     38  N   UNL A   1      41.007  30.436  29.336  1.00  0.00    -0.354 N 
ATOM     39  C   UNL A   1      41.303  25.043  28.475  1.00  0.00     0.074 A 
ATOM     40  C   UNL A   1      39.934  24.805  28.066  1.00  0.00     0.031 C 
ATOM     41  C   UNL A   1      43.144  29.838  28.987  1.00  0.00     0.029 A 
ATOM     42  C   UNL A   1      42.296  30.594  29.890  1.00  0.00     0.049 A 
ATOM     43  H   UNL A   1      40.270  31.087  29.371  1.00  0.00     0.167 HD
ATOM     44  C   UNL A   1      42.489  24.394  28.300  1.00  0.00     0.034 A 
ATOM     45  C   UNL A   1      42.565  30.855  31.208  1.00  0.00     0.034 A 
ATOM     46  C   UNL A   1      43.622  25.174  28.810  1.00  0.00     0.049 A 
ATOM     47  C   UNL A   1      43.493  29.857  31.859  1.00  0.00     0.074 A 
ATOM     48  C   UNL A   1      44.568  25.991  28.209  1.00  0.00     0.029 A 
ATOM     49  N   UNL A   1      43.728  25.411  30.171  1.00  0.00    -0.354 N 
ATOM     50  N   UNL A   1      44.005  28.835  31.241  1.00  0.00    -0.248 NA
ATOM     51  C   UNL A   1      43.778  29.844  33.297  1.00  0.00     0.031 C 
ATOM     52  C   UNL A   1      45.259  26.703  29.226  1.00  0.00     0.029 A 
ATOM     53  C   UNL A   1      44.735  26.322  30.446  1.00  0.00     0.049 A 
ATOM     54  H   UNL A   1      43.160  24.987  30.854  1.00  0.00     0.167 HD
ATOM     55  C   UNL A   1      44.536  27.978  32.161  1.00  0.00     0.074 A 
ATOM     56  C   UNL A   1      44.408  28.666  33.431  1.00  0.00     0.031 C 
ATOM     57  C   UNL A   1      44.972  26.734  31.822  1.00  0.00     0.034 A 
BRANCH  44  58
ATOM     58  C   UNL A   1      42.630  23.191  27.392  1.00  0.00     0.023 A 
ATOM     59  C   UNL A   1      43.503  23.142  26.286  1.00  0.00     0.031 A 
ATOM     60  C   UNL A   1      41.937  21.992  27.665  1.00  0.00     0.131 A 
ATOM     61  C   UNL A   1      43.781  21.935  25.618  1.00  0.00     0.055 A 
ATOM     62  C   UNL A   1      42.159  20.807  26.954  1.00  0.00     0.041 A 
ATOM     63  F   UNL A   1      41.041  21.901  28.657  1.00  0.00    -0.206 F 
ATOM     64  C   UNL A   1      43.110  20.763  25.948  1.00  0.00     0.022 A 
BRANCH  61  65
ATOM     65  S   UNL A   1      45.111  21.835  24.385  1.00  0.00     0.124 S 
ATOM     66  O   UNL A   1      44.874  20.524  23.780  1.00  0.00    -0.237 OA
ATOM     67  O   UNL A   1      44.827  22.978  23.524  1.00  0.00    -0.237 OA
ATOM     68  O   UNL A   1      46.333  21.927  25.179  1.00  0.00    -0.744 OA
ENDBRANCH  61  65
ENDBRANCH  44  58
BRANCH  45  69
ATOM     69  C   UNL A   1      41.418  31.461  31.930  1.00  0.00     0.023 A 
ATOM     70  C   UNL A   1      40.556  30.600  32.625  1.00  0.00     0.031 A 
ATOM     71  C   UNL A   1      40.923  32.674  31.417  1.00  0.00     0.131 A 
ATOM     72  C   UNL A   1      39.185  30.830  32.547  1.00  0.00     0.055 A 
ATOM     73  C   UNL A   1      39.555  32.856  31.281  1.00  0.00     0.041 A 
ATOM     74  F   UNL A   1      41.747  33.558  30.832  1.00  0.00    -0.206 F 
ATOM     75  C   UNL A   1      38.690  31.881  31.769  1.00  0.00     0.022 A 
BRANCH  72  76
ATOM     76  S   UNL A   1      38.048  29.683  33.365  1.00  0.00     0.124 S 
ATOM     77  O   UNL A   1      36.773  30.079  32.775  1.00  0.00    -0.237 OA
ATOM     78  O   UNL A   1      38.532  28.372  32.949  1.00  0.00    -0.237 OA
ATOM     79  O   UNL A   1      38.235  29.997  34.776  1.00  0.00    -0.744 OA
ENDBRANCH  72  76
ENDBRANCH  45  69
BRANCH  57  80
ATOM     80  C   UNL A   1      45.655  25.804  32.779  1.00  0.00     0.023 A 
ATOM     81  C   UNL A   1      44.892  24.941  33.591  1.00  0.00     0.031 A 
ATOM     82  C   UNL A   1      47.050  25.624  32.798  1.00  0.00     0.131 A 
ATOM     83  C   UNL A   1      45.508  23.966  34.382  1.00  0.00     0.055 A 
ATOM     84  C   UNL A   1      47.667  24.680  33.625  1.00  0.00     0.041 A 
ATOM     85  F   UNL A   1      47.852  26.318  31.975  1.00  0.00    -0.206 F 
ATOM     86  C   UNL A   1      46.894  23.842  34.419  1.00  0.00     0.022 A 
BRANCH  83  87
ATOM     87  S   UNL A   1      44.518  22.763  35.311  1.00  0.00     0.124 S 
ATOM     88  O   UNL A   1      44.536  21.606  34.416  1.00  0.00    -0.237 OA
ATOM     89  O   UNL A   1      45.300  22.616  36.536  1.00  0.00    -0.237 OA
ATOM     90  O   UNL A   1      43.225  23.417  35.462  1.00  0.00    -0.744 OA
ENDBRANCH  83  87
ENDBRANCH  57  80
ENDBRANCH  31  32
ENDBRANCH  24  26
ENDBRANCH  23  24
ENDBRANCH  22  23
ENDBRANCH   1  22
TORSDOF 19
ENDMDL
MODEL 2
REMARK VINA RESULT:     -11.0      4.011      9.828
REMARK SMILES Cc1cc([C@@H]([NH3+])C[C@H](C)CC(=O)OCCOC(=O)c2ccc(-c3c4nc(c(-c5cc(S(=O)(=O)[O-])ccc5F)c5ccc([nH]5)c(-c5cc(S(=O)(=O)[O-])ccc5F)c5nc(c(-c6cc(S(=O)(=O)[O-])ccc6F)c6ccc3[nH]6)C=C5)C=C4)cc2)ccc1F
REMARK SMILES IDX 14 1 13 2 11 3 12 4 10 5 8 6 9 7 7 8 5 9 4 10 1 11 2 12 3 13
REMARK SMILES IDX 84 14 83 15 85 16 82 17 6 18 15 22 16 23 17 24 18 25 19 26
REMARK SMILES IDX 20 27 81 28 21 29 80 30 22 31 23 32 24 33 74 34 25 35 79 36
REMARK SMILES IDX 73 37 75 38 26 39 78 40 72 41 71 42 27 44 59 45 39 46 58 47
REMARK SMILES IDX 40 48 43 49 57 50 76 51 41 52 42 53 56 55 77 56 44 57 28 58
REMARK SMILES IDX 29 59 37 60 30 61 36 62 38 63 35 64 31 65 32 66 33 67 34 68
REMARK SMILES IDX 60 69 61 70 69 71 62 72 68 73 70 74 67 75 63 76 64 77 65 78
REMARK SMILES IDX 66 79 45 80 46 81 54 82 47 83 53 84 55 85 52 86 48 87 49 88
REMARK SMILES IDX 50 89 51 90
REMARK H PARENT 6 19 6 20 6 21 75 43 43 54
REMARK Flexibility Score: inf
ROOT
ATOM      1  C   UNL A   1      39.906  20.335  26.300  1.00  0.00     0.274 C 
ENDROOT
BRANCH   1   2
ATOM      2  O   UNL A   1      38.767  21.194  26.086  1.00  0.00    -0.462 OA
BRANCH   2   3
ATOM      3  C   UNL A   1      37.919  20.870  25.072  1.00  0.00     0.306 C 
ATOM      4  O   UNL A   1      37.785  19.730  24.636  1.00  0.00    -0.252 OA
BRANCH   3   5
ATOM      5  C   UNL A   1      37.167  22.063  24.488  1.00  0.00     0.126 C 
BRANCH   5   6
ATOM      6  C   UNL A   1      36.075  22.727  25.359  1.00  0.00     0.003 C 
ATOM      7  C   UNL A   1      36.408  24.205  25.611  1.00  0.00     0.008 C 
BRANCH   6   8
ATOM      8  C   UNL A   1      34.665  22.572  24.711  1.00  0.00     0.074 C 
BRANCH   8   9
ATOM      9  C   UNL A   1      33.729  21.550  25.410  1.00  0.00     0.212 C 
BRANCH   9  10
ATOM     10  C   UNL A   1      33.524  20.233  24.680  1.00  0.00     0.010 A 
ATOM     11  C   UNL A   1      35.077  16.739  24.704  1.00  0.00     0.047 C 
ATOM     12  C   UNL A   1      34.202  17.899  24.347  1.00  0.00    -0.015 A 
ATOM     13  C   UNL A   1      34.380  19.147  24.953  1.00  0.00     0.016 A 
ATOM     14  C   UNL A   1      33.158  17.754  23.436  1.00  0.00     0.126 A 
ATOM     15  C   UNL A   1      32.312  18.817  23.130  1.00  0.00     0.040 A 
ATOM     16  F   UNL A   1      32.946  16.567  22.849  1.00  0.00    -0.207 F 
ATOM     17  C   UNL A   1      32.489  20.050  23.755  1.00  0.00     0.013 A 
ENDBRANCH   9  10
BRANCH   9  18
ATOM     18  N   UNL A   1      34.136  21.339  26.809  1.00  0.00    -0.351 N 
ATOM     19  H   UNL A   1      34.193  22.238  27.287  1.00  0.00     0.345 HD
ATOM     20  H   UNL A   1      35.048  20.883  26.833  1.00  0.00     0.345 HD
ATOM     21  H   UNL A   1      33.449  20.748  27.278  1.00  0.00     0.345 HD
ENDBRANCH   9  18
ENDBRANCH   8   9
ENDBRANCH   6   8
ENDBRANCH   5   6
ENDBRANCH   3   5
ENDBRANCH   2   3
ENDBRANCH   1   2
BRANCH   1  22
ATOM     22  C   UNL A   1      41.182  21.130  26.587  1.00  0.00     0.275 C 
BRANCH  22  23
ATOM     23  O   UNL A   1      40.909  22.318  27.342  1.00  0.00    -0.458 OA
BRANCH  23  24
ATOM     24  C   UNL A   1      41.276  23.434  26.672  1.00  0.00     0.338 C 
ATOM     25  O   UNL A   1      42.350  23.627  26.125  1.00  0.00    -0.246 OA
BRANCH  24  26
ATOM     26  C   UNL A   1      40.345  24.538  26.888  1.00  0.00     0.060 A 
ATOM     27  C   UNL A   1      40.597  25.703  26.153  1.00  0.00     0.016 A 
ATOM     28  C   UNL A   1      39.780  24.574  28.162  1.00  0.00     0.016 A 
ATOM     29  C   UNL A   1      40.535  26.927  26.802  1.00  0.00     0.010 A 
ATOM     30  C   UNL A   1      39.738  25.790  28.805  1.00  0.00     0.010 A 
ATOM     31  C   UNL A   1      40.212  26.942  28.156  1.00  0.00    -0.014 A 
BRANCH  31  32
ATOM     32  C   UNL A   1      40.344  28.120  28.993  1.00  0.00     0.031 A 
ATOM     33  C   UNL A   1      39.479  29.284  28.768  1.00  0.00     0.074 A 
ATOM     34  C   UNL A   1      41.187  28.110  30.049  1.00  0.00     0.049 A 
ATOM     35  N   UNL A   1      39.712  30.456  29.254  1.00  0.00    -0.248 NA
ATOM     36  C   UNL A   1      38.290  29.215  27.932  1.00  0.00     0.031 C 
ATOM     37  C   UNL A   1      41.127  28.951  31.234  1.00  0.00     0.029 A 
ATOM     38  N   UNL A   1      42.413  27.455  30.159  1.00  0.00    -0.354 N 
ATOM     39  C   UNL A   1      38.564  31.189  29.083  1.00  0.00     0.074 A 
ATOM     40  C   UNL A   1      37.762  30.423  28.151  1.00  0.00     0.031 C 
ATOM     41  C   UNL A   1      42.334  28.966  31.819  1.00  0.00     0.029 A 
ATOM     42  C   UNL A   1      43.255  28.290  30.925  1.00  0.00     0.049 A 
ATOM     43  H   UNL A   1      42.646  26.579  29.777  1.00  0.00     0.167 HD
ATOM     44  C   UNL A   1      38.342  32.265  29.890  1.00  0.00     0.034 A 
ATOM     45  C   UNL A   1      44.474  28.770  30.522  1.00  0.00     0.034 A 
ATOM     46  C   UNL A   1      39.489  32.544  30.761  1.00  0.00     0.049 A 
ATOM     47  C   UNL A   1      44.594  30.274  30.575  1.00  0.00     0.074 A 
ATOM     48  C   UNL A   1      39.776  32.255  32.087  1.00  0.00     0.029 A 
ATOM     49  N   UNL A   1      40.684  32.965  30.199  1.00  0.00    -0.354 N 
ATOM     50  N   UNL A   1      43.640  31.063  30.968  1.00  0.00    -0.248 NA
ATOM     51  C   UNL A   1      45.741  31.008  30.031  1.00  0.00     0.031 C 
ATOM     52  C   UNL A   1      41.150  32.530  32.320  1.00  0.00     0.029 A 
ATOM     53  C   UNL A   1      41.703  32.986  31.139  1.00  0.00     0.049 A 
ATOM     54  H   UNL A   1      40.795  33.217  29.254  1.00  0.00     0.167 HD
ATOM     55  C   UNL A   1      43.947  32.345  30.614  1.00  0.00     0.074 A 
ATOM     56  C   UNL A   1      45.287  32.272  30.066  1.00  0.00     0.031 C 
ATOM     57  C   UNL A   1      43.047  33.361  30.728  1.00  0.00     0.034 A 
BRANCH  44  58
ATOM     58  C   UNL A   1      36.964  32.860  30.089  1.00  0.00     0.023 A 
ATOM     59  C   UNL A   1      36.345  33.001  31.347  1.00  0.00     0.031 A 
ATOM     60  C   UNL A   1      36.244  33.398  29.000  1.00  0.00     0.131 A 
ATOM     61  C   UNL A   1      35.180  33.771  31.514  1.00  0.00     0.055 A 
ATOM     62  C   UNL A   1      35.045  34.104  29.157  1.00  0.00     0.041 A 
ATOM     63  F   UNL A   1      36.686  33.301  27.739  1.00  0.00    -0.206 F 
ATOM     64  C   UNL A   1      34.524  34.324  30.421  1.00  0.00     0.022 A 
BRANCH  61  65
ATOM     65  S   UNL A   1      34.556  34.172  33.172  1.00  0.00     0.124 S 
ATOM     66  O   UNL A   1      33.111  34.246  32.950  1.00  0.00    -0.237 OA
ATOM     67  O   UNL A   1      35.006  33.031  33.962  1.00  0.00    -0.237 OA
ATOM     68  O   UNL A   1      35.190  35.451  33.486  1.00  0.00    -0.744 OA
ENDBRANCH  61  65
ENDBRANCH  44  58
BRANCH  45  69
ATOM     69  C   UNL A   1      45.091  27.961  29.440  1.00  0.00     0.023 A 
ATOM     70  C   UNL A   1      44.786  28.303  28.114  1.00  0.00     0.031 A 
ATOM     71  C   UNL A   1      45.412  26.629  29.756  1.00  0.00     0.131 A 
ATOM     72  C   UNL A   1      44.535  27.279  27.206  1.00  0.00     0.055 A 
ATOM     73  C   UNL A   1      45.090  25.614  28.869  1.00  0.00     0.041 A 
ATOM     74  F   UNL A   1      45.801  26.294  30.998  1.00  0.00    -0.206 F 
ATOM     75  C   UNL A   1      44.562  25.945  27.624  1.00  0.00     0.022 A 
BRANCH  72  76
ATOM     76  S   UNL A   1      44.055  27.697  25.512  1.00  0.00     0.124 S 
ATOM     77  O   UNL A   1      45.337  28.107  24.946  1.00  0.00    -0.237 OA
ATOM     78  O   UNL A   1      43.531  26.442  24.989  1.00  0.00    -0.237 OA
ATOM     79  O   UNL A   1      43.067  28.751  25.708  1.00  0.00    -0.744 OA
ENDBRANCH  72  76
ENDBRANCH  45  69
BRANCH  57  80
ATOM     80  C   UNL A   1      43.377  34.796  30.451  1.00  0.00     0.023 A 
ATOM     81  C   UNL A   1      43.202  35.322  29.155  1.00  0.00     0.031 A 
ATOM     82  C   UNL A   1      43.704  35.711  31.467  1.00  0.00     0.131 A 
ATOM     83  C   UNL A   1      43.363  36.690  28.905  1.00  0.00     0.055 A 
ATOM     84  C   UNL A   1      43.910  37.070  31.208  1.00  0.00     0.041 A 
ATOM     85  F   UNL A   1      43.779  35.327  32.751  1.00  0.00    -0.206 F 
ATOM     86  C   UNL A   1      43.734  37.566  29.922  1.00  0.00     0.022 A 
BRANCH  83  87
ATOM     87  S   UNL A   1      42.995  37.385  27.271  1.00  0.00     0.124 S 
ATOM     88  O   UNL A   1      42.622  36.191  26.515  1.00  0.00    -0.237 OA
ATOM     89  O   UNL A   1      41.897  38.298  27.577  1.00  0.00    -0.237 OA
ATOM     90  O   UNL A   1      44.246  38.015  26.869  1.00  0.00    -0.744 OA
ENDBRANCH  83  87
ENDBRANCH  57  80
ENDBRANCH  31  32
ENDBRANCH  24  26
ENDBRANCH  23  24
ENDBRANCH  22  23
ENDBRANCH   1  22
TORSDOF 19
ENDMDL
MODEL 3
REMARK VINA RESULT:     -10.9      6.625     11.168
REMARK SMILES Cc1cc([C@@H]([NH3+])C[C@H](C)CC(=O)OCCOC(=O)c2ccc(-c3c4nc(c(-c5cc(S(=O)(=O)[O-])ccc5F)c5ccc([nH]5)c(-c5cc(S(=O)(=O)[O-])ccc5F)c5nc(c(-c6cc(S(=O)(=O)[O-])ccc6F)c6ccc3[nH]6)C=C5)C=C4)cc2)ccc1F
REMARK SMILES IDX 14 1 13 2 11 3 12 4 10 5 8 6 9 7 7 8 5 9 4 10 1 11 2 12 3 13
REMARK SMILES IDX 84 14 83 15 85 16 82 17 6 18 15 22 16 23 17 24 18 25 19 26
REMARK SMILES IDX 20 27 81 28 21 29 80 30 22 31 23 32 24 33 74 34 25 35 79 36
REMARK SMILES IDX 73 37 75 38 26 39 78 40 72 41 71 42 27 44 59 45 39 46 58 47
REMARK SMILES IDX 40 48 43 49 57 50 76 51 41 52 42 53 56 55 77 56 44 57 28 58
REMARK SMILES IDX 29 59 37 60 30 61 36 62 38 63 35 64 31 65 32 66 33 67 34 68
REMARK SMILES IDX 60 69 61 70 69 71 62 72 68 73 70 74 67 75 63 76 64 77 65 78
REMARK SMILES IDX 66 79 45 80 46 81 54 82 47 83 53 84 55 85 52 86 48 87 49 88
REMARK SMILES IDX 50 89 51 90
REMARK H PARENT 6 19 6 20 6 21 75 43 43 54
REMARK Flexibility Score: inf
ROOT
ATOM      1  C   UNL A   1      32.498  29.928  27.065  1.00  0.00     0.274 C 
ENDROOT
BRANCH   1   2
ATOM      2  O   UNL A   1      32.680  29.351  25.755  1.00  0.00    -0.462 OA
BRANCH   2   3
ATOM      3  C   UNL A   1      32.794  27.998  25.676  1.00  0.00     0.306 C 
ATOM      4  O   UNL A   1      33.869  27.412  25.567  1.00  0.00    -0.252 OA
BRANCH   3   5
ATOM      5  C   UNL A   1      31.459  27.260  25.695  1.00  0.00     0.126 C 
BRANCH   5   6
ATOM      6  C   UNL A   1      30.938  26.673  24.363  1.00  0.00     0.003 C 
ATOM      7  C   UNL A   1      30.664  25.169  24.502  1.00  0.00     0.008 C 
BRANCH   6   8
ATOM      8  C   UNL A   1      29.666  27.431  23.872  1.00  0.00     0.074 C 
BRANCH   8   9
ATOM      9  C   UNL A   1      29.852  28.252  22.568  1.00  0.00     0.212 C 
BRANCH   9  10
ATOM     10  C   UNL A   1      29.484  29.723  22.653  1.00  0.00     0.010 A 
ATOM     11  C   UNL A   1      27.962  32.374  20.355  1.00  0.00     0.047 C 
ATOM     12  C   UNL A   1      28.570  31.717  21.555  1.00  0.00    -0.015 A 
ATOM     13  C   UNL A   1      28.971  30.379  21.515  1.00  0.00     0.016 A 
ATOM     14  C   UNL A   1      28.709  32.410  22.756  1.00  0.00     0.126 A 
ATOM     15  C   UNL A   1      29.234  31.794  23.890  1.00  0.00     0.040 A 
ATOM     16  F   UNL A   1      28.317  33.690  22.836  1.00  0.00    -0.207 F 
ATOM     17  C   UNL A   1      29.613  30.454  23.841  1.00  0.00     0.013 A 
ENDBRANCH   9  10
BRANCH   9  18
ATOM     18  N   UNL A   1      31.204  28.060  22.017  1.00  0.00    -0.351 N 
ATOM     19  H   UNL A   1      31.620  28.968  21.812  1.00  0.00     0.345 HD
ATOM     20  H   UNL A   1      31.146  27.511  21.159  1.00  0.00     0.345 HD
ATOM     21  H   UNL A   1      31.782  27.567  22.698  1.00  0.00     0.345 HD
ENDBRANCH   9  18
ENDBRANCH   8   9
ENDBRANCH   6   8
ENDBRANCH   5   6
ENDBRANCH   3   5
ENDBRANCH   2   3
ENDBRANCH   1   2
BRANCH   1  22
ATOM     22  C   UNL A   1      33.471  31.080  27.329  1.00  0.00     0.275 C 
BRANCH  22  23
ATOM     23  O   UNL A   1      34.653  30.631  28.005  1.00  0.00    -0.458 OA
BRANCH  23  24
ATOM     24  C   UNL A   1      35.147  31.577  28.836  1.00  0.00     0.338 C 
ATOM     25  O   UNL A   1      34.511  32.473  29.368  1.00  0.00    -0.246 OA
BRANCH  24  26
ATOM     26  C   UNL A   1      36.607  31.601  28.841  1.00  0.00     0.060 A 
ATOM     27  C   UNL A   1      37.232  30.579  29.564  1.00  0.00     0.016 A 
ATOM     28  C   UNL A   1      37.162  32.875  28.728  1.00  0.00     0.016 A 
ATOM     29  C   UNL A   1      38.286  30.905  30.405  1.00  0.00     0.010 A 
ATOM     30  C   UNL A   1      38.196  33.195  29.577  1.00  0.00     0.010 A 
ATOM     31  C   UNL A   1      38.681  32.238  30.483  1.00  0.00    -0.014 A 
BRANCH  31  32
ATOM     32  C   UNL A   1      39.600  32.738  31.488  1.00  0.00     0.031 A 
ATOM     33  C   UNL A   1      39.088  33.429  32.677  1.00  0.00     0.074 A 
ATOM     34  C   UNL A   1      40.922  32.478  31.386  1.00  0.00     0.049 A 
ATOM     35  N   UNL A   1      39.818  34.148  33.460  1.00  0.00    -0.248 NA
ATOM     36  C   UNL A   1      37.683  33.384  33.053  1.00  0.00     0.031 C 
ATOM     37  C   UNL A   1      41.904  32.466  32.458  1.00  0.00     0.029 A 
ATOM     38  N   UNL A   1      41.686  32.370  30.225  1.00  0.00    -0.354 N 
ATOM     39  C   UNL A   1      39.076  34.377  34.592  1.00  0.00     0.074 A 
ATOM     40  C   UNL A   1      37.724  33.995  34.241  1.00  0.00     0.031 C 
ATOM     41  C   UNL A   1      43.129  32.609  31.929  1.00  0.00     0.029 A 
ATOM     42  C   UNL A   1      42.958  32.908  30.519  1.00  0.00     0.049 A 
ATOM     43  H   UNL A   1      41.395  31.991  29.364  1.00  0.00     0.167 HD
ATOM     44  C   UNL A   1      39.722  34.686  35.752  1.00  0.00     0.034 A 
ATOM     45  C   UNL A   1      43.559  33.937  29.843  1.00  0.00     0.034 A 
ATOM     46  C   UNL A   1      41.165  34.855  35.549  1.00  0.00     0.049 A 
ATOM     47  C   UNL A   1      43.964  35.099  30.716  1.00  0.00     0.074 A 
ATOM     48  C   UNL A   1      42.263  34.035  35.757  1.00  0.00     0.029 A 
ATOM     49  N   UNL A   1      41.624  35.915  34.783  1.00  0.00    -0.354 N 
ATOM     50  N   UNL A   1      43.771  35.141  32.001  1.00  0.00    -0.248 NA
ATOM     51  C   UNL A   1      44.464  36.370  30.183  1.00  0.00     0.031 C 
ATOM     52  C   UNL A   1      43.392  34.624  35.127  1.00  0.00     0.029 A 
ATOM     53  C   UNL A   1      42.984  35.804  34.535  1.00  0.00     0.049 A 
ATOM     54  H   UNL A   1      41.058  36.651  34.457  1.00  0.00     0.167 HD
ATOM     55  C   UNL A   1      43.960  36.420  32.440  1.00  0.00     0.074 A 
ATOM     56  C   UNL A   1      44.431  37.148  31.278  1.00  0.00     0.031 C 
ATOM     57  C   UNL A   1      43.643  36.803  33.707  1.00  0.00     0.034 A 
BRANCH  44  58
ATOM     58  C   UNL A   1      39.071  34.528  37.110  1.00  0.00     0.023 A 
ATOM     59  C   UNL A   1      38.221  33.456  37.452  1.00  0.00     0.031 A 
ATOM     60  C   UNL A   1      39.359  35.426  38.160  1.00  0.00     0.131 A 
ATOM     61  C   UNL A   1      37.833  33.217  38.783  1.00  0.00     0.055 A 
ATOM     62  C   UNL A   1      38.913  35.229  39.473  1.00  0.00     0.041 A 
ATOM     63  F   UNL A   1      40.116  36.516  37.974  1.00  0.00    -0.206 F 
ATOM     64  C   UNL A   1      38.176  34.102  39.799  1.00  0.00     0.022 A 
BRANCH  61  65
ATOM     65  S   UNL A   1      36.976  31.684  39.245  1.00  0.00     0.124 S 
ATOM     66  O   UNL A   1      37.616  31.342  40.515  1.00  0.00    -0.237 OA
ATOM     67  O   UNL A   1      35.587  32.120  39.345  1.00  0.00    -0.237 OA
ATOM     68  O   UNL A   1      37.275  30.770  38.145  1.00  0.00    -0.744 OA
ENDBRANCH  61  65
ENDBRANCH  44  58
BRANCH  45  69
ATOM     69  C   UNL A   1      43.026  34.123  28.469  1.00  0.00     0.023 A 
ATOM     70  C   UNL A   1      43.816  33.682  27.397  1.00  0.00     0.031 A 
ATOM     71  C   UNL A   1      42.137  35.196  28.280  1.00  0.00     0.131 A 
ATOM     72  C   UNL A   1      43.907  34.488  26.266  1.00  0.00     0.055 A 
ATOM     73  C   UNL A   1      42.287  36.030  27.183  1.00  0.00     0.041 A 
ATOM     74  F   UNL A   1      41.301  35.575  29.262  1.00  0.00    -0.206 F 
ATOM     75  C   UNL A   1      43.244  35.717  26.221  1.00  0.00     0.022 A 
BRANCH  72  76
ATOM     76  S   UNL A   1      44.988  33.982  24.905  1.00  0.00     0.124 S 
ATOM     77  O   UNL A   1      44.812  32.533  24.925  1.00  0.00    -0.237 OA
ATOM     78  O   UNL A   1      44.410  34.651  23.746  1.00  0.00    -0.237 OA
ATOM     79  O   UNL A   1      46.291  34.482  25.327  1.00  0.00    -0.744 OA
ENDBRANCH  72  76
ENDBRANCH  45  69
BRANCH  57  80
ATOM     80  C   UNL A   1      43.932  38.166  34.258  1.00  0.00     0.023 A 
ATOM     81  C   UNL A   1      43.388  39.308  33.637  1.00  0.00     0.031 A 
ATOM     82  C   UNL A   1      44.596  38.366  35.481  1.00  0.00     0.131 A 
ATOM     83  C   UNL A   1      43.522  40.575  34.215  1.00  0.00     0.055 A 
ATOM     84  C   UNL A   1      44.770  39.639  36.035  1.00  0.00     0.041 A 
ATOM     85  F   UNL A   1      45.048  37.330  36.205  1.00  0.00    -0.206 F 
ATOM     86  C   UNL A   1      44.227  40.751  35.403  1.00  0.00     0.022 A 
BRANCH  83  87
ATOM     87  S   UNL A   1      42.696  42.019  33.491  1.00  0.00     0.124 S 
ATOM     88  O   UNL A   1      41.963  42.551  34.639  1.00  0.00    -0.237 OA
ATOM     89  O   UNL A   1      43.832  42.821  33.049  1.00  0.00    -0.237 OA
ATOM     90  O   UNL A   1      41.872  41.454  32.430  1.00  0.00    -0.744 OA
ENDBRANCH  83  87
ENDBRANCH  57  80
ENDBRANCH  31  32
ENDBRANCH  24  26
ENDBRANCH  23  24
ENDBRANCH  22  23
ENDBRANCH   1  22
TORSDOF 19
ENDMDL
