MODEL 1
REMARK VINA RESULT:     -11.9      0.000      0.000
REMARK SMILES C[C@@H](Nc1cccc(C(=O)OCCOC(=O)c2ccc(-c3c4nc(c(-c5cc(S(=O)(=O)[O-])ccc5F)c5ccc([nH]5)c(-c5cc(S(=O)(=O)[O-])ccc5F)c5nc(c(-c6cc(S(=O)(=O)[O-])ccc6F)c6ccc3[nH]6)C=C5)C=C4)cc2)c1)C1CC[NH+](C)CC1
REMARK SMILES IDX 12 1 11 2 9 3 10 4 8 5 4 6 5 7 80 8 6 9 7 10 3 11 2 13 1 14
REMARK SMILES IDX 81 15 82 16 87 17 83 18 86 19 84 20 85 21 13 23 14 24 15 25
REMARK SMILES IDX 16 26 17 27 18 28 79 29 19 30 78 31 20 32 21 33 22 34 72 35
REMARK SMILES IDX 23 36 77 37 71 38 73 39 24 40 76 41 70 42 69 43 25 45 57 46
REMARK SMILES IDX 37 47 56 48 38 49 41 50 55 51 74 52 39 53 40 54 54 56 75 57
REMARK SMILES IDX 42 58 26 59 27 60 35 61 28 62 34 63 36 64 33 65 29 66 30 67
REMARK SMILES IDX 31 68 32 69 58 70 59 71 67 72 60 73 66 74 68 75 65 76 61 77
REMARK SMILES IDX 62 78 63 79 64 80 43 81 44 82 52 83 45 84 51 85 53 86 50 87
REMARK SMILES IDX 46 88 47 89 48 90 49 91
REMARK H PARENT 3 12 84 22 73 44 41 55
REMARK Flexibility Score: inf
ROOT
ATOM      1  C   UNL A   1      35.109  20.317  25.054  1.00  0.00     0.275 C 
ENDROOT
BRANCH   1   2
ATOM      2  O   UNL A   1      33.964  19.946  25.843  1.00  0.00    -0.458 OA
BRANCH   2   3
ATOM      3  C   UNL A   1      32.803  19.772  25.159  1.00  0.00     0.338 C 
ATOM      4  O   UNL A   1      32.170  18.737  25.071  1.00  0.00    -0.246 OA
BRANCH   3   5
ATOM      5  C   UNL A   1      32.357  21.049  24.543  1.00  0.00     0.062 A 
ATOM      6  C   UNL A   1      32.034  23.421  24.778  1.00  0.00     0.035 A 
ATOM      7  C   UNL A   1      31.929  23.541  23.388  1.00  0.00     0.026 A 
ATOM      8  C   UNL A   1      32.069  22.149  25.346  1.00  0.00     0.041 A 
ATOM      9  C   UNL A   1      32.089  22.429  22.570  1.00  0.00     0.003 A 
ATOM     10  C   UNL A   1      32.399  21.204  23.151  1.00  0.00     0.016 A 
BRANCH   6  11
ATOM     11  N   UNL A   1      32.350  24.549  25.508  1.00  0.00    -0.382 N 
ATOM     12  H   UNL A   1      32.600  24.417  26.451  1.00  0.00     0.160 HD
BRANCH  11  13
ATOM     13  C   UNL A   1      32.345  25.938  25.003  1.00  0.00     0.079 C 
ATOM     14  C   UNL A   1      33.755  26.482  25.259  1.00  0.00     0.031 C 
BRANCH  13  15
ATOM     15  C   UNL A   1      31.187  26.873  25.530  1.00  0.00     0.022 C 
ATOM     16  C   UNL A   1      29.899  26.658  24.717  1.00  0.00     0.067 C 
ATOM     17  C   UNL A   1      31.434  28.381  25.661  1.00  0.00     0.067 C 
ATOM     18  C   UNL A   1      29.978  27.357  23.367  1.00  0.00     0.262 C 
ATOM     19  C   UNL A   1      31.339  29.156  24.350  1.00  0.00     0.262 C 
ATOM     20  N   UNL A   1      30.179  28.800  23.522  1.00  0.00    -0.337 N 
ATOM     21  C   UNL A   1      30.295  29.433  22.209  1.00  0.00     0.332 C 
ATOM     22  H   UNL A   1      29.357  29.148  24.016  1.00  0.00     0.347 HD
ENDBRANCH  13  15
ENDBRANCH  11  13
ENDBRANCH   6  11
ENDBRANCH   3   5
ENDBRANCH   2   3
ENDBRANCH   1   2
BRANCH   1  23
ATOM     23  C   UNL A   1      35.920  21.393  25.774  1.00  0.00     0.275 C 
BRANCH  23  24
ATOM     24  O   UNL A   1      37.108  21.715  25.026  1.00  0.00    -0.458 OA
BRANCH  24  25
ATOM     25  C   UNL A   1      38.268  21.297  25.584  1.00  0.00     0.338 C 
ATOM     26  O   UNL A   1      38.766  20.184  25.510  1.00  0.00    -0.246 OA
BRANCH  25  27
ATOM     27  C   UNL A   1      38.938  22.426  26.245  1.00  0.00     0.060 A 
ATOM     28  C   UNL A   1      38.519  23.710  25.925  1.00  0.00     0.016 A 
ATOM     29  C   UNL A   1      40.063  22.243  27.040  1.00  0.00     0.016 A 
ATOM     30  C   UNL A   1      39.271  24.819  26.287  1.00  0.00     0.010 A 
ATOM     31  C   UNL A   1      40.752  23.369  27.514  1.00  0.00     0.010 A 
ATOM     32  C   UNL A   1      40.386  24.671  27.114  1.00  0.00    -0.014 A 
BRANCH  32  33
ATOM     33  C   UNL A   1      41.178  25.867  27.521  1.00  0.00     0.031 A 
ATOM     34  C   UNL A   1      40.562  26.902  28.425  1.00  0.00     0.074 A 
ATOM     35  C   UNL A   1      42.453  26.021  27.101  1.00  0.00     0.049 A 
ATOM     36  N   UNL A   1      40.994  28.099  28.731  1.00  0.00    -0.248 NA
ATOM     37  C   UNL A   1      39.279  26.549  29.051  1.00  0.00     0.031 C 
ATOM     38  C   UNL A   1      43.200  25.060  26.282  1.00  0.00     0.029 A 
ATOM     39  N   UNL A   1      43.351  27.041  27.303  1.00  0.00    -0.354 N 
ATOM     40  C   UNL A   1      40.010  28.663  29.537  1.00  0.00     0.074 A 
ATOM     41  C   UNL A   1      38.952  27.683  29.653  1.00  0.00     0.031 C 
ATOM     42  C   UNL A   1      44.443  25.520  26.084  1.00  0.00     0.029 A 
ATOM     43  C   UNL A   1      44.552  26.855  26.657  1.00  0.00     0.049 A 
ATOM     44  H   UNL A   1      43.153  27.831  27.857  1.00  0.00     0.167 HD
ATOM     45  C   UNL A   1      39.996  29.887  30.123  1.00  0.00     0.034 A 
ATOM     46  C   UNL A   1      45.601  27.684  26.486  1.00  0.00     0.034 A 
ATOM     47  C   UNL A   1      41.083  30.833  30.022  1.00  0.00     0.049 A 
ATOM     48  C   UNL A   1      45.528  29.069  27.072  1.00  0.00     0.074 A 
ATOM     49  C   UNL A   1      41.184  32.093  30.587  1.00  0.00     0.029 A 
ATOM     50  N   UNL A   1      42.259  30.625  29.311  1.00  0.00    -0.354 N 
ATOM     51  N   UNL A   1      44.568  29.615  27.784  1.00  0.00    -0.248 NA
ATOM     52  C   UNL A   1      46.671  29.956  26.823  1.00  0.00     0.031 C 
ATOM     53  C   UNL A   1      42.379  32.674  30.156  1.00  0.00     0.029 A 
ATOM     54  C   UNL A   1      43.071  31.745  29.395  1.00  0.00     0.049 A 
ATOM     55  H   UNL A   1      42.482  29.802  28.820  1.00  0.00     0.167 HD
ATOM     56  C   UNL A   1      45.007  30.900  28.089  1.00  0.00     0.074 A 
ATOM     57  C   UNL A   1      46.323  31.040  27.500  1.00  0.00     0.031 C 
ATOM     58  C   UNL A   1      44.379  31.874  28.796  1.00  0.00     0.034 A 
BRANCH  45  59
ATOM     59  C   UNL A   1      38.745  30.295  30.867  1.00  0.00     0.023 A 
ATOM     60  C   UNL A   1      37.669  30.935  30.230  1.00  0.00     0.031 A 
ATOM     61  C   UNL A   1      38.641  30.058  32.250  1.00  0.00     0.131 A 
ATOM     62  C   UNL A   1      36.573  31.382  30.986  1.00  0.00     0.055 A 
ATOM     63  C   UNL A   1      37.510  30.427  32.981  1.00  0.00     0.041 A 
ATOM     64  F   UNL A   1      39.645  29.471  32.921  1.00  0.00    -0.206 F 
ATOM     65  C   UNL A   1      36.474  31.109  32.352  1.00  0.00     0.022 A 
BRANCH  62  66
ATOM     66  S   UNL A   1      35.350  32.460  30.187  1.00  0.00     0.124 S 
ATOM     67  O   UNL A   1      34.362  32.623  31.250  1.00  0.00    -0.237 OA
ATOM     68  O   UNL A   1      36.138  33.642  29.858  1.00  0.00    -0.237 OA
ATOM     69  O   UNL A   1      34.897  31.672  29.041  1.00  0.00    -0.744 OA
ENDBRANCH  62  66
ENDBRANCH  45  59
BRANCH  46  70
ATOM     70  C   UNL A   1      46.774  27.263  25.662  1.00  0.00     0.023 A 
ATOM     71  C   UNL A   1      46.971  27.770  24.368  1.00  0.00     0.031 A 
ATOM     72  C   UNL A   1      47.693  26.309  26.140  1.00  0.00     0.131 A 
ATOM     73  C   UNL A   1      48.032  27.291  23.583  1.00  0.00     0.055 A 
ATOM     74  C   UNL A   1      48.785  25.887  25.380  1.00  0.00     0.041 A 
ATOM     75  F   UNL A   1      47.550  25.781  27.367  1.00  0.00    -0.206 F 
ATOM     76  C   UNL A   1      48.951  26.368  24.088  1.00  0.00     0.022 A 
BRANCH  73  77
ATOM     77  S   UNL A   1      48.134  27.816  21.849  1.00  0.00     0.124 S 
ATOM     78  O   UNL A   1      49.295  28.699  21.875  1.00  0.00    -0.237 OA
ATOM     79  O   UNL A   1      48.309  26.543  21.157  1.00  0.00    -0.237 OA
ATOM     80  O   UNL A   1      46.851  28.477  21.620  1.00  0.00    -0.744 OA
ENDBRANCH  73  77
ENDBRANCH  46  70
BRANCH  58  81
ATOM     81  C   UNL A   1      45.139  33.160  29.013  1.00  0.00     0.023 A 
ATOM     82  C   UNL A   1      44.981  34.269  28.165  1.00  0.00     0.031 A 
ATOM     83  C   UNL A   1      46.038  33.272  30.090  1.00  0.00     0.131 A 
ATOM     84  C   UNL A   1      45.749  35.425  28.377  1.00  0.00     0.055 A 
ATOM     85  C   UNL A   1      46.750  34.446  30.334  1.00  0.00     0.041 A 
ATOM     86  F   UNL A   1      46.233  32.240  30.928  1.00  0.00    -0.206 F 
ATOM     87  C   UNL A   1      46.617  35.527  29.468  1.00  0.00     0.022 A 
BRANCH  84  88
ATOM     88  S   UNL A   1      45.667  36.761  27.155  1.00  0.00     0.124 S 
ATOM     89  O   UNL A   1      44.242  36.806  26.848  1.00  0.00    -0.237 OA
ATOM     90  O   UNL A   1      46.194  37.900  27.900  1.00  0.00    -0.237 OA
ATOM     91  O   UNL A   1      46.520  36.285  26.068  1.00  0.00    -0.744 OA
ENDBRANCH  84  88
ENDBRANCH  58  81
ENDBRANCH  32  33
ENDBRANCH  25  27
ENDBRANCH  24  25
ENDBRANCH  23  24
ENDBRANCH   1  23
TORSDOF 17
ENDMDL
MODEL 2
REMARK VINA RESULT:     -11.8      1.521      2.077
REMARK SMILES C[C@@H](Nc1cccc(C(=O)OCCOC(=O)c2ccc(-c3c4nc(c(-c5cc(S(=O)(=O)[O-])ccc5F)c5ccc([nH]5)c(-c5cc(S(=O)(=O)[O-])ccc5F)c5nc(c(-c6cc(S(=O)(=O)[O-])ccc6F)c6ccc3[nH]6)C=C5)C=C4)cc2)c1)C1CC[NH+](C)CC1
REMARK SMILES IDX 12 1 11 2 9 3 10 4 8 5 4 6 5 7 80 8 6 9 7 10 3 11 2 13 1 14
REMARK SMILES IDX 81 15 82 16 87 17 83 18 86 19 84 20 85 21 13 23 14 24 15 25
REMARK SMILES IDX 16 26 17 27 18 28 79 29 19 30 78 31 20 32 21 33 22 34 72 35
REMARK SMILES IDX 23 36 77 37 71 38 73 39 24 40 76 41 70 42 69 43 25 45 57 46
REMARK SMILES IDX 37 47 56 48 38 49 41 50 55 51 74 52 39 53 40 54 54 56 75 57
REMARK SMILES IDX 42 58 26 59 27 60 35 61 28 62 34 63 36 64 33 65 29 66 30 67
REMARK SMILES IDX 31 68 32 69 58 70 59 71 67 72 60 73 66 74 68 75 65 76 61 77
REMARK SMILES IDX 62 78 63 79 64 80 43 81 44 82 52 83 45 84 51 85 53 86 50 87
REMARK SMILES IDX 46 88 47 89 48 90 49 91
REMARK H PARENT 3 12 84 22 73 44 41 55
REMARK Flexibility Score: inf
ROOT
ATOM      1  C   UNL A   1      36.634  22.386  23.792  1.00  0.00     0.275 C 
ENDROOT
BRANCH   1   2
ATOM      2  O   UNL A   1      35.633  22.975  24.642  1.00  0.00    -0.458 OA
BRANCH   2   3
ATOM      3  C   UNL A   1      34.495  23.384  24.024  1.00  0.00     0.338 C 
ATOM      4  O   UNL A   1      34.401  23.769  22.873  1.00  0.00    -0.246 OA
BRANCH   3   5
ATOM      5  C   UNL A   1      33.327  23.265  24.935  1.00  0.00     0.062 A 
ATOM      6  C   UNL A   1      31.821  24.346  26.467  1.00  0.00     0.035 A 
ATOM      7  C   UNL A   1      30.935  23.268  26.351  1.00  0.00     0.026 A 
ATOM      8  C   UNL A   1      33.086  24.245  25.894  1.00  0.00     0.041 A 
ATOM      9  C   UNL A   1      31.216  22.214  25.491  1.00  0.00     0.003 A 
ATOM     10  C   UNL A   1      32.368  22.267  24.713  1.00  0.00     0.016 A 
BRANCH   6  11
ATOM     11  N   UNL A   1      31.325  25.551  26.922  1.00  0.00    -0.382 N 
ATOM     12  H   UNL A   1      31.173  25.635  27.891  1.00  0.00     0.160 HD
BRANCH  11  13
ATOM     13  C   UNL A   1      31.003  26.727  26.086  1.00  0.00     0.079 C 
ATOM     14  C   UNL A   1      30.043  26.222  25.003  1.00  0.00     0.031 C 
BRANCH  13  15
ATOM     15  C   UNL A   1      32.230  27.549  25.529  1.00  0.00     0.022 C 
ATOM     16  C   UNL A   1      32.998  28.228  26.675  1.00  0.00     0.067 C 
ATOM     17  C   UNL A   1      32.006  28.580  24.415  1.00  0.00     0.067 C 
ATOM     18  C   UNL A   1      32.268  29.470  27.167  1.00  0.00     0.262 C 
ATOM     19  C   UNL A   1      31.444  29.916  24.892  1.00  0.00     0.262 C 
ATOM     20  N   UNL A   1      32.098  30.452  26.093  1.00  0.00    -0.337 N 
ATOM     21  C   UNL A   1      31.355  31.611  26.586  1.00  0.00     0.332 C 
ATOM     22  H   UNL A   1      33.039  30.725  25.808  1.00  0.00     0.347 HD
ENDBRANCH  13  15
ENDBRANCH  11  13
ENDBRANCH   6  11
ENDBRANCH   3   5
ENDBRANCH   2   3
ENDBRANCH   1   2
BRANCH   1  23
ATOM     23  C   UNL A   1      37.412  21.316  24.557  1.00  0.00     0.275 C 
BRANCH  23  24
ATOM     24  O   UNL A   1      37.774  21.794  25.867  1.00  0.00    -0.458 OA
BRANCH  24  25
ATOM     25  C   UNL A   1      39.072  21.618  26.204  1.00  0.00     0.338 C 
ATOM     26  O   UNL A   1      39.777  20.653  25.953  1.00  0.00    -0.246 OA
BRANCH  25  27
ATOM     27  C   UNL A   1      39.585  22.830  26.860  1.00  0.00     0.060 A 
ATOM     28  C   UNL A   1      39.077  24.055  26.452  1.00  0.00     0.016 A 
ATOM     29  C   UNL A   1      40.658  22.784  27.742  1.00  0.00     0.016 A 
ATOM     30  C   UNL A   1      39.695  25.243  26.817  1.00  0.00     0.010 A 
ATOM     31  C   UNL A   1      41.204  23.986  28.212  1.00  0.00     0.010 A 
ATOM     32  C   UNL A   1      40.753  25.232  27.729  1.00  0.00    -0.014 A 
BRANCH  32  33
ATOM     33  C   UNL A   1      41.401  26.511  28.138  1.00  0.00     0.031 A 
ATOM     34  C   UNL A   1      40.602  27.553  28.877  1.00  0.00     0.074 A 
ATOM     35  C   UNL A   1      42.705  26.737  27.867  1.00  0.00     0.049 A 
ATOM     36  N   UNL A   1      40.906  28.798  29.141  1.00  0.00    -0.248 NA
ATOM     37  C   UNL A   1      39.277  27.142  29.366  1.00  0.00     0.031 C 
ATOM     38  C   UNL A   1      43.616  25.786  27.222  1.00  0.00     0.029 A 
ATOM     39  N   UNL A   1      43.495  27.837  28.099  1.00  0.00    -0.354 N 
ATOM     40  C   UNL A   1      39.789  29.335  29.774  1.00  0.00     0.074 A 
ATOM     41  C   UNL A   1      38.797  28.284  29.834  1.00  0.00     0.031 C 
ATOM     42  C   UNL A   1      44.839  26.329  27.144  1.00  0.00     0.029 A 
ATOM     43  C   UNL A   1      44.779  27.704  27.622  1.00  0.00     0.049 A 
ATOM     44  H   UNL A   1      43.173  28.644  28.563  1.00  0.00     0.167 HD
ATOM     45  C   UNL A   1      39.615  30.591  30.259  1.00  0.00     0.034 A 
ATOM     46  C   UNL A   1      45.781  28.600  27.519  1.00  0.00     0.034 A 
ATOM     47  C   UNL A   1      40.636  31.611  30.220  1.00  0.00     0.049 A 
ATOM     48  C   UNL A   1      45.537  30.011  27.984  1.00  0.00     0.074 A 
ATOM     49  C   UNL A   1      40.574  32.910  30.695  1.00  0.00     0.029 A 
ATOM     50  N   UNL A   1      41.905  31.450  29.678  1.00  0.00    -0.354 N 
ATOM     51  N   UNL A   1      44.457  30.526  28.528  1.00  0.00    -0.248 NA
ATOM     52  C   UNL A   1      46.637  30.967  27.811  1.00  0.00     0.031 C 
ATOM     53  C   UNL A   1      41.772  33.554  30.371  1.00  0.00     0.029 A 
ATOM     54  C   UNL A   1      42.620  32.634  29.775  1.00  0.00     0.049 A 
ATOM     55  H   UNL A   1      42.247  30.615  29.282  1.00  0.00     0.167 HD
ATOM     56  C   UNL A   1      44.762  31.859  28.786  1.00  0.00     0.074 A 
ATOM     57  C   UNL A   1      46.129  32.064  28.355  1.00  0.00     0.031 C 
ATOM     58  C   UNL A   1      43.982  32.826  29.333  1.00  0.00     0.034 A 
BRANCH  45  59
ATOM     59  C   UNL A   1      38.253  30.947  30.809  1.00  0.00     0.023 A 
ATOM     60  C   UNL A   1      37.257  31.545  30.019  1.00  0.00     0.031 A 
ATOM     61  C   UNL A   1      37.956  30.704  32.164  1.00  0.00     0.131 A 
ATOM     62  C   UNL A   1      36.045  31.947  30.604  1.00  0.00     0.055 A 
ATOM     63  C   UNL A   1      36.717  31.026  32.719  1.00  0.00     0.041 A 
ATOM     64  F   UNL A   1      38.874  30.156  32.976  1.00  0.00    -0.206 F 
ATOM     65  C   UNL A   1      35.758  31.667  31.942  1.00  0.00     0.022 A 
BRANCH  62  66
ATOM     66  S   UNL A   1      34.911  32.976  29.630  1.00  0.00     0.124 S 
ATOM     67  O   UNL A   1      35.843  33.829  28.897  1.00  0.00    -0.237 OA
ATOM     68  O   UNL A   1      34.189  31.987  28.838  1.00  0.00    -0.237 OA
ATOM     69  O   UNL A   1      34.115  33.664  30.646  1.00  0.00    -0.744 OA
ENDBRANCH  62  66
ENDBRANCH  45  59
BRANCH  46  70
ATOM     70  C   UNL A   1      47.077  28.219  26.880  1.00  0.00     0.023 A 
ATOM     71  C   UNL A   1      47.206  28.153  25.484  1.00  0.00     0.031 A 
ATOM     72  C   UNL A   1      48.196  27.869  27.660  1.00  0.00     0.131 A 
ATOM     73  C   UNL A   1      48.409  27.708  24.912  1.00  0.00     0.055 A 
ATOM     74  C   UNL A   1      49.411  27.492  27.085  1.00  0.00     0.041 A 
ATOM     75  F   UNL A   1      48.130  27.904  29.000  1.00  0.00    -0.206 F 
ATOM     76  C   UNL A   1      49.517  27.396  25.703  1.00  0.00     0.022 A 
BRANCH  73  77
ATOM     77  S   UNL A   1      48.470  27.441  23.119  1.00  0.00     0.124 S 
ATOM     78  O   UNL A   1      47.345  28.250  22.661  1.00  0.00    -0.237 OA
ATOM     79  O   UNL A   1      49.799  27.939  22.784  1.00  0.00    -0.237 OA
ATOM     80  O   UNL A   1      48.295  25.996  22.985  1.00  0.00    -0.744 OA
ENDBRANCH  73  77
ENDBRANCH  46  70
BRANCH  58  81
ATOM     81  C   UNL A   1      44.615  34.179  29.543  1.00  0.00     0.023 A 
ATOM     82  C   UNL A   1      44.507  35.206  28.591  1.00  0.00     0.031 A 
ATOM     83  C   UNL A   1      45.340  34.441  30.721  1.00  0.00     0.131 A 
ATOM     84  C   UNL A   1      45.158  36.431  28.808  1.00  0.00     0.055 A 
ATOM     85  C   UNL A   1      45.930  35.682  30.960  1.00  0.00     0.041 A 
ATOM     86  F   UNL A   1      45.480  33.493  31.662  1.00  0.00    -0.206 F 
ATOM     87  C   UNL A   1      45.851  36.681  29.995  1.00  0.00     0.022 A 
BRANCH  84  88
ATOM     88  S   UNL A   1      45.164  37.662  27.477  1.00  0.00     0.124 S 
ATOM     89  O   UNL A   1      45.496  38.887  28.197  1.00  0.00    -0.237 OA
ATOM     90  O   UNL A   1      46.196  37.150  26.581  1.00  0.00    -0.237 OA
ATOM     91  O   UNL A   1      43.802  37.603  26.949  1.00  0.00    -0.744 OA
ENDBRANCH  84  88
ENDBRANCH  58  81
ENDBRANCH  32  33
ENDBRANCH  25  27
ENDBRANCH  24  25
ENDBRANCH  23  24
ENDBRANCH   1  23
TORSDOF 17
ENDMDL
MODEL 3
REMARK VINA RESULT:     -11.7      5.165     10.271
REMARK SMILES C[C@@H](Nc1cccc(C(=O)OCCOC(=O)c2ccc(-c3c4nc(c(-c5cc(S(=O)(=O)[O-])ccc5F)c5ccc([nH]5)c(-c5cc(S(=O)(=O)[O-])ccc5F)c5nc(c(-c6cc(S(=O)(=O)[O-])ccc6F)c6ccc3[nH]6)C=C5)C=C4)cc2)c1)C1CC[NH+](C)CC1
REMARK SMILES IDX 12 1 11 2 9 3 10 4 8 5 4 6 5 7 80 8 6 9 7 10 3 11 2 13 1 14
REMARK SMILES IDX 81 15 82 16 87 17 83 18 86 19 84 20 85 21 13 23 14 24 15 25
REMARK SMILES IDX 16 26 17 27 18 28 79 29 19 30 78 31 20 32 21 33 22 34 72 35
REMARK SMILES IDX 23 36 77 37 71 38 73 39 24 40 76 41 70 42 69 43 25 45 57 46
REMARK SMILES IDX 37 47 56 48 38 49 41 50 55 51 74 52 39 53 40 54 54 56 75 57
REMARK SMILES IDX 42 58 26 59 27 60 35 61 28 62 34 63 36 64 33 65 29 66 30 67
REMARK SMILES IDX 31 68 32 69 58 70 59 71 67 72 60 73 66 74 68 75 65 76 61 77
REMARK SMILES IDX 62 78 63 79 64 80 43 81 44 82 52 83 45 84 51 85 53 86 50 87
REMARK SMILES IDX 46 88 47 89 48 90 49 91
REMARK H PARENT 3 12 84 22 73 44 41 55
REMARK Flexibility Score: inf
ROOT
ATOM      1  C   UNL A   1      31.582  28.297  27.342  1.00  0.00     0.275 C 
ENDROOT
BRANCH   1   2
ATOM      2  O   UNL A   1      30.969  27.397  26.401  1.00  0.00    -0.458 OA
BRANCH   2   3
ATOM      3  C   UNL A   1      31.574  26.190  26.252  1.00  0.00     0.338 C 
ATOM      4  O   UNL A   1      31.382  25.201  26.935  1.00  0.00    -0.246 OA
BRANCH   3   5
ATOM      5  C   UNL A   1      32.504  26.205  25.093  1.00  0.00     0.062 A 
ATOM      6  C   UNL A   1      34.166  25.042  23.800  1.00  0.00     0.035 A 
ATOM      7  C   UNL A   1      33.981  25.951  22.752  1.00  0.00     0.026 A 
ATOM      8  C   UNL A   1      33.551  25.289  25.026  1.00  0.00     0.041 A 
ATOM      9  C   UNL A   1      33.025  26.954  22.849  1.00  0.00     0.003 A 
ATOM     10  C   UNL A   1      32.223  27.014  23.984  1.00  0.00     0.016 A 
BRANCH   6  11
ATOM     11  N   UNL A   1      34.737  23.819  23.510  1.00  0.00    -0.382 N 
ATOM     12  H   UNL A   1      35.711  23.804  23.364  1.00  0.00     0.160 HD
BRANCH  11  13
ATOM     13  C   UNL A   1      34.021  22.531  23.401  1.00  0.00     0.079 C 
ATOM     14  C   UNL A   1      32.898  22.760  22.382  1.00  0.00     0.031 C 
BRANCH  13  15
ATOM     15  C   UNL A   1      33.539  21.879  24.756  1.00  0.00     0.022 C 
ATOM     16  C   UNL A   1      34.734  21.335  25.556  1.00  0.00     0.067 C 
ATOM     17  C   UNL A   1      32.442  20.807  24.730  1.00  0.00     0.067 C 
ATOM     18  C   UNL A   1      35.223  20.013  24.983  1.00  0.00     0.262 C 
ATOM     19  C   UNL A   1      32.925  19.414  24.338  1.00  0.00     0.262 C 
ATOM     20  N   UNL A   1      34.167  18.997  25.003  1.00  0.00    -0.337 N 
ATOM     21  C   UNL A   1      34.656  17.755  24.405  1.00  0.00     0.332 C 
ATOM     22  H   UNL A   1      33.932  18.853  25.985  1.00  0.00     0.347 HD
ENDBRANCH  13  15
ENDBRANCH  11  13
ENDBRANCH   6  11
ENDBRANCH   3   5
ENDBRANCH   2   3
ENDBRANCH   1   2
BRANCH   1  23
ATOM     23  C   UNL A   1      31.479  29.736  26.839  1.00  0.00     0.275 C 
BRANCH  23  24
ATOM     24  O   UNL A   1      32.769  30.212  26.407  1.00  0.00    -0.458 OA
BRANCH  24  25
ATOM     25  C   UNL A   1      33.219  31.313  27.053  1.00  0.00     0.338 C 
ATOM     26  O   UNL A   1      32.611  32.351  27.259  1.00  0.00    -0.246 OA
BRANCH  25  27
ATOM     27  C   UNL A   1      34.566  31.060  27.587  1.00  0.00     0.060 A 
ATOM     28  C   UNL A   1      34.890  29.759  27.947  1.00  0.00     0.016 A 
ATOM     29  C   UNL A   1      35.441  32.098  27.882  1.00  0.00     0.016 A 
ATOM     30  C   UNL A   1      36.022  29.487  28.703  1.00  0.00     0.010 A 
ATOM     31  C   UNL A   1      36.647  31.807  28.535  1.00  0.00     0.010 A 
ATOM     32  C   UNL A   1      36.937  30.503  28.986  1.00  0.00    -0.014 A 
BRANCH  32  33
ATOM     33  C   UNL A   1      38.164  30.203  29.779  1.00  0.00     0.031 A 
ATOM     34  C   UNL A   1      39.226  29.301  29.206  1.00  0.00     0.074 A 
ATOM     35  C   UNL A   1      38.340  30.749  31.002  1.00  0.00     0.049 A 
ATOM     36  N   UNL A   1      40.257  28.754  29.796  1.00  0.00    -0.248 NA
ATOM     37  C   UNL A   1      39.096  28.955  27.783  1.00  0.00     0.031 C 
ATOM     38  C   UNL A   1      37.428  31.697  31.649  1.00  0.00     0.029 A 
ATOM     39  N   UNL A   1      39.348  30.589  31.923  1.00  0.00    -0.354 N 
ATOM     40  C   UNL A   1      40.865  27.954  28.834  1.00  0.00     0.074 A 
ATOM     41  C   UNL A   1      40.073  28.074  27.629  1.00  0.00     0.031 C 
ATOM     42  C   UNL A   1      37.933  32.057  32.838  1.00  0.00     0.029 A 
ATOM     43  C   UNL A   1      39.140  31.282  33.094  1.00  0.00     0.049 A 
ATOM     44  H   UNL A   1      40.142  30.030  31.760  1.00  0.00     0.167 HD
ATOM     45  C   UNL A   1      41.982  27.192  28.952  1.00  0.00     0.034 A 
ATOM     46  C   UNL A   1      39.805  31.256  34.266  1.00  0.00     0.034 A 
ATOM     47  C   UNL A   1      42.777  27.119  30.155  1.00  0.00     0.049 A 
ATOM     48  C   UNL A   1      40.991  30.337  34.402  1.00  0.00     0.074 A 
ATOM     49  C   UNL A   1      43.934  26.394  30.381  1.00  0.00     0.029 A 
ATOM     50  N   UNL A   1      42.499  27.797  31.337  1.00  0.00    -0.354 N 
ATOM     51  N   UNL A   1      41.524  29.540  33.504  1.00  0.00    -0.248 NA
ATOM     52  C   UNL A   1      41.658  30.303  35.709  1.00  0.00     0.031 C 
ATOM     53  C   UNL A   1      44.311  26.571  31.715  1.00  0.00     0.029 A 
ATOM     54  C   UNL A   1      43.442  27.478  32.302  1.00  0.00     0.049 A 
ATOM     55  H   UNL A   1      41.743  28.413  31.468  1.00  0.00     0.167 HD
ATOM     56  C   UNL A   1      42.606  28.931  34.134  1.00  0.00     0.074 A 
ATOM     57  C   UNL A   1      42.659  29.466  35.478  1.00  0.00     0.031 C 
ATOM     58  C   UNL A   1      43.478  28.014  33.643  1.00  0.00     0.034 A 
BRANCH  45  59
ATOM     59  C   UNL A   1      42.369  26.329  27.772  1.00  0.00     0.023 A 
ATOM     60  C   UNL A   1      41.890  25.018  27.613  1.00  0.00     0.031 A 
ATOM     61  C   UNL A   1      43.259  26.824  26.801  1.00  0.00     0.131 A 
ATOM     62  C   UNL A   1      42.359  24.225  26.553  1.00  0.00     0.055 A 
ATOM     63  C   UNL A   1      43.655  26.060  25.702  1.00  0.00     0.041 A 
ATOM     64  F   UNL A   1      43.771  28.061  26.910  1.00  0.00    -0.206 F 
ATOM     65  C   UNL A   1      43.217  24.746  25.582  1.00  0.00     0.022 A 
BRANCH  62  66
ATOM     66  S   UNL A   1      41.952  22.456  26.548  1.00  0.00     0.124 S 
ATOM     67  O   UNL A   1      42.565  22.009  27.796  1.00  0.00    -0.237 OA
ATOM     68  O   UNL A   1      40.494  22.468  26.519  1.00  0.00    -0.237 OA
ATOM     69  O   UNL A   1      42.596  21.960  25.333  1.00  0.00    -0.744 OA
ENDBRANCH  62  66
ENDBRANCH  45  59
BRANCH  46  70
ATOM     70  C   UNL A   1      39.323  32.059  35.429  1.00  0.00     0.023 A 
ATOM     71  C   UNL A   1      39.722  33.393  35.605  1.00  0.00     0.031 A 
ATOM     72  C   UNL A   1      38.489  31.489  36.411  1.00  0.00     0.131 A 
ATOM     73  C   UNL A   1      39.324  34.097  36.753  1.00  0.00     0.055 A 
ATOM     74  C   UNL A   1      38.041  32.215  37.515  1.00  0.00     0.041 A 
ATOM     75  F   UNL A   1      38.082  30.214  36.301  1.00  0.00    -0.206 F 
ATOM     76  C   UNL A   1      38.471  33.524  37.699  1.00  0.00     0.022 A 
BRANCH  73  77
ATOM     77  S   UNL A   1      40.025  35.745  37.046  1.00  0.00     0.124 S 
ATOM     78  O   UNL A   1      41.443  35.439  37.205  1.00  0.00    -0.237 OA
ATOM     79  O   UNL A   1      39.653  36.453  35.826  1.00  0.00    -0.237 OA
ATOM     80  O   UNL A   1      39.343  36.193  38.258  1.00  0.00    -0.744 OA
ENDBRANCH  73  77
ENDBRANCH  46  70
BRANCH  58  81
ATOM     81  C   UNL A   1      44.597  27.577  34.555  1.00  0.00     0.023 A 
ATOM     82  C   UNL A   1      44.483  26.446  35.382  1.00  0.00     0.031 A 
ATOM     83  C   UNL A   1      45.798  28.309  34.597  1.00  0.00     0.131 A 
ATOM     84  C   UNL A   1      45.531  26.109  36.252  1.00  0.00     0.055 A 
ATOM     85  C   UNL A   1      46.862  27.931  35.417  1.00  0.00     0.041 A 
ATOM     86  F   UNL A   1      45.959  29.402  33.833  1.00  0.00    -0.206 F 
ATOM     87  C   UNL A   1      46.727  26.832  36.260  1.00  0.00     0.022 A 
BRANCH  84  88
ATOM     88  S   UNL A   1      45.277  24.765  37.443  1.00  0.00     0.124 S 
ATOM     89  O   UNL A   1      46.647  24.408  37.796  1.00  0.00    -0.237 OA
ATOM     90  O   UNL A   1      44.498  25.418  38.490  1.00  0.00    -0.237 OA
ATOM     91  O   UNL A   1      44.553  23.756  36.671  1.00  0.00    -0.744 OA
ENDBRANCH  84  88
ENDBRANCH  58  81
ENDBRANCH  32  33
ENDBRANCH  25  27
ENDBRANCH  24  25
ENDBRANCH  23  24
ENDBRANCH   1  23
TORSDOF 17
ENDMDL
