MODEL 1
REMARK VINA RESULT:     -11.1      0.000      0.000
REMARK SMILES [NH3+][C@]1(C(=O)OCCOC(=O)c2ccc(-c3c4nc(c(-c5cc(S(=O)(=O)[O-])ccc5F)c5ccc([nH]5)c(-c5cc(S(=O)(=O)[O-])ccc5F)c5nc(c(-c6cc(S(=O)(=O)[O-])ccc6F)c6ccc3[nH]6)C=C5)C=C4)cc2)CCC[C@@H]1CCn1cc(I)cn1
REMARK SMILES IDX 6 1 5 2 3 3 4 4 2 5 74 6 77 7 75 8 76 9 1 10 78 14 79 15
REMARK SMILES IDX 80 16 81 17 85 18 82 19 84 20 83 21 7 22 8 23 9 24 10 25
REMARK SMILES IDX 11 26 12 27 73 28 13 29 72 30 14 31 15 32 16 33 66 34 17 35
REMARK SMILES IDX 71 36 65 37 67 38 18 39 70 40 64 41 63 42 19 44 51 45 31 46
REMARK SMILES IDX 50 47 32 48 35 49 49 50 68 51 33 52 34 53 48 55 69 56 36 57
REMARK SMILES IDX 20 58 21 59 29 60 22 61 28 62 30 63 27 64 23 65 24 66 25 67
REMARK SMILES IDX 26 68 52 69 53 70 61 71 54 72 60 73 62 74 59 75 55 76 56 77
REMARK SMILES IDX 57 78 58 79 37 80 38 81 46 82 39 83 45 84 47 85 44 86 40 87
REMARK SMILES IDX 41 88 42 89 43 90
REMARK H PARENT 1 11 1 12 1 13 67 43 35 54
REMARK Flexibility Score: inf
ROOT
ATOM      1  C   UNL A   1      31.752  28.094  27.359  1.00  0.00     0.274 C 
ENDROOT
BRANCH   1   2
ATOM      2  O   UNL A   1      32.480  27.099  26.611  1.00  0.00    -0.457 OA
BRANCH   2   3
ATOM      3  C   UNL A   1      31.789  25.981  26.253  1.00  0.00     0.368 C 
ATOM      4  O   UNL A   1      30.760  25.596  26.804  1.00  0.00    -0.245 OA
BRANCH   3   5
ATOM      5  C   UNL A   1      32.403  25.251  25.027  1.00  0.00     0.195 C 
ATOM      6  C   UNL A   1      32.563  26.234  23.861  1.00  0.00     0.081 C 
ATOM      7  C   UNL A   1      33.856  24.752  25.208  1.00  0.00     0.064 C 
ATOM      8  C   UNL A   1      33.546  25.579  22.907  1.00  0.00     0.008 C 
ATOM      9  C   UNL A   1      34.426  24.686  23.776  1.00  0.00     0.011 C 
BRANCH   5  10
ATOM     10  N   UNL A   1      31.505  24.131  24.638  1.00  0.00    -0.343 N 
ATOM     11  H   UNL A   1      31.857  23.260  25.033  1.00  0.00     0.345 HD
ATOM     12  H   UNL A   1      31.476  24.057  23.621  1.00  0.00     0.345 HD
ATOM     13  H   UNL A   1      30.565  24.309  24.993  1.00  0.00     0.345 HD
ENDBRANCH   5  10
BRANCH   7  14
ATOM     14  C   UNL A   1      33.984  23.510  26.122  1.00  0.00     0.034 C 
BRANCH  14  15
ATOM     15  C   UNL A   1      34.787  22.318  25.594  1.00  0.00     0.145 C 
BRANCH  15  16
ATOM     16  N   UNL A   1      34.015  21.146  25.217  1.00  0.00    -0.272 N 
ATOM     17  C   UNL A   1      34.468  19.891  24.916  1.00  0.00     0.123 A 
ATOM     18  N   UNL A   1      32.673  21.268  25.082  1.00  0.00    -0.180 NA
ATOM     19  C   UNL A   1      33.375  19.207  24.456  1.00  0.00     0.051 A 
ATOM     20  C   UNL A   1      32.297  20.088  24.579  1.00  0.00     0.149 A 
ATOM     21  I   UNL A   1      33.373  17.334  23.731  1.00  0.00    -0.041 I 
ENDBRANCH  15  16
ENDBRANCH  14  15
ENDBRANCH   7  14
ENDBRANCH   3   5
ENDBRANCH   2   3
ENDBRANCH   1   2
BRANCH   1  22
ATOM     22  C   UNL A   1      31.532  29.346  26.518  1.00  0.00     0.275 C 
BRANCH  22  23
ATOM     23  O   UNL A   1      32.802  29.941  26.211  1.00  0.00    -0.458 OA
BRANCH  23  24
ATOM     24  C   UNL A   1      33.154  30.994  26.984  1.00  0.00     0.338 C 
ATOM     25  O   UNL A   1      32.470  31.961  27.272  1.00  0.00    -0.246 OA
BRANCH  24  26
ATOM     26  C   UNL A   1      34.527  30.804  27.477  1.00  0.00     0.060 A 
ATOM     27  C   UNL A   1      35.028  29.515  27.662  1.00  0.00     0.016 A 
ATOM     28  C   UNL A   1      35.268  31.910  27.885  1.00  0.00     0.016 A 
ATOM     29  C   UNL A   1      36.213  29.323  28.367  1.00  0.00     0.010 A 
ATOM     30  C   UNL A   1      36.516  31.715  28.480  1.00  0.00     0.010 A 
ATOM     31  C   UNL A   1      36.986  30.420  28.767  1.00  0.00    -0.014 A 
BRANCH  31  32
ATOM     32  C   UNL A   1      38.263  30.247  29.516  1.00  0.00     0.031 A 
ATOM     33  C   UNL A   1      39.344  29.372  28.939  1.00  0.00     0.074 A 
ATOM     34  C   UNL A   1      38.450  30.827  30.719  1.00  0.00     0.049 A 
ATOM     35  N   UNL A   1      40.358  28.799  29.533  1.00  0.00    -0.248 NA
ATOM     36  C   UNL A   1      39.248  29.085  27.499  1.00  0.00     0.031 C 
ATOM     37  C   UNL A   1      37.531  31.764  31.367  1.00  0.00     0.029 A 
ATOM     38  N   UNL A   1      39.476  30.693  31.624  1.00  0.00    -0.354 N 
ATOM     39  C   UNL A   1      40.976  28.018  28.560  1.00  0.00     0.074 A 
ATOM     40  C   UNL A   1      40.224  28.202  27.336  1.00  0.00     0.031 C 
ATOM     41  C   UNL A   1      38.037  32.129  32.554  1.00  0.00     0.029 A 
ATOM     42  C   UNL A   1      39.253  31.365  32.803  1.00  0.00     0.049 A 
ATOM     43  H   UNL A   1      40.289  30.169  31.445  1.00  0.00     0.167 HD
ATOM     44  C   UNL A   1      42.060  27.212  28.689  1.00  0.00     0.034 A 
ATOM     45  C   UNL A   1      39.902  31.315  33.983  1.00  0.00     0.034 A 
ATOM     46  C   UNL A   1      42.819  27.090  29.912  1.00  0.00     0.049 A 
ATOM     47  C   UNL A   1      41.075  30.384  34.127  1.00  0.00     0.074 A 
ATOM     48  C   UNL A   1      43.932  26.307  30.166  1.00  0.00     0.029 A 
ATOM     49  N   UNL A   1      42.549  27.785  31.085  1.00  0.00    -0.354 N 
ATOM     50  N   UNL A   1      41.586  29.561  33.241  1.00  0.00    -0.248 NA
ATOM     51  C   UNL A   1      41.746  30.360  35.432  1.00  0.00     0.031 C 
ATOM     52  C   UNL A   1      44.305  26.493  31.502  1.00  0.00     0.029 A 
ATOM     53  C   UNL A   1      43.465  27.440  32.066  1.00  0.00     0.049 A 
ATOM     54  H   UNL A   1      41.814  28.430  31.201  1.00  0.00     0.167 HD
ATOM     55  C   UNL A   1      42.651  28.934  33.878  1.00  0.00     0.074 A 
ATOM     56  C   UNL A   1      42.712  29.478  35.219  1.00  0.00     0.031 C 
ATOM     57  C   UNL A   1      43.505  27.995  33.397  1.00  0.00     0.034 A 
BRANCH  44  58
ATOM     58  C   UNL A   1      42.432  26.350  27.506  1.00  0.00     0.023 A 
ATOM     59  C   UNL A   1      41.983  25.026  27.369  1.00  0.00     0.031 A 
ATOM     60  C   UNL A   1      43.296  26.857  26.517  1.00  0.00     0.131 A 
ATOM     61  C   UNL A   1      42.459  24.231  26.314  1.00  0.00     0.055 A 
ATOM     62  C   UNL A   1      43.702  26.086  25.425  1.00  0.00     0.041 A 
ATOM     63  F   UNL A   1      43.776  28.107  26.604  1.00  0.00    -0.206 F 
ATOM     64  C   UNL A   1      43.297  24.759  25.328  1.00  0.00     0.022 A 
BRANCH  61  65
ATOM     65  S   UNL A   1      42.090  22.454  26.331  1.00  0.00     0.124 S 
ATOM     66  O   UNL A   1      42.939  21.967  25.246  1.00  0.00    -0.237 OA
ATOM     67  O   UNL A   1      42.487  22.064  27.679  1.00  0.00    -0.237 OA
ATOM     68  O   UNL A   1      40.655  22.399  26.061  1.00  0.00    -0.744 OA
ENDBRANCH  61  65
ENDBRANCH  44  58
BRANCH  45  69
ATOM     69  C   UNL A   1      39.395  32.097  35.145  1.00  0.00     0.023 A 
ATOM     70  C   UNL A   1      39.852  33.399  35.399  1.00  0.00     0.031 A 
ATOM     71  C   UNL A   1      38.440  31.548  36.023  1.00  0.00     0.131 A 
ATOM     72  C   UNL A   1      39.369  34.101  36.515  1.00  0.00     0.055 A 
ATOM     73  C   UNL A   1      37.928  32.268  37.101  1.00  0.00     0.041 A 
ATOM     74  F   UNL A   1      37.969  30.306  35.822  1.00  0.00    -0.206 F 
ATOM     75  C   UNL A   1      38.399  33.551  37.358  1.00  0.00     0.022 A 
BRANCH  72  76
ATOM     76  S   UNL A   1      40.069  35.733  36.883  1.00  0.00     0.124 S 
ATOM     77  O   UNL A   1      39.678  36.496  35.703  1.00  0.00    -0.237 OA
ATOM     78  O   UNL A   1      39.389  36.080  38.127  1.00  0.00    -0.237 OA
ATOM     79  O   UNL A   1      41.500  35.469  37.011  1.00  0.00    -0.744 OA
ENDBRANCH  72  76
ENDBRANCH  45  69
BRANCH  57  80
ATOM     80  C   UNL A   1      44.614  27.553  34.313  1.00  0.00     0.023 A 
ATOM     81  C   UNL A   1      44.472  26.447  35.169  1.00  0.00     0.031 A 
ATOM     82  C   UNL A   1      45.830  28.256  34.328  1.00  0.00     0.131 A 
ATOM     83  C   UNL A   1      45.520  26.099  36.034  1.00  0.00     0.055 A 
ATOM     84  C   UNL A   1      46.885  27.880  35.159  1.00  0.00     0.041 A 
ATOM     85  F   UNL A   1      46.012  29.321  33.529  1.00  0.00    -0.206 F 
ATOM     86  C   UNL A   1      46.730  26.801  36.024  1.00  0.00     0.022 A 
BRANCH  83  87
ATOM     87  S   UNL A   1      45.266  24.749  37.217  1.00  0.00     0.124 S 
ATOM     88  O   UNL A   1      44.784  23.676  36.353  1.00  0.00    -0.237 OA
ATOM     89  O   UNL A   1      46.601  24.565  37.777  1.00  0.00    -0.237 OA
ATOM     90  O   UNL A   1      44.276  25.289  38.147  1.00  0.00    -0.744 OA
ENDBRANCH  83  87
ENDBRANCH  57  80
ENDBRANCH  31  32
ENDBRANCH  24  26
ENDBRANCH  23  24
ENDBRANCH  22  23
ENDBRANCH   1  22
TORSDOF 18
ENDMDL
MODEL 2
REMARK VINA RESULT:     -11.0      2.043      3.193
REMARK SMILES [NH3+][C@]1(C(=O)OCCOC(=O)c2ccc(-c3c4nc(c(-c5cc(S(=O)(=O)[O-])ccc5F)c5ccc([nH]5)c(-c5cc(S(=O)(=O)[O-])ccc5F)c5nc(c(-c6cc(S(=O)(=O)[O-])ccc6F)c6ccc3[nH]6)C=C5)C=C4)cc2)CCC[C@@H]1CCn1cc(I)cn1
REMARK SMILES IDX 6 1 5 2 3 3 4 4 2 5 74 6 77 7 75 8 76 9 1 10 78 14 79 15
REMARK SMILES IDX 80 16 81 17 85 18 82 19 84 20 83 21 7 22 8 23 9 24 10 25
REMARK SMILES IDX 11 26 12 27 73 28 13 29 72 30 14 31 15 32 16 33 66 34 17 35
REMARK SMILES IDX 71 36 65 37 67 38 18 39 70 40 64 41 63 42 19 44 51 45 31 46
REMARK SMILES IDX 50 47 32 48 35 49 49 50 68 51 33 52 34 53 48 55 69 56 36 57
REMARK SMILES IDX 20 58 21 59 29 60 22 61 28 62 30 63 27 64 23 65 24 66 25 67
REMARK SMILES IDX 26 68 52 69 53 70 61 71 54 72 60 73 62 74 59 75 55 76 56 77
REMARK SMILES IDX 57 78 58 79 37 80 38 81 46 82 39 83 45 84 47 85 44 86 40 87
REMARK SMILES IDX 41 88 42 89 43 90
REMARK H PARENT 1 11 1 12 1 13 67 43 35 54
REMARK Flexibility Score: inf
ROOT
ATOM      1  C   UNL A   1      32.026  28.192  27.328  1.00  0.00     0.274 C 
ENDROOT
BRANCH   1   2
ATOM      2  O   UNL A   1      31.714  27.076  26.469  1.00  0.00    -0.457 OA
BRANCH   2   3
ATOM      3  C   UNL A   1      32.767  26.462  25.862  1.00  0.00     0.368 C 
ATOM      4  O   UNL A   1      33.869  26.980  25.695  1.00  0.00    -0.245 OA
BRANCH   3   5
ATOM      5  C   UNL A   1      32.460  25.000  25.438  1.00  0.00     0.195 C 
ATOM      6  C   UNL A   1      32.805  24.041  26.585  1.00  0.00     0.081 C 
ATOM      7  C   UNL A   1      30.966  24.674  25.207  1.00  0.00     0.064 C 
ATOM      8  C   UNL A   1      32.078  22.747  26.267  1.00  0.00     0.008 C 
ATOM      9  C   UNL A   1      30.857  23.154  25.448  1.00  0.00     0.011 C 
BRANCH   5  10
ATOM     10  N   UNL A   1      33.265  24.671  24.231  1.00  0.00    -0.343 N 
ATOM     11  H   UNL A   1      32.648  24.578  23.426  1.00  0.00     0.345 HD
ATOM     12  H   UNL A   1      33.762  23.794  24.383  1.00  0.00     0.345 HD
ATOM     13  H   UNL A   1      33.939  25.418  24.058  1.00  0.00     0.345 HD
ENDBRANCH   5  10
BRANCH   7  14
ATOM     14  C   UNL A   1      30.389  25.267  23.898  1.00  0.00     0.034 C 
BRANCH  14  15
ATOM     15  C   UNL A   1      29.218  26.246  24.015  1.00  0.00     0.145 C 
BRANCH  15  16
ATOM     16  N   UNL A   1      29.431  27.565  23.444  1.00  0.00    -0.272 N 
ATOM     17  C   UNL A   1      28.493  28.476  23.038  1.00  0.00     0.123 A 
ATOM     18  N   UNL A   1      30.699  27.978  23.215  1.00  0.00    -0.180 NA
ATOM     19  C   UNL A   1      29.196  29.472  22.415  1.00  0.00     0.051 A 
ATOM     20  C   UNL A   1      30.544  29.128  22.551  1.00  0.00     0.149 A 
ATOM     21  I   UNL A   1      28.409  31.067  21.482  1.00  0.00    -0.041 I 
ENDBRANCH  15  16
ENDBRANCH  14  15
ENDBRANCH   7  14
ENDBRANCH   3   5
ENDBRANCH   2   3
ENDBRANCH   1   2
BRANCH   1  22
ATOM     22  C   UNL A   1      31.700  29.511  26.637  1.00  0.00     0.275 C 
BRANCH  22  23
ATOM     23  O   UNL A   1      32.922  30.164  26.261  1.00  0.00    -0.458 OA
BRANCH  23  24
ATOM     24  C   UNL A   1      33.294  31.201  27.046  1.00  0.00     0.338 C 
ATOM     25  O   UNL A   1      32.633  32.181  27.339  1.00  0.00    -0.246 OA
BRANCH  24  26
ATOM     26  C   UNL A   1      34.659  30.971  27.546  1.00  0.00     0.060 A 
ATOM     27  C   UNL A   1      35.100  29.672  27.796  1.00  0.00     0.016 A 
ATOM     28  C   UNL A   1      35.452  32.061  27.896  1.00  0.00     0.016 A 
ATOM     29  C   UNL A   1      36.278  29.460  28.508  1.00  0.00     0.010 A 
ATOM     30  C   UNL A   1      36.692  31.838  28.499  1.00  0.00     0.010 A 
ATOM     31  C   UNL A   1      37.103  30.539  28.851  1.00  0.00    -0.014 A 
BRANCH  31  32
ATOM     32  C   UNL A   1      38.373  30.344  29.606  1.00  0.00     0.031 A 
ATOM     33  C   UNL A   1      39.448  29.464  29.026  1.00  0.00     0.074 A 
ATOM     34  C   UNL A   1      38.558  30.909  30.816  1.00  0.00     0.049 A 
ATOM     35  N   UNL A   1      40.452  28.873  29.621  1.00  0.00    -0.248 NA
ATOM     36  C   UNL A   1      39.358  29.192  27.583  1.00  0.00     0.031 C 
ATOM     37  C   UNL A   1      37.645  31.850  31.468  1.00  0.00     0.029 A 
ATOM     38  N   UNL A   1      39.577  30.755  31.726  1.00  0.00    -0.354 N 
ATOM     39  C   UNL A   1      41.067  28.096  28.644  1.00  0.00     0.074 A 
ATOM     40  C   UNL A   1      40.325  28.301  27.417  1.00  0.00     0.031 C 
ATOM     41  C   UNL A   1      38.147  32.196  32.662  1.00  0.00     0.029 A 
ATOM     42  C   UNL A   1      39.353  31.417  32.911  1.00  0.00     0.049 A 
ATOM     43  H   UNL A   1      40.385  30.224  31.546  1.00  0.00     0.167 HD
ATOM     44  C   UNL A   1      42.142  27.277  28.772  1.00  0.00     0.034 A 
ATOM     45  C   UNL A   1      39.994  31.348  34.094  1.00  0.00     0.034 A 
ATOM     46  C   UNL A   1      42.892  27.134  29.997  1.00  0.00     0.049 A 
ATOM     47  C   UNL A   1      41.156  30.403  34.235  1.00  0.00     0.074 A 
ATOM     48  C   UNL A   1      43.995  26.336  30.251  1.00  0.00     0.029 A 
ATOM     49  N   UNL A   1      42.622  27.820  31.176  1.00  0.00    -0.354 N 
ATOM     50  N   UNL A   1      41.664  29.584  33.344  1.00  0.00    -0.248 NA
ATOM     51  C   UNL A   1      41.819  30.358  35.544  1.00  0.00     0.031 C 
ATOM     52  C   UNL A   1      44.361  26.504  31.591  1.00  0.00     0.029 A 
ATOM     53  C   UNL A   1      43.528  27.455  32.159  1.00  0.00     0.049 A 
ATOM     54  H   UNL A   1      41.894  28.471  31.294  1.00  0.00     0.167 HD
ATOM     55  C   UNL A   1      42.718  28.938  33.982  1.00  0.00     0.074 A 
ATOM     56  C   UNL A   1      42.777  29.468  35.328  1.00  0.00     0.031 C 
ATOM     57  C   UNL A   1      43.565  27.995  33.496  1.00  0.00     0.034 A 
BRANCH  44  58
ATOM     58  C   UNL A   1      42.512  26.423  27.582  1.00  0.00     0.023 A 
ATOM     59  C   UNL A   1      42.023  25.117  27.411  1.00  0.00     0.031 A 
ATOM     60  C   UNL A   1      43.415  26.918  26.622  1.00  0.00     0.131 A 
ATOM     61  C   UNL A   1      42.497  24.325  26.353  1.00  0.00     0.055 A 
ATOM     62  C   UNL A   1      43.820  26.152  25.525  1.00  0.00     0.041 A 
ATOM     63  F   UNL A   1      43.934  28.149  26.742  1.00  0.00    -0.206 F 
ATOM     64  C   UNL A   1      43.374  24.841  25.396  1.00  0.00     0.022 A 
BRANCH  61  65
ATOM     65  S   UNL A   1      42.069  22.562  26.330  1.00  0.00     0.124 S 
ATOM     66  O   UNL A   1      42.726  22.083  27.544  1.00  0.00    -0.237 OA
ATOM     67  O   UNL A   1      40.612  22.591  26.360  1.00  0.00    -0.237 OA
ATOM     68  O   UNL A   1      42.659  22.082  25.082  1.00  0.00    -0.744 OA
ENDBRANCH  61  65
ENDBRANCH  44  58
BRANCH  45  69
ATOM     69  C   UNL A   1      39.488  32.123  35.261  1.00  0.00     0.023 A 
ATOM     70  C   UNL A   1      39.904  33.443  35.491  1.00  0.00     0.031 A 
ATOM     71  C   UNL A   1      38.576  31.549  36.167  1.00  0.00     0.131 A 
ATOM     72  C   UNL A   1      39.425  34.139  36.612  1.00  0.00     0.055 A 
ATOM     73  C   UNL A   1      38.065  32.262  37.252  1.00  0.00     0.041 A 
ATOM     74  F   UNL A   1      38.145  30.289  35.990  1.00  0.00    -0.206 F 
ATOM     75  C   UNL A   1      38.496  33.563  37.484  1.00  0.00     0.022 A 
BRANCH  72  76
ATOM     76  S   UNL A   1      40.073  35.799  36.947  1.00  0.00     0.124 S 
ATOM     77  O   UNL A   1      39.361  36.154  38.169  1.00  0.00    -0.237 OA
ATOM     78  O   UNL A   1      41.503  35.543  37.089  1.00  0.00    -0.237 OA
ATOM     79  O   UNL A   1      39.694  36.559  35.758  1.00  0.00    -0.744 OA
ENDBRANCH  72  76
ENDBRANCH  45  69
BRANCH  57  80
ATOM     80  C   UNL A   1      44.663  27.532  34.415  1.00  0.00     0.023 A 
ATOM     81  C   UNL A   1      44.529  26.380  35.208  1.00  0.00     0.031 A 
ATOM     82  C   UNL A   1      45.862  28.262  34.494  1.00  0.00     0.131 A 
ATOM     83  C   UNL A   1      45.566  26.012  36.079  1.00  0.00     0.055 A 
ATOM     84  C   UNL A   1      46.907  27.867  35.330  1.00  0.00     0.041 A 
ATOM     85  F   UNL A   1      46.035  29.370  33.757  1.00  0.00    -0.206 F 
ATOM     86  C   UNL A   1      46.758  26.741  36.135  1.00  0.00     0.022 A 
BRANCH  83  87
ATOM     87  S   UNL A   1      45.317  24.596  37.185  1.00  0.00     0.124 S 
ATOM     88  O   UNL A   1      44.243  25.073  38.051  1.00  0.00    -0.237 OA
ATOM     89  O   UNL A   1      44.959  23.530  36.254  1.00  0.00    -0.237 OA
ATOM     90  O   UNL A   1      46.616  24.437  37.836  1.00  0.00    -0.744 OA
ENDBRANCH  83  87
ENDBRANCH  57  80
ENDBRANCH  31  32
ENDBRANCH  24  26
ENDBRANCH  23  24
ENDBRANCH  22  23
ENDBRANCH   1  22
TORSDOF 18
ENDMDL
MODEL 3
REMARK VINA RESULT:     -10.9      5.292     10.065
REMARK SMILES [NH3+][C@]1(C(=O)OCCOC(=O)c2ccc(-c3c4nc(c(-c5cc(S(=O)(=O)[O-])ccc5F)c5ccc([nH]5)c(-c5cc(S(=O)(=O)[O-])ccc5F)c5nc(c(-c6cc(S(=O)(=O)[O-])ccc6F)c6ccc3[nH]6)C=C5)C=C4)cc2)CCC[C@@H]1CCn1cc(I)cn1
REMARK SMILES IDX 6 1 5 2 3 3 4 4 2 5 74 6 77 7 75 8 76 9 1 10 78 14 79 15
REMARK SMILES IDX 80 16 81 17 85 18 82 19 84 20 83 21 7 22 8 23 9 24 10 25
REMARK SMILES IDX 11 26 12 27 73 28 13 29 72 30 14 31 15 32 16 33 66 34 17 35
REMARK SMILES IDX 71 36 65 37 67 38 18 39 70 40 64 41 63 42 19 44 51 45 31 46
REMARK SMILES IDX 50 47 32 48 35 49 49 50 68 51 33 52 34 53 48 55 69 56 36 57
REMARK SMILES IDX 20 58 21 59 29 60 22 61 28 62 30 63 27 64 23 65 24 66 25 67
REMARK SMILES IDX 26 68 52 69 53 70 61 71 54 72 60 73 62 74 59 75 55 76 56 77
REMARK SMILES IDX 57 78 58 79 37 80 38 81 46 82 39 83 45 84 47 85 44 86 40 87
REMARK SMILES IDX 41 88 42 89 43 90
REMARK H PARENT 1 11 1 12 1 13 67 43 35 54
REMARK Flexibility Score: inf
ROOT
ATOM      1  C   UNL A   1      36.206  22.865  23.714  1.00  0.00     0.274 C 
ENDROOT
BRANCH   1   2
ATOM      2  O   UNL A   1      34.865  22.716  24.222  1.00  0.00    -0.457 OA
BRANCH   2   3
ATOM      3  C   UNL A   1      33.864  23.238  23.461  1.00  0.00     0.368 C 
ATOM      4  O   UNL A   1      33.914  23.360  22.239  1.00  0.00    -0.245 OA
BRANCH   3   5
ATOM      5  C   UNL A   1      32.607  23.625  24.287  1.00  0.00     0.195 C 
ATOM      6  C   UNL A   1      31.829  22.361  24.675  1.00  0.00     0.081 C 
ATOM      7  C   UNL A   1      32.888  24.248  25.674  1.00  0.00     0.064 C 
ATOM      8  C   UNL A   1      30.914  22.777  25.813  1.00  0.00     0.008 C 
ATOM      9  C   UNL A   1      31.624  23.938  26.504  1.00  0.00     0.011 C 
BRANCH   5  10
ATOM     10  N   UNL A   1      31.752  24.525  23.467  1.00  0.00    -0.343 N 
ATOM     11  H   UNL A   1      32.163  25.457  23.446  1.00  0.00     0.345 HD
ATOM     12  H   UNL A   1      30.819  24.572  23.875  1.00  0.00     0.345 HD
ATOM     13  H   UNL A   1      31.690  24.161  22.515  1.00  0.00     0.345 HD
ENDBRANCH   5  10
BRANCH   7  14
ATOM     14  C   UNL A   1      33.404  25.706  25.615  1.00  0.00     0.034 C 
BRANCH  14  15
ATOM     15  C   UNL A   1      32.660  26.758  26.442  1.00  0.00     0.145 C 
BRANCH  15  16
ATOM     16  N   UNL A   1      31.980  27.798  25.689  1.00  0.00    -0.272 N 
ATOM     17  C   UNL A   1      31.050  27.656  24.695  1.00  0.00     0.123 A 
ATOM     18  N   UNL A   1      32.306  29.090  25.925  1.00  0.00    -0.180 NA
ATOM     19  C   UNL A   1      30.856  28.915  24.193  1.00  0.00     0.051 A 
ATOM     20  C   UNL A   1      31.642  29.763  24.978  1.00  0.00     0.149 A 
ATOM     21  I   UNL A   1      29.695  29.395  22.626  1.00  0.00    -0.041 I 
ENDBRANCH  15  16
ENDBRANCH  14  15
ENDBRANCH   7  14
ENDBRANCH   3   5
ENDBRANCH   2   3
ENDBRANCH   1   2
BRANCH   1  22
ATOM     22  C   UNL A   1      37.104  21.744  24.227  1.00  0.00     0.275 C 
BRANCH  22  23
ATOM     23  O   UNL A   1      37.428  21.990  25.604  1.00  0.00    -0.458 OA
BRANCH  23  24
ATOM     24  C   UNL A   1      38.704  21.716  25.960  1.00  0.00     0.338 C 
ATOM     25  O   UNL A   1      39.331  20.695  25.737  1.00  0.00    -0.246 OA
BRANCH  24  26
ATOM     26  C   UNL A   1      39.276  22.873  26.665  1.00  0.00     0.060 A 
ATOM     27  C   UNL A   1      38.754  24.149  26.449  1.00  0.00     0.016 A 
ATOM     28  C   UNL A   1      40.423  22.707  27.438  1.00  0.00     0.016 A 
ATOM     29  C   UNL A   1      39.445  25.270  26.899  1.00  0.00     0.010 A 
ATOM     30  C   UNL A   1      41.042  23.828  27.993  1.00  0.00     0.010 A 
ATOM     31  C   UNL A   1      40.587  25.127  27.697  1.00  0.00    -0.014 A 
BRANCH  31  32
ATOM     32  C   UNL A   1      41.344  26.308  28.201  1.00  0.00     0.031 A 
ATOM     33  C   UNL A   1      40.620  27.365  28.993  1.00  0.00     0.074 A 
ATOM     34  C   UNL A   1      42.654  26.466  27.924  1.00  0.00     0.049 A 
ATOM     35  N   UNL A   1      40.957  28.606  29.227  1.00  0.00    -0.248 NA
ATOM     36  C   UNL A   1      39.328  26.970  29.574  1.00  0.00     0.031 C 
ATOM     37  C   UNL A   1      43.506  25.491  27.242  1.00  0.00     0.029 A 
ATOM     38  N   UNL A   1      43.496  27.524  28.171  1.00  0.00    -0.354 N 
ATOM     39  C   UNL A   1      39.883  29.167  29.913  1.00  0.00     0.074 A 
ATOM     40  C   UNL A   1      38.891  28.122  30.063  1.00  0.00     0.031 C 
ATOM     41  C   UNL A   1      44.747  25.988  27.134  1.00  0.00     0.029 A 
ATOM     42  C   UNL A   1      44.752  27.358  27.632  1.00  0.00     0.049 A 
ATOM     43  H   UNL A   1      43.228  28.320  28.682  1.00  0.00     0.167 HD
ATOM     44  C   UNL A   1      39.740  30.440  30.359  1.00  0.00     0.034 A 
ATOM     45  C   UNL A   1      45.768  28.229  27.479  1.00  0.00     0.034 A 
ATOM     46  C   UNL A   1      40.770  31.445  30.239  1.00  0.00     0.049 A 
ATOM     47  C   UNL A   1      45.580  29.650  27.936  1.00  0.00     0.074 A 
ATOM     48  C   UNL A   1      40.743  32.768  30.648  1.00  0.00     0.029 A 
ATOM     49  N   UNL A   1      42.023  31.232  29.677  1.00  0.00    -0.354 N 
ATOM     50  N   UNL A   1      44.523  30.207  28.480  1.00  0.00    -0.248 NA
ATOM     51  C   UNL A   1      46.712  30.563  27.743  1.00  0.00     0.031 C 
ATOM     52  C   UNL A   1      41.958  33.364  30.293  1.00  0.00     0.029 A 
ATOM     53  C   UNL A   1      42.770  32.399  29.719  1.00  0.00     0.049 A 
ATOM     54  H   UNL A   1      42.335  30.376  29.304  1.00  0.00     0.167 HD
ATOM     55  C   UNL A   1      44.871  31.534  28.710  1.00  0.00     0.074 A 
ATOM     56  C   UNL A   1      46.236  31.691  28.252  1.00  0.00     0.031 C 
ATOM     57  C   UNL A   1      44.130  32.532  29.254  1.00  0.00     0.034 A 
BRANCH  44  58
ATOM     58  C   UNL A   1      38.401  30.829  30.940  1.00  0.00     0.023 A 
ATOM     59  C   UNL A   1      37.381  31.403  30.163  1.00  0.00     0.031 A 
ATOM     60  C   UNL A   1      38.162  30.661  32.317  1.00  0.00     0.131 A 
ATOM     61  C   UNL A   1      36.204  31.858  30.778  1.00  0.00     0.055 A 
ATOM     62  C   UNL A   1      36.956  31.041  32.909  1.00  0.00     0.041 A 
ATOM     63  F   UNL A   1      39.106  30.139  33.116  1.00  0.00    -0.206 F 
ATOM     64  C   UNL A   1      35.975  31.660  32.142  1.00  0.00     0.022 A 
BRANCH  61  65
ATOM     65  S   UNL A   1      35.041  32.849  29.800  1.00  0.00     0.124 S 
ATOM     66  O   UNL A   1      35.930  33.840  29.199  1.00  0.00    -0.237 OA
ATOM     67  O   UNL A   1      34.474  31.862  28.889  1.00  0.00    -0.237 OA
ATOM     68  O   UNL A   1      34.116  33.380  30.800  1.00  0.00    -0.744 OA
ENDBRANCH  61  65
ENDBRANCH  44  58
BRANCH  45  69
ATOM     69  C   UNL A   1      47.011  27.806  26.776  1.00  0.00     0.023 A 
ATOM     70  C   UNL A   1      47.127  27.905  25.382  1.00  0.00     0.031 A 
ATOM     71  C   UNL A   1      48.106  27.292  27.497  1.00  0.00     0.131 A 
ATOM     72  C   UNL A   1      48.304  27.477  24.749  1.00  0.00     0.055 A 
ATOM     73  C   UNL A   1      49.292  26.914  26.867  1.00  0.00     0.041 A 
ATOM     74  F   UNL A   1      48.047  27.179  28.834  1.00  0.00    -0.206 F 
ATOM     75  C   UNL A   1      49.393  26.997  25.483  1.00  0.00     0.022 A 
BRANCH  72  76
ATOM     76  S   UNL A   1      48.377  27.505  22.937  1.00  0.00     0.124 S 
ATOM     77  O   UNL A   1      47.181  28.272  22.605  1.00  0.00    -0.237 OA
ATOM     78  O   UNL A   1      49.653  28.170  22.695  1.00  0.00    -0.237 OA
ATOM     79  O   UNL A   1      48.334  26.091  22.572  1.00  0.00    -0.744 OA
ENDBRANCH  72  76
ENDBRANCH  45  69
BRANCH  57  80
ATOM     80  C   UNL A   1      44.812  33.860  29.439  1.00  0.00     0.023 A 
ATOM     81  C   UNL A   1      44.785  34.853  28.445  1.00  0.00     0.031 A 
ATOM     82  C   UNL A   1      45.502  34.130  30.634  1.00  0.00     0.131 A 
ATOM     83  C   UNL A   1      45.472  36.059  28.649  1.00  0.00     0.055 A 
ATOM     84  C   UNL A   1      46.147  35.348  30.849  1.00  0.00     0.041 A 
ATOM     85  F   UNL A   1      45.557  33.212  31.612  1.00  0.00    -0.206 F 
ATOM     86  C   UNL A   1      46.140  36.318  29.850  1.00  0.00     0.022 A 
BRANCH  83  87
ATOM     87  S   UNL A   1      45.529  37.271  27.301  1.00  0.00     0.124 S 
ATOM     88  O   UNL A   1      46.218  38.393  27.932  1.00  0.00    -0.237 OA
ATOM     89  O   UNL A   1      46.279  36.560  26.270  1.00  0.00    -0.237 OA
ATOM     90  O   UNL A   1      44.120  37.504  26.988  1.00  0.00    -0.744 OA
ENDBRANCH  83  87
ENDBRANCH  57  80
ENDBRANCH  31  32
ENDBRANCH  24  26
ENDBRANCH  23  24
ENDBRANCH  22  23
ENDBRANCH   1  22
TORSDOF 18
ENDMDL
