MODEL 1
REMARK VINA RESULT:     -11.6      0.000      0.000
REMARK SMILES NC(=O)CC[C@@H](C(=O)OCCOC(=O)c1ccc(-c2c3nc(c(-c4cc(S(=O)(=O)[O-])ccc4F)c4ccc([nH]4)c(-c4cc(S(=O)(=O)[O-])ccc4F)c4nc(c(-c5cc(S(=O)(=O)[O-])ccc5F)c5ccc2[nH]5)C=C4)C=C3)cc1)N1C(=O)/C(=C/c2ccc(C=O)cc2)SC1=S
REMARK SMILES IDX 10 1 9 2 7 3 8 4 6 5 5 6 4 7 2 8 1 9 3 12 78 13 79 14 92 15
REMARK SMILES IDX 80 16 81 17 91 18 93 19 82 20 83 21 84 22 90 23 85 24 89 25
REMARK SMILES IDX 86 26 87 27 88 28 11 29 12 30 13 31 14 32 15 33 16 34 77 35
REMARK SMILES IDX 17 36 76 37 18 38 19 39 20 40 70 41 21 42 75 43 69 44 71 45
REMARK SMILES IDX 22 46 74 47 68 48 67 49 23 51 55 52 35 53 54 54 36 55 39 56
REMARK SMILES IDX 53 57 72 58 37 59 38 60 52 62 73 63 40 64 24 65 25 66 33 67
REMARK SMILES IDX 26 68 32 69 34 70 31 71 27 72 28 73 29 74 30 75 56 76 57 77
REMARK SMILES IDX 65 78 58 79 64 80 66 81 63 82 59 83 60 84 61 85 62 86 41 87
REMARK SMILES IDX 42 88 50 89 43 90 49 91 51 92 48 93 44 94 45 95 46 96 47 97
REMARK H PARENT 1 10 1 11 71 50 39 61
REMARK Flexibility Score: inf
ROOT
ATOM      1  C   UNL A   1      35.385  22.204  24.872  1.00  0.00     0.274 C 
ENDROOT
BRANCH   1   2
ATOM      2  O   UNL A   1      34.267  22.783  25.582  1.00  0.00    -0.461 OA
BRANCH   2   3
ATOM      3  C   UNL A   1      33.295  21.940  26.022  1.00  0.00     0.329 C 
ATOM      4  O   UNL A   1      33.318  21.423  27.134  1.00  0.00    -0.250 OA
BRANCH   3   5
ATOM      5  C   UNL A   1      32.219  21.626  24.951  1.00  0.00     0.202 C 
BRANCH   5   6
ATOM      6  C   UNL A   1      32.584  20.477  23.985  1.00  0.00     0.047 C 
BRANCH   6   7
ATOM      7  C   UNL A   1      33.425  19.316  24.527  1.00  0.00     0.102 C 
BRANCH   7   8
ATOM      8  C   UNL A   1      32.630  18.336  25.346  1.00  0.00     0.217 C 
ATOM      9  N   UNL A   1      32.863  18.385  26.688  1.00  0.00    -0.370 N 
ATOM     10  H   UNL A   1      32.383  17.777  27.293  1.00  0.00     0.159 HD
ATOM     11  H   UNL A   1      33.513  19.031  27.050  1.00  0.00     0.159 HD
ATOM     12  O   UNL A   1      31.809  17.566  24.867  1.00  0.00    -0.275 OA
ENDBRANCH   7   8
ENDBRANCH   6   7
ENDBRANCH   5   6
BRANCH   5  13
ATOM     13  N   UNL A   1      31.762  22.904  24.295  1.00  0.00    -0.278 N 
ATOM     14  C   UNL A   1      30.835  23.677  25.006  1.00  0.00     0.266 C 
ATOM     15  C   UNL A   1      32.176  23.453  23.093  1.00  0.00     0.149 C 
ATOM     16  O   UNL A   1      30.296  23.354  26.056  1.00  0.00    -0.268 OA
ATOM     17  C   UNL A   1      30.569  24.971  24.313  1.00  0.00     0.081 C 
ATOM     18  S   UNL A   1      31.292  24.936  22.761  1.00  0.00    -0.054 SA
ATOM     19  S   UNL A   1      33.313  22.941  21.987  1.00  0.00    -0.052 S 
ATOM     20  C   UNL A   1      29.925  26.012  24.869  1.00  0.00     0.029 C 
BRANCH  20  21
ATOM     21  C   UNL A   1      29.691  27.311  24.209  1.00  0.00    -0.024 A 
ATOM     22  C   UNL A   1      28.513  27.537  23.484  1.00  0.00     0.009 A 
ATOM     23  C   UNL A   1      30.634  28.346  24.303  1.00  0.00     0.009 A 
ATOM     24  C   UNL A   1      28.262  28.789  22.907  1.00  0.00     0.012 A 
ATOM     25  C   UNL A   1      30.378  29.603  23.745  1.00  0.00     0.012 A 
ATOM     26  C   UNL A   1      29.186  29.823  23.054  1.00  0.00     0.014 A 
BRANCH  26  27
ATOM     27  C   UNL A   1      28.922  31.156  22.475  1.00  0.00     0.260 C 
ATOM     28  O   UNL A   1      28.666  31.313  21.291  1.00  0.00    -0.298 OA
ENDBRANCH  26  27
ENDBRANCH  20  21
ENDBRANCH   5  13
ENDBRANCH   3   5
ENDBRANCH   2   3
ENDBRANCH   1   2
BRANCH   1  29
ATOM     29  C   UNL A   1      36.402  21.605  25.842  1.00  0.00     0.275 C 
BRANCH  29  30
ATOM     30  O   UNL A   1      37.690  21.530  25.210  1.00  0.00    -0.458 OA
BRANCH  30  31
ATOM     31  C   UNL A   1      38.712  21.175  26.023  1.00  0.00     0.338 C 
ATOM     32  O   UNL A   1      39.100  20.050  26.272  1.00  0.00    -0.246 OA
BRANCH  31  33
ATOM     33  C   UNL A   1      39.388  22.403  26.462  1.00  0.00     0.060 A 
ATOM     34  C   UNL A   1      38.968  23.608  25.907  1.00  0.00     0.016 A 
ATOM     35  C   UNL A   1      40.451  22.374  27.362  1.00  0.00     0.016 A 
ATOM     36  C   UNL A   1      39.628  24.786  26.204  1.00  0.00     0.010 A 
ATOM     37  C   UNL A   1      41.078  23.576  27.713  1.00  0.00     0.010 A 
ATOM     38  C   UNL A   1      40.678  24.788  27.125  1.00  0.00    -0.014 A 
BRANCH  38  39
ATOM     39  C   UNL A   1      41.343  26.080  27.421  1.00  0.00     0.031 A 
ATOM     40  C   UNL A   1      40.737  27.018  28.420  1.00  0.00     0.074 A 
ATOM     41  C   UNL A   1      42.544  26.342  26.869  1.00  0.00     0.049 A 
ATOM     42  N   UNL A   1      41.134  28.208  28.782  1.00  0.00    -0.248 NA
ATOM     43  C   UNL A   1      39.516  26.557  29.098  1.00  0.00     0.031 C 
ATOM     44  C   UNL A   1      43.270  25.437  25.973  1.00  0.00     0.029 A 
ATOM     45  N   UNL A   1      43.396  27.404  27.022  1.00  0.00    -0.354 N 
ATOM     46  C   UNL A   1      40.171  28.676  29.669  1.00  0.00     0.074 A 
ATOM     47  C   UNL A   1      39.189  27.622  29.814  1.00  0.00     0.031 C 
ATOM     48  C   UNL A   1      44.492  25.937  25.739  1.00  0.00     0.029 A 
ATOM     49  C   UNL A   1      44.604  27.240  26.382  1.00  0.00     0.049 A 
ATOM     50  H   UNL A   1      43.166  28.208  27.541  1.00  0.00     0.167 HD
ATOM     51  C   UNL A   1      40.104  29.890  30.271  1.00  0.00     0.034 A 
ATOM     52  C   UNL A   1      45.678  28.054  26.324  1.00  0.00     0.034 A 
ATOM     53  C   UNL A   1      41.115  30.909  30.114  1.00  0.00     0.049 A 
ATOM     54  C   UNL A   1      45.584  29.393  27.009  1.00  0.00     0.074 A 
ATOM     55  C   UNL A   1      41.127  32.202  30.606  1.00  0.00     0.029 A 
ATOM     56  N   UNL A   1      42.307  30.743  29.415  1.00  0.00    -0.354 N 
ATOM     57  N   UNL A   1      44.600  29.879  27.731  1.00  0.00    -0.248 NA
ATOM     58  C   UNL A   1      46.723  30.302  26.844  1.00  0.00     0.031 C 
ATOM     59  C   UNL A   1      42.282  32.840  30.139  1.00  0.00     0.029 A 
ATOM     60  C   UNL A   1      43.033  31.924  29.419  1.00  0.00     0.049 A 
ATOM     61  H   UNL A   1      42.594  29.908  28.980  1.00  0.00     0.167 HD
ATOM     62  C   UNL A   1      45.001  31.159  28.102  1.00  0.00     0.074 A 
ATOM     63  C   UNL A   1      46.331  31.350  27.552  1.00  0.00     0.031 C 
ATOM     64  C   UNL A   1      44.331  32.104  28.809  1.00  0.00     0.034 A 
BRANCH  51  65
ATOM     65  C   UNL A   1      38.833  30.213  31.021  1.00  0.00     0.023 A 
ATOM     66  C   UNL A   1      37.748  30.877  30.424  1.00  0.00     0.031 A 
ATOM     67  C   UNL A   1      38.748  29.918  32.395  1.00  0.00     0.131 A 
ATOM     68  C   UNL A   1      36.664  31.293  31.216  1.00  0.00     0.055 A 
ATOM     69  C   UNL A   1      37.632  30.262  33.158  1.00  0.00     0.041 A 
ATOM     70  F   UNL A   1      39.765  29.312  33.029  1.00  0.00    -0.206 F 
ATOM     71  C   UNL A   1      36.589  30.971  32.573  1.00  0.00     0.022 A 
BRANCH  68  72
ATOM     72  S   UNL A   1      35.434  32.411  30.486  1.00  0.00     0.124 S 
ATOM     73  O   UNL A   1      35.229  31.810  29.171  1.00  0.00    -0.237 OA
ATOM     74  O   UNL A   1      34.318  32.303  31.420  1.00  0.00    -0.237 OA
ATOM     75  O   UNL A   1      36.112  33.706  30.472  1.00  0.00    -0.744 OA
ENDBRANCH  68  72
ENDBRANCH  51  65
BRANCH  52  76
ATOM     76  C   UNL A   1      46.904  27.642  25.582  1.00  0.00     0.023 A 
ATOM     77  C   UNL A   1      47.047  27.910  24.212  1.00  0.00     0.031 A 
ATOM     78  C   UNL A   1      47.958  26.971  26.232  1.00  0.00     0.131 A 
ATOM     79  C   UNL A   1      48.206  27.498  23.533  1.00  0.00     0.055 A 
ATOM     80  C   UNL A   1      49.132  26.614  25.566  1.00  0.00     0.041 A 
ATOM     81  F   UNL A   1      47.876  26.682  27.541  1.00  0.00    -0.206 F 
ATOM     82  C   UNL A   1      49.256  26.870  24.206  1.00  0.00     0.022 A 
BRANCH  79  83
ATOM     83  S   UNL A   1      48.305  27.742  21.738  1.00  0.00     0.124 S 
ATOM     84  O   UNL A   1      49.430  28.663  21.622  1.00  0.00    -0.237 OA
ATOM     85  O   UNL A   1      48.532  26.383  21.258  1.00  0.00    -0.237 OA
ATOM     86  O   UNL A   1      47.000  28.308  21.399  1.00  0.00    -0.744 OA
ENDBRANCH  79  83
ENDBRANCH  52  76
BRANCH  64  87
ATOM     87  C   UNL A   1      45.009  33.442  28.965  1.00  0.00     0.023 A 
ATOM     88  C   UNL A   1      45.860  33.698  30.057  1.00  0.00     0.031 A 
ATOM     89  C   UNL A   1      44.815  34.463  28.021  1.00  0.00     0.131 A 
ATOM     90  C   UNL A   1      46.449  34.961  30.203  1.00  0.00     0.055 A 
ATOM     91  C   UNL A   1      45.443  35.704  28.147  1.00  0.00     0.041 A 
ATOM     92  F   UNL A   1      44.025  34.270  26.953  1.00  0.00    -0.206 F 
ATOM     93  C   UNL A   1      46.257  35.962  29.247  1.00  0.00     0.022 A 
BRANCH  90  94
ATOM     94  S   UNL A   1      47.430  35.300  31.691  1.00  0.00     0.124 S 
ATOM     95  O   UNL A   1      46.652  34.631  32.729  1.00  0.00    -0.237 OA
ATOM     96  O   UNL A   1      48.717  34.692  31.367  1.00  0.00    -0.237 OA
ATOM     97  O   UNL A   1      47.440  36.760  31.771  1.00  0.00    -0.744 OA
ENDBRANCH  90  94
ENDBRANCH  64  87
ENDBRANCH  38  39
ENDBRANCH  31  33
ENDBRANCH  30  31
ENDBRANCH  29  30
ENDBRANCH   1  29
TORSDOF 20
ENDMDL
MODEL 2
REMARK VINA RESULT:     -11.5      1.486      7.565
REMARK SMILES NC(=O)CC[C@@H](C(=O)OCCOC(=O)c1ccc(-c2c3nc(c(-c4cc(S(=O)(=O)[O-])ccc4F)c4ccc([nH]4)c(-c4cc(S(=O)(=O)[O-])ccc4F)c4nc(c(-c5cc(S(=O)(=O)[O-])ccc5F)c5ccc2[nH]5)C=C4)C=C3)cc1)N1C(=O)/C(=C/c2ccc(C=O)cc2)SC1=S
REMARK SMILES IDX 10 1 9 2 7 3 8 4 6 5 5 6 4 7 2 8 1 9 3 12 78 13 79 14 92 15
REMARK SMILES IDX 80 16 81 17 91 18 93 19 82 20 83 21 84 22 90 23 85 24 89 25
REMARK SMILES IDX 86 26 87 27 88 28 11 29 12 30 13 31 14 32 15 33 16 34 77 35
REMARK SMILES IDX 17 36 76 37 18 38 19 39 20 40 70 41 21 42 75 43 69 44 71 45
REMARK SMILES IDX 22 46 74 47 68 48 67 49 23 51 55 52 35 53 54 54 36 55 39 56
REMARK SMILES IDX 53 57 72 58 37 59 38 60 52 62 73 63 40 64 24 65 25 66 33 67
REMARK SMILES IDX 26 68 32 69 34 70 31 71 27 72 28 73 29 74 30 75 56 76 57 77
REMARK SMILES IDX 65 78 58 79 64 80 66 81 63 82 59 83 60 84 61 85 62 86 41 87
REMARK SMILES IDX 42 88 50 89 43 90 49 91 51 92 48 93 44 94 45 95 46 96 47 97
REMARK H PARENT 1 10 1 11 71 50 39 61
REMARK Flexibility Score: inf
ROOT
ATOM      1  C   UNL A   1      35.981  21.823  25.776  1.00  0.00     0.274 C 
ENDROOT
BRANCH   1   2
ATOM      2  O   UNL A   1      34.786  21.100  26.151  1.00  0.00    -0.461 OA
BRANCH   2   3
ATOM      3  C   UNL A   1      33.749  21.817  26.661  1.00  0.00     0.329 C 
ATOM      4  O   UNL A   1      33.818  22.418  27.727  1.00  0.00    -0.250 OA
BRANCH   3   5
ATOM      5  C   UNL A   1      32.455  21.717  25.814  1.00  0.00     0.202 C 
BRANCH   5   6
ATOM      6  C   UNL A   1      32.620  20.985  24.463  1.00  0.00     0.047 C 
BRANCH   6   7
ATOM      7  C   UNL A   1      33.361  19.644  24.454  1.00  0.00     0.102 C 
BRANCH   7   8
ATOM      8  C   UNL A   1      32.632  18.556  25.192  1.00  0.00     0.217 C 
ATOM      9  N   UNL A   1      32.932  18.459  26.517  1.00  0.00    -0.370 N 
ATOM     10  H   UNL A   1      32.497  17.772  27.072  1.00  0.00     0.159 HD
ATOM     11  H   UNL A   1      33.584  19.078  26.920  1.00  0.00     0.159 HD
ATOM     12  O   UNL A   1      31.806  17.821  24.668  1.00  0.00    -0.275 OA
ENDBRANCH   7   8
ENDBRANCH   6   7
ENDBRANCH   5   6
BRANCH   5  13
ATOM     13  N   UNL A   1      31.785  23.066  25.742  1.00  0.00    -0.278 N 
ATOM     14  C   UNL A   1      32.399  24.028  24.931  1.00  0.00     0.266 C 
ATOM     15  C   UNL A   1      30.603  23.476  26.337  1.00  0.00     0.149 C 
ATOM     16  O   UNL A   1      33.475  23.899  24.362  1.00  0.00    -0.268 OA
ATOM     17  C   UNL A   1      31.570  25.266  24.841  1.00  0.00     0.081 C 
ATOM     18  S   UNL A   1      30.291  25.168  25.976  1.00  0.00    -0.054 SA
ATOM     19  S   UNL A   1      29.509  22.651  27.284  1.00  0.00    -0.052 S 
ATOM     20  C   UNL A   1      31.773  26.253  23.952  1.00  0.00     0.029 C 
BRANCH  20  21
ATOM     21  C   UNL A   1      30.936  27.463  23.827  1.00  0.00    -0.024 A 
ATOM     22  C   UNL A   1      31.349  28.673  24.400  1.00  0.00     0.009 A 
ATOM     23  C   UNL A   1      29.722  27.429  23.124  1.00  0.00     0.009 A 
ATOM     24  C   UNL A   1      30.585  29.836  24.232  1.00  0.00     0.012 A 
ATOM     25  C   UNL A   1      28.968  28.591  22.938  1.00  0.00     0.012 A 
ATOM     26  C   UNL A   1      29.407  29.796  23.486  1.00  0.00     0.014 A 
BRANCH  26  27
ATOM     27  C   UNL A   1      28.607  31.019  23.278  1.00  0.00     0.260 C 
ATOM     28  O   UNL A   1      27.415  30.982  23.011  1.00  0.00    -0.298 OA
ENDBRANCH  26  27
ENDBRANCH  20  21
ENDBRANCH   5  13
ENDBRANCH   3   5
ENDBRANCH   2   3
ENDBRANCH   1   2
BRANCH   1  29
ATOM     29  C   UNL A   1      37.043  20.879  25.217  1.00  0.00     0.275 C 
BRANCH  29  30
ATOM     30  O   UNL A   1      38.312  21.549  25.169  1.00  0.00    -0.458 OA
BRANCH  30  31
ATOM     31  C   UNL A   1      39.182  21.209  26.148  1.00  0.00     0.338 C 
ATOM     32  O   UNL A   1      39.507  20.088  26.490  1.00  0.00    -0.246 OA
BRANCH  31  33
ATOM     33  C   UNL A   1      39.797  22.444  26.654  1.00  0.00     0.060 A 
ATOM     34  C   UNL A   1      39.327  23.654  26.154  1.00  0.00     0.016 A 
ATOM     35  C   UNL A   1      40.852  22.418  27.563  1.00  0.00     0.016 A 
ATOM     36  C   UNL A   1      39.930  24.845  26.516  1.00  0.00     0.010 A 
ATOM     37  C   UNL A   1      41.420  23.629  27.980  1.00  0.00     0.010 A 
ATOM     38  C   UNL A   1      40.970  24.849  27.448  1.00  0.00    -0.014 A 
BRANCH  38  39
ATOM     39  C   UNL A   1      41.572  26.154  27.815  1.00  0.00     0.031 A 
ATOM     40  C   UNL A   1      42.874  26.572  27.202  1.00  0.00     0.074 A 
ATOM     41  C   UNL A   1      40.883  26.994  28.612  1.00  0.00     0.049 A 
ATOM     42  N   UNL A   1      43.585  27.644  27.426  1.00  0.00    -0.248 NA
ATOM     43  C   UNL A   1      43.455  25.658  26.208  1.00  0.00     0.031 C 
ATOM     44  C   UNL A   1      39.553  26.722  29.165  1.00  0.00     0.029 A 
ATOM     45  N   UNL A   1      41.164  28.263  29.044  1.00  0.00    -0.354 N 
ATOM     46  C   UNL A   1      44.739  27.500  26.663  1.00  0.00     0.074 A 
ATOM     47  C   UNL A   1      44.612  26.249  25.945  1.00  0.00     0.031 C 
ATOM     48  C   UNL A   1      39.097  27.825  29.776  1.00  0.00     0.029 A 
ATOM     49  C   UNL A   1      40.136  28.849  29.748  1.00  0.00     0.049 A 
ATOM     50  H   UNL A   1      42.022  28.714  28.869  1.00  0.00     0.167 HD
ATOM     51  C   UNL A   1      45.814  28.324  26.607  1.00  0.00     0.034 A 
ATOM     52  C   UNL A   1      40.046  30.073  30.305  1.00  0.00     0.034 A 
ATOM     53  C   UNL A   1      45.895  29.573  27.326  1.00  0.00     0.049 A 
ATOM     54  C   UNL A   1      41.250  30.975  30.220  1.00  0.00     0.074 A 
ATOM     55  C   UNL A   1      46.956  30.457  27.413  1.00  0.00     0.029 A 
ATOM     56  N   UNL A   1      44.861  30.123  28.079  1.00  0.00    -0.354 N 
ATOM     57  N   UNL A   1      42.394  30.762  29.610  1.00  0.00    -0.248 NA
ATOM     58  C   UNL A   1      41.166  32.260  30.923  1.00  0.00     0.031 C 
ATOM     59  C   UNL A   1      46.593  31.496  28.279  1.00  0.00     0.029 A 
ATOM     60  C   UNL A   1      45.279  31.304  28.674  1.00  0.00     0.049 A 
ATOM     61  H   UNL A   1      43.964  29.731  28.176  1.00  0.00     0.167 HD
ATOM     62  C   UNL A   1      43.172  31.889  29.863  1.00  0.00     0.074 A 
ATOM     63  C   UNL A   1      42.349  32.789  30.650  1.00  0.00     0.031 C 
ATOM     64  C   UNL A   1      44.454  32.152  29.505  1.00  0.00     0.034 A 
BRANCH  51  65
ATOM     65  C   UNL A   1      47.026  27.817  25.860  1.00  0.00     0.023 A 
ATOM     66  C   UNL A   1      47.262  28.114  24.507  1.00  0.00     0.031 A 
ATOM     67  C   UNL A   1      47.923  26.946  26.508  1.00  0.00     0.131 A 
ATOM     68  C   UNL A   1      48.317  27.481  23.827  1.00  0.00     0.055 A 
ATOM     69  C   UNL A   1      49.016  26.385  25.848  1.00  0.00     0.041 A 
ATOM     70  F   UNL A   1      47.734  26.601  27.791  1.00  0.00    -0.206 F 
ATOM     71  C   UNL A   1      49.208  26.636  24.494  1.00  0.00     0.022 A 
BRANCH  68  72
ATOM     72  S   UNL A   1      48.407  27.640  22.022  1.00  0.00     0.124 S 
ATOM     73  O   UNL A   1      47.105  28.223  21.709  1.00  0.00    -0.237 OA
ATOM     74  O   UNL A   1      49.561  28.515  21.840  1.00  0.00    -0.237 OA
ATOM     75  O   UNL A   1      48.590  26.263  21.564  1.00  0.00    -0.744 OA
ENDBRANCH  68  72
ENDBRANCH  51  65
BRANCH  52  76
ATOM     76  C   UNL A   1      38.799  30.501  31.001  1.00  0.00     0.023 A 
ATOM     77  C   UNL A   1      37.806  31.230  30.326  1.00  0.00     0.031 A 
ATOM     78  C   UNL A   1      38.575  30.188  32.356  1.00  0.00     0.131 A 
ATOM     79  C   UNL A   1      36.646  31.634  31.008  1.00  0.00     0.055 A 
ATOM     80  C   UNL A   1      37.396  30.543  33.013  1.00  0.00     0.041 A 
ATOM     81  F   UNL A   1      39.490  29.498  33.054  1.00  0.00    -0.206 F 
ATOM     82  C   UNL A   1      36.426  31.278  32.340  1.00  0.00     0.022 A 
BRANCH  79  83
ATOM     83  S   UNL A   1      35.444  32.685  30.147  1.00  0.00     0.124 S 
ATOM     84  O   UNL A   1      34.276  32.578  31.015  1.00  0.00    -0.237 OA
ATOM     85  O   UNL A   1      36.122  33.977  30.136  1.00  0.00    -0.237 OA
ATOM     86  O   UNL A   1      35.308  32.047  28.839  1.00  0.00    -0.744 OA
ENDBRANCH  79  83
ENDBRANCH  52  76
BRANCH  64  87
ATOM     87  C   UNL A   1      45.052  33.437  30.020  1.00  0.00     0.023 A 
ATOM     88  C   UNL A   1      44.973  34.624  29.265  1.00  0.00     0.031 A 
ATOM     89  C   UNL A   1      45.693  33.486  31.267  1.00  0.00     0.131 A 
ATOM     90  C   UNL A   1      45.568  35.798  29.745  1.00  0.00     0.055 A 
ATOM     91  C   UNL A   1      46.243  34.671  31.761  1.00  0.00     0.041 A 
ATOM     92  F   UNL A   1      45.786  32.388  32.034  1.00  0.00    -0.206 F 
ATOM     93  C   UNL A   1      46.191  35.833  30.995  1.00  0.00     0.022 A 
BRANCH  90  94
ATOM     94  S   UNL A   1      45.566  37.272  28.688  1.00  0.00     0.124 S 
ATOM     95  O   UNL A   1      46.853  37.881  29.010  1.00  0.00    -0.237 OA
ATOM     96  O   UNL A   1      45.448  36.702  27.350  1.00  0.00    -0.237 OA
ATOM     97  O   UNL A   1      44.397  38.022  29.145  1.00  0.00    -0.744 OA
ENDBRANCH  90  94
ENDBRANCH  64  87
ENDBRANCH  38  39
ENDBRANCH  31  33
ENDBRANCH  30  31
ENDBRANCH  29  30
ENDBRANCH   1  29
TORSDOF 20
ENDMDL
MODEL 3
REMARK VINA RESULT:     -11.4      1.893      2.381
REMARK SMILES NC(=O)CC[C@@H](C(=O)OCCOC(=O)c1ccc(-c2c3nc(c(-c4cc(S(=O)(=O)[O-])ccc4F)c4ccc([nH]4)c(-c4cc(S(=O)(=O)[O-])ccc4F)c4nc(c(-c5cc(S(=O)(=O)[O-])ccc5F)c5ccc2[nH]5)C=C4)C=C3)cc1)N1C(=O)/C(=C/c2ccc(C=O)cc2)SC1=S
REMARK SMILES IDX 10 1 9 2 7 3 8 4 6 5 5 6 4 7 2 8 1 9 3 12 78 13 79 14 92 15
REMARK SMILES IDX 80 16 81 17 91 18 93 19 82 20 83 21 84 22 90 23 85 24 89 25
REMARK SMILES IDX 86 26 87 27 88 28 11 29 12 30 13 31 14 32 15 33 16 34 77 35
REMARK SMILES IDX 17 36 76 37 18 38 19 39 20 40 70 41 21 42 75 43 69 44 71 45
REMARK SMILES IDX 22 46 74 47 68 48 67 49 23 51 55 52 35 53 54 54 36 55 39 56
REMARK SMILES IDX 53 57 72 58 37 59 38 60 52 62 73 63 40 64 24 65 25 66 33 67
REMARK SMILES IDX 26 68 32 69 34 70 31 71 27 72 28 73 29 74 30 75 56 76 57 77
REMARK SMILES IDX 65 78 58 79 64 80 66 81 63 82 59 83 60 84 61 85 62 86 41 87
REMARK SMILES IDX 42 88 50 89 43 90 49 91 51 92 48 93 44 94 45 95 46 96 47 97
REMARK H PARENT 1 10 1 11 71 50 39 61
REMARK Flexibility Score: inf
ROOT
ATOM      1  C   UNL A   1      34.691  21.761  24.780  1.00  0.00     0.274 C 
ENDROOT
BRANCH   1   2
ATOM      2  O   UNL A   1      34.656  22.957  23.968  1.00  0.00    -0.461 OA
BRANCH   2   3
ATOM      3  C   UNL A   1      33.470  23.296  23.396  1.00  0.00     0.329 C 
ATOM      4  O   UNL A   1      33.288  23.276  22.184  1.00  0.00    -0.250 OA
BRANCH   3   5
ATOM      5  C   UNL A   1      32.416  23.799  24.415  1.00  0.00     0.202 C 
BRANCH   5   6
ATOM      6  C   UNL A   1      31.207  22.856  24.614  1.00  0.00     0.047 C 
BRANCH   6   7
ATOM      7  C   UNL A   1      31.034  22.183  25.979  1.00  0.00     0.102 C 
BRANCH   7   8
ATOM      8  C   UNL A   1      31.680  22.942  27.105  1.00  0.00     0.217 C 
ATOM      9  N   UNL A   1      32.650  22.260  27.776  1.00  0.00    -0.370 N 
ATOM     10  H   UNL A   1      33.123  22.687  28.526  1.00  0.00     0.159 HD
ATOM     11  H   UNL A   1      32.879  21.340  27.509  1.00  0.00     0.159 HD
ATOM     12  O   UNL A   1      31.392  24.096  27.393  1.00  0.00    -0.275 OA
ENDBRANCH   7   8
ENDBRANCH   6   7
ENDBRANCH   5   6
BRANCH   5  13
ATOM     13  N   UNL A   1      32.074  25.239  24.129  1.00  0.00    -0.278 N 
ATOM     14  C   UNL A   1      30.933  25.470  23.351  1.00  0.00     0.266 C 
ATOM     15  C   UNL A   1      32.712  26.384  24.578  1.00  0.00     0.149 C 
ATOM     16  O   UNL A   1      30.256  24.607  22.806  1.00  0.00    -0.268 OA
ATOM     17  C   UNL A   1      30.631  26.929  23.254  1.00  0.00     0.081 C 
ATOM     18  S   UNL A   1      31.941  27.816  23.912  1.00  0.00    -0.054 SA
ATOM     19  S   UNL A   1      34.021  26.584  25.589  1.00  0.00    -0.052 S 
ATOM     20  C   UNL A   1      29.477  27.436  22.790  1.00  0.00     0.029 C 
BRANCH  20  21
ATOM     21  C   UNL A   1      29.152  28.875  22.727  1.00  0.00    -0.024 A 
ATOM     22  C   UNL A   1      29.912  29.740  21.929  1.00  0.00     0.009 A 
ATOM     23  C   UNL A   1      28.072  29.401  23.453  1.00  0.00     0.009 A 
ATOM     24  C   UNL A   1      29.569  31.094  21.822  1.00  0.00     0.012 A 
ATOM     25  C   UNL A   1      27.714  30.747  23.333  1.00  0.00     0.012 A 
ATOM     26  C   UNL A   1      28.461  31.590  22.509  1.00  0.00     0.014 A 
BRANCH  26  27
ATOM     27  C   UNL A   1      28.071  33.009  22.383  1.00  0.00     0.260 C 
ATOM     28  O   UNL A   1      28.622  33.895  23.019  1.00  0.00    -0.298 OA
ENDBRANCH  26  27
ENDBRANCH  20  21
ENDBRANCH   5  13
ENDBRANCH   3   5
ENDBRANCH   2   3
ENDBRANCH   1   2
BRANCH   1  29
ATOM     29  C   UNL A   1      36.088  21.143  24.788  1.00  0.00     0.275 C 
BRANCH  29  30
ATOM     30  O   UNL A   1      36.863  21.708  25.856  1.00  0.00    -0.458 OA
BRANCH  30  31
ATOM     31  C   UNL A   1      38.170  21.356  25.870  1.00  0.00     0.338 C 
ATOM     32  O   UNL A   1      38.659  20.317  25.472  1.00  0.00    -0.246 OA
BRANCH  31  33
ATOM     33  C   UNL A   1      38.944  22.519  26.327  1.00  0.00     0.060 A 
ATOM     34  C   UNL A   1      38.457  23.785  26.018  1.00  0.00     0.016 A 
ATOM     35  C   UNL A   1      40.155  22.374  27.001  1.00  0.00     0.016 A 
ATOM     36  C   UNL A   1      39.189  24.915  26.334  1.00  0.00     0.010 A 
ATOM     37  C   UNL A   1      40.865  23.520  27.379  1.00  0.00     0.010 A 
ATOM     38  C   UNL A   1      40.391  24.798  27.035  1.00  0.00    -0.014 A 
BRANCH  38  39
ATOM     39  C   UNL A   1      41.130  26.041  27.364  1.00  0.00     0.031 A 
ATOM     40  C   UNL A   1      40.576  26.990  28.383  1.00  0.00     0.074 A 
ATOM     41  C   UNL A   1      42.347  26.245  26.822  1.00  0.00     0.049 A 
ATOM     42  N   UNL A   1      41.041  28.146  28.773  1.00  0.00    -0.248 NA
ATOM     43  C   UNL A   1      39.327  26.586  29.045  1.00  0.00     0.031 C 
ATOM     44  C   UNL A   1      43.022  25.319  25.908  1.00  0.00     0.029 A 
ATOM     45  N   UNL A   1      43.260  27.250  27.003  1.00  0.00    -0.354 N 
ATOM     46  C   UNL A   1      40.103  28.649  29.668  1.00  0.00     0.074 A 
ATOM     47  C   UNL A   1      39.059  27.652  29.785  1.00  0.00     0.031 C 
ATOM     48  C   UNL A   1      44.273  25.750  25.689  1.00  0.00     0.029 A 
ATOM     49  C   UNL A   1      44.459  27.030  26.363  1.00  0.00     0.049 A 
ATOM     50  H   UNL A   1      43.075  28.054  27.540  1.00  0.00     0.167 HD
ATOM     51  C   UNL A   1      40.105  29.851  30.297  1.00  0.00     0.034 A 
ATOM     52  C   UNL A   1      45.579  27.780  26.327  1.00  0.00     0.034 A 
ATOM     53  C   UNL A   1      41.175  30.811  30.168  1.00  0.00     0.049 A 
ATOM     54  C   UNL A   1      45.562  29.106  27.043  1.00  0.00     0.074 A 
ATOM     55  C   UNL A   1      41.261  32.090  30.690  1.00  0.00     0.029 A 
ATOM     56  N   UNL A   1      42.359  30.591  29.469  1.00  0.00    -0.354 N 
ATOM     57  N   UNL A   1      44.605  29.633  27.773  1.00  0.00    -0.248 NA
ATOM     58  C   UNL A   1      46.753  29.949  26.903  1.00  0.00     0.031 C 
ATOM     59  C   UNL A   1      42.455  32.669  30.242  1.00  0.00     0.029 A 
ATOM     60  C   UNL A   1      43.153  31.727  29.503  1.00  0.00     0.049 A 
ATOM     61  H   UNL A   1      42.598  29.751  29.016  1.00  0.00     0.167 HD
ATOM     62  C   UNL A   1      45.079  30.878  28.175  1.00  0.00     0.074 A 
ATOM     63  C   UNL A   1      46.420  31.002  27.635  1.00  0.00     0.031 C 
ATOM     64  C   UNL A   1      44.462  31.844  28.902  1.00  0.00     0.034 A 
BRANCH  51  65
ATOM     65  C   UNL A   1      38.852  30.232  31.050  1.00  0.00     0.023 A 
ATOM     66  C   UNL A   1      37.880  31.095  30.518  1.00  0.00     0.031 A 
ATOM     67  C   UNL A   1      38.675  29.777  32.372  1.00  0.00     0.131 A 
ATOM     68  C   UNL A   1      36.821  31.539  31.329  1.00  0.00     0.055 A 
ATOM     69  C   UNL A   1      37.578  30.157  33.144  1.00  0.00     0.041 A 
ATOM     70  F   UNL A   1      39.585  28.975  32.947  1.00  0.00    -0.206 F 
ATOM     71  C   UNL A   1      36.652  31.059  32.631  1.00  0.00     0.022 A 
BRANCH  68  72
ATOM     72  S   UNL A   1      35.765  32.883  30.721  1.00  0.00     0.124 S 
ATOM     73  O   UNL A   1      34.445  32.454  31.175  1.00  0.00    -0.237 OA
ATOM     74  O   UNL A   1      36.324  34.051  31.394  1.00  0.00    -0.237 OA
ATOM     75  O   UNL A   1      35.960  32.845  29.273  1.00  0.00    -0.744 OA
ENDBRANCH  68  72
ENDBRANCH  51  65
BRANCH  52  76
ATOM     76  C   UNL A   1      46.783  27.313  25.581  1.00  0.00     0.023 A 
ATOM     77  C   UNL A   1      47.064  27.787  24.290  1.00  0.00     0.031 A 
ATOM     78  C   UNL A   1      47.676  26.382  26.146  1.00  0.00     0.131 A 
ATOM     79  C   UNL A   1      48.196  27.321  23.602  1.00  0.00     0.055 A 
ATOM     80  C   UNL A   1      48.829  25.964  25.481  1.00  0.00     0.041 A 
ATOM     81  F   UNL A   1      47.455  25.889  27.375  1.00  0.00    -0.206 F 
ATOM     82  C   UNL A   1      49.090  26.428  24.197  1.00  0.00     0.022 A 
BRANCH  79  83
ATOM     83  S   UNL A   1      48.462  27.852  21.887  1.00  0.00     0.124 S 
ATOM     84  O   UNL A   1      47.372  28.803  21.696  1.00  0.00    -0.237 OA
ATOM     85  O   UNL A   1      49.806  28.415  21.948  1.00  0.00    -0.237 OA
ATOM     86  O   UNL A   1      48.346  26.610  21.124  1.00  0.00    -0.744 OA
ENDBRANCH  79  83
ENDBRANCH  52  76
BRANCH  64  87
ATOM     87  C   UNL A   1      45.217  33.136  29.091  1.00  0.00     0.023 A 
ATOM     88  C   UNL A   1      45.239  34.115  28.079  1.00  0.00     0.031 A 
ATOM     89  C   UNL A   1      45.910  33.399  30.283  1.00  0.00     0.131 A 
ATOM     90  C   UNL A   1      45.978  35.292  28.261  1.00  0.00     0.055 A 
ATOM     91  C   UNL A   1      46.606  34.594  30.477  1.00  0.00     0.041 A 
ATOM     92  F   UNL A   1      45.913  32.507  31.287  1.00  0.00    -0.206 F 
ATOM     93  C   UNL A   1      46.651  35.543  29.458  1.00  0.00     0.022 A 
BRANCH  90  94
ATOM     94  S   UNL A   1      46.096  36.469  26.886  1.00  0.00     0.124 S 
ATOM     95  O   UNL A   1      45.985  35.594  25.723  1.00  0.00    -0.237 OA
ATOM     96  O   UNL A   1      44.959  37.353  27.128  1.00  0.00    -0.237 OA
ATOM     97  O   UNL A   1      47.408  37.086  27.073  1.00  0.00    -0.744 OA
ENDBRANCH  90  94
ENDBRANCH  64  87
ENDBRANCH  38  39
ENDBRANCH  31  33
ENDBRANCH  30  31
ENDBRANCH  29  30
ENDBRANCH   1  29
TORSDOF 20
ENDMDL
