MODEL 1
REMARK VINA RESULT:     -12.7      0.000      0.000
REMARK SMILES O=C(OCCOC(=O)c1ccc(-c2c3nc(c(-c4cc(S(=O)(=O)[O-])ccc4F)c4ccc([nH]4)c(-c4cc(S(=O)(=O)[O-])ccc4F)c4nc(c(-c5cc(S(=O)(=O)[O-])ccc5F)c5ccc2[nH]5)C=C4)C=C3)cc1)C1=Cc2cc(Cl)cc(-c3ccc(O)cc3)c2O[C@@H]1C(F)(F)F
REMARK SMILES IDX 5 1 4 2 3 3 2 4 1 5 72 6 73 7 89 8 74 9 88 10 75 11 87 12
REMARK SMILES IDX 76 13 79 14 77 15 78 16 90 17 91 18 92 19 93 20 80 21 81 22
REMARK SMILES IDX 86 23 82 24 85 25 83 26 84 27 6 29 7 30 8 31 9 32 10 33
REMARK SMILES IDX 71 34 11 35 70 36 12 37 13 38 14 39 64 40 15 41 69 42 63 43
REMARK SMILES IDX 65 44 16 45 68 46 62 47 61 48 17 50 49 51 29 52 48 53 30 54
REMARK SMILES IDX 33 55 47 56 66 57 31 58 32 59 46 61 67 62 34 63 18 64 19 65
REMARK SMILES IDX 27 66 20 67 26 68 28 69 25 70 21 71 22 72 23 73 24 74 50 75
REMARK SMILES IDX 51 76 59 77 52 78 58 79 60 80 57 81 53 82 54 83 55 84 56 85
REMARK SMILES IDX 35 86 36 87 44 88 37 89 43 90 45 91 42 92 38 93 39 94 40 95
REMARK SMILES IDX 41 96
REMARK H PARENT 84 28 65 49 33 60
REMARK Flexibility Score: inf
ROOT
ATOM      1  C   UNL A   1      32.025  29.765  25.751  1.00  0.00     0.275 C 
ENDROOT
BRANCH   1   2
ATOM      2  C   UNL A   1      32.838  29.568  24.444  1.00  0.00     0.275 C 
BRANCH   2   3
ATOM      3  O   UNL A   1      33.675  28.382  24.443  1.00  0.00    -0.459 OA
BRANCH   3   4
ATOM      4  C   UNL A   1      33.338  27.377  23.581  1.00  0.00     0.338 C 
ATOM      5  O   UNL A   1      33.851  27.238  22.481  1.00  0.00    -0.246 OA
BRANCH   4   6
ATOM      6  C   UNL A   1      32.264  26.488  24.115  1.00  0.00     0.087 C 
ATOM      7  C   UNL A   1      31.740  25.557  23.300  1.00  0.00     0.027 C 
ATOM      8  C   UNL A   1      32.361  26.090  25.545  1.00  0.00     0.316 C 
ATOM      9  C   UNL A   1      32.069  24.163  23.641  1.00  0.00     0.019 A 
ATOM     10  O   UNL A   1      33.155  24.875  25.675  1.00  0.00    -0.475 OA
ATOM     11  C   UNL A   1      31.698  23.107  22.811  1.00  0.00     0.032 A 
ATOM     12  C   UNL A   1      33.017  23.951  24.663  1.00  0.00     0.135 A 
ATOM     13  C   UNL A   1      32.342  21.881  22.944  1.00  0.00     0.042 A 
ATOM     14  C   UNL A   1      33.861  22.823  24.601  1.00  0.00     0.026 A 
ATOM     15  Cl  UNL A   1      31.899  20.561  21.935  1.00  0.00    -0.084 Cl
ATOM     16  C   UNL A   1      33.445  21.754  23.787  1.00  0.00     0.033 A 
BRANCH   8  17
ATOM     17  C   UNL A   1      30.965  26.135  26.209  1.00  0.00     0.430 C 
ATOM     18  F   UNL A   1      30.674  24.923  26.750  1.00  0.00    -0.167 F 
ATOM     19  F   UNL A   1      30.871  27.035  27.215  1.00  0.00    -0.167 F 
ATOM     20  F   UNL A   1      29.991  26.418  25.319  1.00  0.00    -0.167 F 
ENDBRANCH   8  17
BRANCH  14  21
ATOM     21  C   UNL A   1      35.304  22.845  24.959  1.00  0.00    -0.014 A 
ATOM     22  C   UNL A   1      36.076  21.699  24.637  1.00  0.00     0.012 A 
ATOM     23  C   UNL A   1      35.948  23.879  25.649  1.00  0.00     0.012 A 
ATOM     24  C   UNL A   1      37.419  21.580  24.997  1.00  0.00     0.047 A 
ATOM     25  C   UNL A   1      37.310  23.767  26.001  1.00  0.00     0.047 A 
ATOM     26  C   UNL A   1      38.029  22.616  25.680  1.00  0.00     0.115 A 
BRANCH  26  27
ATOM     27  O   UNL A   1      39.339  22.456  26.022  1.00  0.00    -0.508 OA
ATOM     28  H   UNL A   1      39.747  23.063  26.607  1.00  0.00     0.293 HD
ENDBRANCH  26  27
ENDBRANCH  14  21
ENDBRANCH   4   6
ENDBRANCH   3   4
ENDBRANCH   2   3
ENDBRANCH   1   2
BRANCH   1  29
ATOM     29  O   UNL A   1      32.828  29.836  26.933  1.00  0.00    -0.458 OA
BRANCH  29  30
ATOM     30  C   UNL A   1      33.284  31.075  27.210  1.00  0.00     0.338 C 
ATOM     31  O   UNL A   1      32.597  32.085  27.304  1.00  0.00    -0.246 OA
BRANCH  30  32
ATOM     32  C   UNL A   1      34.692  30.975  27.648  1.00  0.00     0.060 A 
ATOM     33  C   UNL A   1      35.234  29.689  27.689  1.00  0.00     0.016 A 
ATOM     34  C   UNL A   1      35.494  32.086  27.951  1.00  0.00     0.016 A 
ATOM     35  C   UNL A   1      36.547  29.500  28.103  1.00  0.00     0.010 A 
ATOM     36  C   UNL A   1      36.829  31.894  28.337  1.00  0.00     0.010 A 
ATOM     37  C   UNL A   1      37.348  30.593  28.466  1.00  0.00    -0.014 A 
BRANCH  37  38
ATOM     38  C   UNL A   1      38.635  30.302  29.157  1.00  0.00     0.031 A 
ATOM     39  C   UNL A   1      38.826  30.809  30.563  1.00  0.00     0.074 A 
ATOM     40  C   UNL A   1      39.536  29.460  28.615  1.00  0.00     0.049 A 
ATOM     41  N   UNL A   1      39.733  30.482  31.448  1.00  0.00    -0.248 NA
ATOM     42  C   UNL A   1      37.860  31.813  31.039  1.00  0.00     0.031 C 
ATOM     43  C   UNL A   1      39.466  28.901  27.264  1.00  0.00     0.029 A 
ATOM     44  N   UNL A   1      40.670  28.897  29.148  1.00  0.00    -0.354 N 
ATOM     45  C   UNL A   1      39.415  31.201  32.595  1.00  0.00     0.074 A 
ATOM     46  C   UNL A   1      38.298  32.055  32.263  1.00  0.00     0.031 C 
ATOM     47  C   UNL A   1      40.496  28.055  27.086  1.00  0.00     0.029 A 
ATOM     48  C   UNL A   1      41.306  28.015  28.302  1.00  0.00     0.049 A 
ATOM     49  H   UNL A   1      40.999  29.104  30.054  1.00  0.00     0.167 HD
ATOM     50  C   UNL A   1      39.972  31.127  33.829  1.00  0.00     0.034 A 
ATOM     51  C   UNL A   1      42.408  27.258  28.492  1.00  0.00     0.034 A 
ATOM     52  C   UNL A   1      41.109  30.306  34.146  1.00  0.00     0.049 A 
ATOM     53  C   UNL A   1      43.073  27.268  29.853  1.00  0.00     0.074 A 
ATOM     54  C   UNL A   1      41.771  30.175  35.354  1.00  0.00     0.029 A 
ATOM     55  N   UNL A   1      41.767  29.481  33.242  1.00  0.00    -0.354 N 
ATOM     56  N   UNL A   1      42.722  27.911  30.945  1.00  0.00    -0.248 NA
ATOM     57  C   UNL A   1      44.266  26.427  30.013  1.00  0.00     0.031 C 
ATOM     58  C   UNL A   1      42.870  29.331  35.162  1.00  0.00     0.029 A 
ATOM     59  C   UNL A   1      42.845  28.863  33.858  1.00  0.00     0.049 A 
ATOM     60  H   UNL A   1      41.506  29.353  32.302  1.00  0.00     0.167 HD
ATOM     61  C   UNL A   1      43.632  27.520  31.925  1.00  0.00     0.074 A 
ATOM     62  C   UNL A   1      44.523  26.563  31.304  1.00  0.00     0.031 C 
ATOM     63  C   UNL A   1      43.730  27.916  33.222  1.00  0.00     0.034 A 
BRANCH  50  64
ATOM     64  C   UNL A   1      39.354  31.986  34.906  1.00  0.00     0.023 A 
ATOM     65  C   UNL A   1      39.781  33.310  35.117  1.00  0.00     0.031 A 
ATOM     66  C   UNL A   1      38.373  31.464  35.765  1.00  0.00     0.131 A 
ATOM     67  C   UNL A   1      39.289  34.038  36.209  1.00  0.00     0.055 A 
ATOM     68  C   UNL A   1      37.825  32.226  36.799  1.00  0.00     0.041 A 
ATOM     69  F   UNL A   1      37.948  30.199  35.629  1.00  0.00    -0.206 F 
ATOM     70  C   UNL A   1      38.293  33.515  37.036  1.00  0.00     0.022 A 
BRANCH  67  71
ATOM     71  S   UNL A   1      40.082  35.616  36.626  1.00  0.00     0.124 S 
ATOM     72  O   UNL A   1      39.440  35.940  37.898  1.00  0.00    -0.237 OA
ATOM     73  O   UNL A   1      41.493  35.253  36.695  1.00  0.00    -0.237 OA
ATOM     74  O   UNL A   1      39.715  36.489  35.512  1.00  0.00    -0.744 OA
ENDBRANCH  67  71
ENDBRANCH  50  64
BRANCH  51  75
ATOM     75  C   UNL A   1      42.989  26.444  27.379  1.00  0.00     0.023 A 
ATOM     76  C   UNL A   1      42.730  25.068  27.253  1.00  0.00     0.031 A 
ATOM     77  C   UNL A   1      43.913  27.019  26.487  1.00  0.00     0.131 A 
ATOM     78  C   UNL A   1      43.445  24.302  26.314  1.00  0.00     0.055 A 
ATOM     79  C   UNL A   1      44.571  26.265  25.513  1.00  0.00     0.041 A 
ATOM     80  F   UNL A   1      44.205  28.327  26.561  1.00  0.00    -0.206 F 
ATOM     81  C   UNL A   1      44.354  24.894  25.436  1.00  0.00     0.022 A 
BRANCH  78  82
ATOM     82  S   UNL A   1      43.275  22.494  26.350  1.00  0.00     0.124 S 
ATOM     83  O   UNL A   1      42.831  22.264  27.719  1.00  0.00    -0.237 OA
ATOM     84  O   UNL A   1      42.281  22.264  25.306  1.00  0.00    -0.237 OA
ATOM     85  O   UNL A   1      44.622  22.019  26.041  1.00  0.00    -0.744 OA
ENDBRANCH  78  82
ENDBRANCH  51  75
BRANCH  63  86
ATOM     86  C   UNL A   1      44.817  27.279  34.058  1.00  0.00     0.023 A 
ATOM     87  C   UNL A   1      44.617  26.058  34.728  1.00  0.00     0.031 A 
ATOM     88  C   UNL A   1      46.063  27.913  34.210  1.00  0.00     0.131 A 
ATOM     89  C   UNL A   1      45.612  25.555  35.580  1.00  0.00     0.055 A 
ATOM     90  C   UNL A   1      47.079  27.366  34.994  1.00  0.00     0.041 A 
ATOM     91  F   UNL A   1      46.315  29.081  33.596  1.00  0.00    -0.206 F 
ATOM     92  C   UNL A   1      46.848  26.190  35.701  1.00  0.00     0.022 A 
BRANCH  89  93
ATOM     93  S   UNL A   1      45.214  24.129  36.629  1.00  0.00     0.124 S 
ATOM     94  O   UNL A   1      44.686  24.772  37.827  1.00  0.00    -0.237 OA
ATOM     95  O   UNL A   1      44.244  23.404  35.814  1.00  0.00    -0.237 OA
ATOM     96  O   UNL A   1      46.503  23.461  36.799  1.00  0.00    -0.744 OA
ENDBRANCH  89  93
ENDBRANCH  63  86
ENDBRANCH  37  38
ENDBRANCH  30  32
ENDBRANCH  29  30
ENDBRANCH   1  29
TORSDOF 17
ENDMDL
MODEL 2
REMARK VINA RESULT:     -12.6      4.403      9.888
REMARK SMILES O=C(OCCOC(=O)c1ccc(-c2c3nc(c(-c4cc(S(=O)(=O)[O-])ccc4F)c4ccc([nH]4)c(-c4cc(S(=O)(=O)[O-])ccc4F)c4nc(c(-c5cc(S(=O)(=O)[O-])ccc5F)c5ccc2[nH]5)C=C4)C=C3)cc1)C1=Cc2cc(Cl)cc(-c3ccc(O)cc3)c2O[C@@H]1C(F)(F)F
REMARK SMILES IDX 5 1 4 2 3 3 2 4 1 5 72 6 73 7 89 8 74 9 88 10 75 11 87 12
REMARK SMILES IDX 76 13 79 14 77 15 78 16 90 17 91 18 92 19 93 20 80 21 81 22
REMARK SMILES IDX 86 23 82 24 85 25 83 26 84 27 6 29 7 30 8 31 9 32 10 33
REMARK SMILES IDX 71 34 11 35 70 36 12 37 13 38 14 39 64 40 15 41 69 42 63 43
REMARK SMILES IDX 65 44 16 45 68 46 62 47 61 48 17 50 49 51 29 52 48 53 30 54
REMARK SMILES IDX 33 55 47 56 66 57 31 58 32 59 46 61 67 62 34 63 18 64 19 65
REMARK SMILES IDX 27 66 20 67 26 68 28 69 25 70 21 71 22 72 23 73 24 74 50 75
REMARK SMILES IDX 51 76 59 77 52 78 58 79 60 80 57 81 53 82 54 83 55 84 56 85
REMARK SMILES IDX 35 86 36 87 44 88 37 89 43 90 45 91 42 92 38 93 39 94 40 95
REMARK SMILES IDX 41 96
REMARK H PARENT 84 28 65 49 33 60
REMARK Flexibility Score: inf
ROOT
ATOM      1  C   UNL A   1      36.692  22.457  23.930  1.00  0.00     0.275 C 
ENDROOT
BRANCH   1   2
ATOM      2  C   UNL A   1      35.194  22.641  23.569  1.00  0.00     0.275 C 
BRANCH   2   3
ATOM      3  O   UNL A   1      34.933  23.764  22.689  1.00  0.00    -0.459 OA
BRANCH   3   4
ATOM      4  C   UNL A   1      33.939  24.629  23.052  1.00  0.00     0.338 C 
ATOM      5  O   UNL A   1      33.341  25.335  22.255  1.00  0.00    -0.246 OA
BRANCH   4   6
ATOM      6  C   UNL A   1      33.683  24.635  24.522  1.00  0.00     0.087 C 
ATOM      7  C   UNL A   1      34.309  25.555  25.278  1.00  0.00     0.027 C 
ATOM      8  C   UNL A   1      32.311  24.279  24.974  1.00  0.00     0.316 C 
ATOM      9  C   UNL A   1      33.441  26.598  25.848  1.00  0.00     0.019 A 
ATOM     10  O   UNL A   1      31.473  25.470  25.025  1.00  0.00    -0.475 OA
ATOM     11  C   UNL A   1      33.974  27.682  26.544  1.00  0.00     0.032 A 
ATOM     12  C   UNL A   1      32.098  26.632  25.421  1.00  0.00     0.135 A 
ATOM     13  C   UNL A   1      33.196  28.822  26.723  1.00  0.00     0.042 A 
ATOM     14  C   UNL A   1      31.428  27.870  25.341  1.00  0.00     0.026 A 
ATOM     15  Cl  UNL A   1      33.829  30.170  27.582  1.00  0.00    -0.084 Cl
ATOM     16  C   UNL A   1      31.962  28.937  26.085  1.00  0.00     0.033 A 
BRANCH   8  17
ATOM     17  C   UNL A   1      32.378  23.368  26.223  1.00  0.00     0.430 C 
ATOM     18  F   UNL A   1      31.454  22.377  26.120  1.00  0.00    -0.167 F 
ATOM     19  F   UNL A   1      33.574  22.759  26.387  1.00  0.00    -0.167 F 
ATOM     20  F   UNL A   1      32.108  24.047  27.358  1.00  0.00    -0.167 F 
ENDBRANCH   8  17
BRANCH  14  21
ATOM     21  C   UNL A   1      30.500  28.243  24.242  1.00  0.00    -0.014 A 
ATOM     22  C   UNL A   1      30.834  29.379  23.461  1.00  0.00     0.012 A 
ATOM     23  C   UNL A   1      29.288  27.602  23.957  1.00  0.00     0.012 A 
ATOM     24  C   UNL A   1      29.996  29.865  22.455  1.00  0.00     0.047 A 
ATOM     25  C   UNL A   1      28.447  28.082  22.930  1.00  0.00     0.047 A 
ATOM     26  C   UNL A   1      28.804  29.213  22.197  1.00  0.00     0.115 A 
BRANCH  26  27
ATOM     27  O   UNL A   1      28.010  29.724  21.213  1.00  0.00    -0.508 OA
ATOM     28  H   UNL A   1      27.337  30.340  21.428  1.00  0.00     0.293 HD
ENDBRANCH  26  27
ENDBRANCH  14  21
ENDBRANCH   4   6
ENDBRANCH   3   4
ENDBRANCH   2   3
ENDBRANCH   1   2
BRANCH   1  29
ATOM     29  O   UNL A   1      36.945  22.353  25.334  1.00  0.00    -0.458 OA
BRANCH  29  30
ATOM     30  C   UNL A   1      38.160  21.850  25.635  1.00  0.00     0.338 C 
ATOM     31  O   UNL A   1      38.657  20.843  25.146  1.00  0.00    -0.246 OA
BRANCH  30  32
ATOM     32  C   UNL A   1      38.901  22.847  26.436  1.00  0.00     0.060 A 
ATOM     33  C   UNL A   1      38.333  24.120  26.512  1.00  0.00     0.016 A 
ATOM     34  C   UNL A   1      40.075  22.557  27.148  1.00  0.00     0.016 A 
ATOM     35  C   UNL A   1      38.970  25.124  27.232  1.00  0.00     0.010 A 
ATOM     36  C   UNL A   1      40.697  23.565  27.901  1.00  0.00     0.010 A 
ATOM     37  C   UNL A   1      40.174  24.870  27.903  1.00  0.00    -0.014 A 
BRANCH  37  38
ATOM     38  C   UNL A   1      40.936  26.044  28.415  1.00  0.00     0.031 A 
ATOM     39  C   UNL A   1      42.361  26.229  27.960  1.00  0.00     0.074 A 
ATOM     40  C   UNL A   1      40.322  27.013  29.122  1.00  0.00     0.049 A 
ATOM     41  N   UNL A   1      43.136  27.278  28.062  1.00  0.00    -0.248 NA
ATOM     42  C   UNL A   1      42.994  25.080  27.294  1.00  0.00     0.031 C 
ATOM     43  C   UNL A   1      38.948  26.953  29.621  1.00  0.00     0.029 A 
ATOM     44  N   UNL A   1      40.763  28.254  29.512  1.00  0.00    -0.354 N 
ATOM     45  C   UNL A   1      44.324  26.931  27.430  1.00  0.00     0.074 A 
ATOM     46  C   UNL A   1      44.206  25.545  27.039  1.00  0.00     0.031 C 
ATOM     47  C   UNL A   1      38.651  28.116  30.227  1.00  0.00     0.029 A 
ATOM     48  C   UNL A   1      39.812  29.003  30.169  1.00  0.00     0.049 A 
ATOM     49  H   UNL A   1      41.677  28.579  29.337  1.00  0.00     0.167 HD
ATOM     50  C   UNL A   1      45.402  27.706  27.156  1.00  0.00     0.034 A 
ATOM     51  C   UNL A   1      39.870  30.260  30.657  1.00  0.00     0.034 A 
ATOM     52  C   UNL A   1      45.533  29.074  27.580  1.00  0.00     0.049 A 
ATOM     53  C   UNL A   1      41.126  31.074  30.425  1.00  0.00     0.074 A 
ATOM     54  C   UNL A   1      46.592  29.942  27.382  1.00  0.00     0.029 A 
ATOM     55  N   UNL A   1      44.576  29.774  28.305  1.00  0.00    -0.354 N 
ATOM     56  N   UNL A   1      42.220  30.748  29.772  1.00  0.00    -0.248 NA
ATOM     57  C   UNL A   1      41.143  32.437  30.972  1.00  0.00     0.031 C 
ATOM     58  C   UNL A   1      46.307  31.139  28.048  1.00  0.00     0.029 A 
ATOM     59  C   UNL A   1      45.033  31.052  28.588  1.00  0.00     0.049 A 
ATOM     60  H   UNL A   1      43.701  29.414  28.577  1.00  0.00     0.167 HD
ATOM     61  C   UNL A   1      43.033  31.879  29.803  1.00  0.00     0.074 A 
ATOM     62  C   UNL A   1      42.291  32.903  30.507  1.00  0.00     0.031 C 
ATOM     63  C   UNL A   1      44.283  32.060  29.299  1.00  0.00     0.034 A 
BRANCH  50  64
ATOM     64  C   UNL A   1      46.524  27.061  26.379  1.00  0.00     0.023 A 
ATOM     65  C   UNL A   1      47.615  26.461  27.035  1.00  0.00     0.031 A 
ATOM     66  C   UNL A   1      46.535  27.092  24.974  1.00  0.00     0.131 A 
ATOM     67  C   UNL A   1      48.706  25.991  26.292  1.00  0.00     0.055 A 
ATOM     68  C   UNL A   1      47.587  26.545  24.237  1.00  0.00     0.041 A 
ATOM     69  F   UNL A   1      45.535  27.676  24.295  1.00  0.00    -0.206 F 
ATOM     70  C   UNL A   1      48.688  26.004  24.895  1.00  0.00     0.022 A 
BRANCH  67  71
ATOM     71  S   UNL A   1      50.214  25.509  27.177  1.00  0.00     0.124 S 
ATOM     72  O   UNL A   1      49.818  24.226  27.755  1.00  0.00    -0.237 OA
ATOM     73  O   UNL A   1      51.205  25.451  26.109  1.00  0.00    -0.237 OA
ATOM     74  O   UNL A   1      50.401  26.587  28.147  1.00  0.00    -0.744 OA
ENDBRANCH  67  71
ENDBRANCH  50  64
BRANCH  51  75
ATOM     75  C   UNL A   1      38.735  30.839  31.441  1.00  0.00     0.023 A 
ATOM     76  C   UNL A   1      37.717  31.592  30.828  1.00  0.00     0.031 A 
ATOM     77  C   UNL A   1      38.719  30.742  32.845  1.00  0.00     0.131 A 
ATOM     78  C   UNL A   1      36.779  32.280  31.619  1.00  0.00     0.055 A 
ATOM     79  C   UNL A   1      37.745  31.374  33.622  1.00  0.00     0.041 A 
ATOM     80  F   UNL A   1      39.667  30.042  33.488  1.00  0.00    -0.206 F 
ATOM     81  C   UNL A   1      36.780  32.165  33.010  1.00  0.00     0.022 A 
BRANCH  78  82
ATOM     82  S   UNL A   1      35.640  33.442  30.811  1.00  0.00     0.124 S 
ATOM     83  O   UNL A   1      34.456  32.613  30.621  1.00  0.00    -0.237 OA
ATOM     84  O   UNL A   1      35.530  34.500  31.809  1.00  0.00    -0.237 OA
ATOM     85  O   UNL A   1      36.346  33.814  29.586  1.00  0.00    -0.744 OA
ENDBRANCH  78  82
ENDBRANCH  51  75
BRANCH  63  86
ATOM     86  C   UNL A   1      44.901  33.430  29.462  1.00  0.00     0.023 A 
ATOM     87  C   UNL A   1      44.821  34.404  28.450  1.00  0.00     0.031 A 
ATOM     88  C   UNL A   1      45.604  33.760  30.636  1.00  0.00     0.131 A 
ATOM     89  C   UNL A   1      45.499  35.623  28.596  1.00  0.00     0.055 A 
ATOM     90  C   UNL A   1      46.208  35.005  30.809  1.00  0.00     0.041 A 
ATOM     91  F   UNL A   1      45.716  32.872  31.638  1.00  0.00    -0.206 F 
ATOM     92  C   UNL A   1      46.175  35.938  29.776  1.00  0.00     0.022 A 
BRANCH  89  93
ATOM     93  S   UNL A   1      45.597  36.737  27.167  1.00  0.00     0.124 S 
ATOM     94  O   UNL A   1      44.217  37.192  27.042  1.00  0.00    -0.237 OA
ATOM     95  O   UNL A   1      46.560  37.737  27.617  1.00  0.00    -0.237 OA
ATOM     96  O   UNL A   1      46.065  35.868  26.089  1.00  0.00    -0.744 OA
ENDBRANCH  89  93
ENDBRANCH  63  86
ENDBRANCH  37  38
ENDBRANCH  30  32
ENDBRANCH  29  30
ENDBRANCH   1  29
TORSDOF 17
ENDMDL
MODEL 3
REMARK VINA RESULT:     -12.4      1.773      2.082
REMARK SMILES O=C(OCCOC(=O)c1ccc(-c2c3nc(c(-c4cc(S(=O)(=O)[O-])ccc4F)c4ccc([nH]4)c(-c4cc(S(=O)(=O)[O-])ccc4F)c4nc(c(-c5cc(S(=O)(=O)[O-])ccc5F)c5ccc2[nH]5)C=C4)C=C3)cc1)C1=Cc2cc(Cl)cc(-c3ccc(O)cc3)c2O[C@@H]1C(F)(F)F
REMARK SMILES IDX 5 1 4 2 3 3 2 4 1 5 72 6 73 7 89 8 74 9 88 10 75 11 87 12
REMARK SMILES IDX 76 13 79 14 77 15 78 16 90 17 91 18 92 19 93 20 80 21 81 22
REMARK SMILES IDX 86 23 82 24 85 25 83 26 84 27 6 29 7 30 8 31 9 32 10 33
REMARK SMILES IDX 71 34 11 35 70 36 12 37 13 38 14 39 64 40 15 41 69 42 63 43
REMARK SMILES IDX 65 44 16 45 68 46 62 47 61 48 17 50 49 51 29 52 48 53 30 54
REMARK SMILES IDX 33 55 47 56 66 57 31 58 32 59 46 61 67 62 34 63 18 64 19 65
REMARK SMILES IDX 27 66 20 67 26 68 28 69 25 70 21 71 22 72 23 73 24 74 50 75
REMARK SMILES IDX 51 76 59 77 52 78 58 79 60 80 57 81 53 82 54 83 55 84 56 85
REMARK SMILES IDX 35 86 36 87 44 88 37 89 43 90 45 91 42 92 38 93 39 94 40 95
REMARK SMILES IDX 41 96
REMARK H PARENT 84 28 65 49 33 60
REMARK Flexibility Score: inf
ROOT
ATOM      1  C   UNL A   1      32.129  30.274  27.023  1.00  0.00     0.275 C 
ENDROOT
BRANCH   1   2
ATOM      2  C   UNL A   1      31.733  29.074  26.123  1.00  0.00     0.275 C 
BRANCH   2   3
ATOM      3  O   UNL A   1      31.599  27.818  26.838  1.00  0.00    -0.459 OA
BRANCH   3   4
ATOM      4  C   UNL A   1      32.383  26.776  26.429  1.00  0.00     0.338 C 
ATOM      5  O   UNL A   1      33.602  26.786  26.502  1.00  0.00    -0.246 OA
BRANCH   4   6
ATOM      6  C   UNL A   1      31.594  25.643  25.862  1.00  0.00     0.087 C 
ATOM      7  C   UNL A   1      31.457  25.563  24.527  1.00  0.00     0.027 C 
ATOM      8  C   UNL A   1      31.683  24.335  26.565  1.00  0.00     0.316 C 
ATOM      9  C   UNL A   1      32.169  24.446  23.886  1.00  0.00     0.019 A 
ATOM     10  O   UNL A   1      32.799  23.558  26.040  1.00  0.00    -0.475 OA
ATOM     11  C   UNL A   1      32.217  24.318  22.499  1.00  0.00     0.032 A 
ATOM     12  C   UNL A   1      33.043  23.685  24.690  1.00  0.00     0.135 A 
ATOM     13  C   UNL A   1      33.194  23.509  21.926  1.00  0.00     0.042 A 
ATOM     14  C   UNL A   1      34.196  23.116  24.113  1.00  0.00     0.026 A 
ATOM     15  Cl  UNL A   1      33.271  23.331  20.217  1.00  0.00    -0.084 Cl
ATOM     16  C   UNL A   1      34.203  22.960  22.715  1.00  0.00     0.033 A 
BRANCH   8  17
ATOM     17  C   UNL A   1      30.289  23.670  26.637  1.00  0.00     0.430 C 
ATOM     18  F   UNL A   1      30.188  22.936  27.776  1.00  0.00    -0.167 F 
ATOM     19  F   UNL A   1      29.266  24.554  26.660  1.00  0.00    -0.167 F 
ATOM     20  F   UNL A   1      30.076  22.830  25.602  1.00  0.00    -0.167 F 
ENDBRANCH   8  17
BRANCH  14  21
ATOM     21  C   UNL A   1      35.524  23.073  24.780  1.00  0.00    -0.014 A 
ATOM     22  C   UNL A   1      36.231  21.843  24.751  1.00  0.00     0.012 A 
ATOM     23  C   UNL A   1      36.105  24.130  25.491  1.00  0.00     0.012 A 
ATOM     24  C   UNL A   1      37.448  21.667  25.411  1.00  0.00     0.047 A 
ATOM     25  C   UNL A   1      37.343  23.959  26.146  1.00  0.00     0.047 A 
ATOM     26  C   UNL A   1      37.996  22.729  26.108  1.00  0.00     0.115 A 
BRANCH  26  27
ATOM     27  O   UNL A   1      39.182  22.513  26.747  1.00  0.00    -0.508 OA
ATOM     28  H   UNL A   1      39.271  22.733  27.654  1.00  0.00     0.293 HD
ENDBRANCH  26  27
ENDBRANCH  14  21
ENDBRANCH   4   6
ENDBRANCH   3   4
ENDBRANCH   2   3
ENDBRANCH   1   2
BRANCH   1  29
ATOM     29  O   UNL A   1      33.420  30.148  27.628  1.00  0.00    -0.458 OA
BRANCH  29  30
ATOM     30  C   UNL A   1      34.078  31.318  27.760  1.00  0.00     0.338 C 
ATOM     31  O   UNL A   1      33.560  32.425  27.833  1.00  0.00    -0.246 OA
BRANCH  30  32
ATOM     32  C   UNL A   1      35.494  31.032  28.075  1.00  0.00     0.060 A 
ATOM     33  C   UNL A   1      35.894  29.700  27.957  1.00  0.00     0.016 A 
ATOM     34  C   UNL A   1      36.431  32.021  28.412  1.00  0.00     0.016 A 
ATOM     35  C   UNL A   1      37.204  29.338  28.248  1.00  0.00     0.010 A 
ATOM     36  C   UNL A   1      37.761  31.657  28.672  1.00  0.00     0.010 A 
ATOM     37  C   UNL A   1      38.143  30.303  28.643  1.00  0.00    -0.014 A 
BRANCH  37  38
ATOM     38  C   UNL A   1      39.435  29.816  29.201  1.00  0.00     0.031 A 
ATOM     39  C   UNL A   1      39.845  30.283  30.574  1.00  0.00     0.074 A 
ATOM     40  C   UNL A   1      40.136  28.848  28.580  1.00  0.00     0.049 A 
ATOM     41  N   UNL A   1      40.779  29.819  31.365  1.00  0.00    -0.248 NA
ATOM     42  C   UNL A   1      39.099  31.421  31.133  1.00  0.00     0.031 C 
ATOM     43  C   UNL A   1      39.841  28.311  27.251  1.00  0.00     0.029 A 
ATOM     44  N   UNL A   1      41.220  28.116  29.001  1.00  0.00    -0.354 N 
ATOM     45  C   UNL A   1      40.695  30.574  32.529  1.00  0.00     0.074 A 
ATOM     46  C   UNL A   1      39.692  31.589  32.303  1.00  0.00     0.031 C 
ATOM     47  C   UNL A   1      40.707  27.318  26.978  1.00  0.00     0.029 A 
ATOM     48  C   UNL A   1      41.623  27.151  28.105  1.00  0.00     0.049 A 
ATOM     49  H   UNL A   1      41.668  28.268  29.865  1.00  0.00     0.167 HD
ATOM     50  C   UNL A   1      41.359  30.412  33.700  1.00  0.00     0.034 A 
ATOM     51  C   UNL A   1      42.610  26.233  28.189  1.00  0.00     0.034 A 
ATOM     52  C   UNL A   1      42.385  29.424  33.909  1.00  0.00     0.049 A 
ATOM     53  C   UNL A   1      43.406  26.137  29.474  1.00  0.00     0.074 A 
ATOM     54  C   UNL A   1      43.140  29.190  35.044  1.00  0.00     0.029 A 
ATOM     55  N   UNL A   1      42.812  28.512  32.952  1.00  0.00    -0.354 N 
ATOM     56  N   UNL A   1      43.272  26.822  30.589  1.00  0.00    -0.248 NA
ATOM     57  C   UNL A   1      44.467  25.123  29.521  1.00  0.00     0.031 C 
ATOM     58  C   UNL A   1      44.071  28.188  34.750  1.00  0.00     0.029 A 
ATOM     59  C   UNL A   1      43.841  27.734  33.461  1.00  0.00     0.049 A 
ATOM     60  H   UNL A   1      42.438  28.429  32.045  1.00  0.00     0.167 HD
ATOM     61  C   UNL A   1      44.209  26.293  31.475  1.00  0.00     0.074 A 
ATOM     62  C   UNL A   1      44.875  25.214  30.777  1.00  0.00     0.031 C 
ATOM     63  C   UNL A   1      44.500  26.665  32.749  1.00  0.00     0.034 A 
BRANCH  50  64
ATOM     64  C   UNL A   1      40.995  31.350  34.824  1.00  0.00     0.023 A 
ATOM     65  C   UNL A   1      39.897  31.090  35.664  1.00  0.00     0.031 A 
ATOM     66  C   UNL A   1      41.712  32.541  35.026  1.00  0.00     0.131 A 
ATOM     67  C   UNL A   1      39.498  32.043  36.611  1.00  0.00     0.055 A 
ATOM     68  C   UNL A   1      41.361  33.447  36.029  1.00  0.00     0.041 A 
ATOM     69  F   UNL A   1      42.751  32.856  34.237  1.00  0.00    -0.206 F 
ATOM     70  C   UNL A   1      40.239  33.209  36.819  1.00  0.00     0.022 A 
BRANCH  67  71
ATOM     71  S   UNL A   1      37.910  31.813  37.458  1.00  0.00     0.124 S 
ATOM     72  O   UNL A   1      37.043  32.718  36.707  1.00  0.00    -0.237 OA
ATOM     73  O   UNL A   1      37.658  30.388  37.277  1.00  0.00    -0.237 OA
ATOM     74  O   UNL A   1      38.191  32.229  38.831  1.00  0.00    -0.744 OA
ENDBRANCH  67  71
ENDBRANCH  50  64
BRANCH  51  75
ATOM     75  C   UNL A   1      42.941  25.344  27.032  1.00  0.00     0.023 A 
ATOM     76  C   UNL A   1      42.482  24.017  26.961  1.00  0.00     0.031 A 
ATOM     77  C   UNL A   1      43.828  25.782  26.031  1.00  0.00     0.131 A 
ATOM     78  C   UNL A   1      42.972  23.157  25.962  1.00  0.00     0.055 A 
ATOM     79  C   UNL A   1      44.260  24.942  25.003  1.00  0.00     0.041 A 
ATOM     80  F   UNL A   1      44.305  27.037  26.049  1.00  0.00    -0.206 F 
ATOM     81  C   UNL A   1      43.848  23.615  24.976  1.00  0.00     0.022 A 
BRANCH  78  82
ATOM     82  S   UNL A   1      42.558  21.390  26.049  1.00  0.00     0.124 S 
ATOM     83  O   UNL A   1      42.597  21.147  27.486  1.00  0.00    -0.237 OA
ATOM     84  O   UNL A   1      41.238  21.358  25.428  1.00  0.00    -0.237 OA
ATOM     85  O   UNL A   1      43.623  20.753  25.278  1.00  0.00    -0.744 OA
ENDBRANCH  78  82
ENDBRANCH  51  75
BRANCH  63  86
ATOM     86  C   UNL A   1      45.558  25.866  33.477  1.00  0.00     0.023 A 
ATOM     87  C   UNL A   1      45.246  24.682  34.170  1.00  0.00     0.031 A 
ATOM     88  C   UNL A   1      46.893  26.308  33.501  1.00  0.00     0.131 A 
ATOM     89  C   UNL A   1      46.235  24.029  34.921  1.00  0.00     0.055 A 
ATOM     90  C   UNL A   1      47.889  25.609  34.184  1.00  0.00     0.041 A 
ATOM     91  F   UNL A   1      47.254  27.432  32.860  1.00  0.00    -0.206 F 
ATOM     92  C   UNL A   1      47.558  24.474  34.916  1.00  0.00     0.022 A 
BRANCH  89  93
ATOM     93  S   UNL A   1      45.736  22.668  36.012  1.00  0.00     0.124 S 
ATOM     94  O   UNL A   1      45.739  23.312  37.322  1.00  0.00    -0.237 OA
ATOM     95  O   UNL A   1      44.425  22.309  35.482  1.00  0.00    -0.237 OA
ATOM     96  O   UNL A   1      46.782  21.667  35.809  1.00  0.00    -0.744 OA
ENDBRANCH  89  93
ENDBRANCH  63  86
ENDBRANCH  37  38
ENDBRANCH  30  32
ENDBRANCH  29  30
ENDBRANCH   1  29
TORSDOF 17
ENDMDL
