MODEL 1
REMARK VINA RESULT:     -11.2      0.000      0.000
REMARK SMILES O=C(OCCOC(=O)c1csc(-c2cnc3ccccc3c2)c1)c1ccc(-c2c3nc(c(-c4cc(S(=O)(=O)[O-])ccc4F)c4ccc([nH]4)c(-c4cc(S(=O)(=O)[O-])ccc4F)c4nc(c(-c5cc(S(=O)(=O)[O-])ccc5F)c5ccc2[nH]5)C=C4)C=C3)cc1
REMARK SMILES IDX 4 1 3 2 2 3 1 4 24 5 25 6 86 7 26 8 85 9 27 10 28 11 29 12
REMARK SMILES IDX 79 13 30 14 84 15 78 16 80 17 31 18 83 19 77 20 76 21 32 23
REMARK SMILES IDX 64 24 44 25 63 26 45 27 48 28 62 29 81 30 46 31 47 32 61 34
REMARK SMILES IDX 82 35 49 36 33 37 34 38 42 39 35 40 41 41 43 42 40 43 36 44
REMARK SMILES IDX 37 45 38 46 39 47 65 48 66 49 74 50 67 51 73 52 75 53 72 54
REMARK SMILES IDX 68 55 69 56 70 57 71 58 50 59 51 60 59 61 52 62 58 63 60 64
REMARK SMILES IDX 57 65 53 66 54 67 55 68 56 69 5 70 6 71 7 72 8 73 9 74 10 75
REMARK SMILES IDX 23 76 11 77 12 78 13 79 14 80 22 81 15 82 21 83 16 84 20 85
REMARK SMILES IDX 17 86 19 87 18 88
REMARK H PARENT 80 22 48 33
REMARK Flexibility Score: inf
ROOT
ATOM      1  C   UNL A   1      33.172  33.965  27.925  1.00  0.00     0.275 C 
ENDROOT
BRANCH   1   2
ATOM      2  O   UNL A   1      34.369  33.169  27.929  1.00  0.00    -0.458 OA
BRANCH   2   3
ATOM      3  C   UNL A   1      34.539  31.840  27.733  1.00  0.00     0.338 C 
ATOM      4  O   UNL A   1      33.612  31.201  27.233  1.00  0.00    -0.246 OA
BRANCH   3   5
ATOM      5  C   UNL A   1      35.721  31.069  28.233  1.00  0.00     0.060 A 
ATOM      6  C   UNL A   1      35.751  29.710  28.553  1.00  0.00     0.016 A 
ATOM      7  C   UNL A   1      36.904  31.809  28.418  1.00  0.00     0.016 A 
ATOM      8  C   UNL A   1      36.932  29.095  28.982  1.00  0.00     0.010 A 
ATOM      9  C   UNL A   1      38.092  31.199  28.836  1.00  0.00     0.010 A 
ATOM     10  C   UNL A   1      38.108  29.832  29.126  1.00  0.00    -0.014 A 
BRANCH  10  11
ATOM     11  C   UNL A   1      39.306  29.198  29.722  1.00  0.00     0.031 A 
ATOM     12  C   UNL A   1      39.812  29.710  31.038  1.00  0.00     0.074 A 
ATOM     13  C   UNL A   1      39.904  28.158  29.113  1.00  0.00     0.049 A 
ATOM     14  N   UNL A   1      40.804  29.277  31.770  1.00  0.00    -0.248 NA
ATOM     15  C   UNL A   1      39.088  30.855  31.612  1.00  0.00     0.031 C 
ATOM     16  C   UNL A   1      39.464  27.555  27.856  1.00  0.00     0.029 A 
ATOM     17  N   UNL A   1      41.012  27.429  29.459  1.00  0.00    -0.354 N 
ATOM     18  C   UNL A   1      40.801  30.071  32.910  1.00  0.00     0.074 A 
ATOM     19  C   UNL A   1      39.762  31.063  32.732  1.00  0.00     0.031 C 
ATOM     20  C   UNL A   1      40.320  26.578  27.510  1.00  0.00     0.029 A 
ATOM     21  C   UNL A   1      41.365  26.482  28.524  1.00  0.00     0.049 A 
ATOM     22  H   UNL A   1      41.509  27.569  30.297  1.00  0.00     0.167 HD
ATOM     23  C   UNL A   1      41.571  29.960  34.020  1.00  0.00     0.034 A 
ATOM     24  C   UNL A   1      42.416  25.640  28.493  1.00  0.00     0.034 A 
ATOM     25  C   UNL A   1      42.636  28.999  34.150  1.00  0.00     0.049 A 
ATOM     26  C   UNL A   1      43.351  25.623  29.675  1.00  0.00     0.074 A 
ATOM     27  C   UNL A   1      43.501  28.799  35.210  1.00  0.00     0.029 A 
ATOM     28  N   UNL A   1      42.999  28.089  33.162  1.00  0.00    -0.354 N 
ATOM     29  N   UNL A   1      43.306  26.345  30.773  1.00  0.00    -0.248 NA
ATOM     30  C   UNL A   1      44.457  24.659  29.632  1.00  0.00     0.031 C 
ATOM     31  C   UNL A   1      44.422  27.811  34.840  1.00  0.00     0.029 A 
ATOM     32  C   UNL A   1      44.094  27.346  33.576  1.00  0.00     0.049 A 
ATOM     33  H   UNL A   1      42.544  27.986  32.296  1.00  0.00     0.167 HD
ATOM     34  C   UNL A   1      44.352  25.892  31.569  1.00  0.00     0.074 A 
ATOM     35  C   UNL A   1      45.008  24.834  30.824  1.00  0.00     0.031 C 
ATOM     36  C   UNL A   1      44.732  26.302  32.807  1.00  0.00     0.034 A 
BRANCH  23  37
ATOM     37  C   UNL A   1      41.288  30.938  35.133  1.00  0.00     0.023 A 
ATOM     38  C   UNL A   1      40.091  30.873  35.872  1.00  0.00     0.031 A 
ATOM     39  C   UNL A   1      42.164  32.004  35.394  1.00  0.00     0.131 A 
ATOM     40  C   UNL A   1      39.756  31.905  36.761  1.00  0.00     0.055 A 
ATOM     41  C   UNL A   1      41.863  32.987  36.340  1.00  0.00     0.041 A 
ATOM     42  F   UNL A   1      43.309  32.130  34.706  1.00  0.00    -0.206 F 
ATOM     43  C   UNL A   1      40.645  32.952  37.015  1.00  0.00     0.022 A 
BRANCH  40  44
ATOM     44  S   UNL A   1      38.076  31.950  37.444  1.00  0.00     0.124 S 
ATOM     45  O   UNL A   1      37.425  32.922  36.568  1.00  0.00    -0.237 OA
ATOM     46  O   UNL A   1      37.638  30.567  37.298  1.00  0.00    -0.237 OA
ATOM     47  O   UNL A   1      38.277  32.398  38.820  1.00  0.00    -0.744 OA
ENDBRANCH  40  44
ENDBRANCH  23  37
BRANCH  24  48
ATOM     48  C   UNL A   1      42.647  24.761  27.311  1.00  0.00     0.023 A 
ATOM     49  C   UNL A   1      42.175  23.440  27.274  1.00  0.00     0.031 A 
ATOM     50  C   UNL A   1      43.384  25.228  26.206  1.00  0.00     0.131 A 
ATOM     51  C   UNL A   1      42.475  22.619  26.174  1.00  0.00     0.055 A 
ATOM     52  C   UNL A   1      43.646  24.421  25.098  1.00  0.00     0.041 A 
ATOM     53  F   UNL A   1      43.853  26.486  26.187  1.00  0.00    -0.206 F 
ATOM     54  C   UNL A   1      43.201  23.102  25.083  1.00  0.00     0.022 A 
BRANCH  51  55
ATOM     55  S   UNL A   1      41.958  20.880  26.216  1.00  0.00     0.124 S 
ATOM     56  O   UNL A   1      42.837  20.280  25.218  1.00  0.00    -0.237 OA
ATOM     57  O   UNL A   1      42.224  20.522  27.605  1.00  0.00    -0.237 OA
ATOM     58  O   UNL A   1      40.545  20.937  25.849  1.00  0.00    -0.744 OA
ENDBRANCH  51  55
ENDBRANCH  24  48
BRANCH  36  59
ATOM     59  C   UNL A   1      45.879  25.559  33.443  1.00  0.00     0.023 A 
ATOM     60  C   UNL A   1      45.672  24.401  34.211  1.00  0.00     0.031 A 
ATOM     61  C   UNL A   1      47.194  26.029  33.287  1.00  0.00     0.131 A 
ATOM     62  C   UNL A   1      46.760  23.780  34.840  1.00  0.00     0.055 A 
ATOM     63  C   UNL A   1      48.280  25.373  33.866  1.00  0.00     0.041 A 
ATOM     64  F   UNL A   1      47.444  27.133  32.565  1.00  0.00    -0.206 F 
ATOM     65  C   UNL A   1      48.065  24.249  34.659  1.00  0.00     0.022 A 
BRANCH  62  66
ATOM     66  S   UNL A   1      46.440  22.400  35.971  1.00  0.00     0.124 S 
ATOM     67  O   UNL A   1      47.099  21.291  35.288  1.00  0.00    -0.237 OA
ATOM     68  O   UNL A   1      47.072  22.854  37.206  1.00  0.00    -0.237 OA
ATOM     69  O   UNL A   1      44.981  22.323  36.014  1.00  0.00    -0.744 OA
ENDBRANCH  62  66
ENDBRANCH  36  59
ENDBRANCH  10  11
ENDBRANCH   3   5
ENDBRANCH   2   3
ENDBRANCH   1   2
BRANCH   1  70
ATOM     70  C   UNL A   1      33.195  35.161  28.882  1.00  0.00     0.275 C 
BRANCH  70  71
ATOM     71  O   UNL A   1      32.478  34.939  30.102  1.00  0.00    -0.458 OA
BRANCH  71  72
ATOM     72  C   UNL A   1      32.829  35.760  31.139  1.00  0.00     0.339 C 
ATOM     73  O   UNL A   1      32.262  36.808  31.419  1.00  0.00    -0.246 OA
BRANCH  72  74
ATOM     74  C   UNL A   1      33.904  35.208  31.949  1.00  0.00     0.071 A 
ATOM     75  C   UNL A   1      33.746  34.692  33.221  1.00  0.00     0.081 A 
ATOM     76  C   UNL A   1      35.280  35.144  31.543  1.00  0.00     0.036 A 
ATOM     77  S   UNL A   1      35.220  34.146  33.895  1.00  0.00    -0.143 S 
ATOM     78  C   UNL A   1      36.116  34.652  32.528  1.00  0.00     0.037 A 
BRANCH  78  79
ATOM     79  C   UNL A   1      37.574  34.554  32.522  1.00  0.00     0.011 A 
ATOM     80  C   UNL A   1      38.303  34.586  33.705  1.00  0.00     0.121 A 
ATOM     81  C   UNL A   1      38.303  34.452  31.339  1.00  0.00     0.021 A 
ATOM     82  N   UNL A   1      39.655  34.526  33.785  1.00  0.00    -0.256 NA
ATOM     83  C   UNL A   1      39.704  34.396  31.378  1.00  0.00     0.001 A 
ATOM     84  C   UNL A   1      40.341  34.429  32.637  1.00  0.00     0.070 A 
ATOM     85  C   UNL A   1      40.469  34.317  30.203  1.00  0.00     0.010 A 
ATOM     86  C   UNL A   1      41.727  34.369  32.676  1.00  0.00     0.029 A 
ATOM     87  C   UNL A   1      41.860  34.273  30.268  1.00  0.00     0.001 A 
ATOM     88  C   UNL A   1      42.490  34.295  31.508  1.00  0.00     0.002 A 
ENDBRANCH  78  79
ENDBRANCH  72  74
ENDBRANCH  71  72
ENDBRANCH  70  71
ENDBRANCH   1  70
TORSDOF 15
ENDMDL
MODEL 2
REMARK VINA RESULT:     -10.7      5.290     11.887
REMARK SMILES O=C(OCCOC(=O)c1csc(-c2cnc3ccccc3c2)c1)c1ccc(-c2c3nc(c(-c4cc(S(=O)(=O)[O-])ccc4F)c4ccc([nH]4)c(-c4cc(S(=O)(=O)[O-])ccc4F)c4nc(c(-c5cc(S(=O)(=O)[O-])ccc5F)c5ccc2[nH]5)C=C4)C=C3)cc1
REMARK SMILES IDX 4 1 3 2 2 3 1 4 24 5 25 6 86 7 26 8 85 9 27 10 28 11 29 12
REMARK SMILES IDX 79 13 30 14 84 15 78 16 80 17 31 18 83 19 77 20 76 21 32 23
REMARK SMILES IDX 64 24 44 25 63 26 45 27 48 28 62 29 81 30 46 31 47 32 61 34
REMARK SMILES IDX 82 35 49 36 33 37 34 38 42 39 35 40 41 41 43 42 40 43 36 44
REMARK SMILES IDX 37 45 38 46 39 47 65 48 66 49 74 50 67 51 73 52 75 53 72 54
REMARK SMILES IDX 68 55 69 56 70 57 71 58 50 59 51 60 59 61 52 62 58 63 60 64
REMARK SMILES IDX 57 65 53 66 54 67 55 68 56 69 5 70 6 71 7 72 8 73 9 74 10 75
REMARK SMILES IDX 23 76 11 77 12 78 13 79 14 80 22 81 15 82 21 83 16 84 20 85
REMARK SMILES IDX 17 86 19 87 18 88
REMARK H PARENT 80 22 48 33
REMARK Flexibility Score: inf
ROOT
ATOM      1  C   UNL A   1      37.413  21.638  24.634  1.00  0.00     0.275 C 
ENDROOT
BRANCH   1   2
ATOM      2  O   UNL A   1      37.789  22.246  25.881  1.00  0.00    -0.458 OA
BRANCH   2   3
ATOM      3  C   UNL A   1      39.008  22.394  26.452  1.00  0.00     0.338 C 
ATOM      4  O   UNL A   1      39.674  21.382  26.675  1.00  0.00    -0.246 OA
BRANCH   3   5
ATOM      5  C   UNL A   1      39.530  23.696  26.976  1.00  0.00     0.060 A 
ATOM      6  C   UNL A   1      39.876  23.979  28.298  1.00  0.00     0.016 A 
ATOM      7  C   UNL A   1      39.650  24.734  26.033  1.00  0.00     0.016 A 
ATOM      8  C   UNL A   1      40.385  25.232  28.659  1.00  0.00     0.010 A 
ATOM      9  C   UNL A   1      40.169  25.985  26.383  1.00  0.00     0.010 A 
ATOM     10  C   UNL A   1      40.535  26.241  27.707  1.00  0.00    -0.014 A 
BRANCH  10  11
ATOM     11  C   UNL A   1      40.933  27.602  28.134  1.00  0.00     0.031 A 
ATOM     12  C   UNL A   1      42.384  27.981  28.066  1.00  0.00     0.074 A 
ATOM     13  C   UNL A   1      40.009  28.492  28.537  1.00  0.00     0.049 A 
ATOM     14  N   UNL A   1      42.955  29.125  28.334  1.00  0.00    -0.248 NA
ATOM     15  C   UNL A   1      43.310  26.930  27.618  1.00  0.00     0.031 C 
ATOM     16  C   UNL A   1      38.570  28.239  28.595  1.00  0.00     0.029 A 
ATOM     17  N   UNL A   1      40.135  29.782  28.983  1.00  0.00    -0.354 N 
ATOM     18  C   UNL A   1      44.303  28.945  28.052  1.00  0.00     0.074 A 
ATOM     19  C   UNL A   1      44.473  27.559  27.671  1.00  0.00     0.031 C 
ATOM     20  C   UNL A   1      37.950  29.321  29.095  1.00  0.00     0.029 A 
ATOM     21  C   UNL A   1      38.947  30.346  29.386  1.00  0.00     0.049 A 
ATOM     22  H   UNL A   1      40.996  30.260  29.011  1.00  0.00     0.167 HD
ATOM     23  C   UNL A   1      45.301  29.861  28.072  1.00  0.00     0.034 A 
ATOM     24  C   UNL A   1      38.698  31.552  29.934  1.00  0.00     0.034 A 
ATOM     25  C   UNL A   1      45.116  31.222  28.508  1.00  0.00     0.049 A 
ATOM     26  C   UNL A   1      39.846  32.518  30.082  1.00  0.00     0.074 A 
ATOM     27  C   UNL A   1      46.048  32.240  28.596  1.00  0.00     0.029 A 
ATOM     28  N   UNL A   1      43.909  31.746  28.958  1.00  0.00    -0.354 N 
ATOM     29  N   UNL A   1      41.110  32.352  29.761  1.00  0.00    -0.248 NA
ATOM     30  C   UNL A   1      39.532  33.841  30.634  1.00  0.00     0.031 C 
ATOM     31  C   UNL A   1      45.418  33.359  29.156  1.00  0.00     0.029 A 
ATOM     32  C   UNL A   1      44.078  33.063  29.355  1.00  0.00     0.049 A 
ATOM     33  H   UNL A   1      43.058  31.253  28.990  1.00  0.00     0.167 HD
ATOM     34  C   UNL A   1      41.734  33.565  30.034  1.00  0.00     0.074 A 
ATOM     35  C   UNL A   1      40.705  34.451  30.543  1.00  0.00     0.031 C 
ATOM     36  C   UNL A   1      43.034  33.921  29.867  1.00  0.00     0.034 A 
BRANCH  23  37
ATOM     37  C   UNL A   1      46.665  29.378  27.646  1.00  0.00     0.023 A 
ATOM     38  C   UNL A   1      46.911  28.967  26.322  1.00  0.00     0.031 A 
ATOM     39  C   UNL A   1      47.699  29.225  28.584  1.00  0.00     0.131 A 
ATOM     40  C   UNL A   1      48.119  28.334  25.995  1.00  0.00     0.055 A 
ATOM     41  C   UNL A   1      48.932  28.668  28.234  1.00  0.00     0.041 A 
ATOM     42  F   UNL A   1      47.516  29.578  29.866  1.00  0.00    -0.206 F 
ATOM     43  C   UNL A   1      49.140  28.200  26.938  1.00  0.00     0.022 A 
BRANCH  40  44
ATOM     44  S   UNL A   1      48.267  27.536  24.372  1.00  0.00     0.124 S 
ATOM     45  O   UNL A   1      47.238  28.232  23.604  1.00  0.00    -0.237 OA
ATOM     46  O   UNL A   1      49.647  27.827  24.001  1.00  0.00    -0.237 OA
ATOM     47  O   UNL A   1      47.981  26.131  24.654  1.00  0.00    -0.744 OA
ENDBRANCH  40  44
ENDBRANCH  23  37
BRANCH  24  48
ATOM     48  C   UNL A   1      37.323  31.909  30.387  1.00  0.00     0.023 A 
ATOM     49  C   UNL A   1      36.439  32.622  29.563  1.00  0.00     0.031 A 
ATOM     50  C   UNL A   1      36.887  31.567  31.681  1.00  0.00     0.131 A 
ATOM     51  C   UNL A   1      35.178  33.002  30.053  1.00  0.00     0.055 A 
ATOM     52  C   UNL A   1      35.618  31.914  32.149  1.00  0.00     0.041 A 
ATOM     53  F   UNL A   1      37.690  30.880  32.509  1.00  0.00    -0.206 F 
ATOM     54  C   UNL A   1      34.759  32.648  31.336  1.00  0.00     0.022 A 
BRANCH  51  55
ATOM     55  S   UNL A   1      34.110  34.031  29.006  1.00  0.00     0.124 S 
ATOM     56  O   UNL A   1      33.166  34.571  29.977  1.00  0.00    -0.237 OA
ATOM     57  O   UNL A   1      35.066  34.979  28.443  1.00  0.00    -0.237 OA
ATOM     58  O   UNL A   1      33.548  33.077  28.053  1.00  0.00    -0.744 OA
ENDBRANCH  51  55
ENDBRANCH  24  48
BRANCH  36  59
ATOM     59  C   UNL A   1      43.391  35.348  30.196  1.00  0.00     0.023 A 
ATOM     60  C   UNL A   1      43.312  36.368  29.233  1.00  0.00     0.031 A 
ATOM     61  C   UNL A   1      43.829  35.684  31.488  1.00  0.00     0.131 A 
ATOM     62  C   UNL A   1      43.719  37.669  29.562  1.00  0.00     0.055 A 
ATOM     63  C   UNL A   1      44.177  36.992  31.827  1.00  0.00     0.041 A 
ATOM     64  F   UNL A   1      43.926  34.746  32.443  1.00  0.00    -0.206 F 
ATOM     65  C   UNL A   1      44.134  37.991  30.858  1.00  0.00     0.022 A 
BRANCH  62  66
ATOM     66  S   UNL A   1      43.779  38.920  28.251  1.00  0.00     0.124 S 
ATOM     67  O   UNL A   1      43.485  38.125  27.063  1.00  0.00    -0.237 OA
ATOM     68  O   UNL A   1      42.741  39.857  28.665  1.00  0.00    -0.237 OA
ATOM     69  O   UNL A   1      45.146  39.434  28.331  1.00  0.00    -0.744 OA
ENDBRANCH  62  66
ENDBRANCH  36  59
ENDBRANCH  10  11
ENDBRANCH   3   5
ENDBRANCH   2   3
ENDBRANCH   1   2
BRANCH   1  70
ATOM     70  C   UNL A   1      36.510  20.408  24.768  1.00  0.00     0.275 C 
BRANCH  70  71
ATOM     71  O   UNL A   1      35.332  20.637  25.551  1.00  0.00    -0.458 OA
BRANCH  71  72
ATOM     72  C   UNL A   1      34.151  20.368  24.914  1.00  0.00     0.339 C 
ATOM     73  O   UNL A   1      33.766  19.248  24.607  1.00  0.00    -0.246 OA
BRANCH  72  74
ATOM     74  C   UNL A   1      33.338  21.559  24.721  1.00  0.00     0.071 A 
ATOM     75  C   UNL A   1      32.485  21.765  23.654  1.00  0.00     0.081 A 
ATOM     76  C   UNL A   1      33.329  22.692  25.603  1.00  0.00     0.036 A 
ATOM     77  S   UNL A   1      31.697  23.282  23.727  1.00  0.00    -0.143 S 
ATOM     78  C   UNL A   1      32.534  23.728  25.151  1.00  0.00     0.037 A 
BRANCH  78  79
ATOM     79  C   UNL A   1      32.373  25.067  25.713  1.00  0.00     0.011 A 
ATOM     80  C   UNL A   1      31.135  25.521  26.153  1.00  0.00     0.121 A 
ATOM     81  C   UNL A   1      33.438  25.960  25.812  1.00  0.00     0.021 A 
ATOM     82  N   UNL A   1      30.896  26.754  26.662  1.00  0.00    -0.256 NA
ATOM     83  C   UNL A   1      33.232  27.250  26.325  1.00  0.00     0.001 A 
ATOM     84  C   UNL A   1      31.933  27.601  26.749  1.00  0.00     0.070 A 
ATOM     85  C   UNL A   1      34.279  28.181  26.415  1.00  0.00     0.010 A 
ATOM     86  C   UNL A   1      31.728  28.875  27.261  1.00  0.00     0.029 A 
ATOM     87  C   UNL A   1      34.045  29.458  26.919  1.00  0.00     0.001 A 
ATOM     88  C   UNL A   1      32.768  29.805  27.347  1.00  0.00     0.002 A 
ENDBRANCH  78  79
ENDBRANCH  72  74
ENDBRANCH  71  72
ENDBRANCH  70  71
ENDBRANCH   1  70
TORSDOF 15
ENDMDL
MODEL 3
REMARK VINA RESULT:     -10.7      3.460     10.987
REMARK SMILES O=C(OCCOC(=O)c1csc(-c2cnc3ccccc3c2)c1)c1ccc(-c2c3nc(c(-c4cc(S(=O)(=O)[O-])ccc4F)c4ccc([nH]4)c(-c4cc(S(=O)(=O)[O-])ccc4F)c4nc(c(-c5cc(S(=O)(=O)[O-])ccc5F)c5ccc2[nH]5)C=C4)C=C3)cc1
REMARK SMILES IDX 4 1 3 2 2 3 1 4 24 5 25 6 86 7 26 8 85 9 27 10 28 11 29 12
REMARK SMILES IDX 79 13 30 14 84 15 78 16 80 17 31 18 83 19 77 20 76 21 32 23
REMARK SMILES IDX 64 24 44 25 63 26 45 27 48 28 62 29 81 30 46 31 47 32 61 34
REMARK SMILES IDX 82 35 49 36 33 37 34 38 42 39 35 40 41 41 43 42 40 43 36 44
REMARK SMILES IDX 37 45 38 46 39 47 65 48 66 49 74 50 67 51 73 52 75 53 72 54
REMARK SMILES IDX 68 55 69 56 70 57 71 58 50 59 51 60 59 61 52 62 58 63 60 64
REMARK SMILES IDX 57 65 53 66 54 67 55 68 56 69 5 70 6 71 7 72 8 73 9 74 10 75
REMARK SMILES IDX 23 76 11 77 12 78 13 79 14 80 22 81 15 82 21 83 16 84 20 85
REMARK SMILES IDX 17 86 19 87 18 88
REMARK H PARENT 80 22 48 33
REMARK Flexibility Score: inf
ROOT
ATOM      1  C   UNL A   1      43.859  21.728  25.424  1.00  0.00     0.275 C 
ENDROOT
BRANCH   1   2
ATOM      2  O   UNL A   1      43.629  22.993  24.781  1.00  0.00    -0.458 OA
BRANCH   2   3
ATOM      3  C   UNL A   1      44.158  24.214  25.034  1.00  0.00     0.338 C 
ATOM      4  O   UNL A   1      45.213  24.519  24.476  1.00  0.00    -0.246 OA
BRANCH   3   5
ATOM      5  C   UNL A   1      43.625  25.153  26.072  1.00  0.00     0.060 A 
ATOM      6  C   UNL A   1      44.112  26.429  26.363  1.00  0.00     0.016 A 
ATOM      7  C   UNL A   1      42.546  24.675  26.837  1.00  0.00     0.016 A 
ATOM      8  C   UNL A   1      43.505  27.226  27.340  1.00  0.00     0.010 A 
ATOM      9  C   UNL A   1      41.927  25.470  27.807  1.00  0.00     0.010 A 
ATOM     10  C   UNL A   1      42.411  26.755  28.067  1.00  0.00    -0.014 A 
BRANCH  10  11
ATOM     11  C   UNL A   1      41.878  27.553  29.195  1.00  0.00     0.031 A 
ATOM     12  C   UNL A   1      42.549  27.445  30.532  1.00  0.00     0.074 A 
ATOM     13  C   UNL A   1      40.838  28.387  29.012  1.00  0.00     0.049 A 
ATOM     14  N   UNL A   1      42.293  28.085  31.642  1.00  0.00    -0.248 NA
ATOM     15  C   UNL A   1      43.672  26.499  30.622  1.00  0.00     0.031 C 
ATOM     16  C   UNL A   1      40.145  28.600  27.743  1.00  0.00     0.029 A 
ATOM     17  N   UNL A   1      40.174  29.203  29.891  1.00  0.00    -0.354 N 
ATOM     18  C   UNL A   1      43.246  27.648  32.553  1.00  0.00     0.074 A 
ATOM     19  C   UNL A   1      44.031  26.630  31.889  1.00  0.00     0.031 C 
ATOM     20  C   UNL A   1      39.124  29.451  27.933  1.00  0.00     0.029 A 
ATOM     21  C   UNL A   1      39.094  29.850  29.337  1.00  0.00     0.049 A 
ATOM     22  H   UNL A   1      40.445  29.315  30.831  1.00  0.00     0.167 HD
ATOM     23  C   UNL A   1      43.470  28.084  33.817  1.00  0.00     0.034 A 
ATOM     24  C   UNL A   1      38.183  30.666  29.903  1.00  0.00     0.034 A 
ATOM     25  C   UNL A   1      42.639  29.060  34.475  1.00  0.00     0.049 A 
ATOM     26  C   UNL A   1      38.363  31.035  31.354  1.00  0.00     0.074 A 
ATOM     27  C   UNL A   1      42.745  29.568  35.757  1.00  0.00     0.029 A 
ATOM     28  N   UNL A   1      41.522  29.658  33.901  1.00  0.00    -0.354 N 
ATOM     29  N   UNL A   1      39.301  30.654  32.192  1.00  0.00    -0.248 NA
ATOM     30  C   UNL A   1      37.383  31.965  31.927  1.00  0.00     0.031 C 
ATOM     31  C   UNL A   1      41.659  30.425  35.977  1.00  0.00     0.029 A 
ATOM     32  C   UNL A   1      40.912  30.505  34.812  1.00  0.00     0.049 A 
ATOM     33  H   UNL A   1      41.210  29.502  32.981  1.00  0.00     0.167 HD
ATOM     34  C   UNL A   1      39.048  31.332  33.379  1.00  0.00     0.074 A 
ATOM     35  C   UNL A   1      37.870  32.146  33.146  1.00  0.00     0.031 C 
ATOM     36  C   UNL A   1      39.732  31.299  34.553  1.00  0.00     0.034 A 
BRANCH  23  37
ATOM     37  C   UNL A   1      44.633  27.459  34.547  1.00  0.00     0.023 A 
ATOM     38  C   UNL A   1      44.502  26.217  35.197  1.00  0.00     0.031 A 
ATOM     39  C   UNL A   1      45.848  28.149  34.685  1.00  0.00     0.131 A 
ATOM     40  C   UNL A   1      45.526  25.752  36.035  1.00  0.00     0.055 A 
ATOM     41  C   UNL A   1      46.897  27.640  35.456  1.00  0.00     0.041 A 
ATOM     42  F   UNL A   1      46.024  29.347  34.106  1.00  0.00    -0.206 F 
ATOM     43  C   UNL A   1      46.732  26.445  36.153  1.00  0.00     0.022 A 
BRANCH  40  44
ATOM     44  S   UNL A   1      45.190  24.321  37.100  1.00  0.00     0.124 S 
ATOM     45  O   UNL A   1      46.536  23.948  37.530  1.00  0.00    -0.237 OA
ATOM     46  O   UNL A   1      44.326  24.888  38.129  1.00  0.00    -0.237 OA
ATOM     47  O   UNL A   1      44.545  23.367  36.200  1.00  0.00    -0.744 OA
ENDBRANCH  40  44
ENDBRANCH  23  37
BRANCH  24  48
ATOM     48  C   UNL A   1      37.027  31.176  29.112  1.00  0.00     0.023 A 
ATOM     49  C   UNL A   1      36.033  30.315  28.623  1.00  0.00     0.031 A 
ATOM     50  C   UNL A   1      36.923  32.545  28.802  1.00  0.00     0.131 A 
ATOM     51  C   UNL A   1      34.998  30.823  27.821  1.00  0.00     0.055 A 
ATOM     52  C   UNL A   1      35.871  33.052  28.036  1.00  0.00     0.041 A 
ATOM     53  F   UNL A   1      37.843  33.414  29.249  1.00  0.00    -0.206 F 
ATOM     54  C   UNL A   1      34.906  32.186  27.530  1.00  0.00     0.022 A 
BRANCH  51  55
ATOM     55  S   UNL A   1      33.801  29.663  27.102  1.00  0.00     0.124 S 
ATOM     56  O   UNL A   1      33.553  28.757  28.218  1.00  0.00    -0.237 OA
ATOM     57  O   UNL A   1      32.703  30.552  26.740  1.00  0.00    -0.237 OA
ATOM     58  O   UNL A   1      34.527  29.081  25.975  1.00  0.00    -0.744 OA
ENDBRANCH  51  55
ENDBRANCH  24  48
BRANCH  36  59
ATOM     59  C   UNL A   1      39.241  32.211  35.648  1.00  0.00     0.023 A 
ATOM     60  C   UNL A   1      39.714  33.527  35.777  1.00  0.00     0.031 A 
ATOM     61  C   UNL A   1      38.297  31.747  36.579  1.00  0.00     0.131 A 
ATOM     62  C   UNL A   1      39.281  34.319  36.851  1.00  0.00     0.055 A 
ATOM     63  C   UNL A   1      37.825  32.559  37.611  1.00  0.00     0.041 A 
ATOM     64  F   UNL A   1      37.816  30.496  36.500  1.00  0.00    -0.206 F 
ATOM     65  C   UNL A   1      38.326  33.849  37.758  1.00  0.00     0.022 A 
BRANCH  62  66
ATOM     66  S   UNL A   1      40.046  35.944  37.098  1.00  0.00     0.124 S 
ATOM     67  O   UNL A   1      39.353  36.426  38.288  1.00  0.00    -0.237 OA
ATOM     68  O   UNL A   1      41.454  35.603  37.274  1.00  0.00    -0.237 OA
ATOM     69  O   UNL A   1      39.732  36.662  35.863  1.00  0.00    -0.744 OA
ENDBRANCH  62  66
ENDBRANCH  36  59
ENDBRANCH  10  11
ENDBRANCH   3   5
ENDBRANCH   2   3
ENDBRANCH   1   2
BRANCH   1  70
ATOM     70  C   UNL A   1      42.606  21.070  26.010  1.00  0.00     0.275 C 
BRANCH  70  71
ATOM     71  O   UNL A   1      41.385  21.729  25.651  1.00  0.00    -0.458 OA
BRANCH  71  72
ATOM     72  C   UNL A   1      40.390  21.657  26.588  1.00  0.00     0.339 C 
ATOM     73  O   UNL A   1      40.566  21.748  27.796  1.00  0.00    -0.246 OA
BRANCH  72  74
ATOM     74  C   UNL A   1      39.067  21.555  25.992  1.00  0.00     0.071 A 
ATOM     75  C   UNL A   1      38.519  20.393  25.486  1.00  0.00     0.081 A 
ATOM     76  C   UNL A   1      38.160  22.656  25.831  1.00  0.00     0.036 A 
ATOM     77  S   UNL A   1      36.953  20.634  24.840  1.00  0.00    -0.143 S 
ATOM     78  C   UNL A   1      37.002  22.314  25.159  1.00  0.00     0.037 A 
BRANCH  78  79
ATOM     79  C   UNL A   1      35.915  23.182  24.712  1.00  0.00     0.011 A 
ATOM     80  C   UNL A   1      35.590  23.295  23.365  1.00  0.00     0.121 A 
ATOM     81  C   UNL A   1      35.174  23.957  25.602  1.00  0.00     0.021 A 
ATOM     82  N   UNL A   1      34.616  24.094  22.866  1.00  0.00    -0.256 NA
ATOM     83  C   UNL A   1      34.162  24.804  25.126  1.00  0.00     0.001 A 
ATOM     84  C   UNL A   1      33.912  24.833  23.737  1.00  0.00     0.070 A 
ATOM     85  C   UNL A   1      33.413  25.615  25.994  1.00  0.00     0.010 A 
ATOM     86  C   UNL A   1      32.909  25.668  23.265  1.00  0.00     0.029 A 
ATOM     87  C   UNL A   1      32.421  26.455  25.494  1.00  0.00     0.001 A 
ATOM     88  C   UNL A   1      32.166  26.479  24.126  1.00  0.00     0.002 A 
ENDBRANCH  78  79
ENDBRANCH  72  74
ENDBRANCH  71  72
ENDBRANCH  70  71
ENDBRANCH   1  70
TORSDOF 15
ENDMDL
