MODEL 1
REMARK VINA RESULT:     -11.4      0.000      0.000
REMARK SMILES COc1ncccc1C(=O)N[C@@](C)(C(=O)OCCOC(=O)c1ccc(-c2c3nc(c(-c4cc(S(=O)(=O)[O-])ccc4F)c4ccc([nH]4)c(-c4cc(S(=O)(=O)[O-])ccc4F)c4nc(c(-c5cc(S(=O)(=O)[O-])ccc5F)c5ccc2[nH]5)C=C4)C=C3)cc1)C(F)(F)F
REMARK SMILES IDX 17 1 16 2 14 3 15 4 12 5 13 6 11 7 9 8 10 9 8 11 3 12 4 13
REMARK SMILES IDX 5 14 7 15 6 16 2 17 1 18 85 19 86 20 87 21 88 22 18 23 19 24
REMARK SMILES IDX 20 25 21 26 22 27 23 28 84 29 24 30 83 31 25 32 26 33 27 34
REMARK SMILES IDX 77 35 28 36 82 37 76 38 78 39 29 40 81 41 75 42 74 43 30 45
REMARK SMILES IDX 62 46 42 47 61 48 43 49 46 50 60 51 79 52 44 53 45 54 59 56
REMARK SMILES IDX 80 57 47 58 31 59 32 60 40 61 33 62 39 63 41 64 38 65 34 66
REMARK SMILES IDX 35 67 36 68 37 69 63 70 64 71 72 72 65 73 71 74 73 75 70 76
REMARK SMILES IDX 66 77 67 78 68 79 69 80 48 81 49 82 57 83 50 84 56 85 58 86
REMARK SMILES IDX 55 87 51 88 52 89 53 90 54 91
REMARK H PARENT 11 10 78 44 46 55
REMARK Flexibility Score: inf
ROOT
ATOM      1  C   UNL A   1      34.965  20.338  25.023  1.00  0.00     0.274 C 
ENDROOT
BRANCH   1   2
ATOM      2  O   UNL A   1      34.216  21.355  25.723  1.00  0.00    -0.460 OA
BRANCH   2   3
ATOM      3  C   UNL A   1      32.980  21.666  25.217  1.00  0.00     0.341 C 
ATOM      4  O   UNL A   1      32.147  20.826  24.905  1.00  0.00    -0.249 OA
BRANCH   3   5
ATOM      5  C   UNL A   1      32.869  23.165  24.901  1.00  0.00     0.231 C 
ATOM      6  C   UNL A   1      34.083  23.819  25.602  1.00  0.00     0.058 C 
BRANCH   5   7
ATOM      7  N   UNL A   1      31.666  23.752  25.604  1.00  0.00    -0.329 N 
ATOM      8  C   UNL A   1      30.758  24.761  25.728  1.00  0.00     0.257 C 
ATOM      9  O   UNL A   1      29.993  24.517  26.669  1.00  0.00    -0.269 OA
ATOM     10  H   UNL A   1      31.425  23.099  26.300  1.00  0.00     0.165 HD
BRANCH   8  11
ATOM     11  C   UNL A   1      30.586  26.026  24.957  1.00  0.00     0.101 A 
ATOM     12  C   UNL A   1      31.491  27.085  25.140  1.00  0.00     0.226 A 
ATOM     13  N   UNL A   1      31.401  28.301  24.541  1.00  0.00    -0.221 NA
ATOM     14  C   UNL A   1      30.375  28.513  23.705  1.00  0.00     0.115 A 
ATOM     15  C   UNL A   1      29.562  26.292  24.054  1.00  0.00     0.021 A 
ATOM     16  C   UNL A   1      29.447  27.537  23.420  1.00  0.00     0.021 A 
BRANCH  12  17
ATOM     17  O   UNL A   1      32.548  26.995  26.007  1.00  0.00    -0.480 OA
ATOM     18  C   UNL A   1      33.623  27.798  25.533  1.00  0.00     0.280 C 
ENDBRANCH  12  17
ENDBRANCH   8  11
ENDBRANCH   5   7
BRANCH   5  19
ATOM     19  C   UNL A   1      33.082  23.311  23.397  1.00  0.00     0.422 C 
ATOM     20  F   UNL A   1      32.907  24.578  22.965  1.00  0.00    -0.168 F 
ATOM     21  F   UNL A   1      34.333  22.920  23.051  1.00  0.00    -0.168 F 
ATOM     22  F   UNL A   1      32.237  22.531  22.680  1.00  0.00    -0.168 F 
ENDBRANCH   5  19
ENDBRANCH   3   5
ENDBRANCH   2   3
ENDBRANCH   1   2
BRANCH   1  23
ATOM     23  C   UNL A   1      36.325  20.882  24.608  1.00  0.00     0.275 C 
BRANCH  23  24
ATOM     24  O   UNL A   1      36.984  21.396  25.777  1.00  0.00    -0.458 OA
BRANCH  24  25
ATOM     25  C   UNL A   1      38.324  21.221  25.807  1.00  0.00     0.338 C 
ATOM     26  O   UNL A   1      38.951  20.246  25.416  1.00  0.00    -0.246 OA
BRANCH  25  27
ATOM     27  C   UNL A   1      38.954  22.405  26.408  1.00  0.00     0.060 A 
ATOM     28  C   UNL A   1      38.454  23.677  26.136  1.00  0.00     0.016 A 
ATOM     29  C   UNL A   1      40.113  22.255  27.168  1.00  0.00     0.016 A 
ATOM     30  C   UNL A   1      39.156  24.807  26.559  1.00  0.00     0.010 A 
ATOM     31  C   UNL A   1      40.769  23.388  27.657  1.00  0.00     0.010 A 
ATOM     32  C   UNL A   1      40.328  24.681  27.320  1.00  0.00    -0.014 A 
BRANCH  32  33
ATOM     33  C   UNL A   1      41.143  25.878  27.692  1.00  0.00     0.031 A 
ATOM     34  C   UNL A   1      40.551  26.934  28.596  1.00  0.00     0.074 A 
ATOM     35  C   UNL A   1      42.408  26.033  27.251  1.00  0.00     0.049 A 
ATOM     36  N   UNL A   1      40.977  28.146  28.851  1.00  0.00    -0.248 NA
ATOM     37  C   UNL A   1      39.301  26.581  29.284  1.00  0.00     0.031 C 
ATOM     38  C   UNL A   1      43.149  25.073  26.432  1.00  0.00     0.029 A 
ATOM     39  N   UNL A   1      43.303  27.058  27.444  1.00  0.00    -0.354 N 
ATOM     40  C   UNL A   1      40.004  28.730  29.658  1.00  0.00     0.074 A 
ATOM     41  C   UNL A   1      38.971  27.732  29.850  1.00  0.00     0.031 C 
ATOM     42  C   UNL A   1      44.398  25.526  26.243  1.00  0.00     0.029 A 
ATOM     43  C   UNL A   1      44.519  26.854  26.834  1.00  0.00     0.049 A 
ATOM     44  H   UNL A   1      43.094  27.863  27.971  1.00  0.00     0.167 HD
ATOM     45  C   UNL A   1      39.973  29.982  30.181  1.00  0.00     0.034 A 
ATOM     46  C   UNL A   1      45.595  27.659  26.717  1.00  0.00     0.034 A 
ATOM     47  C   UNL A   1      41.043  30.943  30.040  1.00  0.00     0.049 A 
ATOM     48  C   UNL A   1      45.532  29.055  27.278  1.00  0.00     0.074 A 
ATOM     49  C   UNL A   1      41.122  32.230  30.545  1.00  0.00     0.029 A 
ATOM     50  N   UNL A   1      42.232  30.715  29.358  1.00  0.00    -0.354 N 
ATOM     51  N   UNL A   1      44.557  29.638  27.936  1.00  0.00    -0.248 NA
ATOM     52  C   UNL A   1      46.704  29.910  27.052  1.00  0.00     0.031 C 
ATOM     53  C   UNL A   1      42.334  32.796  30.128  1.00  0.00     0.029 A 
ATOM     54  C   UNL A   1      43.042  31.841  29.417  1.00  0.00     0.049 A 
ATOM     55  H   UNL A   1      42.466  29.877  28.899  1.00  0.00     0.167 HD
ATOM     56  C   UNL A   1      45.003  30.929  28.205  1.00  0.00     0.074 A 
ATOM     57  C   UNL A   1      46.341  31.030  27.659  1.00  0.00     0.031 C 
ATOM     58  C   UNL A   1      44.362  31.941  28.844  1.00  0.00     0.034 A 
BRANCH  45  59
ATOM     59  C   UNL A   1      38.708  30.406  30.894  1.00  0.00     0.023 A 
ATOM     60  C   UNL A   1      37.631  31.011  30.224  1.00  0.00     0.031 A 
ATOM     61  C   UNL A   1      38.600  30.234  32.287  1.00  0.00     0.131 A 
ATOM     62  C   UNL A   1      36.535  31.495  30.957  1.00  0.00     0.055 A 
ATOM     63  C   UNL A   1      37.471  30.643  32.999  1.00  0.00     0.041 A 
ATOM     64  F   UNL A   1      39.604  29.679  32.986  1.00  0.00    -0.206 F 
ATOM     65  C   UNL A   1      36.437  31.294  32.336  1.00  0.00     0.022 A 
BRANCH  62  66
ATOM     66  S   UNL A   1      35.304  32.521  30.105  1.00  0.00     0.124 S 
ATOM     67  O   UNL A   1      34.359  32.796  31.184  1.00  0.00    -0.237 OA
ATOM     68  O   UNL A   1      36.101  33.651  29.646  1.00  0.00    -0.237 OA
ATOM     69  O   UNL A   1      34.798  31.645  29.050  1.00  0.00    -0.744 OA
ENDBRANCH  62  66
ENDBRANCH  45  59
BRANCH  46  70
ATOM     70  C   UNL A   1      46.805  27.196  25.981  1.00  0.00     0.023 A 
ATOM     71  C   UNL A   1      47.049  27.615  24.663  1.00  0.00     0.031 A 
ATOM     72  C   UNL A   1      47.722  26.310  26.573  1.00  0.00     0.131 A 
ATOM     73  C   UNL A   1      48.169  27.128  23.973  1.00  0.00     0.055 A 
ATOM     74  C   UNL A   1      48.859  25.867  25.899  1.00  0.00     0.041 A 
ATOM     75  F   UNL A   1      47.531  25.877  27.830  1.00  0.00    -0.206 F 
ATOM     76  C   UNL A   1      49.084  26.270  24.587  1.00  0.00     0.022 A 
BRANCH  73  77
ATOM     77  S   UNL A   1      48.389  27.595  22.233  1.00  0.00     0.124 S 
ATOM     78  O   UNL A   1      47.095  28.190  21.920  1.00  0.00    -0.237 OA
ATOM     79  O   UNL A   1      49.518  28.517  22.306  1.00  0.00    -0.237 OA
ATOM     80  O   UNL A   1      48.669  26.323  21.573  1.00  0.00    -0.744 OA
ENDBRANCH  73  77
ENDBRANCH  46  70
BRANCH  58  81
ATOM     81  C   UNL A   1      45.126  33.230  29.007  1.00  0.00     0.023 A 
ATOM     82  C   UNL A   1      45.231  34.163  27.959  1.00  0.00     0.031 A 
ATOM     83  C   UNL A   1      45.788  33.512  30.214  1.00  0.00     0.131 A 
ATOM     84  C   UNL A   1      46.025  35.309  28.121  1.00  0.00     0.055 A 
ATOM     85  C   UNL A   1      46.536  34.678  30.387  1.00  0.00     0.041 A 
ATOM     86  F   UNL A   1      45.725  32.653  31.244  1.00  0.00    -0.206 F 
ATOM     87  C   UNL A   1      46.668  35.578  29.333  1.00  0.00     0.022 A 
BRANCH  84  88
ATOM     88  S   UNL A   1      46.279  36.404  26.697  1.00  0.00     0.124 S 
ATOM     89  O   UNL A   1      46.123  35.484  25.575  1.00  0.00    -0.237 OA
ATOM     90  O   UNL A   1      45.217  37.390  26.867  1.00  0.00    -0.237 OA
ATOM     91  O   UNL A   1      47.635  36.914  26.893  1.00  0.00    -0.744 OA
ENDBRANCH  84  88
ENDBRANCH  58  81
ENDBRANCH  32  33
ENDBRANCH  25  27
ENDBRANCH  24  25
ENDBRANCH  23  24
ENDBRANCH   1  23
TORSDOF 18
ENDMDL
MODEL 2
REMARK VINA RESULT:     -11.3      5.012     10.168
REMARK SMILES COc1ncccc1C(=O)N[C@@](C)(C(=O)OCCOC(=O)c1ccc(-c2c3nc(c(-c4cc(S(=O)(=O)[O-])ccc4F)c4ccc([nH]4)c(-c4cc(S(=O)(=O)[O-])ccc4F)c4nc(c(-c5cc(S(=O)(=O)[O-])ccc5F)c5ccc2[nH]5)C=C4)C=C3)cc1)C(F)(F)F
REMARK SMILES IDX 17 1 16 2 14 3 15 4 12 5 13 6 11 7 9 8 10 9 8 11 3 12 4 13
REMARK SMILES IDX 5 14 7 15 6 16 2 17 1 18 85 19 86 20 87 21 88 22 18 23 19 24
REMARK SMILES IDX 20 25 21 26 22 27 23 28 84 29 24 30 83 31 25 32 26 33 27 34
REMARK SMILES IDX 77 35 28 36 82 37 76 38 78 39 29 40 81 41 75 42 74 43 30 45
REMARK SMILES IDX 62 46 42 47 61 48 43 49 46 50 60 51 79 52 44 53 45 54 59 56
REMARK SMILES IDX 80 57 47 58 31 59 32 60 40 61 33 62 39 63 41 64 38 65 34 66
REMARK SMILES IDX 35 67 36 68 37 69 63 70 64 71 72 72 65 73 71 74 73 75 70 76
REMARK SMILES IDX 66 77 67 78 68 79 69 80 48 81 49 82 57 83 50 84 56 85 58 86
REMARK SMILES IDX 55 87 51 88 52 89 53 90 54 91
REMARK H PARENT 11 10 78 44 46 55
REMARK Flexibility Score: inf
ROOT
ATOM      1  C   UNL A   1      31.384  28.787  25.032  1.00  0.00     0.274 C 
ENDROOT
BRANCH   1   2
ATOM      2  O   UNL A   1      32.016  27.695  24.330  1.00  0.00    -0.460 OA
BRANCH   2   3
ATOM      3  C   UNL A   1      31.188  26.846  23.640  1.00  0.00     0.341 C 
ATOM      4  O   UNL A   1      30.033  27.122  23.345  1.00  0.00    -0.249 OA
BRANCH   3   5
ATOM      5  C   UNL A   1      31.822  25.456  23.484  1.00  0.00     0.231 C 
ATOM      6  C   UNL A   1      30.650  24.514  23.118  1.00  0.00     0.058 C 
BRANCH   5   7
ATOM      7  N   UNL A   1      32.305  24.956  24.826  1.00  0.00    -0.329 N 
ATOM      8  C   UNL A   1      33.267  24.345  25.571  1.00  0.00     0.257 C 
ATOM      9  O   UNL A   1      32.889  24.255  26.746  1.00  0.00    -0.269 OA
ATOM     10  H   UNL A   1      31.584  25.174  25.461  1.00  0.00     0.165 HD
BRANCH   8  11
ATOM     11  C   UNL A   1      34.602  23.796  25.192  1.00  0.00     0.101 A 
ATOM     12  C   UNL A   1      34.685  22.723  24.289  1.00  0.00     0.226 A 
ATOM     13  N   UNL A   1      35.837  22.104  23.917  1.00  0.00    -0.221 NA
ATOM     14  C   UNL A   1      36.986  22.551  24.443  1.00  0.00     0.115 A 
ATOM     15  C   UNL A   1      35.828  24.238  25.678  1.00  0.00     0.021 A 
ATOM     16  C   UNL A   1      37.031  23.619  25.309  1.00  0.00     0.021 A 
BRANCH  12  17
ATOM     17  O   UNL A   1      33.570  22.156  23.729  1.00  0.00    -0.480 OA
ATOM     18  C   UNL A   1      33.294  20.915  24.370  1.00  0.00     0.280 C 
ENDBRANCH  12  17
ENDBRANCH   8  11
ENDBRANCH   5   7
BRANCH   5  19
ATOM     19  C   UNL A   1      32.740  25.530  22.267  1.00  0.00     0.422 C 
ATOM     20  F   UNL A   1      33.948  26.059  22.554  1.00  0.00    -0.168 F 
ATOM     21  F   UNL A   1      32.938  24.295  21.742  1.00  0.00    -0.168 F 
ATOM     22  F   UNL A   1      32.211  26.277  21.268  1.00  0.00    -0.168 F 
ENDBRANCH   5  19
ENDBRANCH   3   5
ENDBRANCH   2   3
ENDBRANCH   1   2
BRANCH   1  23
ATOM     23  C   UNL A   1      32.420  29.839  25.405  1.00  0.00     0.275 C 
BRANCH  23  24
ATOM     24  O   UNL A   1      32.138  30.302  26.735  1.00  0.00    -0.458 OA
BRANCH  24  25
ATOM     25  C   UNL A   1      32.756  31.451  27.089  1.00  0.00     0.338 C 
ATOM     26  O   UNL A   1      32.311  32.587  26.996  1.00  0.00    -0.246 OA
BRANCH  25  27
ATOM     27  C   UNL A   1      34.094  31.142  27.612  1.00  0.00     0.060 A 
ATOM     28  C   UNL A   1      34.448  29.822  27.890  1.00  0.00     0.016 A 
ATOM     29  C   UNL A   1      34.967  32.183  27.922  1.00  0.00     0.016 A 
ATOM     30  C   UNL A   1      35.645  29.548  28.551  1.00  0.00     0.010 A 
ATOM     31  C   UNL A   1      36.201  31.895  28.512  1.00  0.00     0.010 A 
ATOM     32  C   UNL A   1      36.539  30.579  28.879  1.00  0.00    -0.014 A 
BRANCH  32  33
ATOM     33  C   UNL A   1      37.774  30.311  29.676  1.00  0.00     0.031 A 
ATOM     34  C   UNL A   1      38.894  29.499  29.068  1.00  0.00     0.074 A 
ATOM     35  C   UNL A   1      37.925  30.791  30.927  1.00  0.00     0.049 A 
ATOM     36  N   UNL A   1      39.933  28.950  29.645  1.00  0.00    -0.248 NA
ATOM     37  C   UNL A   1      38.816  29.257  27.620  1.00  0.00     0.031 C 
ATOM     38  C   UNL A   1      36.971  31.649  31.631  1.00  0.00     0.029 A 
ATOM     39  N   UNL A   1      38.950  30.634  31.829  1.00  0.00    -0.354 N 
ATOM     40  C   UNL A   1      40.585  28.226  28.649  1.00  0.00     0.074 A 
ATOM     41  C   UNL A   1      39.820  28.414  27.432  1.00  0.00     0.031 C 
ATOM     42  C   UNL A   1      37.479  31.989  32.825  1.00  0.00     0.029 A 
ATOM     43  C   UNL A   1      38.745  31.290  33.021  1.00  0.00     0.049 A 
ATOM     44  H   UNL A   1      39.756  30.103  31.639  1.00  0.00     0.167 HD
ATOM     45  C   UNL A   1      41.709  27.470  28.744  1.00  0.00     0.034 A 
ATOM     46  C   UNL A   1      39.464  31.294  34.161  1.00  0.00     0.034 A 
ATOM     47  C   UNL A   1      42.500  27.349  29.947  1.00  0.00     0.049 A 
ATOM     48  C   UNL A   1      40.692  30.427  34.259  1.00  0.00     0.074 A 
ATOM     49  C   UNL A   1      43.665  26.626  30.147  1.00  0.00     0.029 A 
ATOM     50  N   UNL A   1      42.220  27.982  31.152  1.00  0.00    -0.354 N 
ATOM     51  N   UNL A   1      41.230  29.653  33.347  1.00  0.00    -0.248 NA
ATOM     52  C   UNL A   1      41.388  30.415  35.551  1.00  0.00     0.031 C 
ATOM     53  C   UNL A   1      44.060  26.782  31.482  1.00  0.00     0.029 A 
ATOM     54  C   UNL A   1      43.179  27.655  32.100  1.00  0.00     0.049 A 
ATOM     55  H   UNL A   1      41.451  28.576  31.310  1.00  0.00     0.167 HD
ATOM     56  C   UNL A   1      42.333  29.062  33.958  1.00  0.00     0.074 A 
ATOM     57  C   UNL A   1      42.395  29.589  35.306  1.00  0.00     0.031 C 
ATOM     58  C   UNL A   1      43.215  28.163  33.450  1.00  0.00     0.034 A 
BRANCH  45  59
ATOM     59  C   UNL A   1      42.105  26.659  27.531  1.00  0.00     0.023 A 
ATOM     60  C   UNL A   1      41.724  25.317  27.363  1.00  0.00     0.031 A 
ATOM     61  C   UNL A   1      42.920  27.238  26.540  1.00  0.00     0.131 A 
ATOM     62  C   UNL A   1      42.224  24.579  26.277  1.00  0.00     0.055 A 
ATOM     63  C   UNL A   1      43.347  26.522  25.420  1.00  0.00     0.041 A 
ATOM     64  F   UNL A   1      43.333  28.512  26.653  1.00  0.00    -0.206 F 
ATOM     65  C   UNL A   1      43.013  25.179  25.292  1.00  0.00     0.022 A 
BRANCH  62  66
ATOM     66  S   UNL A   1      41.950  22.786  26.245  1.00  0.00     0.124 S 
ATOM     67  O   UNL A   1      40.492  22.716  26.188  1.00  0.00    -0.237 OA
ATOM     68  O   UNL A   1      42.661  22.381  25.038  1.00  0.00    -0.237 OA
ATOM     69  O   UNL A   1      42.541  22.326  27.500  1.00  0.00    -0.744 OA
ENDBRANCH  62  66
ENDBRANCH  45  59
BRANCH  46  70
ATOM     70  C   UNL A   1      39.011  32.094  35.334  1.00  0.00     0.023 A 
ATOM     71  C   UNL A   1      38.387  31.473  36.429  1.00  0.00     0.031 A 
ATOM     72  C   UNL A   1      39.170  33.490  35.368  1.00  0.00     0.131 A 
ATOM     73  C   UNL A   1      37.924  32.252  37.501  1.00  0.00     0.055 A 
ATOM     74  C   UNL A   1      38.751  34.253  36.458  1.00  0.00     0.041 A 
ATOM     75  F   UNL A   1      39.756  34.131  34.344  1.00  0.00    -0.206 F 
ATOM     76  C   UNL A   1      38.116  33.635  37.529  1.00  0.00     0.022 A 
BRANCH  73  77
ATOM     77  S   UNL A   1      37.017  31.433  38.842  1.00  0.00     0.124 S 
ATOM     78  O   UNL A   1      35.789  32.218  38.891  1.00  0.00    -0.237 OA
ATOM     79  O   UNL A   1      36.888  30.071  38.335  1.00  0.00    -0.237 OA
ATOM     80  O   UNL A   1      37.902  31.585  39.994  1.00  0.00    -0.744 OA
ENDBRANCH  73  77
ENDBRANCH  46  70
BRANCH  58  81
ATOM     81  C   UNL A   1      44.334  27.725  34.359  1.00  0.00     0.023 A 
ATOM     82  C   UNL A   1      44.177  26.658  35.262  1.00  0.00     0.031 A 
ATOM     83  C   UNL A   1      45.563  28.409  34.348  1.00  0.00     0.131 A 
ATOM     84  C   UNL A   1      45.213  26.338  36.153  1.00  0.00     0.055 A 
ATOM     85  C   UNL A   1      46.608  28.055  35.202  1.00  0.00     0.041 A 
ATOM     86  F   UNL A   1      45.763  29.438  33.510  1.00  0.00    -0.206 F 
ATOM     87  C   UNL A   1      46.432  27.022  36.120  1.00  0.00     0.022 A 
BRANCH  84  88
ATOM     88  S   UNL A   1      44.918  25.072  37.418  1.00  0.00     0.124 S 
ATOM     89  O   UNL A   1      43.486  24.829  37.276  1.00  0.00    -0.237 OA
ATOM     90  O   UNL A   1      45.795  23.988  36.987  1.00  0.00    -0.237 OA
ATOM     91  O   UNL A   1      45.313  25.731  38.662  1.00  0.00    -0.744 OA
ENDBRANCH  84  88
ENDBRANCH  58  81
ENDBRANCH  32  33
ENDBRANCH  25  27
ENDBRANCH  24  25
ENDBRANCH  23  24
ENDBRANCH   1  23
TORSDOF 18
ENDMDL
MODEL 3
REMARK VINA RESULT:     -11.3      1.022      7.610
REMARK SMILES COc1ncccc1C(=O)N[C@@](C)(C(=O)OCCOC(=O)c1ccc(-c2c3nc(c(-c4cc(S(=O)(=O)[O-])ccc4F)c4ccc([nH]4)c(-c4cc(S(=O)(=O)[O-])ccc4F)c4nc(c(-c5cc(S(=O)(=O)[O-])ccc5F)c5ccc2[nH]5)C=C4)C=C3)cc1)C(F)(F)F
REMARK SMILES IDX 17 1 16 2 14 3 15 4 12 5 13 6 11 7 9 8 10 9 8 11 3 12 4 13
REMARK SMILES IDX 5 14 7 15 6 16 2 17 1 18 85 19 86 20 87 21 88 22 18 23 19 24
REMARK SMILES IDX 20 25 21 26 22 27 23 28 84 29 24 30 83 31 25 32 26 33 27 34
REMARK SMILES IDX 77 35 28 36 82 37 76 38 78 39 29 40 81 41 75 42 74 43 30 45
REMARK SMILES IDX 62 46 42 47 61 48 43 49 46 50 60 51 79 52 44 53 45 54 59 56
REMARK SMILES IDX 80 57 47 58 31 59 32 60 40 61 33 62 39 63 41 64 38 65 34 66
REMARK SMILES IDX 35 67 36 68 37 69 63 70 64 71 72 72 65 73 71 74 73 75 70 76
REMARK SMILES IDX 66 77 67 78 68 79 69 80 48 81 49 82 57 83 50 84 56 85 58 86
REMARK SMILES IDX 55 87 51 88 52 89 53 90 54 91
REMARK H PARENT 11 10 78 44 46 55
REMARK Flexibility Score: inf
ROOT
ATOM      1  C   UNL A   1      36.066  19.859  24.999  1.00  0.00     0.274 C 
ENDROOT
BRANCH   1   2
ATOM      2  O   UNL A   1      35.667  21.147  25.516  1.00  0.00    -0.460 OA
BRANCH   2   3
ATOM      3  C   UNL A   1      34.343  21.478  25.388  1.00  0.00     0.341 C 
ATOM      4  O   UNL A   1      33.450  20.651  25.257  1.00  0.00    -0.249 OA
BRANCH   3   5
ATOM      5  C   UNL A   1      34.163  22.993  25.216  1.00  0.00     0.231 C 
ATOM      6  C   UNL A   1      35.395  23.629  25.902  1.00  0.00     0.058 C 
BRANCH   5   7
ATOM      7  N   UNL A   1      32.986  23.468  26.038  1.00  0.00    -0.329 N 
ATOM      8  C   UNL A   1      32.123  24.465  26.381  1.00  0.00     0.257 C 
ATOM      9  O   UNL A   1      31.347  24.059  27.256  1.00  0.00    -0.269 OA
ATOM     10  H   UNL A   1      32.717  22.693  26.581  1.00  0.00     0.165 HD
BRANCH   8  11
ATOM     11  C   UNL A   1      32.006  25.871  25.899  1.00  0.00     0.101 A 
ATOM     12  C   UNL A   1      31.568  26.126  24.589  1.00  0.00     0.226 A 
ATOM     13  N   UNL A   1      31.480  27.358  24.021  1.00  0.00    -0.221 NA
ATOM     14  C   UNL A   1      31.830  28.417  24.765  1.00  0.00     0.115 A 
ATOM     15  C   UNL A   1      32.323  27.010  26.633  1.00  0.00     0.021 A 
ATOM     16  C   UNL A   1      32.239  28.292  26.073  1.00  0.00     0.021 A 
BRANCH  12  17
ATOM     17  O   UNL A   1      31.231  25.116  23.726  1.00  0.00    -0.480 OA
ATOM     18  C   UNL A   1      31.407  25.558  22.384  1.00  0.00     0.280 C 
ENDBRANCH  12  17
ENDBRANCH   8  11
ENDBRANCH   5   7
BRANCH   5  19
ATOM     19  C   UNL A   1      34.277  23.280  23.722  1.00  0.00     0.422 C 
ATOM     20  F   UNL A   1      34.355  24.599  23.447  1.00  0.00    -0.168 F 
ATOM     21  F   UNL A   1      35.376  22.679  23.203  1.00  0.00    -0.168 F 
ATOM     22  F   UNL A   1      33.224  22.795  23.022  1.00  0.00    -0.168 F 
ENDBRANCH   5  19
ENDBRANCH   3   5
ENDBRANCH   2   3
ENDBRANCH   1   2
BRANCH   1  23
ATOM     23  C   UNL A   1      37.585  19.741  25.001  1.00  0.00     0.275 C 
BRANCH  23  24
ATOM     24  O   UNL A   1      38.136  20.993  25.441  1.00  0.00    -0.458 OA
BRANCH  24  25
ATOM     25  C   UNL A   1      39.347  20.912  26.035  1.00  0.00     0.338 C 
ATOM     26  O   UNL A   1      40.033  19.909  26.180  1.00  0.00    -0.246 OA
BRANCH  25  27
ATOM     27  C   UNL A   1      39.743  22.244  26.513  1.00  0.00     0.060 A 
ATOM     28  C   UNL A   1      38.985  23.363  26.171  1.00  0.00     0.016 A 
ATOM     29  C   UNL A   1      40.933  22.392  27.224  1.00  0.00     0.016 A 
ATOM     30  C   UNL A   1      39.457  24.641  26.473  1.00  0.00     0.010 A 
ATOM     31  C   UNL A   1      41.360  23.671  27.593  1.00  0.00     0.010 A 
ATOM     32  C   UNL A   1      40.655  24.817  27.182  1.00  0.00    -0.014 A 
BRANCH  32  33
ATOM     33  C   UNL A   1      41.221  26.179  27.422  1.00  0.00     0.031 A 
ATOM     34  C   UNL A   1      42.540  26.561  26.791  1.00  0.00     0.074 A 
ATOM     35  C   UNL A   1      40.575  27.088  28.179  1.00  0.00     0.049 A 
ATOM     36  N   UNL A   1      43.323  27.579  27.049  1.00  0.00    -0.248 NA
ATOM     37  C   UNL A   1      43.051  25.662  25.746  1.00  0.00     0.031 C 
ATOM     38  C   UNL A   1      39.262  26.902  28.800  1.00  0.00     0.029 A 
ATOM     39  N   UNL A   1      40.933  28.363  28.547  1.00  0.00    -0.354 N 
ATOM     40  C   UNL A   1      44.458  27.396  26.263  1.00  0.00     0.074 A 
ATOM     41  C   UNL A   1      44.254  26.170  25.518  1.00  0.00     0.031 C 
ATOM     42  C   UNL A   1      38.902  28.036  29.418  1.00  0.00     0.029 A 
ATOM     43  C   UNL A   1      39.997  28.996  29.333  1.00  0.00     0.049 A 
ATOM     44  H   UNL A   1      41.778  28.785  28.273  1.00  0.00     0.167 HD
ATOM     45  C   UNL A   1      45.568  28.173  26.179  1.00  0.00     0.034 A 
ATOM     46  C   UNL A   1      40.032  30.191  29.957  1.00  0.00     0.034 A 
ATOM     47  C   UNL A   1      45.729  29.429  26.874  1.00  0.00     0.049 A 
ATOM     48  C   UNL A   1      41.282  31.026  29.877  1.00  0.00     0.074 A 
ATOM     49  C   UNL A   1      46.803  30.303  26.845  1.00  0.00     0.029 A 
ATOM     50  N   UNL A   1      44.779  30.002  27.711  1.00  0.00    -0.354 N 
ATOM     51  N   UNL A   1      42.396  30.785  29.227  1.00  0.00    -0.248 NA
ATOM     52  C   UNL A   1      41.287  32.280  30.640  1.00  0.00     0.031 C 
ATOM     53  C   UNL A   1      46.524  31.378  27.700  1.00  0.00     0.029 A 
ATOM     54  C   UNL A   1      45.249  31.208  28.214  1.00  0.00     0.049 A 
ATOM     55  H   UNL A   1      43.902  29.610  27.919  1.00  0.00     0.167 HD
ATOM     56  C   UNL A   1      43.234  31.862  29.503  1.00  0.00     0.074 A 
ATOM     57  C   UNL A   1      42.488  32.763  30.357  1.00  0.00     0.031 C 
ATOM     58  C   UNL A   1      44.508  32.084  29.089  1.00  0.00     0.034 A 
BRANCH  45  59
ATOM     59  C   UNL A   1      46.725  27.646  25.358  1.00  0.00     0.023 A 
ATOM     60  C   UNL A   1      46.976  28.077  24.044  1.00  0.00     0.031 A 
ATOM     61  C   UNL A   1      47.569  26.656  25.896  1.00  0.00     0.131 A 
ATOM     62  C   UNL A   1      47.988  27.463  23.289  1.00  0.00     0.055 A 
ATOM     63  C   UNL A   1      48.626  26.108  25.167  1.00  0.00     0.041 A 
ATOM     64  F   UNL A   1      47.369  26.190  27.140  1.00  0.00    -0.206 F 
ATOM     65  C   UNL A   1      48.830  26.499  23.849  1.00  0.00     0.022 A 
BRANCH  62  66
ATOM     66  S   UNL A   1      48.098  27.837  21.517  1.00  0.00     0.124 S 
ATOM     67  O   UNL A   1      46.783  28.417  21.260  1.00  0.00    -0.237 OA
ATOM     68  O   UNL A   1      49.229  28.755  21.459  1.00  0.00    -0.237 OA
ATOM     69  O   UNL A   1      48.325  26.529  20.904  1.00  0.00    -0.744 OA
ENDBRANCH  62  66
ENDBRANCH  45  59
BRANCH  46  70
ATOM     70  C   UNL A   1      38.871  30.647  30.774  1.00  0.00     0.023 A 
ATOM     71  C   UNL A   1      37.778  31.290  30.172  1.00  0.00     0.031 A 
ATOM     72  C   UNL A   1      38.850  30.472  32.168  1.00  0.00     0.131 A 
ATOM     73  C   UNL A   1      36.719  31.755  30.966  1.00  0.00     0.055 A 
ATOM     74  C   UNL A   1      37.772  30.893  32.947  1.00  0.00     0.041 A 
ATOM     75  F   UNL A   1      39.873  29.867  32.792  1.00  0.00    -0.206 F 
ATOM     76  C   UNL A   1      36.701  31.547  32.347  1.00  0.00     0.022 A 
BRANCH  73  77
ATOM     77  S   UNL A   1      35.379  32.686  30.172  1.00  0.00     0.124 S 
ATOM     78  O   UNL A   1      34.367  32.704  31.223  1.00  0.00    -0.237 OA
ATOM     79  O   UNL A   1      36.025  33.962  29.882  1.00  0.00    -0.237 OA
ATOM     80  O   UNL A   1      35.050  31.877  29.001  1.00  0.00    -0.744 OA
ENDBRANCH  73  77
ENDBRANCH  46  70
BRANCH  58  81
ATOM     81  C   UNL A   1      45.150  33.372  29.537  1.00  0.00     0.023 A 
ATOM     82  C   UNL A   1      45.056  34.549  28.773  1.00  0.00     0.031 A 
ATOM     83  C   UNL A   1      45.897  33.413  30.728  1.00  0.00     0.131 A 
ATOM     84  C   UNL A   1      45.742  35.703  29.180  1.00  0.00     0.055 A 
ATOM     85  C   UNL A   1      46.536  34.578  31.155  1.00  0.00     0.041 A 
ATOM     86  F   UNL A   1      46.023  32.316  31.492  1.00  0.00    -0.206 F 
ATOM     87  C   UNL A   1      46.471  35.729  30.373  1.00  0.00     0.022 A 
BRANCH  84  88
ATOM     88  S   UNL A   1      45.743  37.151  28.087  1.00  0.00     0.124 S 
ATOM     89  O   UNL A   1      46.361  38.168  28.931  1.00  0.00    -0.237 OA
ATOM     90  O   UNL A   1      46.541  36.689  26.956  1.00  0.00    -0.237 OA
ATOM     91  O   UNL A   1      44.325  37.365  27.799  1.00  0.00    -0.744 OA
ENDBRANCH  84  88
ENDBRANCH  58  81
ENDBRANCH  32  33
ENDBRANCH  25  27
ENDBRANCH  24  25
ENDBRANCH  23  24
ENDBRANCH   1  23
TORSDOF 18
ENDMDL
