MODEL 1
REMARK VINA RESULT:     -11.3      0.000      0.000
REMARK SMILES CN(CCS(C)(=O)=O)S(=O)(=O)c1cc(C(=O)OCCOC(=O)c2ccc(-c3c4nc(c(-c5cc(S(=O)(=O)[O-])ccc5F)c5ccc([nH]5)c(-c5cc(S(=O)(=O)[O-])ccc5F)c5nc(c(-c6cc(S(=O)(=O)[O-])ccc6F)c6ccc3[nH]6)C=C5)C=C4)cc2)ccc1F
REMARK SMILES IDX 18 1 17 2 15 3 16 4 14 5 12 6 13 7 88 8 87 9 89 10 86 11
REMARK SMILES IDX 9 12 10 13 11 14 2 15 1 16 3 17 4 18 5 19 6 20 7 21 8 22
REMARK SMILES IDX 19 23 20 24 21 25 22 26 23 27 24 28 85 29 25 30 84 31 26 32
REMARK SMILES IDX 27 33 28 34 78 35 29 36 83 37 77 38 79 39 30 40 82 41 76 42
REMARK SMILES IDX 75 43 31 45 63 46 43 47 62 48 44 49 47 50 61 51 80 52 45 53
REMARK SMILES IDX 46 54 60 56 81 57 48 58 32 59 33 60 41 61 34 62 40 63 42 64
REMARK SMILES IDX 39 65 35 66 36 67 37 68 38 69 64 70 65 71 73 72 66 73 72 74
REMARK SMILES IDX 74 75 71 76 67 77 68 78 69 79 70 80 49 81 50 82 58 83 51 84
REMARK SMILES IDX 57 85 59 86 56 87 52 88 53 89 54 90 55 91
REMARK H PARENT 79 44 47 55
REMARK Flexibility Score: inf
ROOT
ATOM      1  C   UNL A   1      36.470  19.572  24.988  1.00  0.00     0.275 C 
ENDROOT
BRANCH   1   2
ATOM      2  O   UNL A   1      36.031  20.867  25.445  1.00  0.00    -0.458 OA
BRANCH   2   3
ATOM      3  C   UNL A   1      34.726  21.174  25.244  1.00  0.00     0.338 C 
ATOM      4  O   UNL A   1      33.798  20.395  25.117  1.00  0.00    -0.246 OA
BRANCH   3   5
ATOM      5  C   UNL A   1      34.545  22.644  25.336  1.00  0.00     0.061 A 
ATOM      6  C   UNL A   1      33.086  24.513  25.848  1.00  0.00     0.119 A 
ATOM      7  C   UNL A   1      33.263  23.148  25.596  1.00  0.00     0.040 A 
ATOM      8  C   UNL A   1      34.164  25.379  25.756  1.00  0.00     0.143 A 
ATOM      9  C   UNL A   1      35.427  24.893  25.414  1.00  0.00     0.041 A 
ATOM     10  F   UNL A   1      34.038  26.692  25.973  1.00  0.00    -0.206 F 
ATOM     11  C   UNL A   1      35.627  23.524  25.223  1.00  0.00     0.019 A 
BRANCH   6  12
ATOM     12  S   UNL A   1      31.505  25.084  26.392  1.00  0.00     0.245 S 
ATOM     13  O   UNL A   1      31.640  26.359  27.048  1.00  0.00    -0.207 OA
ATOM     14  O   UNL A   1      30.880  23.951  27.032  1.00  0.00    -0.207 OA
BRANCH  12  15
ATOM     15  N   UNL A   1      30.669  25.391  24.927  1.00  0.00    -0.200 NA
ATOM     16  C   UNL A   1      29.251  25.810  25.141  1.00  0.00     0.124 C 
BRANCH  15  17
ATOM     17  C   UNL A   1      31.357  26.174  23.855  1.00  0.00     0.118 C 
BRANCH  17  18
ATOM     18  C   UNL A   1      31.512  25.502  22.499  1.00  0.00     0.153 C 
BRANCH  18  19
ATOM     19  S   UNL A   1      33.088  25.687  21.647  1.00  0.00     0.148 S 
ATOM     20  C   UNL A   1      33.735  27.304  21.989  1.00  0.00     0.158 C 
ATOM     21  O   UNL A   1      34.022  24.761  22.266  1.00  0.00    -0.229 OA
ATOM     22  O   UNL A   1      32.882  25.633  20.216  1.00  0.00    -0.229 OA
ENDBRANCH  18  19
ENDBRANCH  17  18
ENDBRANCH  15  17
ENDBRANCH  12  15
ENDBRANCH   6  12
ENDBRANCH   3   5
ENDBRANCH   2   3
ENDBRANCH   1   2
BRANCH   1  23
ATOM     23  C   UNL A   1      37.990  19.555  24.832  1.00  0.00     0.275 C 
BRANCH  23  24
ATOM     24  O   UNL A   1      38.539  20.811  25.275  1.00  0.00    -0.458 OA
BRANCH  24  25
ATOM     25  C   UNL A   1      39.624  20.714  26.078  1.00  0.00     0.338 C 
ATOM     26  O   UNL A   1      40.387  19.766  26.171  1.00  0.00    -0.246 OA
BRANCH  25  27
ATOM     27  C   UNL A   1      39.836  21.975  26.807  1.00  0.00     0.060 A 
ATOM     28  C   UNL A   1      39.054  23.071  26.468  1.00  0.00     0.016 A 
ATOM     29  C   UNL A   1      40.943  22.140  27.637  1.00  0.00     0.016 A 
ATOM     30  C   UNL A   1      39.488  24.356  26.793  1.00  0.00     0.010 A 
ATOM     31  C   UNL A   1      41.295  23.425  28.075  1.00  0.00     0.010 A 
ATOM     32  C   UNL A   1      40.629  24.566  27.585  1.00  0.00    -0.014 A 
BRANCH  32  33
ATOM     33  C   UNL A   1      41.194  25.946  27.781  1.00  0.00     0.031 A 
ATOM     34  C   UNL A   1      42.501  26.331  27.113  1.00  0.00     0.074 A 
ATOM     35  C   UNL A   1      40.542  26.896  28.488  1.00  0.00     0.049 A 
ATOM     36  N   UNL A   1      43.282  27.359  27.345  1.00  0.00    -0.248 NA
ATOM     37  C   UNL A   1      43.013  25.426  26.073  1.00  0.00     0.031 C 
ATOM     38  C   UNL A   1      39.241  26.736  29.139  1.00  0.00     0.029 A 
ATOM     39  N   UNL A   1      40.876  28.206  28.755  1.00  0.00    -0.354 N 
ATOM     40  C   UNL A   1      44.411  27.171  26.549  1.00  0.00     0.074 A 
ATOM     41  C   UNL A   1      44.214  25.931  25.832  1.00  0.00     0.031 C 
ATOM     42  C   UNL A   1      38.851  27.913  29.649  1.00  0.00     0.029 A 
ATOM     43  C   UNL A   1      39.927  28.887  29.482  1.00  0.00     0.049 A 
ATOM     44  H   UNL A   1      41.718  28.617  28.452  1.00  0.00     0.167 HD
ATOM     45  C   UNL A   1      45.506  27.962  26.423  1.00  0.00     0.034 A 
ATOM     46  C   UNL A   1      39.928  30.129  30.009  1.00  0.00     0.034 A 
ATOM     47  C   UNL A   1      45.640  29.261  27.034  1.00  0.00     0.049 A 
ATOM     48  C   UNL A   1      41.161  30.983  29.884  1.00  0.00     0.074 A 
ATOM     49  C   UNL A   1      46.693  30.155  26.930  1.00  0.00     0.029 A 
ATOM     50  N   UNL A   1      44.681  29.869  27.829  1.00  0.00    -0.354 N 
ATOM     51  N   UNL A   1      42.279  30.726  29.251  1.00  0.00    -0.248 NA
ATOM     52  C   UNL A   1      41.149  32.276  30.587  1.00  0.00     0.031 C 
ATOM     53  C   UNL A   1      46.392  31.281  27.701  1.00  0.00     0.029 A 
ATOM     54  C   UNL A   1      45.128  31.114  28.241  1.00  0.00     0.049 A 
ATOM     55  H   UNL A   1      43.811  29.473  28.067  1.00  0.00     0.167 HD
ATOM     56  C   UNL A   1      43.107  31.818  29.487  1.00  0.00     0.074 A 
ATOM     57  C   UNL A   1      42.356  32.748  30.302  1.00  0.00     0.031 C 
ATOM     58  C   UNL A   1      44.382  32.023  29.073  1.00  0.00     0.034 A 
BRANCH  45  59
ATOM     59  C   UNL A   1      46.678  27.435  25.631  1.00  0.00     0.023 A 
ATOM     60  C   UNL A   1      46.952  27.846  24.317  1.00  0.00     0.031 A 
ATOM     61  C   UNL A   1      47.562  26.520  26.237  1.00  0.00     0.131 A 
ATOM     62  C   UNL A   1      48.059  27.311  23.636  1.00  0.00     0.055 A 
ATOM     63  C   UNL A   1      48.695  26.043  25.578  1.00  0.00     0.041 A 
ATOM     64  F   UNL A   1      47.341  26.084  27.487  1.00  0.00    -0.206 F 
ATOM     65  C   UNL A   1      48.945  26.433  24.267  1.00  0.00     0.022 A 
BRANCH  62  66
ATOM     66  S   UNL A   1      48.290  27.717  21.884  1.00  0.00     0.124 S 
ATOM     67  O   UNL A   1      47.003  28.319  21.550  1.00  0.00    -0.237 OA
ATOM     68  O   UNL A   1      49.433  28.622  21.916  1.00  0.00    -0.237 OA
ATOM     69  O   UNL A   1      48.544  26.419  21.262  1.00  0.00    -0.744 OA
ENDBRANCH  62  66
ENDBRANCH  45  59
BRANCH  46  70
ATOM     70  C   UNL A   1      38.750  30.608  30.784  1.00  0.00     0.023 A 
ATOM     71  C   UNL A   1      37.690  31.276  30.151  1.00  0.00     0.031 A 
ATOM     72  C   UNL A   1      38.663  30.394  32.172  1.00  0.00     0.131 A 
ATOM     73  C   UNL A   1      36.590  31.710  30.906  1.00  0.00     0.055 A 
ATOM     74  C   UNL A   1      37.549  30.791  32.912  1.00  0.00     0.041 A 
ATOM     75  F   UNL A   1      39.651  29.759  32.823  1.00  0.00    -0.206 F 
ATOM     76  C   UNL A   1      36.505  31.457  32.278  1.00  0.00     0.022 A 
BRANCH  73  77
ATOM     77  S   UNL A   1      35.262  32.620  30.071  1.00  0.00     0.124 S 
ATOM     78  O   UNL A   1      34.802  31.641  29.093  1.00  0.00    -0.237 OA
ATOM     79  O   UNL A   1      34.351  32.907  31.174  1.00  0.00    -0.237 OA
ATOM     80  O   UNL A   1      35.946  33.786  29.516  1.00  0.00    -0.744 OA
ENDBRANCH  73  77
ENDBRANCH  46  70
BRANCH  58  81
ATOM     81  C   UNL A   1      45.051  33.306  29.486  1.00  0.00     0.023 A 
ATOM     82  C   UNL A   1      44.940  34.467  28.702  1.00  0.00     0.031 A 
ATOM     83  C   UNL A   1      45.751  33.384  30.701  1.00  0.00     0.131 A 
ATOM     84  C   UNL A   1      45.539  35.658  29.137  1.00  0.00     0.055 A 
ATOM     85  C   UNL A   1      46.312  34.581  31.147  1.00  0.00     0.041 A 
ATOM     86  F   UNL A   1      45.880  32.301  31.484  1.00  0.00    -0.206 F 
ATOM     87  C   UNL A   1      46.209  35.727  30.363  1.00  0.00     0.022 A 
BRANCH  84  88
ATOM     88  S   UNL A   1      45.440  37.126  28.076  1.00  0.00     0.124 S 
ATOM     89  O   UNL A   1      45.482  36.537  26.741  1.00  0.00    -0.237 OA
ATOM     90  O   UNL A   1      44.166  37.719  28.470  1.00  0.00    -0.237 OA
ATOM     91  O   UNL A   1      46.623  37.901  28.450  1.00  0.00    -0.744 OA
ENDBRANCH  84  88
ENDBRANCH  58  81
ENDBRANCH  32  33
ENDBRANCH  25  27
ENDBRANCH  24  25
ENDBRANCH  23  24
ENDBRANCH   1  23
TORSDOF 19
ENDMDL
MODEL 2
REMARK VINA RESULT:     -11.3      1.791      2.458
REMARK SMILES CN(CCS(C)(=O)=O)S(=O)(=O)c1cc(C(=O)OCCOC(=O)c2ccc(-c3c4nc(c(-c5cc(S(=O)(=O)[O-])ccc5F)c5ccc([nH]5)c(-c5cc(S(=O)(=O)[O-])ccc5F)c5nc(c(-c6cc(S(=O)(=O)[O-])ccc6F)c6ccc3[nH]6)C=C5)C=C4)cc2)ccc1F
REMARK SMILES IDX 18 1 17 2 15 3 16 4 14 5 12 6 13 7 88 8 87 9 89 10 86 11
REMARK SMILES IDX 9 12 10 13 11 14 2 15 1 16 3 17 4 18 5 19 6 20 7 21 8 22
REMARK SMILES IDX 19 23 20 24 21 25 22 26 23 27 24 28 85 29 25 30 84 31 26 32
REMARK SMILES IDX 27 33 28 34 78 35 29 36 83 37 77 38 79 39 30 40 82 41 76 42
REMARK SMILES IDX 75 43 31 45 63 46 43 47 62 48 44 49 47 50 61 51 80 52 45 53
REMARK SMILES IDX 46 54 60 56 81 57 48 58 32 59 33 60 41 61 34 62 40 63 42 64
REMARK SMILES IDX 39 65 35 66 36 67 37 68 38 69 64 70 65 71 73 72 66 73 72 74
REMARK SMILES IDX 74 75 71 76 67 77 68 78 69 79 70 80 49 81 50 82 58 83 51 84
REMARK SMILES IDX 57 85 59 86 56 87 52 88 53 89 54 90 55 91
REMARK H PARENT 79 44 47 55
REMARK Flexibility Score: inf
ROOT
ATOM      1  C   UNL A   1      35.997  21.116  25.529  1.00  0.00     0.275 C 
ENDROOT
BRANCH   1   2
ATOM      2  O   UNL A   1      35.091  21.314  24.426  1.00  0.00    -0.458 OA
BRANCH   2   3
ATOM      3  C   UNL A   1      35.152  22.511  23.794  1.00  0.00     0.338 C 
ATOM      4  O   UNL A   1      36.127  23.013  23.261  1.00  0.00    -0.246 OA
BRANCH   3   5
ATOM      5  C   UNL A   1      33.792  23.098  23.715  1.00  0.00     0.061 A 
ATOM      6  C   UNL A   1      32.369  24.910  22.954  1.00  0.00     0.119 A 
ATOM      7  C   UNL A   1      33.646  24.390  23.192  1.00  0.00     0.040 A 
ATOM      8  C   UNL A   1      31.247  24.180  23.317  1.00  0.00     0.143 A 
ATOM      9  C   UNL A   1      31.389  22.928  23.916  1.00  0.00     0.041 A 
ATOM     10  F   UNL A   1      30.009  24.643  23.122  1.00  0.00    -0.206 F 
ATOM     11  C   UNL A   1      32.658  22.373  24.099  1.00  0.00     0.019 A 
BRANCH   6  12
ATOM     12  S   UNL A   1      32.216  26.443  22.090  1.00  0.00     0.245 S 
ATOM     13  O   UNL A   1      31.415  26.264  20.906  1.00  0.00    -0.207 OA
ATOM     14  O   UNL A   1      33.548  26.997  22.041  1.00  0.00    -0.207 OA
BRANCH  12  15
ATOM     15  N   UNL A   1      31.280  27.406  23.154  1.00  0.00    -0.200 NA
ATOM     16  C   UNL A   1      32.111  28.305  24.011  1.00  0.00     0.124 C 
BRANCH  15  17
ATOM     17  C   UNL A   1      30.046  28.070  22.630  1.00  0.00     0.118 C 
BRANCH  17  18
ATOM     18  C   UNL A   1      30.209  29.463  22.039  1.00  0.00     0.153 C 
BRANCH  18  19
ATOM     19  S   UNL A   1      28.737  30.491  21.902  1.00  0.00     0.148 S 
ATOM     20  C   UNL A   1      27.663  30.135  23.271  1.00  0.00     0.158 C 
ATOM     21  O   UNL A   1      29.156  31.870  22.093  1.00  0.00    -0.229 OA
ATOM     22  O   UNL A   1      27.998  30.135  20.711  1.00  0.00    -0.229 OA
ENDBRANCH  18  19
ENDBRANCH  17  18
ENDBRANCH  15  17
ENDBRANCH  12  15
ENDBRANCH   6  12
ENDBRANCH   3   5
ENDBRANCH   2   3
ENDBRANCH   1   2
BRANCH   1  23
ATOM     23  C   UNL A   1      37.219  20.319  25.074  1.00  0.00     0.275 C 
BRANCH  23  24
ATOM     24  O   UNL A   1      38.360  21.192  24.974  1.00  0.00    -0.458 OA
BRANCH  24  25
ATOM     25  C   UNL A   1      39.325  20.987  25.901  1.00  0.00     0.338 C 
ATOM     26  O   UNL A   1      39.957  19.960  26.087  1.00  0.00    -0.246 OA
BRANCH  25  27
ATOM     27  C   UNL A   1      39.594  22.230  26.643  1.00  0.00     0.060 A 
ATOM     28  C   UNL A   1      38.828  23.350  26.352  1.00  0.00     0.016 A 
ATOM     29  C   UNL A   1      40.735  22.353  27.434  1.00  0.00     0.016 A 
ATOM     30  C   UNL A   1      39.305  24.618  26.684  1.00  0.00     0.010 A 
ATOM     31  C   UNL A   1      41.134  23.621  27.881  1.00  0.00     0.010 A 
ATOM     32  C   UNL A   1      40.479  24.786  27.436  1.00  0.00    -0.014 A 
BRANCH  32  33
ATOM     33  C   UNL A   1      41.084  26.148  27.635  1.00  0.00     0.031 A 
ATOM     34  C   UNL A   1      42.389  26.505  26.946  1.00  0.00     0.074 A 
ATOM     35  C   UNL A   1      40.472  27.108  28.364  1.00  0.00     0.049 A 
ATOM     36  N   UNL A   1      43.202  27.509  27.174  1.00  0.00    -0.248 NA
ATOM     37  C   UNL A   1      42.857  25.598  25.888  1.00  0.00     0.031 C 
ATOM     38  C   UNL A   1      39.179  26.976  29.037  1.00  0.00     0.029 A 
ATOM     39  N   UNL A   1      40.846  28.406  28.636  1.00  0.00    -0.354 N 
ATOM     40  C   UNL A   1      44.310  27.299  26.355  1.00  0.00     0.074 A 
ATOM     41  C   UNL A   1      44.067  26.072  25.630  1.00  0.00     0.031 C 
ATOM     42  C   UNL A   1      38.831  28.159  29.565  1.00  0.00     0.029 A 
ATOM     43  C   UNL A   1      39.929  29.105  29.388  1.00  0.00     0.049 A 
ATOM     44  H   UNL A   1      41.693  28.797  28.322  1.00  0.00     0.167 HD
ATOM     45  C   UNL A   1      45.424  28.062  26.217  1.00  0.00     0.034 A 
ATOM     46  C   UNL A   1      39.974  30.340  29.927  1.00  0.00     0.034 A 
ATOM     47  C   UNL A   1      45.605  29.350  26.838  1.00  0.00     0.049 A 
ATOM     48  C   UNL A   1      41.227  31.163  29.788  1.00  0.00     0.074 A 
ATOM     49  C   UNL A   1      46.679  30.216  26.723  1.00  0.00     0.029 A 
ATOM     50  N   UNL A   1      44.677  29.975  27.657  1.00  0.00    -0.354 N 
ATOM     51  N   UNL A   1      42.325  30.882  29.131  1.00  0.00    -0.248 NA
ATOM     52  C   UNL A   1      41.263  32.448  30.503  1.00  0.00     0.031 C 
ATOM     53  C   UNL A   1      46.423  31.342  27.511  1.00  0.00     0.029 A 
ATOM     54  C   UNL A   1      45.165  31.203  28.073  1.00  0.00     0.049 A 
ATOM     55  H   UNL A   1      43.801  29.601  27.907  1.00  0.00     0.167 HD
ATOM     56  C   UNL A   1      43.188  31.949  29.363  1.00  0.00     0.074 A 
ATOM     57  C   UNL A   1      42.476  32.891  30.201  1.00  0.00     0.031 C 
ATOM     58  C   UNL A   1      44.459  32.124  28.927  1.00  0.00     0.034 A 
BRANCH  45  59
ATOM     59  C   UNL A   1      46.566  27.511  25.398  1.00  0.00     0.023 A 
ATOM     60  C   UNL A   1      46.827  27.927  24.083  1.00  0.00     0.031 A 
ATOM     61  C   UNL A   1      47.437  26.568  25.979  1.00  0.00     0.131 A 
ATOM     62  C   UNL A   1      47.906  27.370  23.376  1.00  0.00     0.055 A 
ATOM     63  C   UNL A   1      48.545  26.067  25.294  1.00  0.00     0.041 A 
ATOM     64  F   UNL A   1      47.229  26.126  27.229  1.00  0.00    -0.206 F 
ATOM     65  C   UNL A   1      48.780  26.463  23.982  1.00  0.00     0.022 A 
BRANCH  62  66
ATOM     66  S   UNL A   1      48.115  27.786  21.624  1.00  0.00     0.124 S 
ATOM     67  O   UNL A   1      48.503  26.496  21.060  1.00  0.00    -0.237 OA
ATOM     68  O   UNL A   1      46.793  28.276  21.253  1.00  0.00    -0.237 OA
ATOM     69  O   UNL A   1      49.171  28.797  21.635  1.00  0.00    -0.744 OA
ENDBRANCH  62  66
ENDBRANCH  45  59
BRANCH  46  70
ATOM     70  C   UNL A   1      38.823  30.843  30.729  1.00  0.00     0.023 A 
ATOM     71  C   UNL A   1      37.746  31.501  30.114  1.00  0.00     0.031 A 
ATOM     72  C   UNL A   1      38.781  30.662  32.123  1.00  0.00     0.131 A 
ATOM     73  C   UNL A   1      36.673  31.958  30.895  1.00  0.00     0.055 A 
ATOM     74  C   UNL A   1      37.693  31.082  32.889  1.00  0.00     0.041 A 
ATOM     75  F   UNL A   1      39.787  30.038  32.757  1.00  0.00    -0.206 F 
ATOM     76  C   UNL A   1      36.632  31.737  32.275  1.00  0.00     0.022 A 
BRANCH  73  77
ATOM     77  S   UNL A   1      35.322  32.854  30.083  1.00  0.00     0.124 S 
ATOM     78  O   UNL A   1      36.023  34.004  29.524  1.00  0.00    -0.237 OA
ATOM     79  O   UNL A   1      34.836  31.867  29.124  1.00  0.00    -0.237 OA
ATOM     80  O   UNL A   1      34.404  33.153  31.180  1.00  0.00    -0.744 OA
ENDBRANCH  73  77
ENDBRANCH  46  70
BRANCH  58  81
ATOM     81  C   UNL A   1      45.170  33.384  29.340  1.00  0.00     0.023 A 
ATOM     82  C   UNL A   1      45.058  34.562  28.582  1.00  0.00     0.031 A 
ATOM     83  C   UNL A   1      45.914  33.423  30.531  1.00  0.00     0.131 A 
ATOM     84  C   UNL A   1      45.698  35.732  29.018  1.00  0.00     0.055 A 
ATOM     85  C   UNL A   1      46.516  34.599  30.979  1.00  0.00     0.041 A 
ATOM     86  F   UNL A   1      46.046  32.323  31.288  1.00  0.00    -0.206 F 
ATOM     87  C   UNL A   1      46.411  35.762  30.220  1.00  0.00     0.022 A 
BRANCH  84  88
ATOM     88  S   UNL A   1      45.594  37.222  27.989  1.00  0.00     0.124 S 
ATOM     89  O   UNL A   1      44.215  37.646  28.211  1.00  0.00    -0.237 OA
ATOM     90  O   UNL A   1      46.624  38.080  28.565  1.00  0.00    -0.237 OA
ATOM     91  O   UNL A   1      45.883  36.730  26.642  1.00  0.00    -0.744 OA
ENDBRANCH  84  88
ENDBRANCH  58  81
ENDBRANCH  32  33
ENDBRANCH  25  27
ENDBRANCH  24  25
ENDBRANCH  23  24
ENDBRANCH   1  23
TORSDOF 19
ENDMDL
MODEL 3
REMARK VINA RESULT:     -11.2      1.930      7.872
REMARK SMILES CN(CCS(C)(=O)=O)S(=O)(=O)c1cc(C(=O)OCCOC(=O)c2ccc(-c3c4nc(c(-c5cc(S(=O)(=O)[O-])ccc5F)c5ccc([nH]5)c(-c5cc(S(=O)(=O)[O-])ccc5F)c5nc(c(-c6cc(S(=O)(=O)[O-])ccc6F)c6ccc3[nH]6)C=C5)C=C4)cc2)ccc1F
REMARK SMILES IDX 18 1 17 2 15 3 16 4 14 5 12 6 13 7 88 8 87 9 89 10 86 11
REMARK SMILES IDX 9 12 10 13 11 14 2 15 1 16 3 17 4 18 5 19 6 20 7 21 8 22
REMARK SMILES IDX 19 23 20 24 21 25 22 26 23 27 24 28 85 29 25 30 84 31 26 32
REMARK SMILES IDX 27 33 28 34 78 35 29 36 83 37 77 38 79 39 30 40 82 41 76 42
REMARK SMILES IDX 75 43 31 45 63 46 43 47 62 48 44 49 47 50 61 51 80 52 45 53
REMARK SMILES IDX 46 54 60 56 81 57 48 58 32 59 33 60 41 61 34 62 40 63 42 64
REMARK SMILES IDX 39 65 35 66 36 67 37 68 38 69 64 70 65 71 73 72 66 73 72 74
REMARK SMILES IDX 74 75 71 76 67 77 68 78 69 79 70 80 49 81 50 82 58 83 51 84
REMARK SMILES IDX 57 85 59 86 56 87 52 88 53 89 54 90 55 91
REMARK H PARENT 79 44 47 55
REMARK Flexibility Score: inf
ROOT
ATOM      1  C   UNL A   1      35.839  21.191  25.478  1.00  0.00     0.275 C 
ENDROOT
BRANCH   1   2
ATOM      2  O   UNL A   1      34.915  21.358  24.384  1.00  0.00    -0.458 OA
BRANCH   2   3
ATOM      3  C   UNL A   1      34.995  22.519  23.690  1.00  0.00     0.338 C 
ATOM      4  O   UNL A   1      35.952  22.934  23.060  1.00  0.00    -0.246 OA
BRANCH   3   5
ATOM      5  C   UNL A   1      33.669  23.183  23.683  1.00  0.00     0.061 A 
ATOM      6  C   UNL A   1      32.285  25.014  22.898  1.00  0.00     0.119 A 
ATOM      7  C   UNL A   1      33.548  24.435  23.064  1.00  0.00     0.040 A 
ATOM      8  C   UNL A   1      31.163  24.391  23.421  1.00  0.00     0.143 A 
ATOM      9  C   UNL A   1      31.290  23.184  24.112  1.00  0.00     0.041 A 
ATOM     10  F   UNL A   1      29.940  24.915  23.299  1.00  0.00    -0.206 F 
ATOM     11  C   UNL A   1      32.538  22.566  24.228  1.00  0.00     0.019 A 
BRANCH   6  12
ATOM     12  S   UNL A   1      32.137  26.479  21.920  1.00  0.00     0.245 S 
ATOM     13  O   UNL A   1      31.221  26.255  20.832  1.00  0.00    -0.207 OA
ATOM     14  O   UNL A   1      33.488  26.942  21.706  1.00  0.00    -0.207 OA
BRANCH  12  15
ATOM     15  N   UNL A   1      31.360  27.583  22.976  1.00  0.00    -0.200 NA
ATOM     16  C   UNL A   1      32.284  28.626  23.514  1.00  0.00     0.124 C 
BRANCH  15  17
ATOM     17  C   UNL A   1      30.021  28.127  22.591  1.00  0.00     0.118 C 
BRANCH  17  18
ATOM     18  C   UNL A   1      29.906  29.637  22.439  1.00  0.00     0.153 C 
BRANCH  18  19
ATOM     19  S   UNL A   1      28.261  30.332  22.209  1.00  0.00     0.148 S 
ATOM     20  C   UNL A   1      28.329  32.078  22.527  1.00  0.00     0.158 C 
ATOM     21  O   UNL A   1      27.936  30.212  20.797  1.00  0.00    -0.229 OA
ATOM     22  O   UNL A   1      27.353  29.782  23.192  1.00  0.00    -0.229 OA
ENDBRANCH  18  19
ENDBRANCH  17  18
ENDBRANCH  15  17
ENDBRANCH  12  15
ENDBRANCH   6  12
ENDBRANCH   3   5
ENDBRANCH   2   3
ENDBRANCH   1   2
BRANCH   1  23
ATOM     23  C   UNL A   1      37.156  20.605  24.972  1.00  0.00     0.275 C 
BRANCH  23  24
ATOM     24  O   UNL A   1      38.189  21.607  25.031  1.00  0.00    -0.458 OA
BRANCH  24  25
ATOM     25  C   UNL A   1      39.200  21.343  25.891  1.00  0.00     0.338 C 
ATOM     26  O   UNL A   1      39.836  20.306  25.980  1.00  0.00    -0.246 OA
BRANCH  25  27
ATOM     27  C   UNL A   1      39.512  22.536  26.696  1.00  0.00     0.060 A 
ATOM     28  C   UNL A   1      38.995  23.759  26.291  1.00  0.00     0.016 A 
ATOM     29  C   UNL A   1      40.490  22.489  27.688  1.00  0.00     0.016 A 
ATOM     30  C   UNL A   1      39.590  24.941  26.730  1.00  0.00     0.010 A 
ATOM     31  C   UNL A   1      40.988  23.684  28.227  1.00  0.00     0.010 A 
ATOM     32  C   UNL A   1      40.614  24.932  27.691  1.00  0.00    -0.014 A 
BRANCH  32  33
ATOM     33  C   UNL A   1      41.372  26.186  28.027  1.00  0.00     0.031 A 
ATOM     34  C   UNL A   1      40.738  27.242  28.915  1.00  0.00     0.074 A 
ATOM     35  C   UNL A   1      42.644  26.389  27.617  1.00  0.00     0.049 A 
ATOM     36  N   UNL A   1      41.103  28.484  29.121  1.00  0.00    -0.248 NA
ATOM     37  C   UNL A   1      39.516  26.860  29.638  1.00  0.00     0.031 C 
ATOM     38  C   UNL A   1      43.445  25.457  26.821  1.00  0.00     0.029 A 
ATOM     39  N   UNL A   1      43.504  27.442  27.840  1.00  0.00    -0.354 N 
ATOM     40  C   UNL A   1      40.109  29.050  29.918  1.00  0.00     0.074 A 
ATOM     41  C   UNL A   1      39.126  28.016  30.154  1.00  0.00     0.031 C 
ATOM     42  C   UNL A   1      44.692  25.935  26.699  1.00  0.00     0.029 A 
ATOM     43  C   UNL A   1      44.754  27.268  27.290  1.00  0.00     0.049 A 
ATOM     44  H   UNL A   1      43.247  28.246  28.347  1.00  0.00     0.167 HD
ATOM     45  C   UNL A   1      40.028  30.310  30.412  1.00  0.00     0.034 A 
ATOM     46  C   UNL A   1      45.817  28.095  27.213  1.00  0.00     0.034 A 
ATOM     47  C   UNL A   1      41.072  31.297  30.289  1.00  0.00     0.049 A 
ATOM     48  C   UNL A   1      45.702  29.500  27.741  1.00  0.00     0.074 A 
ATOM     49  C   UNL A   1      41.099  32.587  30.792  1.00  0.00     0.029 A 
ATOM     50  N   UNL A   1      42.286  31.094  29.650  1.00  0.00    -0.354 N 
ATOM     51  N   UNL A   1      44.695  30.064  28.361  1.00  0.00    -0.248 NA
ATOM     52  C   UNL A   1      46.849  30.393  27.515  1.00  0.00     0.031 C 
ATOM     53  C   UNL A   1      42.308  33.179  30.417  1.00  0.00     0.029 A 
ATOM     54  C   UNL A   1      43.058  32.242  29.726  1.00  0.00     0.049 A 
ATOM     55  H   UNL A   1      42.558  30.258  29.207  1.00  0.00     0.167 HD
ATOM     56  C   UNL A   1      45.082  31.381  28.590  1.00  0.00     0.074 A 
ATOM     57  C   UNL A   1      46.422  31.523  28.062  1.00  0.00     0.031 C 
ATOM     58  C   UNL A   1      44.382  32.383  29.176  1.00  0.00     0.034 A 
BRANCH  45  59
ATOM     59  C   UNL A   1      38.748  30.725  31.097  1.00  0.00     0.023 A 
ATOM     60  C   UNL A   1      37.677  31.316  30.409  1.00  0.00     0.031 A 
ATOM     61  C   UNL A   1      38.594  30.480  32.476  1.00  0.00     0.131 A 
ATOM     62  C   UNL A   1      36.515  31.682  31.109  1.00  0.00     0.055 A 
ATOM     63  C   UNL A   1      37.413  30.786  33.152  1.00  0.00     0.041 A 
ATOM     64  F   UNL A   1      39.590  29.928  33.186  1.00  0.00    -0.206 F 
ATOM     65  C   UNL A   1      36.367  31.397  32.470  1.00  0.00     0.022 A 
BRANCH  62  66
ATOM     66  S   UNL A   1      35.220  32.606  30.239  1.00  0.00     0.124 S 
ATOM     67  O   UNL A   1      35.927  33.830  29.875  1.00  0.00    -0.237 OA
ATOM     68  O   UNL A   1      34.877  31.713  29.139  1.00  0.00    -0.237 OA
ATOM     69  O   UNL A   1      34.179  32.773  31.251  1.00  0.00    -0.744 OA
ENDBRANCH  62  66
ENDBRANCH  45  59
BRANCH  46  70
ATOM     70  C   UNL A   1      47.061  27.643  26.527  1.00  0.00     0.023 A 
ATOM     71  C   UNL A   1      47.213  27.785  25.139  1.00  0.00     0.031 A 
ATOM     72  C   UNL A   1      48.120  27.072  27.255  1.00  0.00     0.131 A 
ATOM     73  C   UNL A   1      48.398  27.357  24.522  1.00  0.00     0.055 A 
ATOM     74  C   UNL A   1      49.312  26.685  26.643  1.00  0.00     0.041 A 
ATOM     75  F   UNL A   1      48.022  26.916  28.585  1.00  0.00    -0.206 F 
ATOM     76  C   UNL A   1      49.455  26.824  25.267  1.00  0.00     0.022 A 
BRANCH  73  77
ATOM     77  S   UNL A   1      48.546  27.501  22.720  1.00  0.00     0.124 S 
ATOM     78  O   UNL A   1      48.565  26.101  22.312  1.00  0.00    -0.237 OA
ATOM     79  O   UNL A   1      47.345  28.257  22.377  1.00  0.00    -0.237 OA
ATOM     80  O   UNL A   1      49.803  28.223  22.539  1.00  0.00    -0.744 OA
ENDBRANCH  73  77
ENDBRANCH  46  70
BRANCH  58  81
ATOM     81  C   UNL A   1      45.048  33.726  29.287  1.00  0.00     0.023 A 
ATOM     82  C   UNL A   1      45.072  34.617  28.200  1.00  0.00     0.031 A 
ATOM     83  C   UNL A   1      45.609  34.144  30.506  1.00  0.00     0.131 A 
ATOM     84  C   UNL A   1      45.663  35.880  28.349  1.00  0.00     0.055 A 
ATOM     85  C   UNL A   1      46.162  35.416  30.660  1.00  0.00     0.041 A 
ATOM     86  F   UNL A   1      45.607  33.328  31.572  1.00  0.00    -0.206 F 
ATOM     87  C   UNL A   1      46.192  36.291  29.577  1.00  0.00     0.022 A 
BRANCH  84  88
ATOM     88  S   UNL A   1      45.741  36.986  26.914  1.00  0.00     0.124 S 
ATOM     89  O   UNL A   1      44.398  37.557  26.901  1.00  0.00    -0.237 OA
ATOM     90  O   UNL A   1      46.818  37.901  27.275  1.00  0.00    -0.237 OA
ATOM     91  O   UNL A   1      46.043  36.085  25.803  1.00  0.00    -0.744 OA
ENDBRANCH  84  88
ENDBRANCH  58  81
ENDBRANCH  32  33
ENDBRANCH  25  27
ENDBRANCH  24  25
ENDBRANCH  23  24
ENDBRANCH   1  23
TORSDOF 19
ENDMDL
