MODEL 1
REMARK VINA RESULT:     -12.2      0.000      0.000
REMARK SMILES C[C@H](NC(=O)c1c(C(=O)OCCOC(=O)c2ccc(-c3c4nc(c(-c5cc(S(=O)(=O)[O-])ccc5F)c5ccc([nH]5)c(-c5cc(S(=O)(=O)[O-])ccc5F)c5nc(c(-c6cc(S(=O)(=O)[O-])ccc6F)c6ccc3[nH]6)C=C5)C=C4)cc2)cnn1C)[C@]12C[C@H]3C[C@H](C[C@H](C3)C1)C2
REMARK SMILES IDX 11 1 10 2 8 3 9 4 7 5 6 6 81 7 79 8 80 9 82 10 4 11 3 12
REMARK SMILES IDX 5 14 2 15 1 16 83 17 84 18 91 19 92 20 85 21 89 22 87 23
REMARK SMILES IDX 86 24 90 25 88 26 12 27 13 28 14 29 15 30 16 31 17 32 78 33
REMARK SMILES IDX 18 34 77 35 19 36 20 37 21 38 71 39 22 40 76 41 70 42 72 43
REMARK SMILES IDX 23 44 75 45 69 46 68 47 24 49 56 50 36 51 55 52 37 53 40 54
REMARK SMILES IDX 54 55 73 56 38 57 39 58 53 60 74 61 41 62 25 63 26 64 34 65
REMARK SMILES IDX 27 66 33 67 35 68 32 69 28 70 29 71 30 72 31 73 57 74 58 75
REMARK SMILES IDX 66 76 59 77 65 78 67 79 64 80 60 81 61 82 62 83 63 84 42 85
REMARK SMILES IDX 43 86 51 87 44 88 50 89 52 90 49 91 45 92 46 93 47 94 48 95
REMARK H PARENT 3 13 72 48 40 59
REMARK Flexibility Score: inf
ROOT
ATOM      1  C   UNL A   1      31.706  28.173  27.237  1.00  0.00     0.275 C 
ENDROOT
BRANCH   1   2
ATOM      2  O   UNL A   1      32.717  27.423  26.537  1.00  0.00    -0.458 OA
BRANCH   2   3
ATOM      3  C   UNL A   1      32.423  26.107  26.327  1.00  0.00     0.342 C 
ATOM      4  O   UNL A   1      31.799  25.413  27.116  1.00  0.00    -0.246 OA
BRANCH   3   5
ATOM      5  C   UNL A   1      32.893  25.577  25.058  1.00  0.00     0.111 A 
ATOM      6  C   UNL A   1      32.212  25.364  23.861  1.00  0.00     0.140 A 
ATOM      7  N   UNL A   1      33.196  25.051  22.953  1.00  0.00    -0.262 N 
ATOM      8  C   UNL A   1      34.226  25.204  24.777  1.00  0.00     0.151 A 
ATOM      9  N   UNL A   1      34.401  24.837  23.510  1.00  0.00    -0.180 NA
ATOM     10  C   UNL A   1      33.118  25.026  21.510  1.00  0.00     0.174 C 
BRANCH   6  11
ATOM     11  C   UNL A   1      30.847  25.662  23.551  1.00  0.00     0.270 C 
ATOM     12  N   UNL A   1      30.393  26.943  23.416  1.00  0.00    -0.348 N 
ATOM     13  H   UNL A   1      29.443  26.954  23.157  1.00  0.00     0.164 HD
ATOM     14  O   UNL A   1      30.012  24.768  23.404  1.00  0.00    -0.267 OA
BRANCH  12  15
ATOM     15  C   UNL A   1      30.919  28.317  23.546  1.00  0.00     0.085 C 
ATOM     16  C   UNL A   1      32.270  28.596  22.883  1.00  0.00     0.031 C 
BRANCH  15  17
ATOM     17  C   UNL A   1      29.843  29.415  23.170  1.00  0.00    -0.009 C 
ATOM     18  C   UNL A   1      30.174  29.987  21.755  1.00  0.00     0.012 C 
ATOM     19  C   UNL A   1      29.835  30.631  24.148  1.00  0.00     0.012 C 
ATOM     20  C   UNL A   1      28.403  28.831  23.146  1.00  0.00     0.012 C 
ATOM     21  C   UNL A   1      29.144  31.039  21.316  1.00  0.00    -0.010 C 
ATOM     22  C   UNL A   1      28.808  31.696  23.714  1.00  0.00    -0.010 C 
ATOM     23  C   UNL A   1      27.381  29.891  22.701  1.00  0.00    -0.010 C 
ATOM     24  C   UNL A   1      27.750  30.394  21.295  1.00  0.00     0.007 C 
ATOM     25  C   UNL A   1      29.159  32.206  22.311  1.00  0.00     0.007 C 
ATOM     26  C   UNL A   1      27.406  31.067  23.685  1.00  0.00     0.007 C 
ENDBRANCH  15  17
ENDBRANCH  12  15
ENDBRANCH   6  11
ENDBRANCH   3   5
ENDBRANCH   2   3
ENDBRANCH   1   2
BRANCH   1  27
ATOM     27  C   UNL A   1      31.782  29.675  26.949  1.00  0.00     0.275 C 
BRANCH  27  28
ATOM     28  O   UNL A   1      33.105  30.078  26.552  1.00  0.00    -0.458 OA
BRANCH  28  29
ATOM     29  C   UNL A   1      33.580  31.179  27.182  1.00  0.00     0.338 C 
ATOM     30  O   UNL A   1      32.976  32.212  27.413  1.00  0.00    -0.246 OA
BRANCH  29  31
ATOM     31  C   UNL A   1      34.932  30.913  27.697  1.00  0.00     0.060 A 
ATOM     32  C   UNL A   1      35.258  29.590  27.992  1.00  0.00     0.016 A 
ATOM     33  C   UNL A   1      35.822  31.942  28.004  1.00  0.00     0.016 A 
ATOM     34  C   UNL A   1      36.466  29.281  28.608  1.00  0.00     0.010 A 
ATOM     35  C   UNL A   1      37.047  31.629  28.612  1.00  0.00     0.010 A 
ATOM     36  C   UNL A   1      37.373  30.297  28.932  1.00  0.00    -0.014 A 
BRANCH  36  37
ATOM     37  C   UNL A   1      38.616  29.956  29.679  1.00  0.00     0.031 A 
ATOM     38  C   UNL A   1      39.607  28.995  29.079  1.00  0.00     0.074 A 
ATOM     39  C   UNL A   1      38.886  30.551  30.858  1.00  0.00     0.049 A 
ATOM     40  N   UNL A   1      40.691  28.484  29.604  1.00  0.00    -0.248 NA
ATOM     41  C   UNL A   1      39.339  28.550  27.703  1.00  0.00     0.031 C 
ATOM     42  C   UNL A   1      38.042  31.556  31.507  1.00  0.00     0.029 A 
ATOM     43  N   UNL A   1      39.947  30.407  31.716  1.00  0.00    -0.354 N 
ATOM     44  C   UNL A   1      41.220  27.635  28.638  1.00  0.00     0.074 A 
ATOM     45  C   UNL A   1      40.324  27.685  27.501  1.00  0.00     0.031 C 
ATOM     46  C   UNL A   1      38.626  31.948  32.651  1.00  0.00     0.029 A 
ATOM     47  C   UNL A   1      39.844  31.170  32.856  1.00  0.00     0.049 A 
ATOM     48  H   UNL A   1      40.711  29.813  31.533  1.00  0.00     0.167 HD
ATOM     49  C   UNL A   1      42.350  26.887  28.694  1.00  0.00     0.034 A 
ATOM     50  C   UNL A   1      40.617  31.209  33.961  1.00  0.00     0.034 A 
ATOM     51  C   UNL A   1      43.244  26.865  29.829  1.00  0.00     0.049 A 
ATOM     52  C   UNL A   1      41.826  30.308  34.033  1.00  0.00     0.074 A 
ATOM     53  C   UNL A   1      44.407  26.133  29.997  1.00  0.00     0.029 A 
ATOM     54  N   UNL A   1      43.077  27.614  30.988  1.00  0.00    -0.354 N 
ATOM     55  N   UNL A   1      42.283  29.464  33.135  1.00  0.00    -0.248 NA
ATOM     56  C   UNL A   1      42.622  30.361  35.266  1.00  0.00     0.031 C 
ATOM     57  C   UNL A   1      44.909  26.392  31.277  1.00  0.00     0.029 A 
ATOM     58  C   UNL A   1      44.103  27.343  31.881  1.00  0.00     0.049 A 
ATOM     59  H   UNL A   1      42.340  28.244  31.150  1.00  0.00     0.167 HD
ATOM     60  C   UNL A   1      43.432  28.905  33.689  1.00  0.00     0.074 A 
ATOM     61  C   UNL A   1      43.610  29.524  34.986  1.00  0.00     0.031 C 
ATOM     62  C   UNL A   1      44.265  27.965  33.175  1.00  0.00     0.034 A 
BRANCH  49  63
ATOM     63  C   UNL A   1      42.651  25.986  27.520  1.00  0.00     0.023 A 
ATOM     64  C   UNL A   1      42.159  24.672  27.441  1.00  0.00     0.031 A 
ATOM     65  C   UNL A   1      43.459  26.451  26.467  1.00  0.00     0.131 A 
ATOM     66  C   UNL A   1      42.526  23.851  26.362  1.00  0.00     0.055 A 
ATOM     67  C   UNL A   1      43.759  25.654  25.360  1.00  0.00     0.041 A 
ATOM     68  F   UNL A   1      43.977  27.689  26.497  1.00  0.00    -0.206 F 
ATOM     69  C   UNL A   1      43.301  24.342  25.309  1.00  0.00     0.022 A 
BRANCH  66  70
ATOM     70  S   UNL A   1      42.076  22.094  26.412  1.00  0.00     0.124 S 
ATOM     71  O   UNL A   1      40.627  22.154  26.235  1.00  0.00    -0.237 OA
ATOM     72  O   UNL A   1      42.834  21.542  25.296  1.00  0.00    -0.237 OA
ATOM     73  O   UNL A   1      42.517  21.664  27.738  1.00  0.00    -0.744 OA
ENDBRANCH  66  70
ENDBRANCH  49  63
BRANCH  50  74
ATOM     74  C   UNL A   1      40.243  32.069  35.124  1.00  0.00     0.023 A 
ATOM     75  C   UNL A   1      39.366  31.613  36.120  1.00  0.00     0.031 A 
ATOM     76  C   UNL A   1      40.706  33.395  35.214  1.00  0.00     0.131 A 
ATOM     77  C   UNL A   1      38.938  32.488  37.131  1.00  0.00     0.055 A 
ATOM     78  C   UNL A   1      40.329  34.241  36.258  1.00  0.00     0.041 A 
ATOM     79  F   UNL A   1      41.537  33.892  34.285  1.00  0.00    -0.206 F 
ATOM     80  C   UNL A   1      39.427  33.793  37.216  1.00  0.00     0.022 A 
BRANCH  77  81
ATOM     81  S   UNL A   1      37.639  31.933  38.271  1.00  0.00     0.124 S 
ATOM     82  O   UNL A   1      37.374  30.585  37.784  1.00  0.00    -0.237 OA
ATOM     83  O   UNL A   1      38.309  32.029  39.563  1.00  0.00    -0.237 OA
ATOM     84  O   UNL A   1      36.562  32.898  38.056  1.00  0.00    -0.744 OA
ENDBRANCH  77  81
ENDBRANCH  50  74
BRANCH  62  85
ATOM     85  C   UNL A   1      45.470  27.593  34.002  1.00  0.00     0.023 A 
ATOM     86  C   UNL A   1      45.438  26.531  34.923  1.00  0.00     0.031 A 
ATOM     87  C   UNL A   1      46.663  28.327  33.878  1.00  0.00     0.131 A 
ATOM     88  C   UNL A   1      46.558  26.270  35.726  1.00  0.00     0.055 A 
ATOM     89  C   UNL A   1      47.795  28.024  34.637  1.00  0.00     0.041 A 
ATOM     90  F   UNL A   1      46.749  29.352  33.015  1.00  0.00    -0.206 F 
ATOM     91  C   UNL A   1      47.741  27.000  35.578  1.00  0.00     0.022 A 
BRANCH  88  92
ATOM     92  S   UNL A   1      46.421  25.020  37.034  1.00  0.00     0.124 S 
ATOM     93  O   UNL A   1      45.450  25.630  37.936  1.00  0.00    -0.237 OA
ATOM     94  O   UNL A   1      45.959  23.848  36.298  1.00  0.00    -0.237 OA
ATOM     95  O   UNL A   1      47.781  24.923  37.561  1.00  0.00    -0.744 OA
ENDBRANCH  88  92
ENDBRANCH  62  85
ENDBRANCH  36  37
ENDBRANCH  29  31
ENDBRANCH  28  29
ENDBRANCH  27  28
ENDBRANCH   1  27
TORSDOF 17
ENDMDL
MODEL 2
REMARK VINA RESULT:     -12.2      5.709     10.677
REMARK SMILES C[C@H](NC(=O)c1c(C(=O)OCCOC(=O)c2ccc(-c3c4nc(c(-c5cc(S(=O)(=O)[O-])ccc5F)c5ccc([nH]5)c(-c5cc(S(=O)(=O)[O-])ccc5F)c5nc(c(-c6cc(S(=O)(=O)[O-])ccc6F)c6ccc3[nH]6)C=C5)C=C4)cc2)cnn1C)[C@]12C[C@H]3C[C@H](C[C@H](C3)C1)C2
REMARK SMILES IDX 11 1 10 2 8 3 9 4 7 5 6 6 81 7 79 8 80 9 82 10 4 11 3 12
REMARK SMILES IDX 5 14 2 15 1 16 83 17 84 18 91 19 92 20 85 21 89 22 87 23
REMARK SMILES IDX 86 24 90 25 88 26 12 27 13 28 14 29 15 30 16 31 17 32 78 33
REMARK SMILES IDX 18 34 77 35 19 36 20 37 21 38 71 39 22 40 76 41 70 42 72 43
REMARK SMILES IDX 23 44 75 45 69 46 68 47 24 49 56 50 36 51 55 52 37 53 40 54
REMARK SMILES IDX 54 55 73 56 38 57 39 58 53 60 74 61 41 62 25 63 26 64 34 65
REMARK SMILES IDX 27 66 33 67 35 68 32 69 28 70 29 71 30 72 31 73 57 74 58 75
REMARK SMILES IDX 66 76 59 77 65 78 67 79 64 80 60 81 61 82 62 83 63 84 42 85
REMARK SMILES IDX 43 86 51 87 44 88 50 89 52 90 49 91 45 92 46 93 47 94 48 95
REMARK H PARENT 3 13 72 48 40 59
REMARK Flexibility Score: inf
ROOT
ATOM      1  C   UNL A   1      36.886  22.648  23.435  1.00  0.00     0.275 C 
ENDROOT
BRANCH   1   2
ATOM      2  O   UNL A   1      36.095  23.682  24.052  1.00  0.00    -0.458 OA
BRANCH   2   3
ATOM      3  C   UNL A   1      34.868  23.888  23.490  1.00  0.00     0.342 C 
ATOM      4  O   UNL A   1      34.598  23.628  22.326  1.00  0.00    -0.246 OA
BRANCH   3   5
ATOM      5  C   UNL A   1      33.870  24.428  24.397  1.00  0.00     0.111 A 
ATOM      6  C   UNL A   1      32.571  24.004  24.668  1.00  0.00     0.140 A 
ATOM      7  N   UNL A   1      32.179  24.754  25.751  1.00  0.00    -0.262 N 
ATOM      8  C   UNL A   1      34.069  25.529  25.262  1.00  0.00     0.151 A 
ATOM      9  N   UNL A   1      33.023  25.758  26.051  1.00  0.00    -0.180 NA
ATOM     10  C   UNL A   1      31.060  24.541  26.640  1.00  0.00     0.174 C 
BRANCH   6  11
ATOM     11  C   UNL A   1      31.882  22.866  24.141  1.00  0.00     0.270 C 
ATOM     12  N   UNL A   1      32.295  21.587  24.383  1.00  0.00    -0.348 N 
ATOM     13  H   UNL A   1      31.675  20.935  23.981  1.00  0.00     0.164 HD
ATOM     14  O   UNL A   1      30.884  22.993  23.429  1.00  0.00    -0.267 OA
BRANCH  12  15
ATOM     15  C   UNL A   1      33.405  20.900  25.074  1.00  0.00     0.085 C 
ATOM     16  C   UNL A   1      33.555  21.184  26.570  1.00  0.00     0.031 C 
BRANCH  15  17
ATOM     17  C   UNL A   1      33.443  19.349  24.764  1.00  0.00    -0.009 C 
ATOM     18  C   UNL A   1      32.805  18.575  25.962  1.00  0.00     0.012 C 
ATOM     19  C   UNL A   1      34.890  18.789  24.595  1.00  0.00     0.012 C 
ATOM     20  C   UNL A   1      32.657  18.996  23.470  1.00  0.00     0.012 C 
ATOM     21  C   UNL A   1      32.783  17.060  25.708  1.00  0.00    -0.010 C 
ATOM     22  C   UNL A   1      34.880  17.268  24.346  1.00  0.00    -0.010 C 
ATOM     23  C   UNL A   1      32.638  17.477  23.228  1.00  0.00    -0.010 C 
ATOM     24  C   UNL A   1      31.978  16.780  24.430  1.00  0.00     0.007 C 
ATOM     25  C   UNL A   1      34.221  16.556  25.534  1.00  0.00     0.007 C 
ATOM     26  C   UNL A   1      34.075  16.967  23.071  1.00  0.00     0.007 C 
ENDBRANCH  15  17
ENDBRANCH  12  15
ENDBRANCH   6  11
ENDBRANCH   3   5
ENDBRANCH   2   3
ENDBRANCH   1   2
BRANCH   1  27
ATOM     27  C   UNL A   1      37.073  21.429  24.342  1.00  0.00     0.275 C 
BRANCH  27  28
ATOM     28  O   UNL A   1      37.440  21.808  25.680  1.00  0.00    -0.458 OA
BRANCH  28  29
ATOM     29  C   UNL A   1      38.707  21.490  26.036  1.00  0.00     0.338 C 
ATOM     30  O   UNL A   1      39.281  20.431  25.846  1.00  0.00    -0.246 OA
BRANCH  29  31
ATOM     31  C   UNL A   1      39.382  22.677  26.583  1.00  0.00     0.060 A 
ATOM     32  C   UNL A   1      38.923  23.926  26.168  1.00  0.00     0.016 A 
ATOM     33  C   UNL A   1      40.519  22.576  27.386  1.00  0.00     0.016 A 
ATOM     34  C   UNL A   1      39.597  25.084  26.536  1.00  0.00     0.010 A 
ATOM     35  C   UNL A   1      41.191  23.747  27.771  1.00  0.00     0.010 A 
ATOM     36  C   UNL A   1      40.744  25.010  27.336  1.00  0.00    -0.014 A 
BRANCH  36  37
ATOM     37  C   UNL A   1      41.507  26.253  27.638  1.00  0.00     0.031 A 
ATOM     38  C   UNL A   1      40.877  27.329  28.482  1.00  0.00     0.074 A 
ATOM     39  C   UNL A   1      42.779  26.390  27.212  1.00  0.00     0.049 A 
ATOM     40  N   UNL A   1      41.323  28.524  28.771  1.00  0.00    -0.248 NA
ATOM     41  C   UNL A   1      39.570  27.015  29.077  1.00  0.00     0.031 C 
ATOM     42  C   UNL A   1      43.526  25.386  26.452  1.00  0.00     0.029 A 
ATOM     43  N   UNL A   1      43.672  27.422  27.364  1.00  0.00    -0.354 N 
ATOM     44  C   UNL A   1      40.341  29.118  29.557  1.00  0.00     0.074 A 
ATOM     45  C   UNL A   1      39.266  28.155  29.680  1.00  0.00     0.031 C 
ATOM     46  C   UNL A   1      44.767  25.846  26.219  1.00  0.00     0.029 A 
ATOM     47  C   UNL A   1      44.880  27.203  26.743  1.00  0.00     0.049 A 
ATOM     48  H   UNL A   1      43.466  28.242  27.869  1.00  0.00     0.167 HD
ATOM     49  C   UNL A   1      40.340  30.350  30.124  1.00  0.00     0.034 A 
ATOM     50  C   UNL A   1      45.943  28.017  26.576  1.00  0.00     0.034 A 
ATOM     51  C   UNL A   1      41.431  31.290  30.008  1.00  0.00     0.049 A 
ATOM     52  C   UNL A   1      45.885  29.412  27.150  1.00  0.00     0.074 A 
ATOM     53  C   UNL A   1      41.528  32.569  30.530  1.00  0.00     0.029 A 
ATOM     54  N   UNL A   1      42.618  31.050  29.326  1.00  0.00    -0.354 N 
ATOM     55  N   UNL A   1      44.925  29.983  27.840  1.00  0.00    -0.248 NA
ATOM     56  C   UNL A   1      47.052  30.274  26.919  1.00  0.00     0.031 C 
ATOM     57  C   UNL A   1      42.743  33.123  30.114  1.00  0.00     0.029 A 
ATOM     58  C   UNL A   1      43.440  32.165  29.397  1.00  0.00     0.049 A 
ATOM     59  H   UNL A   1      42.843  30.212  28.863  1.00  0.00     0.167 HD
ATOM     60  C   UNL A   1      45.384  31.262  28.145  1.00  0.00     0.074 A 
ATOM     61  C   UNL A   1      46.714  31.369  27.583  1.00  0.00     0.031 C 
ATOM     62  C   UNL A   1      44.764  32.259  28.826  1.00  0.00     0.034 A 
BRANCH  49  63
ATOM     63  C   UNL A   1      39.098  30.774  30.871  1.00  0.00     0.023 A 
ATOM     64  C   UNL A   1      38.086  31.538  30.265  1.00  0.00     0.031 A 
ATOM     65  C   UNL A   1      38.933  30.416  32.221  1.00  0.00     0.131 A 
ATOM     66  C   UNL A   1      36.984  31.967  31.023  1.00  0.00     0.055 A 
ATOM     67  C   UNL A   1      37.799  30.783  32.949  1.00  0.00     0.041 A 
ATOM     68  F   UNL A   1      39.876  29.707  32.861  1.00  0.00    -0.206 F 
ATOM     69  C   UNL A   1      36.821  31.573  32.353  1.00  0.00     0.022 A 
BRANCH  66  70
ATOM     70  S   UNL A   1      35.824  33.149  30.282  1.00  0.00     0.124 S 
ATOM     71  O   UNL A   1      36.644  33.752  29.235  1.00  0.00    -0.237 OA
ATOM     72  O   UNL A   1      34.740  32.285  29.827  1.00  0.00    -0.237 OA
ATOM     73  O   UNL A   1      35.486  34.040  31.390  1.00  0.00    -0.744 OA
ENDBRANCH  66  70
ENDBRANCH  49  63
BRANCH  50  74
ATOM     74  C   UNL A   1      47.123  27.575  25.775  1.00  0.00     0.023 A 
ATOM     75  C   UNL A   1      47.268  27.933  24.425  1.00  0.00     0.031 A 
ATOM     76  C   UNL A   1      48.093  26.721  26.334  1.00  0.00     0.131 A 
ATOM     77  C   UNL A   1      48.323  27.400  23.667  1.00  0.00     0.055 A 
ATOM     78  C   UNL A   1      49.177  26.247  25.594  1.00  0.00     0.041 A 
ATOM     79  F   UNL A   1      48.002  26.335  27.617  1.00  0.00    -0.206 F 
ATOM     80  C   UNL A   1      49.287  26.573  24.247  1.00  0.00     0.022 A 
BRANCH  77  81
ATOM     81  S   UNL A   1      48.353  27.708  21.879  1.00  0.00     0.124 S 
ATOM     82  O   UNL A   1      48.564  26.365  21.351  1.00  0.00    -0.237 OA
ATOM     83  O   UNL A   1      47.035  28.289  21.649  1.00  0.00    -0.237 OA
ATOM     84  O   UNL A   1      49.476  28.628  21.712  1.00  0.00    -0.744 OA
ENDBRANCH  77  81
ENDBRANCH  50  74
BRANCH  62  85
ATOM     85  C   UNL A   1      45.547  33.530  29.040  1.00  0.00     0.023 A 
ATOM     86  C   UNL A   1      45.489  34.599  28.128  1.00  0.00     0.031 A 
ATOM     87  C   UNL A   1      46.379  33.665  30.166  1.00  0.00     0.131 A 
ATOM     88  C   UNL A   1      46.293  35.731  28.327  1.00  0.00     0.055 A 
ATOM     89  C   UNL A   1      47.131  34.819  30.391  1.00  0.00     0.041 A 
ATOM     90  F   UNL A   1      46.473  32.675  31.068  1.00  0.00    -0.206 F 
ATOM     91  C   UNL A   1      47.102  35.854  29.461  1.00  0.00     0.022 A 
BRANCH  88  92
ATOM     92  S   UNL A   1      46.339  37.007  27.038  1.00  0.00     0.124 S 
ATOM     93  O   UNL A   1      44.971  37.513  27.064  1.00  0.00    -0.237 OA
ATOM     94  O   UNL A   1      47.366  37.916  27.536  1.00  0.00    -0.237 OA
ATOM     95  O   UNL A   1      46.703  36.264  25.832  1.00  0.00    -0.744 OA
ENDBRANCH  88  92
ENDBRANCH  62  85
ENDBRANCH  36  37
ENDBRANCH  29  31
ENDBRANCH  28  29
ENDBRANCH  27  28
ENDBRANCH   1  27
TORSDOF 17
ENDMDL
MODEL 3
REMARK VINA RESULT:     -12.2      5.081      9.650
REMARK SMILES C[C@H](NC(=O)c1c(C(=O)OCCOC(=O)c2ccc(-c3c4nc(c(-c5cc(S(=O)(=O)[O-])ccc5F)c5ccc([nH]5)c(-c5cc(S(=O)(=O)[O-])ccc5F)c5nc(c(-c6cc(S(=O)(=O)[O-])ccc6F)c6ccc3[nH]6)C=C5)C=C4)cc2)cnn1C)[C@]12C[C@H]3C[C@H](C[C@H](C3)C1)C2
REMARK SMILES IDX 11 1 10 2 8 3 9 4 7 5 6 6 81 7 79 8 80 9 82 10 4 11 3 12
REMARK SMILES IDX 5 14 2 15 1 16 83 17 84 18 91 19 92 20 85 21 89 22 87 23
REMARK SMILES IDX 86 24 90 25 88 26 12 27 13 28 14 29 15 30 16 31 17 32 78 33
REMARK SMILES IDX 18 34 77 35 19 36 20 37 21 38 71 39 22 40 76 41 70 42 72 43
REMARK SMILES IDX 23 44 75 45 69 46 68 47 24 49 56 50 36 51 55 52 37 53 40 54
REMARK SMILES IDX 54 55 73 56 38 57 39 58 53 60 74 61 41 62 25 63 26 64 34 65
REMARK SMILES IDX 27 66 33 67 35 68 32 69 28 70 29 71 30 72 31 73 57 74 58 75
REMARK SMILES IDX 66 76 59 77 65 78 67 79 64 80 60 81 61 82 62 83 63 84 42 85
REMARK SMILES IDX 43 86 51 87 44 88 50 89 52 90 49 91 45 92 46 93 47 94 48 95
REMARK H PARENT 3 13 72 48 40 59
REMARK Flexibility Score: inf
ROOT
ATOM      1  C   UNL A   1      35.269  20.642  25.021  1.00  0.00     0.275 C 
ENDROOT
BRANCH   1   2
ATOM      2  O   UNL A   1      34.702  21.925  24.693  1.00  0.00    -0.458 OA
BRANCH   2   3
ATOM      3  C   UNL A   1      33.360  21.921  24.447  1.00  0.00     0.342 C 
ATOM      4  O   UNL A   1      32.829  21.253  23.571  1.00  0.00    -0.246 OA
BRANCH   3   5
ATOM      5  C   UNL A   1      32.579  22.767  25.334  1.00  0.00     0.111 A 
ATOM      6  C   UNL A   1      31.680  23.791  25.046  1.00  0.00     0.140 A 
ATOM      7  N   UNL A   1      31.090  24.086  26.253  1.00  0.00    -0.262 N 
ATOM      8  C   UNL A   1      32.554  22.661  26.743  1.00  0.00     0.151 A 
ATOM      9  N   UNL A   1      31.685  23.497  27.306  1.00  0.00    -0.180 NA
ATOM     10  C   UNL A   1      29.888  24.845  26.509  1.00  0.00     0.174 C 
BRANCH   6  11
ATOM     11  C   UNL A   1      31.247  24.257  23.764  1.00  0.00     0.270 C 
ATOM     12  N   UNL A   1      31.937  25.203  23.061  1.00  0.00    -0.348 N 
ATOM     13  H   UNL A   1      31.518  25.364  22.184  1.00  0.00     0.164 HD
ATOM     14  O   UNL A   1      30.217  23.829  23.240  1.00  0.00    -0.267 OA
BRANCH  12  15
ATOM     15  C   UNL A   1      33.131  26.055  23.239  1.00  0.00     0.085 C 
ATOM     16  C   UNL A   1      33.737  26.651  21.966  1.00  0.00     0.031 C 
BRANCH  15  17
ATOM     17  C   UNL A   1      32.930  27.150  24.363  1.00  0.00    -0.009 C 
ATOM     18  C   UNL A   1      31.401  27.379  24.584  1.00  0.00     0.012 C 
ATOM     19  C   UNL A   1      33.536  28.539  23.985  1.00  0.00     0.012 C 
ATOM     20  C   UNL A   1      33.569  26.720  25.713  1.00  0.00     0.012 C 
ATOM     21  C   UNL A   1      31.139  28.412  25.690  1.00  0.00    -0.010 C 
ATOM     22  C   UNL A   1      33.273  29.586  25.086  1.00  0.00    -0.010 C 
ATOM     23  C   UNL A   1      33.296  27.759  26.813  1.00  0.00    -0.010 C 
ATOM     24  C   UNL A   1      31.778  27.919  26.997  1.00  0.00     0.007 C 
ATOM     25  C   UNL A   1      31.761  29.754  25.284  1.00  0.00     0.007 C 
ATOM     26  C   UNL A   1      33.903  29.107  26.403  1.00  0.00     0.007 C 
ENDBRANCH  15  17
ENDBRANCH  12  15
ENDBRANCH   6  11
ENDBRANCH   3   5
ENDBRANCH   2   3
ENDBRANCH   1   2
BRANCH   1  27
ATOM     27  C   UNL A   1      36.794  20.620  24.883  1.00  0.00     0.275 C 
BRANCH  27  28
ATOM     28  O   UNL A   1      37.425  21.585  25.743  1.00  0.00    -0.458 OA
BRANCH  28  29
ATOM     29  C   UNL A   1      38.725  21.335  26.025  1.00  0.00     0.338 C 
ATOM     30  O   UNL A   1      39.355  20.327  25.755  1.00  0.00    -0.246 OA
BRANCH  29  31
ATOM     31  C   UNL A   1      39.349  22.535  26.603  1.00  0.00     0.060 A 
ATOM     32  C   UNL A   1      38.879  23.775  26.170  1.00  0.00     0.016 A 
ATOM     33  C   UNL A   1      40.452  22.458  27.453  1.00  0.00     0.016 A 
ATOM     34  C   UNL A   1      39.511  24.947  26.569  1.00  0.00     0.010 A 
ATOM     35  C   UNL A   1      41.080  23.643  27.869  1.00  0.00     0.010 A 
ATOM     36  C   UNL A   1      40.624  24.896  27.418  1.00  0.00    -0.014 A 
BRANCH  36  37
ATOM     37  C   UNL A   1      41.344  26.155  27.754  1.00  0.00     0.031 A 
ATOM     38  C   UNL A   1      40.647  27.224  28.553  1.00  0.00     0.074 A 
ATOM     39  C   UNL A   1      42.636  26.315  27.400  1.00  0.00     0.049 A 
ATOM     40  N   UNL A   1      41.054  28.429  28.860  1.00  0.00    -0.248 NA
ATOM     41  C   UNL A   1      39.314  26.888  29.076  1.00  0.00     0.031 C 
ATOM     42  C   UNL A   1      43.444  25.322  26.690  1.00  0.00     0.029 A 
ATOM     43  N   UNL A   1      43.498  27.365  27.595  1.00  0.00    -0.354 N 
ATOM     44  C   UNL A   1      40.017  29.008  29.584  1.00  0.00     0.074 A 
ATOM     45  C   UNL A   1      38.955  28.026  29.653  1.00  0.00     0.031 C 
ATOM     46  C   UNL A   1      44.687  25.804  26.524  1.00  0.00     0.029 A 
ATOM     47  C   UNL A   1      44.744  27.166  27.045  1.00  0.00     0.049 A 
ATOM     48  H   UNL A   1      43.249  28.184  28.082  1.00  0.00     0.167 HD
ATOM     49  C   UNL A   1      39.960  30.243  30.143  1.00  0.00     0.034 A 
ATOM     50  C   UNL A   1      45.799  28.000  26.934  1.00  0.00     0.034 A 
ATOM     51  C   UNL A   1      41.038  31.203  30.082  1.00  0.00     0.049 A 
ATOM     52  C   UNL A   1      45.682  29.396  27.494  1.00  0.00     0.074 A 
ATOM     53  C   UNL A   1      41.080  32.487  30.601  1.00  0.00     0.029 A 
ATOM     54  N   UNL A   1      42.266  30.983  29.471  1.00  0.00    -0.354 N 
ATOM     55  N   UNL A   1      44.673  29.953  28.125  1.00  0.00    -0.248 NA
ATOM     56  C   UNL A   1      46.844  30.279  27.324  1.00  0.00     0.031 C 
ATOM     57  C   UNL A   1      42.307  33.062  30.251  1.00  0.00     0.029 A 
ATOM     58  C   UNL A   1      43.062  32.114  29.581  1.00  0.00     0.049 A 
ATOM     59  H   UNL A   1      42.533  30.147  29.026  1.00  0.00     0.167 HD
ATOM     60  C   UNL A   1      45.090  31.241  28.447  1.00  0.00     0.074 A 
ATOM     61  C   UNL A   1      46.448  31.372  27.961  1.00  0.00     0.031 C 
ATOM     62  C   UNL A   1      44.414  32.230  29.085  1.00  0.00     0.034 A 
BRANCH  49  63
ATOM     63  C   UNL A   1      38.670  30.647  30.815  1.00  0.00     0.023 A 
ATOM     64  C   UNL A   1      37.618  31.255  30.109  1.00  0.00     0.031 A 
ATOM     65  C   UNL A   1      38.498  30.431  32.195  1.00  0.00     0.131 A 
ATOM     66  C   UNL A   1      36.466  31.676  30.794  1.00  0.00     0.055 A 
ATOM     67  C   UNL A   1      37.321  30.784  32.856  1.00  0.00     0.041 A 
ATOM     68  F   UNL A   1      39.476  29.875  32.926  1.00  0.00    -0.206 F 
ATOM     69  C   UNL A   1      36.300  31.421  32.158  1.00  0.00     0.022 A 
BRANCH  66  70
ATOM     70  S   UNL A   1      35.237  32.671  29.904  1.00  0.00     0.124 S 
ATOM     71  O   UNL A   1      34.674  31.688  28.981  1.00  0.00    -0.237 OA
ATOM     72  O   UNL A   1      34.357  33.119  30.976  1.00  0.00    -0.237 OA
ATOM     73  O   UNL A   1      36.036  33.720  29.274  1.00  0.00    -0.744 OA
ENDBRANCH  66  70
ENDBRANCH  49  63
BRANCH  50  74
ATOM     74  C   UNL A   1      47.031  27.576  26.204  1.00  0.00     0.023 A 
ATOM     75  C   UNL A   1      47.217  27.877  24.845  1.00  0.00     0.031 A 
ATOM     76  C   UNL A   1      48.013  26.796  26.843  1.00  0.00     0.131 A 
ATOM     77  C   UNL A   1      48.326  27.358  24.158  1.00  0.00     0.055 A 
ATOM     78  C   UNL A   1      49.148  26.338  26.172  1.00  0.00     0.041 A 
ATOM     79  F   UNL A   1      47.885  26.466  28.138  1.00  0.00    -0.206 F 
ATOM     80  C   UNL A   1      49.301  26.606  24.816  1.00  0.00     0.022 A 
BRANCH  77  81
ATOM     81  S   UNL A   1      48.420  27.583  22.360  1.00  0.00     0.124 S 
ATOM     82  O   UNL A   1      49.567  28.474  22.231  1.00  0.00    -0.237 OA
ATOM     83  O   UNL A   1      48.614  26.215  21.893  1.00  0.00    -0.237 OA
ATOM     84  O   UNL A   1      47.127  28.178  22.023  1.00  0.00    -0.744 OA
ENDBRANCH  77  81
ENDBRANCH  50  74
BRANCH  62  85
ATOM     85  C   UNL A   1      45.159  33.518  29.335  1.00  0.00     0.023 A 
ATOM     86  C   UNL A   1      45.046  34.619  28.469  1.00  0.00     0.031 A 
ATOM     87  C   UNL A   1      46.010  33.635  30.448  1.00  0.00     0.131 A 
ATOM     88  C   UNL A   1      45.817  35.770  28.697  1.00  0.00     0.055 A 
ATOM     89  C   UNL A   1      46.729  34.804  30.704  1.00  0.00     0.041 A 
ATOM     90  F   UNL A   1      46.157  32.613  31.307  1.00  0.00    -0.206 F 
ATOM     91  C   UNL A   1      46.645  35.874  29.819  1.00  0.00     0.022 A 
BRANCH  88  92
ATOM     92  S   UNL A   1      45.792  37.096  27.461  1.00  0.00     0.124 S 
ATOM     93  O   UNL A   1      46.277  38.237  28.230  1.00  0.00    -0.237 OA
ATOM     94  O   UNL A   1      46.699  36.585  26.438  1.00  0.00    -0.237 OA
ATOM     95  O   UNL A   1      44.388  37.169  27.062  1.00  0.00    -0.744 OA
ENDBRANCH  88  92
ENDBRANCH  62  85
ENDBRANCH  36  37
ENDBRANCH  29  31
ENDBRANCH  28  29
ENDBRANCH  27  28
ENDBRANCH   1  27
TORSDOF 17
ENDMDL
