MODEL 1
REMARK VINA RESULT:     -12.6      0.000      0.000
REMARK SMILES O=C(OCCOC(=O)[C@]1(C2CCCC2)CCOc2ccccc21)c1ccc(-c2c3nc(c(-c4cc(S(=O)(=O)[O-])ccc4F)c4ccc([nH]4)c(-c4cc(S(=O)(=O)[O-])ccc4F)c4nc(c(-c5cc(S(=O)(=O)[O-])ccc5F)c5ccc2[nH]5)C=C4)C=C3)cc1
REMARK SMILES IDX 4 1 3 2 2 3 1 4 24 5 25 6 86 7 26 8 85 9 27 10 28 11 29 12
REMARK SMILES IDX 79 13 30 14 84 15 78 16 80 17 31 18 83 19 77 20 76 21 32 23
REMARK SMILES IDX 64 24 44 25 63 26 45 27 48 28 62 29 81 30 46 31 47 32 61 34
REMARK SMILES IDX 82 35 49 36 33 37 34 38 42 39 35 40 41 41 43 42 40 43 36 44
REMARK SMILES IDX 37 45 38 46 39 47 65 48 66 49 74 50 67 51 73 52 75 53 72 54
REMARK SMILES IDX 68 55 69 56 70 57 71 58 50 59 51 60 59 61 52 62 58 63 60 64
REMARK SMILES IDX 57 65 53 66 54 67 55 68 56 69 5 70 6 71 7 72 8 73 9 74 15 75
REMARK SMILES IDX 23 76 16 77 18 78 22 79 17 80 19 81 21 82 20 83 10 84 11 85
REMARK SMILES IDX 14 86 12 87 13 88
REMARK H PARENT 80 22 48 33
REMARK Flexibility Score: inf
ROOT
ATOM      1  C   UNL A   1      37.854  21.352  25.087  1.00  0.00     0.275 C 
ENDROOT
BRANCH   1   2
ATOM      2  O   UNL A   1      38.854  21.262  26.112  1.00  0.00    -0.458 OA
BRANCH   2   3
ATOM      3  C   UNL A   1      40.094  21.804  26.093  1.00  0.00     0.338 C 
ATOM      4  O   UNL A   1      41.052  21.115  25.754  1.00  0.00    -0.246 OA
BRANCH   3   5
ATOM      5  C   UNL A   1      40.379  23.176  26.611  1.00  0.00     0.060 A 
ATOM      6  C   UNL A   1      39.303  24.079  27.717  1.00  0.00     0.016 A 
ATOM      7  C   UNL A   1      41.949  23.826  26.103  1.00  0.00     0.016 A 
ATOM      8  C   UNL A   1      39.671  25.589  28.461  1.00  0.00     0.010 A 
ATOM      9  C   UNL A   1      42.468  25.410  26.793  1.00  0.00     0.010 A 
ATOM     10  C   UNL A   1      41.217  26.372  28.068  1.00  0.00    -0.014 A 
BRANCH  10  11
ATOM     11  C   UNL A   1      41.129  27.660  28.988  1.00  0.00     0.031 A 
ATOM     12  C   UNL A   1      42.039  27.793  30.154  1.00  0.00     0.074 A 
ATOM     13  C   UNL A   1      40.306  28.702  28.739  1.00  0.00     0.049 A 
ATOM     14  N   UNL A   1      41.757  28.193  31.356  1.00  0.00    -0.248 NA
ATOM     15  C   UNL A   1      43.412  27.308  29.972  1.00  0.00     0.031 C 
ATOM     16  C   UNL A   1      39.658  29.012  27.474  1.00  0.00     0.029 A 
ATOM     17  N   UNL A   1      39.758  29.618  29.606  1.00  0.00    -0.354 N 
ATOM     18  C   UNL A   1      42.843  27.803  32.122  1.00  0.00     0.074 A 
ATOM     19  C   UNL A   1      43.780  27.147  31.236  1.00  0.00     0.031 C 
ATOM     20  C   UNL A   1      38.647  29.871  27.678  1.00  0.00     0.029 A 
ATOM     21  C   UNL A   1      38.594  30.169  29.096  1.00  0.00     0.049 A 
ATOM     22  H   UNL A   1      40.145  29.852  30.480  1.00  0.00     0.167 HD
ATOM     23  C   UNL A   1      42.980  27.979  33.454  1.00  0.00     0.034 A 
ATOM     24  C   UNL A   1      37.573  30.772  29.730  1.00  0.00     0.034 A 
ATOM     25  C   UNL A   1      42.096  28.851  34.182  1.00  0.00     0.049 A 
ATOM     26  C   UNL A   1      37.749  31.013  31.203  1.00  0.00     0.074 A 
ATOM     27  C   UNL A   1      42.216  29.310  35.478  1.00  0.00     0.029 A 
ATOM     28  N   UNL A   1      40.963  29.450  33.642  1.00  0.00    -0.354 N 
ATOM     29  N   UNL A   1      38.707  30.577  31.991  1.00  0.00    -0.248 NA
ATOM     30  C   UNL A   1      36.769  31.882  31.860  1.00  0.00     0.031 C 
ATOM     31  C   UNL A   1      41.130  30.149  35.736  1.00  0.00     0.029 A 
ATOM     32  C   UNL A   1      40.374  30.273  34.579  1.00  0.00     0.049 A 
ATOM     33  H   UNL A   1      40.631  29.308  32.726  1.00  0.00     0.167 HD
ATOM     34  C   UNL A   1      38.489  31.185  33.217  1.00  0.00     0.074 A 
ATOM     35  C   UNL A   1      37.307  32.011  33.064  1.00  0.00     0.031 C 
ATOM     36  C   UNL A   1      39.207  31.091  34.364  1.00  0.00     0.034 A 
BRANCH  23  37
ATOM     37  C   UNL A   1      44.076  27.253  34.182  1.00  0.00     0.023 A 
ATOM     38  C   UNL A   1      45.376  27.762  34.296  1.00  0.00     0.031 A 
ATOM     39  C   UNL A   1      43.807  26.006  34.777  1.00  0.00     0.131 A 
ATOM     40  C   UNL A   1      46.376  26.998  34.909  1.00  0.00     0.055 A 
ATOM     41  C   UNL A   1      44.779  25.302  35.489  1.00  0.00     0.041 A 
ATOM     42  F   UNL A   1      42.593  25.443  34.671  1.00  0.00    -0.206 F 
ATOM     43  C   UNL A   1      46.080  25.792  35.546  1.00  0.00     0.022 A 
BRANCH  40  44
ATOM     44  S   UNL A   1      48.093  27.543  34.728  1.00  0.00     0.124 S 
ATOM     45  O   UNL A   1      48.305  27.368  33.293  1.00  0.00    -0.237 OA
ATOM     46  O   UNL A   1      48.040  28.923  35.195  1.00  0.00    -0.237 OA
ATOM     47  O   UNL A   1      48.838  26.621  35.582  1.00  0.00    -0.744 OA
ENDBRANCH  40  44
ENDBRANCH  23  37
BRANCH  24  48
ATOM     48  C   UNL A   1      36.331  31.196  29.021  1.00  0.00     0.023 A 
ATOM     49  C   UNL A   1      35.918  32.533  29.076  1.00  0.00     0.031 A 
ATOM     50  C   UNL A   1      35.486  30.276  28.373  1.00  0.00     0.131 A 
ATOM     51  C   UNL A   1      34.654  32.903  28.593  1.00  0.00     0.055 A 
ATOM     52  C   UNL A   1      34.252  30.662  27.833  1.00  0.00     0.041 A 
ATOM     53  F   UNL A   1      35.832  28.984  28.274  1.00  0.00    -0.206 F 
ATOM     54  C   UNL A   1      33.819  31.979  27.963  1.00  0.00     0.022 A 
BRANCH  51  55
ATOM     55  S   UNL A   1      34.067  34.579  28.953  1.00  0.00     0.124 S 
ATOM     56  O   UNL A   1      32.651  34.470  28.622  1.00  0.00    -0.237 OA
ATOM     57  O   UNL A   1      34.387  34.712  30.370  1.00  0.00    -0.237 OA
ATOM     58  O   UNL A   1      34.858  35.416  28.053  1.00  0.00    -0.744 OA
ENDBRANCH  51  55
ENDBRANCH  24  48
BRANCH  36  59
ATOM     59  C   UNL A   1      38.759  31.949  35.508  1.00  0.00     0.023 A 
ATOM     60  C   UNL A   1      38.170  31.383  36.645  1.00  0.00     0.031 A 
ATOM     61  C   UNL A   1      38.953  33.340  35.466  1.00  0.00     0.131 A 
ATOM     62  C   UNL A   1      37.740  32.215  37.682  1.00  0.00     0.055 A 
ATOM     63  C   UNL A   1      38.603  34.153  36.541  1.00  0.00     0.041 A 
ATOM     64  F   UNL A   1      39.506  33.924  34.390  1.00  0.00    -0.206 F 
ATOM     65  C   UNL A   1      37.982  33.592  37.654  1.00  0.00     0.022 A 
BRANCH  62  66
ATOM     66  S   UNL A   1      36.766  31.477  39.015  1.00  0.00     0.124 S 
ATOM     67  O   UNL A   1      37.686  31.570  40.145  1.00  0.00    -0.237 OA
ATOM     68  O   UNL A   1      35.598  32.350  39.071  1.00  0.00    -0.237 OA
ATOM     69  O   UNL A   1      36.505  30.121  38.534  1.00  0.00    -0.744 OA
ENDBRANCH  62  66
ENDBRANCH  36  59
ENDBRANCH  10  11
ENDBRANCH   3   5
ENDBRANCH   2   3
ENDBRANCH   1   2
BRANCH   1  70
ATOM     70  C   UNL A   1      37.081  22.702  25.060  1.00  0.00     0.274 C 
BRANCH  70  71
ATOM     71  O   UNL A   1      35.668  22.614  24.707  1.00  0.00    -0.461 OA
BRANCH  71  72
ATOM     72  C   UNL A   1      34.827  23.447  25.374  1.00  0.00     0.317 C 
ATOM     73  O   UNL A   1      34.964  23.579  26.585  1.00  0.00    -0.251 OA
BRANCH  72  74
ATOM     74  C   UNL A   1      33.695  24.166  24.515  1.00  0.00     0.102 C 
ATOM     75  C   UNL A   1      33.974  23.558  23.109  1.00  0.00     0.065 C 
ATOM     76  C   UNL A   1      33.672  25.891  24.308  1.00  0.00     0.012 A 
ATOM     77  C   UNL A   1      33.021  23.853  21.962  1.00  0.00     0.231 C 
ATOM     78  C   UNL A   1      32.627  26.041  22.820  1.00  0.00     0.123 A 
ATOM     79  C   UNL A   1      33.935  27.622  25.339  1.00  0.00     0.009 A 
ATOM     80  O   UNL A   1      32.268  25.044  21.980  1.00  0.00    -0.493 OA
ATOM     81  C   UNL A   1      31.893  27.600  22.415  1.00  0.00     0.047 A 
ATOM     82  C   UNL A   1      33.118  29.127  24.809  1.00  0.00     0.001 A 
ATOM     83  C   UNL A   1      32.128  29.066  23.377  1.00  0.00     0.004 A 
BRANCH  74  84
ATOM     84  C   UNL A   1      32.243  23.615  25.068  1.00  0.00     0.011 C 
ATOM     85  C   UNL A   1      32.018  22.106  25.303  1.00  0.00     0.005 C 
ATOM     86  C   UNL A   1      31.695  24.166  26.405  1.00  0.00     0.005 C 
ATOM     87  C   UNL A   1      30.657  21.994  25.964  1.00  0.00     0.000 C 
ATOM     88  C   UNL A   1      30.525  23.256  26.795  1.00  0.00     0.000 C 
ENDBRANCH  74  84
ENDBRANCH  72  74
ENDBRANCH  71  72
ENDBRANCH  70  71
ENDBRANCH   1  70
TORSDOF 15
ENDMDL
MODEL 2
REMARK VINA RESULT:     -12.5      5.293     10.583
REMARK SMILES O=C(OCCOC(=O)[C@]1(C2CCCC2)CCOc2ccccc21)c1ccc(-c2c3nc(c(-c4cc(S(=O)(=O)[O-])ccc4F)c4ccc([nH]4)c(-c4cc(S(=O)(=O)[O-])ccc4F)c4nc(c(-c5cc(S(=O)(=O)[O-])ccc5F)c5ccc2[nH]5)C=C4)C=C3)cc1
REMARK SMILES IDX 4 1 3 2 2 3 1 4 24 5 25 6 86 7 26 8 85 9 27 10 28 11 29 12
REMARK SMILES IDX 79 13 30 14 84 15 78 16 80 17 31 18 83 19 77 20 76 21 32 23
REMARK SMILES IDX 64 24 44 25 63 26 45 27 48 28 62 29 81 30 46 31 47 32 61 34
REMARK SMILES IDX 82 35 49 36 33 37 34 38 42 39 35 40 41 41 43 42 40 43 36 44
REMARK SMILES IDX 37 45 38 46 39 47 65 48 66 49 74 50 67 51 73 52 75 53 72 54
REMARK SMILES IDX 68 55 69 56 70 57 71 58 50 59 51 60 59 61 52 62 58 63 60 64
REMARK SMILES IDX 57 65 53 66 54 67 55 68 56 69 5 70 6 71 7 72 8 73 9 74 15 75
REMARK SMILES IDX 23 76 16 77 18 78 22 79 17 80 19 81 21 82 20 83 10 84 11 85
REMARK SMILES IDX 14 86 12 87 13 88
REMARK H PARENT 80 22 48 33
REMARK Flexibility Score: inf
ROOT
ATOM      1  C   UNL A   1      33.123  30.425  26.950  1.00  0.00     0.275 C 
ENDROOT
BRANCH   1   2
ATOM      2  O   UNL A   1      33.054  31.685  27.632  1.00  0.00    -0.458 OA
BRANCH   2   3
ATOM      3  C   UNL A   1      34.025  32.267  28.374  1.00  0.00     0.338 C 
ATOM      4  O   UNL A   1      33.953  33.465  28.635  1.00  0.00    -0.246 OA
BRANCH   3   5
ATOM      5  C   UNL A   1      35.271  31.547  28.774  1.00  0.00     0.060 A 
ATOM      6  C   UNL A   1      36.351  30.694  27.633  1.00  0.00     0.016 A 
ATOM      7  C   UNL A   1      35.656  31.679  30.500  1.00  0.00     0.016 A 
ATOM      8  C   UNL A   1      37.874  29.993  28.030  1.00  0.00     0.010 A 
ATOM      9  C   UNL A   1      37.219  30.979  31.069  1.00  0.00     0.010 A 
ATOM     10  C   UNL A   1      38.418  30.052  29.721  1.00  0.00    -0.014 A 
BRANCH  10  11
ATOM     11  C   UNL A   1      39.833  29.348  29.592  1.00  0.00     0.031 A 
ATOM     12  C   UNL A   1      41.071  30.162  29.709  1.00  0.00     0.074 A 
ATOM     13  C   UNL A   1      39.996  28.015  29.445  1.00  0.00     0.049 A 
ATOM     14  N   UNL A   1      42.141  30.110  28.977  1.00  0.00    -0.248 NA
ATOM     15  C   UNL A   1      41.053  31.242  30.701  1.00  0.00     0.031 C 
ATOM     16  C   UNL A   1      39.010  26.985  29.734  1.00  0.00     0.029 A 
ATOM     17  N   UNL A   1      41.025  27.312  28.865  1.00  0.00    -0.354 N 
ATOM     18  C   UNL A   1      42.824  31.280  29.268  1.00  0.00     0.074 A 
ATOM     19  C   UNL A   1      42.041  32.002  30.247  1.00  0.00     0.031 C 
ATOM     20  C   UNL A   1      39.362  25.836  29.135  1.00  0.00     0.029 A 
ATOM     21  C   UNL A   1      40.608  26.064  28.431  1.00  0.00     0.049 A 
ATOM     22  H   UNL A   1      41.943  27.653  28.770  1.00  0.00     0.167 HD
ATOM     23  C   UNL A   1      43.990  31.678  28.715  1.00  0.00     0.034 A 
ATOM     24  C   UNL A   1      41.142  25.248  27.505  1.00  0.00     0.034 A 
ATOM     25  C   UNL A   1      44.790  30.769  27.935  1.00  0.00     0.049 A 
ATOM     26  C   UNL A   1      42.466  25.668  26.927  1.00  0.00     0.074 A 
ATOM     27  C   UNL A   1      46.083  30.934  27.483  1.00  0.00     0.029 A 
ATOM     28  N   UNL A   1      44.386  29.494  27.557  1.00  0.00    -0.354 N 
ATOM     29  N   UNL A   1      43.101  26.806  27.091  1.00  0.00    -0.248 NA
ATOM     30  C   UNL A   1      43.181  24.684  26.111  1.00  0.00     0.031 C 
ATOM     31  C   UNL A   1      46.444  29.776  26.790  1.00  0.00     0.029 A 
ATOM     32  C   UNL A   1      45.405  28.861  26.875  1.00  0.00     0.049 A 
ATOM     33  H   UNL A   1      43.504  29.101  27.747  1.00  0.00     0.167 HD
ATOM     34  C   UNL A   1      44.328  26.644  26.467  1.00  0.00     0.074 A 
ATOM     35  C   UNL A   1      44.337  25.301  25.919  1.00  0.00     0.031 C 
ATOM     36  C   UNL A   1      45.365  27.512  26.369  1.00  0.00     0.034 A 
BRANCH  23  37
ATOM     37  C   UNL A   1      44.455  33.091  28.919  1.00  0.00     0.023 A 
ATOM     38  C   UNL A   1      43.958  34.168  28.174  1.00  0.00     0.031 A 
ATOM     39  C   UNL A   1      45.434  33.367  29.892  1.00  0.00     0.131 A 
ATOM     40  C   UNL A   1      44.496  35.449  28.349  1.00  0.00     0.055 A 
ATOM     41  C   UNL A   1      45.882  34.665  30.144  1.00  0.00     0.041 A 
ATOM     42  F   UNL A   1      45.982  32.376  30.615  1.00  0.00    -0.206 F 
ATOM     43  C   UNL A   1      45.422  35.716  29.358  1.00  0.00     0.022 A 
BRANCH  40  44
ATOM     44  S   UNL A   1      44.067  36.723  27.135  1.00  0.00     0.124 S 
ATOM     45  O   UNL A   1      43.113  36.010  26.289  1.00  0.00    -0.237 OA
ATOM     46  O   UNL A   1      43.507  37.780  27.968  1.00  0.00    -0.237 OA
ATOM     47  O   UNL A   1      45.345  37.036  26.501  1.00  0.00    -0.744 OA
ENDBRANCH  40  44
ENDBRANCH  23  37
BRANCH  24  48
ATOM     48  C   UNL A   1      40.478  23.985  27.075  1.00  0.00     0.023 A 
ATOM     49  C   UNL A   1      41.189  22.778  27.101  1.00  0.00     0.031 A 
ATOM     50  C   UNL A   1      39.178  23.966  26.537  1.00  0.00     0.131 A 
ATOM     51  C   UNL A   1      40.649  21.626  26.508  1.00  0.00     0.055 A 
ATOM     52  C   UNL A   1      38.616  22.798  26.005  1.00  0.00     0.041 A 
ATOM     53  F   UNL A   1      38.439  25.085  26.497  1.00  0.00    -0.206 F 
ATOM     54  C   UNL A   1      39.363  21.624  25.968  1.00  0.00     0.022 A 
BRANCH  51  55
ATOM     55  S   UNL A   1      41.730  20.184  26.322  1.00  0.00     0.124 S 
ATOM     56  O   UNL A   1      42.761  20.705  25.431  1.00  0.00    -0.237 OA
ATOM     57  O   UNL A   1      42.140  19.935  27.699  1.00  0.00    -0.237 OA
ATOM     58  O   UNL A   1      40.850  19.173  25.739  1.00  0.00    -0.744 OA
ENDBRANCH  51  55
ENDBRANCH  24  48
BRANCH  36  59
ATOM     59  C   UNL A   1      46.604  27.003  25.696  1.00  0.00     0.023 A 
ATOM     60  C   UNL A   1      47.000  27.496  24.447  1.00  0.00     0.031 A 
ATOM     61  C   UNL A   1      47.406  26.039  26.329  1.00  0.00     0.131 A 
ATOM     62  C   UNL A   1      48.146  26.980  23.837  1.00  0.00     0.055 A 
ATOM     63  C   UNL A   1      48.595  25.595  25.755  1.00  0.00     0.041 A 
ATOM     64  F   UNL A   1      47.058  25.532  27.524  1.00  0.00    -0.206 F 
ATOM     65  C   UNL A   1      48.964  26.058  24.495  1.00  0.00     0.022 A 
BRANCH  62  66
ATOM     66  S   UNL A   1      48.486  27.459  22.126  1.00  0.00     0.124 S 
ATOM     67  O   UNL A   1      48.660  26.161  21.481  1.00  0.00    -0.237 OA
ATOM     68  O   UNL A   1      47.281  28.197  21.761  1.00  0.00    -0.237 OA
ATOM     69  O   UNL A   1      49.700  28.267  22.235  1.00  0.00    -0.744 OA
ENDBRANCH  62  66
ENDBRANCH  36  59
ENDBRANCH  10  11
ENDBRANCH   3   5
ENDBRANCH   2   3
ENDBRANCH   1   2
BRANCH   1  70
ATOM     70  C   UNL A   1      31.770  29.943  26.350  1.00  0.00     0.274 C 
BRANCH  70  71
ATOM     71  O   UNL A   1      31.391  28.571  26.669  1.00  0.00    -0.461 OA
BRANCH  71  72
ATOM     72  C   UNL A   1      32.358  27.628  26.522  1.00  0.00     0.317 C 
ATOM     73  O   UNL A   1      33.337  27.666  27.260  1.00  0.00    -0.251 OA
BRANCH  72  74
ATOM     74  C   UNL A   1      32.150  26.557  25.362  1.00  0.00     0.102 C 
ATOM     75  C   UNL A   1      30.596  26.453  25.346  1.00  0.00     0.065 C 
ATOM     76  C   UNL A   1      32.749  24.934  25.507  1.00  0.00     0.012 A 
ATOM     77  C   UNL A   1      29.911  25.630  24.267  1.00  0.00     0.231 C 
ATOM     78  C   UNL A   1      31.720  24.078  24.268  1.00  0.00     0.123 A 
ATOM     79  C   UNL A   1      34.378  23.887  26.127  1.00  0.00     0.009 A 
ATOM     80  O   UNL A   1      30.606  24.560  23.670  1.00  0.00    -0.493 OA
ATOM     81  C   UNL A   1      32.208  22.487  23.666  1.00  0.00     0.047 A 
ATOM     82  C   UNL A   1      34.749  22.284  25.418  1.00  0.00     0.001 A 
ATOM     83  C   UNL A   1      33.662  21.642  24.216  1.00  0.00     0.004 A 
BRANCH  74  84
ATOM     84  C   UNL A   1      32.662  27.256  23.959  1.00  0.00     0.011 C 
ATOM     85  C   UNL A   1      31.756  28.256  23.207  1.00  0.00     0.005 C 
ATOM     86  C   UNL A   1      33.981  28.063  23.965  1.00  0.00     0.005 C 
ATOM     87  C   UNL A   1      32.608  28.814  22.083  1.00  0.00     0.000 C 
ATOM     88  C   UNL A   1      34.019  28.830  22.639  1.00  0.00     0.000 C 
ENDBRANCH  74  84
ENDBRANCH  72  74
ENDBRANCH  71  72
ENDBRANCH  70  71
ENDBRANCH   1  70
TORSDOF 15
ENDMDL
MODEL 3
REMARK VINA RESULT:     -11.6      4.144     12.848
REMARK SMILES O=C(OCCOC(=O)[C@]1(C2CCCC2)CCOc2ccccc21)c1ccc(-c2c3nc(c(-c4cc(S(=O)(=O)[O-])ccc4F)c4ccc([nH]4)c(-c4cc(S(=O)(=O)[O-])ccc4F)c4nc(c(-c5cc(S(=O)(=O)[O-])ccc5F)c5ccc2[nH]5)C=C4)C=C3)cc1
REMARK SMILES IDX 4 1 3 2 2 3 1 4 24 5 25 6 86 7 26 8 85 9 27 10 28 11 29 12
REMARK SMILES IDX 79 13 30 14 84 15 78 16 80 17 31 18 83 19 77 20 76 21 32 23
REMARK SMILES IDX 64 24 44 25 63 26 45 27 48 28 62 29 81 30 46 31 47 32 61 34
REMARK SMILES IDX 82 35 49 36 33 37 34 38 42 39 35 40 41 41 43 42 40 43 36 44
REMARK SMILES IDX 37 45 38 46 39 47 65 48 66 49 74 50 67 51 73 52 75 53 72 54
REMARK SMILES IDX 68 55 69 56 70 57 71 58 50 59 51 60 59 61 52 62 58 63 60 64
REMARK SMILES IDX 57 65 53 66 54 67 55 68 56 69 5 70 6 71 7 72 8 73 9 74 15 75
REMARK SMILES IDX 23 76 16 77 18 78 22 79 17 80 19 81 21 82 20 83 10 84 11 85
REMARK SMILES IDX 14 86 12 87 13 88
REMARK H PARENT 80 22 48 33
REMARK Flexibility Score: inf
ROOT
ATOM      1  C   UNL A   1      46.593  25.017  39.021  1.00  0.00     0.275 C 
ENDROOT
BRANCH   1   2
ATOM      2  O   UNL A   1      45.309  24.777  38.427  1.00  0.00    -0.458 OA
BRANCH   2   3
ATOM      3  C   UNL A   1      45.050  24.485  37.131  1.00  0.00     0.338 C 
ATOM      4  O   UNL A   1      45.235  23.343  36.718  1.00  0.00    -0.246 OA
BRANCH   3   5
ATOM      5  C   UNL A   1      44.685  25.530  36.128  1.00  0.00     0.060 A 
ATOM      6  C   UNL A   1      43.074  25.676  35.366  1.00  0.00     0.016 A 
ATOM      7  C   UNL A   1      45.977  26.702  35.806  1.00  0.00     0.016 A 
ATOM      8  C   UNL A   1      42.568  26.958  34.333  1.00  0.00     0.010 A 
ATOM      9  C   UNL A   1      45.597  28.099  34.729  1.00  0.00     0.010 A 
ATOM     10  C   UNL A   1      43.741  28.226  33.920  1.00  0.00    -0.014 A 
BRANCH  10  11
ATOM     11  C   UNL A   1      42.840  29.169  33.019  1.00  0.00     0.031 A 
ATOM     12  C   UNL A   1      41.959  30.178  33.664  1.00  0.00     0.074 A 
ATOM     13  C   UNL A   1      42.867  29.164  31.668  1.00  0.00     0.049 A 
ATOM     14  N   UNL A   1      40.728  30.473  33.378  1.00  0.00    -0.248 NA
ATOM     15  C   UNL A   1      42.498  30.855  34.848  1.00  0.00     0.031 C 
ATOM     16  C   UNL A   1      43.916  28.610  30.825  1.00  0.00     0.029 A 
ATOM     17  N   UNL A   1      41.891  29.518  30.766  1.00  0.00    -0.354 N 
ATOM     18  C   UNL A   1      40.277  31.197  34.470  1.00  0.00     0.074 A 
ATOM     19  C   UNL A   1      41.376  31.294  35.405  1.00  0.00     0.031 C 
ATOM     20  C   UNL A   1      43.455  28.443  29.576  1.00  0.00     0.029 A 
ATOM     21  C   UNL A   1      42.077  28.892  29.544  1.00  0.00     0.049 A 
ATOM     22  H   UNL A   1      41.154  30.138  30.964  1.00  0.00     0.167 HD
ATOM     23  C   UNL A   1      39.032  31.692  34.635  1.00  0.00     0.034 A 
ATOM     24  C   UNL A   1      41.197  28.645  28.557  1.00  0.00     0.034 A 
ATOM     25  C   UNL A   1      38.100  31.738  33.539  1.00  0.00     0.049 A 
ATOM     26  C   UNL A   1      39.826  29.240  28.719  1.00  0.00     0.074 A 
ATOM     27  C   UNL A   1      36.886  32.390  33.469  1.00  0.00     0.029 A 
ATOM     28  N   UNL A   1      38.323  31.159  32.294  1.00  0.00    -0.354 N 
ATOM     29  N   UNL A   1      39.319  29.843  29.771  1.00  0.00    -0.248 NA
ATOM     30  C   UNL A   1      38.937  29.198  27.556  1.00  0.00     0.031 C 
ATOM     31  C   UNL A   1      36.353  32.167  32.198  1.00  0.00     0.029 A 
ATOM     32  C   UNL A   1      37.267  31.438  31.450  1.00  0.00     0.049 A 
ATOM     33  H   UNL A   1      39.115  30.629  32.051  1.00  0.00     0.167 HD
ATOM     34  C   UNL A   1      38.083  30.324  29.369  1.00  0.00     0.074 A 
ATOM     35  C   UNL A   1      37.921  29.934  27.981  1.00  0.00     0.031 C 
ATOM     36  C   UNL A   1      37.169  31.041  30.068  1.00  0.00     0.034 A 
BRANCH  23  37
ATOM     37  C   UNL A   1      38.617  32.202  35.986  1.00  0.00     0.023 A 
ATOM     38  C   UNL A   1      38.054  31.376  36.967  1.00  0.00     0.031 A 
ATOM     39  C   UNL A   1      38.788  33.564  36.297  1.00  0.00     0.131 A 
ATOM     40  C   UNL A   1      37.605  31.927  38.174  1.00  0.00     0.055 A 
ATOM     41  C   UNL A   1      38.446  34.085  37.546  1.00  0.00     0.041 A 
ATOM     42  F   UNL A   1      39.285  34.418  35.388  1.00  0.00    -0.206 F 
ATOM     43  C   UNL A   1      37.836  33.266  38.490  1.00  0.00     0.022 A 
BRANCH  40  44
ATOM     44  S   UNL A   1      36.585  30.891  39.253  1.00  0.00     0.124 S 
ATOM     45  O   UNL A   1      35.368  31.692  39.361  1.00  0.00    -0.237 OA
ATOM     46  O   UNL A   1      36.463  29.656  38.487  1.00  0.00    -0.237 OA
ATOM     47  O   UNL A   1      37.374  30.792  40.479  1.00  0.00    -0.744 OA
ENDBRANCH  40  44
ENDBRANCH  23  37
BRANCH  24  48
ATOM     48  C   UNL A   1      41.553  27.840  27.354  1.00  0.00     0.023 A 
ATOM     49  C   UNL A   1      41.420  26.445  27.383  1.00  0.00     0.031 A 
ATOM     50  C   UNL A   1      42.125  28.418  26.206  1.00  0.00     0.131 A 
ATOM     51  C   UNL A   1      41.942  25.664  26.342  1.00  0.00     0.055 A 
ATOM     52  C   UNL A   1      42.586  27.638  25.138  1.00  0.00     0.041 A 
ATOM     53  F   UNL A   1      42.266  29.749  26.110  1.00  0.00    -0.206 F 
ATOM     54  C   UNL A   1      42.517  26.249  25.214  1.00  0.00     0.022 A 
BRANCH  51  55
ATOM     55  S   UNL A   1      41.994  23.867  26.576  1.00  0.00     0.124 S 
ATOM     56  O   UNL A   1      42.845  23.750  27.754  1.00  0.00    -0.237 OA
ATOM     57  O   UNL A   1      40.583  23.549  26.769  1.00  0.00    -0.237 OA
ATOM     58  O   UNL A   1      42.578  23.379  25.328  1.00  0.00    -0.744 OA
ENDBRANCH  51  55
ENDBRANCH  24  48
BRANCH  36  59
ATOM     59  C   UNL A   1      35.953  31.491  29.317  1.00  0.00     0.023 A 
ATOM     60  C   UNL A   1      35.572  32.838  29.302  1.00  0.00     0.031 A 
ATOM     61  C   UNL A   1      35.189  30.563  28.589  1.00  0.00     0.131 A 
ATOM     62  C   UNL A   1      34.417  33.218  28.614  1.00  0.00     0.055 A 
ATOM     63  C   UNL A   1      34.091  30.963  27.832  1.00  0.00     0.041 A 
ATOM     64  F   UNL A   1      35.514  29.259  28.583  1.00  0.00    -0.206 F 
ATOM     65  C   UNL A   1      33.693  32.297  27.852  1.00  0.00     0.022 A 
BRANCH  62  66
ATOM     66  S   UNL A   1      33.824  34.914  28.822  1.00  0.00     0.124 S 
ATOM     67  O   UNL A   1      32.444  34.807  28.360  1.00  0.00    -0.237 OA
ATOM     68  O   UNL A   1      34.002  35.135  30.253  1.00  0.00    -0.237 OA
ATOM     69  O   UNL A   1      34.711  35.692  27.958  1.00  0.00    -0.744 OA
ENDBRANCH  62  66
ENDBRANCH  36  59
ENDBRANCH  10  11
ENDBRANCH   3   5
ENDBRANCH   2   3
ENDBRANCH   1   2
BRANCH   1  70
ATOM     70  C   UNL A   1      47.279  23.746  39.602  1.00  0.00     0.274 C 
BRANCH  70  71
ATOM     71  O   UNL A   1      48.129  23.007  38.674  1.00  0.00    -0.461 OA
BRANCH  71  72
ATOM     72  C   UNL A   1      48.771  21.922  39.178  1.00  0.00     0.317 C 
ATOM     73  O   UNL A   1      48.923  21.836  40.392  1.00  0.00    -0.251 OA
BRANCH  72  74
ATOM     74  C   UNL A   1      49.311  20.852  38.130  1.00  0.00     0.102 C 
ATOM     75  C   UNL A   1      50.389  20.129  38.989  1.00  0.00     0.065 C 
ATOM     76  C   UNL A   1      50.100  21.339  36.661  1.00  0.00     0.012 A 
ATOM     77  C   UNL A   1      51.088  18.898  38.434  1.00  0.00     0.231 C 
ATOM     78  C   UNL A   1      50.999  19.810  36.235  1.00  0.00     0.123 A 
ATOM     79  C   UNL A   1      49.959  22.690  35.149  1.00  0.00     0.009 A 
ATOM     80  O   UNL A   1      51.208  18.743  37.040  1.00  0.00    -0.493 OA
ATOM     81  C   UNL A   1      51.616  19.581  34.592  1.00  0.00     0.047 A 
ATOM     82  C   UNL A   1      50.628  22.313  33.530  1.00  0.00     0.001 A 
ATOM     83  C   UNL A   1      51.426  20.780  33.305  1.00  0.00     0.004 A 
BRANCH  74  84
ATOM     84  C   UNL A   1      48.072  19.809  37.820  1.00  0.00     0.011 C 
ATOM     85  C   UNL A   1      47.302  19.143  38.982  1.00  0.00     0.005 C 
ATOM     86  C   UNL A   1      46.877  20.300  36.971  1.00  0.00     0.005 C 
ATOM     87  C   UNL A   1      46.146  18.403  38.335  1.00  0.00     0.000 C 
ATOM     88  C   UNL A   1      45.779  19.242  37.125  1.00  0.00     0.000 C 
ENDBRANCH  74  84
ENDBRANCH  72  74
ENDBRANCH  71  72
ENDBRANCH  70  71
ENDBRANCH   1  70
TORSDOF 15
ENDMDL
