MODEL 1
REMARK VINA RESULT:     -11.6      0.000      0.000
REMARK SMILES Cn1ccnc(N[C@H]2C=C[C@H](C(=O)OCCOC(=O)c3ccc(-c4c5nc(c(-c6cc(S(=O)(=O)[O-])ccc6F)c6ccc([nH]6)c(-c6cc(S(=O)(=O)[O-])ccc6F)c6nc(c(-c7cc(S(=O)(=O)[O-])ccc7F)c7ccc4[nH]7)C=C6)C=C5)cc3)C2)c1=O
REMARK SMILES IDX 16 1 15 2 14 3 12 4 13 5 11 6 8 7 9 8 83 9 10 10 7 11 6 13
REMARK SMILES IDX 1 14 2 15 3 16 84 17 4 18 85 19 5 20 17 21 18 22 19 23 20 24
REMARK SMILES IDX 21 25 82 26 22 27 81 28 23 29 24 30 25 31 75 32 26 33 80 34
REMARK SMILES IDX 74 35 76 36 27 37 79 38 73 39 72 40 28 42 60 43 40 44 59 45
REMARK SMILES IDX 41 46 44 47 58 48 77 49 42 50 43 51 57 53 78 54 45 55 29 56
REMARK SMILES IDX 30 57 38 58 31 59 37 60 39 61 36 62 32 63 33 64 34 65 35 66
REMARK SMILES IDX 61 67 62 68 70 69 63 70 69 71 71 72 68 73 64 74 65 75 66 76
REMARK SMILES IDX 67 77 46 78 47 79 55 80 48 81 54 82 56 83 53 84 49 85 50 86
REMARK SMILES IDX 51 87 52 88
REMARK H PARENT 7 12 76 41 44 52
REMARK Flexibility Score: inf
ROOT
ATOM      1  C   UNL A   1      36.557  20.295  24.957  1.00  0.00     0.275 C 
ENDROOT
BRANCH   1   2
ATOM      2  C   UNL A   1      35.087  20.682  25.131  1.00  0.00     0.274 C 
BRANCH   2   3
ATOM      3  O   UNL A   1      34.945  21.971  25.756  1.00  0.00    -0.462 OA
BRANCH   3   4
ATOM      4  C   UNL A   1      33.989  22.794  25.239  1.00  0.00     0.312 C 
ATOM      5  O   UNL A   1      32.815  22.804  25.589  1.00  0.00    -0.252 OA
BRANCH   4   6
ATOM      6  C   UNL A   1      34.570  23.679  24.144  1.00  0.00     0.124 C 
ATOM      7  C   UNL A   1      32.831  25.100  23.200  1.00  0.00     0.105 C 
ATOM      8  C   UNL A   1      33.150  23.969  22.286  1.00  0.00    -0.006 C 
ATOM      9  C   UNL A   1      33.996  25.104  24.195  1.00  0.00     0.048 C 
ATOM     10  C   UNL A   1      34.102  23.181  22.804  1.00  0.00    -0.014 C 
BRANCH   7  11
ATOM     11  N   UNL A   1      32.622  26.323  22.477  1.00  0.00    -0.359 N 
ATOM     12  H   UNL A   1      33.070  26.356  21.600  1.00  0.00     0.162 HD
BRANCH  11  13
ATOM     13  C   UNL A   1      31.908  27.456  22.792  1.00  0.00     0.193 A 
ATOM     14  C   UNL A   1      31.590  30.182  25.449  1.00  0.00     0.153 C 
ATOM     15  N   UNL A   1      31.351  29.355  24.288  1.00  0.00    -0.314 N 
ATOM     16  C   UNL A   1      30.151  29.395  23.620  1.00  0.00     0.109 A 
ATOM     17  C   UNL A   1      32.363  28.505  23.855  1.00  0.00     0.293 A 
ATOM     18  C   UNL A   1      29.923  28.587  22.580  1.00  0.00     0.131 A 
ATOM     19  O   UNL A   1      33.514  28.552  24.267  1.00  0.00    -0.265 OA
ATOM     20  N   UNL A   1      30.766  27.593  22.159  1.00  0.00    -0.233 NA
ENDBRANCH  11  13
ENDBRANCH   7  11
ENDBRANCH   4   6
ENDBRANCH   3   4
ENDBRANCH   2   3
ENDBRANCH   1   2
BRANCH   1  21
ATOM     21  O   UNL A   1      37.433  21.416  25.177  1.00  0.00    -0.458 OA
BRANCH  21  22
ATOM     22  C   UNL A   1      38.628  21.095  25.721  1.00  0.00     0.338 C 
ATOM     23  O   UNL A   1      39.242  20.050  25.585  1.00  0.00    -0.246 OA
BRANCH  22  24
ATOM     24  C   UNL A   1      39.178  22.235  26.466  1.00  0.00     0.060 A 
ATOM     25  C   UNL A   1      38.715  23.507  26.143  1.00  0.00     0.016 A 
ATOM     26  C   UNL A   1      40.278  22.079  27.305  1.00  0.00     0.016 A 
ATOM     27  C   UNL A   1      39.440  24.629  26.522  1.00  0.00     0.010 A 
ATOM     28  C   UNL A   1      40.925  23.220  27.798  1.00  0.00     0.010 A 
ATOM     29  C   UNL A   1      40.544  24.508  27.375  1.00  0.00    -0.014 A 
BRANCH  29  30
ATOM     30  C   UNL A   1      41.317  25.714  27.796  1.00  0.00     0.031 A 
ATOM     31  C   UNL A   1      40.650  26.782  28.625  1.00  0.00     0.074 A 
ATOM     32  C   UNL A   1      42.611  25.861  27.441  1.00  0.00     0.049 A 
ATOM     33  N   UNL A   1      41.036  28.008  28.868  1.00  0.00    -0.248 NA
ATOM     34  C   UNL A   1      39.365  26.426  29.244  1.00  0.00     0.031 C 
ATOM     35  C   UNL A   1      43.410  24.875  26.709  1.00  0.00     0.029 A 
ATOM     36  N   UNL A   1      43.485  26.901  27.644  1.00  0.00    -0.354 N 
ATOM     37  C   UNL A   1      40.012  28.592  29.609  1.00  0.00     0.074 A 
ATOM     38  C   UNL A   1      38.985  27.583  29.766  1.00  0.00     0.031 C 
ATOM     39  C   UNL A   1      44.656  25.342  26.554  1.00  0.00     0.029 A 
ATOM     40  C   UNL A   1      44.717  26.707  27.059  1.00  0.00     0.049 A 
ATOM     41  H   UNL A   1      43.254  27.709  28.157  1.00  0.00     0.167 HD
ATOM     42  C   UNL A   1      39.939  29.854  30.102  1.00  0.00     0.034 A 
ATOM     43  C   UNL A   1      45.755  27.548  26.882  1.00  0.00     0.034 A 
ATOM     44  C   UNL A   1      41.001  30.825  29.971  1.00  0.00     0.049 A 
ATOM     45  C   UNL A   1      45.630  28.964  27.377  1.00  0.00     0.074 A 
ATOM     46  C   UNL A   1      41.041  32.130  30.431  1.00  0.00     0.029 A 
ATOM     47  N   UNL A   1      42.220  30.590  29.344  1.00  0.00    -0.354 N 
ATOM     48  N   UNL A   1      44.621  29.535  27.992  1.00  0.00    -0.248 NA
ATOM     49  C   UNL A   1      46.776  29.852  27.145  1.00  0.00     0.031 C 
ATOM     50  C   UNL A   1      42.252  32.702  30.028  1.00  0.00     0.029 A 
ATOM     51  C   UNL A   1      43.005  31.731  29.388  1.00  0.00     0.049 A 
ATOM     52  H   UNL A   1      42.486  29.739  28.929  1.00  0.00     0.167 HD
ATOM     53  C   UNL A   1      45.025  30.841  28.250  1.00  0.00     0.074 A 
ATOM     54  C   UNL A   1      46.370  30.971  27.727  1.00  0.00     0.031 C 
ATOM     55  C   UNL A   1      44.349  31.841  28.870  1.00  0.00     0.034 A 
BRANCH  42  56
ATOM     56  C   UNL A   1      38.646  30.277  30.764  1.00  0.00     0.023 A 
ATOM     57  C   UNL A   1      37.607  30.905  30.057  1.00  0.00     0.031 A 
ATOM     58  C   UNL A   1      38.465  30.067  32.145  1.00  0.00     0.131 A 
ATOM     59  C   UNL A   1      36.471  31.365  30.743  1.00  0.00     0.055 A 
ATOM     60  C   UNL A   1      37.297  30.451  32.805  1.00  0.00     0.041 A 
ATOM     61  F   UNL A   1      39.430  29.493  32.882  1.00  0.00    -0.206 F 
ATOM     62  C   UNL A   1      36.297  31.119  32.107  1.00  0.00     0.022 A 
BRANCH  59  63
ATOM     63  S   UNL A   1      35.291  32.421  29.858  1.00  0.00     0.124 S 
ATOM     64  O   UNL A   1      34.329  32.737  30.912  1.00  0.00    -0.237 OA
ATOM     65  O   UNL A   1      36.130  33.526  29.408  1.00  0.00    -0.237 OA
ATOM     66  O   UNL A   1      34.780  31.553  28.799  1.00  0.00    -0.744 OA
ENDBRANCH  59  63
ENDBRANCH  42  56
BRANCH  43  67
ATOM     67  C   UNL A   1      46.966  27.099  26.134  1.00  0.00     0.023 A 
ATOM     68  C   UNL A   1      48.035  26.475  26.792  1.00  0.00     0.031 A 
ATOM     69  C   UNL A   1      47.083  27.316  24.747  1.00  0.00     0.131 A 
ATOM     70  C   UNL A   1      49.189  26.123  26.073  1.00  0.00     0.055 A 
ATOM     71  C   UNL A   1      48.205  26.905  24.025  1.00  0.00     0.041 A 
ATOM     72  F   UNL A   1      46.092  27.913  24.065  1.00  0.00    -0.206 F 
ATOM     73  C   UNL A   1      49.273  26.316  24.692  1.00  0.00     0.022 A 
BRANCH  70  74
ATOM     74  S   UNL A   1      50.621  25.489  26.987  1.00  0.00     0.124 S 
ATOM     75  O   UNL A   1      50.984  26.641  27.804  1.00  0.00    -0.237 OA
ATOM     76  O   UNL A   1      50.047  24.351  27.699  1.00  0.00    -0.237 OA
ATOM     77  O   UNL A   1      51.573  25.146  25.933  1.00  0.00    -0.744 OA
ENDBRANCH  70  74
ENDBRANCH  43  67
BRANCH  55  78
ATOM     78  C   UNL A   1      45.087  33.136  29.090  1.00  0.00     0.023 A 
ATOM     79  C   UNL A   1      45.086  34.169  28.137  1.00  0.00     0.031 A 
ATOM     80  C   UNL A   1      45.797  33.337  30.287  1.00  0.00     0.131 A 
ATOM     81  C   UNL A   1      45.818  35.341  28.381  1.00  0.00     0.055 A 
ATOM     82  C   UNL A   1      46.478  34.526  30.547  1.00  0.00     0.041 A 
ATOM     83  F   UNL A   1      45.833  32.380  31.229  1.00  0.00    -0.206 F 
ATOM     84  C   UNL A   1      46.499  35.532  29.586  1.00  0.00     0.022 A 
BRANCH  81  85
ATOM     85  S   UNL A   1      45.926  36.592  27.072  1.00  0.00     0.124 S 
ATOM     86  O   UNL A   1      44.557  37.091  27.015  1.00  0.00    -0.237 OA
ATOM     87  O   UNL A   1      46.920  37.518  27.604  1.00  0.00    -0.237 OA
ATOM     88  O   UNL A   1      46.358  35.828  25.902  1.00  0.00    -0.744 OA
ENDBRANCH  81  85
ENDBRANCH  55  78
ENDBRANCH  29  30
ENDBRANCH  22  24
ENDBRANCH  21  22
ENDBRANCH   1  21
TORSDOF 16
ENDMDL
MODEL 2
REMARK VINA RESULT:     -11.6      1.861      2.320
REMARK SMILES Cn1ccnc(N[C@H]2C=C[C@H](C(=O)OCCOC(=O)c3ccc(-c4c5nc(c(-c6cc(S(=O)(=O)[O-])ccc6F)c6ccc([nH]6)c(-c6cc(S(=O)(=O)[O-])ccc6F)c6nc(c(-c7cc(S(=O)(=O)[O-])ccc7F)c7ccc4[nH]7)C=C6)C=C5)cc3)C2)c1=O
REMARK SMILES IDX 16 1 15 2 14 3 12 4 13 5 11 6 8 7 9 8 83 9 10 10 7 11 6 13
REMARK SMILES IDX 1 14 2 15 3 16 84 17 4 18 85 19 5 20 17 21 18 22 19 23 20 24
REMARK SMILES IDX 21 25 82 26 22 27 81 28 23 29 24 30 25 31 75 32 26 33 80 34
REMARK SMILES IDX 74 35 76 36 27 37 79 38 73 39 72 40 28 42 60 43 40 44 59 45
REMARK SMILES IDX 41 46 44 47 58 48 77 49 42 50 43 51 57 53 78 54 45 55 29 56
REMARK SMILES IDX 30 57 38 58 31 59 37 60 39 61 36 62 32 63 33 64 34 65 35 66
REMARK SMILES IDX 61 67 62 68 70 69 63 70 69 71 71 72 68 73 64 74 65 75 66 76
REMARK SMILES IDX 67 77 46 78 47 79 55 80 48 81 54 82 56 83 53 84 49 85 50 86
REMARK SMILES IDX 51 87 52 88
REMARK H PARENT 7 12 76 41 44 52
REMARK Flexibility Score: inf
ROOT
ATOM      1  C   UNL A   1      37.332  20.805  24.751  1.00  0.00     0.275 C 
ENDROOT
BRANCH   1   2
ATOM      2  C   UNL A   1      35.867  20.440  24.997  1.00  0.00     0.274 C 
BRANCH   2   3
ATOM      3  O   UNL A   1      35.071  21.601  25.300  1.00  0.00    -0.462 OA
BRANCH   3   4
ATOM      4  C   UNL A   1      34.021  21.412  26.148  1.00  0.00     0.312 C 
ATOM      5  O   UNL A   1      33.283  20.435  26.136  1.00  0.00    -0.252 OA
BRANCH   4   6
ATOM      6  C   UNL A   1      33.868  22.597  27.094  1.00  0.00     0.124 C 
ATOM      7  C   UNL A   1      32.172  24.130  26.254  1.00  0.00     0.105 C 
ATOM      8  C   UNL A   1      33.541  24.662  26.006  1.00  0.00    -0.006 C 
ATOM      9  C   UNL A   1      32.397  23.004  27.268  1.00  0.00     0.048 C 
ATOM     10  C   UNL A   1      34.477  23.819  26.462  1.00  0.00    -0.014 C 
BRANCH   7  11
ATOM     11  N   UNL A   1      31.267  25.168  26.663  1.00  0.00    -0.359 N 
ATOM     12  H   UNL A   1      30.544  24.864  27.258  1.00  0.00     0.162 HD
BRANCH  11  13
ATOM     13  C   UNL A   1      31.231  26.511  26.368  1.00  0.00     0.193 A 
ATOM     14  C   UNL A   1      31.245  28.961  23.437  1.00  0.00     0.153 C 
ATOM     15  N   UNL A   1      31.269  28.412  24.773  1.00  0.00    -0.314 N 
ATOM     16  C   UNL A   1      31.657  29.173  25.850  1.00  0.00     0.109 A 
ATOM     17  C   UNL A   1      30.893  27.085  24.956  1.00  0.00     0.293 A 
ATOM     18  C   UNL A   1      31.726  28.638  27.073  1.00  0.00     0.131 A 
ATOM     19  O   UNL A   1      30.351  26.406  24.094  1.00  0.00    -0.265 OA
ATOM     20  N   UNL A   1      31.545  27.311  27.361  1.00  0.00    -0.233 NA
ENDBRANCH  11  13
ENDBRANCH   7  11
ENDBRANCH   4   6
ENDBRANCH   3   4
ENDBRANCH   2   3
ENDBRANCH   1   2
BRANCH   1  21
ATOM     21  O   UNL A   1      37.789  21.822  25.662  1.00  0.00    -0.458 OA
BRANCH  21  22
ATOM     22  C   UNL A   1      39.045  21.636  26.125  1.00  0.00     0.338 C 
ATOM     23  O   UNL A   1      39.771  20.678  25.920  1.00  0.00    -0.246 OA
BRANCH  22  24
ATOM     24  C   UNL A   1      39.499  22.817  26.872  1.00  0.00     0.060 A 
ATOM     25  C   UNL A   1      38.992  24.057  26.496  1.00  0.00     0.016 A 
ATOM     26  C   UNL A   1      40.559  22.733  27.769  1.00  0.00     0.016 A 
ATOM     27  C   UNL A   1      39.641  25.222  26.887  1.00  0.00     0.010 A 
ATOM     28  C   UNL A   1      41.123  23.914  28.270  1.00  0.00     0.010 A 
ATOM     29  C   UNL A   1      40.702  25.173  27.799  1.00  0.00    -0.014 A 
BRANCH  29  30
ATOM     30  C   UNL A   1      41.393  26.423  28.232  1.00  0.00     0.031 A 
ATOM     31  C   UNL A   1      40.630  27.477  28.996  1.00  0.00     0.074 A 
ATOM     32  C   UNL A   1      42.697  26.625  27.948  1.00  0.00     0.049 A 
ATOM     33  N   UNL A   1      40.943  28.725  29.229  1.00  0.00    -0.248 NA
ATOM     34  C   UNL A   1      39.329  27.073  29.549  1.00  0.00     0.031 C 
ATOM     35  C   UNL A   1      43.582  25.662  27.287  1.00  0.00     0.029 A 
ATOM     36  N   UNL A   1      43.508  27.710  28.174  1.00  0.00    -0.354 N 
ATOM     37  C   UNL A   1      39.852  29.276  29.896  1.00  0.00     0.074 A 
ATOM     38  C   UNL A   1      38.865  28.222  30.020  1.00  0.00     0.031 C 
ATOM     39  C   UNL A   1      44.812  26.185  27.191  1.00  0.00     0.029 A 
ATOM     40  C   UNL A   1      44.779  27.562  27.665  1.00  0.00     0.049 A 
ATOM     41  H   UNL A   1      43.210  28.518  28.652  1.00  0.00     0.167 HD
ATOM     42  C   UNL A   1      39.691  30.543  30.352  1.00  0.00     0.034 A 
ATOM     43  C   UNL A   1      45.785  28.448  27.525  1.00  0.00     0.034 A 
ATOM     44  C   UNL A   1      40.713  31.561  30.257  1.00  0.00     0.049 A 
ATOM     45  C   UNL A   1      45.566  29.867  27.977  1.00  0.00     0.074 A 
ATOM     46  C   UNL A   1      40.664  32.876  30.685  1.00  0.00     0.029 A 
ATOM     47  N   UNL A   1      41.975  31.371  29.706  1.00  0.00    -0.354 N 
ATOM     48  N   UNL A   1      44.497  30.403  28.518  1.00  0.00    -0.248 NA
ATOM     49  C   UNL A   1      46.680  30.804  27.788  1.00  0.00     0.031 C 
ATOM     50  C   UNL A   1      41.869  33.497  30.337  1.00  0.00     0.029 A 
ATOM     51  C   UNL A   1      42.703  32.550  29.766  1.00  0.00     0.049 A 
ATOM     52  H   UNL A   1      42.304  30.525  29.328  1.00  0.00     0.167 HD
ATOM     53  C   UNL A   1      44.824  31.733  28.767  1.00  0.00     0.074 A 
ATOM     54  C   UNL A   1      46.189  31.915  28.317  1.00  0.00     0.031 C 
ATOM     55  C   UNL A   1      44.067  32.712  29.321  1.00  0.00     0.034 A 
BRANCH  42  56
ATOM     56  C   UNL A   1      38.344  30.918  30.929  1.00  0.00     0.023 A 
ATOM     57  C   UNL A   1      37.328  31.502  30.154  1.00  0.00     0.031 A 
ATOM     58  C   UNL A   1      38.085  30.708  32.297  1.00  0.00     0.131 A 
ATOM     59  C   UNL A   1      36.134  31.921  30.764  1.00  0.00     0.055 A 
ATOM     60  C   UNL A   1      36.864  31.048  32.880  1.00  0.00     0.041 A 
ATOM     61  F   UNL A   1      39.023  30.174  33.097  1.00  0.00    -0.206 F 
ATOM     62  C   UNL A   1      35.884  31.674  32.116  1.00  0.00     0.022 A 
BRANCH  59  63
ATOM     63  S   UNL A   1      34.972  32.926  29.800  1.00  0.00     0.124 S 
ATOM     64  O   UNL A   1      34.399  31.930  28.897  1.00  0.00    -0.237 OA
ATOM     65  O   UNL A   1      34.077  33.447  30.826  1.00  0.00    -0.237 OA
ATOM     66  O   UNL A   1      35.829  33.919  29.156  1.00  0.00    -0.744 OA
ENDBRANCH  59  63
ENDBRANCH  42  56
BRANCH  43  67
ATOM     67  C   UNL A   1      47.057  28.042  26.858  1.00  0.00     0.023 A 
ATOM     68  C   UNL A   1      47.180  28.054  25.461  1.00  0.00     0.031 A 
ATOM     69  C   UNL A   1      48.164  27.607  27.613  1.00  0.00     0.131 A 
ATOM     70  C   UNL A   1      48.366  27.604  24.859  1.00  0.00     0.055 A 
ATOM     71  C   UNL A   1      49.364  27.222  27.012  1.00  0.00     0.041 A 
ATOM     72  F   UNL A   1      48.103  27.571  28.953  1.00  0.00    -0.206 F 
ATOM     73  C   UNL A   1      49.465  27.207  25.626  1.00  0.00     0.022 A 
BRANCH  70  74
ATOM     74  S   UNL A   1      48.422  27.458  23.053  1.00  0.00     0.124 S 
ATOM     75  O   UNL A   1      48.339  26.014  22.870  1.00  0.00    -0.237 OA
ATOM     76  O   UNL A   1      47.248  28.225  22.650  1.00  0.00    -0.237 OA
ATOM     77  O   UNL A   1      49.708  28.058  22.703  1.00  0.00    -0.744 OA
ENDBRANCH  70  74
ENDBRANCH  43  67
BRANCH  55  78
ATOM     78  C   UNL A   1      44.730  34.045  29.550  1.00  0.00     0.023 A 
ATOM     79  C   UNL A   1      44.587  35.116  28.652  1.00  0.00     0.031 A 
ATOM     80  C   UNL A   1      45.514  34.244  30.701  1.00  0.00     0.131 A 
ATOM     81  C   UNL A   1      45.253  36.326  28.898  1.00  0.00     0.055 A 
ATOM     82  C   UNL A   1      46.129  35.467  30.969  1.00  0.00     0.041 A 
ATOM     83  F   UNL A   1      45.686  33.253  31.590  1.00  0.00    -0.206 F 
ATOM     84  C   UNL A   1      46.009  36.513  30.059  1.00  0.00     0.022 A 
BRANCH  81  85
ATOM     85  S   UNL A   1      45.177  37.638  27.648  1.00  0.00     0.124 S 
ATOM     86  O   UNL A   1      44.970  38.827  28.467  1.00  0.00    -0.237 OA
ATOM     87  O   UNL A   1      46.479  37.529  26.999  1.00  0.00    -0.237 OA
ATOM     88  O   UNL A   1      44.038  37.252  26.815  1.00  0.00    -0.744 OA
ENDBRANCH  81  85
ENDBRANCH  55  78
ENDBRANCH  29  30
ENDBRANCH  22  24
ENDBRANCH  21  22
ENDBRANCH   1  21
TORSDOF 16
ENDMDL
MODEL 3
REMARK VINA RESULT:     -11.5      5.141     10.184
REMARK SMILES Cn1ccnc(N[C@H]2C=C[C@H](C(=O)OCCOC(=O)c3ccc(-c4c5nc(c(-c6cc(S(=O)(=O)[O-])ccc6F)c6ccc([nH]6)c(-c6cc(S(=O)(=O)[O-])ccc6F)c6nc(c(-c7cc(S(=O)(=O)[O-])ccc7F)c7ccc4[nH]7)C=C6)C=C5)cc3)C2)c1=O
REMARK SMILES IDX 16 1 15 2 14 3 12 4 13 5 11 6 8 7 9 8 83 9 10 10 7 11 6 13
REMARK SMILES IDX 1 14 2 15 3 16 84 17 4 18 85 19 5 20 17 21 18 22 19 23 20 24
REMARK SMILES IDX 21 25 82 26 22 27 81 28 23 29 24 30 25 31 75 32 26 33 80 34
REMARK SMILES IDX 74 35 76 36 27 37 79 38 73 39 72 40 28 42 60 43 40 44 59 45
REMARK SMILES IDX 41 46 44 47 58 48 77 49 42 50 43 51 57 53 78 54 45 55 29 56
REMARK SMILES IDX 30 57 38 58 31 59 37 60 39 61 36 62 32 63 33 64 34 65 35 66
REMARK SMILES IDX 61 67 62 68 70 69 63 70 69 71 71 72 68 73 64 74 65 75 66 76
REMARK SMILES IDX 67 77 46 78 47 79 55 80 48 81 54 82 56 83 53 84 49 85 50 86
REMARK SMILES IDX 51 87 52 88
REMARK H PARENT 7 12 76 41 44 52
REMARK Flexibility Score: inf
ROOT
ATOM      1  C   UNL A   1      31.660  30.433  25.747  1.00  0.00     0.275 C 
ENDROOT
BRANCH   1   2
ATOM      2  C   UNL A   1      31.942  29.168  24.933  1.00  0.00     0.274 C 
BRANCH   2   3
ATOM      3  O   UNL A   1      31.328  29.224  23.632  1.00  0.00    -0.462 OA
BRANCH   3   4
ATOM      4  C   UNL A   1      30.976  28.030  23.075  1.00  0.00     0.312 C 
ATOM      5  O   UNL A   1      30.335  27.907  22.039  1.00  0.00    -0.252 OA
BRANCH   4   6
ATOM      6  C   UNL A   1      31.460  26.868  23.933  1.00  0.00     0.124 C 
ATOM      7  C   UNL A   1      31.661  24.852  22.581  1.00  0.00     0.105 C 
ATOM      8  C   UNL A   1      30.436  24.807  23.428  1.00  0.00    -0.006 C 
ATOM      9  C   UNL A   1      32.481  25.994  23.188  1.00  0.00     0.048 C 
ATOM     10  C   UNL A   1      30.319  25.917  24.168  1.00  0.00    -0.014 C 
BRANCH   7  11
ATOM     11  N   UNL A   1      32.313  23.574  22.526  1.00  0.00    -0.359 N 
ATOM     12  H   UNL A   1      32.184  23.089  21.678  1.00  0.00     0.162 HD
BRANCH  11  13
ATOM     13  C   UNL A   1      33.087  22.906  23.448  1.00  0.00     0.193 A 
ATOM     14  C   UNL A   1      36.691  21.873  24.181  1.00  0.00     0.153 C 
ATOM     15  N   UNL A   1      35.254  22.012  24.259  1.00  0.00    -0.314 N 
ATOM     16  C   UNL A   1      34.497  21.164  25.032  1.00  0.00     0.109 A 
ATOM     17  C   UNL A   1      34.642  23.024  23.528  1.00  0.00     0.293 A 
ATOM     18  C   UNL A   1      33.165  21.270  25.054  1.00  0.00     0.131 A 
ATOM     19  O   UNL A   1      35.252  23.933  22.981  1.00  0.00    -0.265 OA
ATOM     20  N   UNL A   1      32.431  22.109  24.258  1.00  0.00    -0.233 NA
ENDBRANCH  11  13
ENDBRANCH   7  11
ENDBRANCH   4   6
ENDBRANCH   3   4
ENDBRANCH   2   3
ENDBRANCH   1   2
BRANCH   1  21
ATOM     21  O   UNL A   1      32.374  30.433  26.997  1.00  0.00    -0.458 OA
BRANCH  21  22
ATOM     22  C   UNL A   1      33.029  31.584  27.267  1.00  0.00     0.338 C 
ATOM     23  O   UNL A   1      32.560  32.709  27.292  1.00  0.00    -0.246 OA
BRANCH  22  24
ATOM     24  C   UNL A   1      34.425  31.309  27.631  1.00  0.00     0.060 A 
ATOM     25  C   UNL A   1      34.772  29.994  27.929  1.00  0.00     0.016 A 
ATOM     26  C   UNL A   1      35.317  32.346  27.888  1.00  0.00     0.016 A 
ATOM     27  C   UNL A   1      35.941  29.724  28.629  1.00  0.00     0.010 A 
ATOM     28  C   UNL A   1      36.556  32.051  28.470  1.00  0.00     0.010 A 
ATOM     29  C   UNL A   1      36.864  30.742  28.892  1.00  0.00    -0.014 A 
BRANCH  29  30
ATOM     30  C   UNL A   1      38.128  30.453  29.632  1.00  0.00     0.031 A 
ATOM     31  C   UNL A   1      39.162  29.538  29.024  1.00  0.00     0.074 A 
ATOM     32  C   UNL A   1      38.358  31.002  30.844  1.00  0.00     0.049 A 
ATOM     33  N   UNL A   1      40.182  28.945  29.589  1.00  0.00    -0.248 NA
ATOM     34  C   UNL A   1      39.009  29.233  27.594  1.00  0.00     0.031 C 
ATOM     35  C   UNL A   1      37.488  31.966  31.520  1.00  0.00     0.029 A 
ATOM     36  N   UNL A   1      39.394  30.823  31.728  1.00  0.00    -0.354 N 
ATOM     37  C   UNL A   1      40.753  28.144  28.603  1.00  0.00     0.074 A 
ATOM     38  C   UNL A   1      39.955  28.324  27.407  1.00  0.00     0.031 C 
ATOM     39  C   UNL A   1      38.039  32.316  32.690  1.00  0.00     0.029 A 
ATOM     40  C   UNL A   1      39.233  31.511  32.909  1.00  0.00     0.049 A 
ATOM     41  H   UNL A   1      40.177  30.257  31.536  1.00  0.00     0.167 HD
ATOM     42  C   UNL A   1      41.836  27.332  28.696  1.00  0.00     0.034 A 
ATOM     43  C   UNL A   1      39.921  31.454  34.067  1.00  0.00     0.034 A 
ATOM     44  C   UNL A   1      42.641  27.210  29.889  1.00  0.00     0.049 A 
ATOM     45  C   UNL A   1      41.079  30.499  34.174  1.00  0.00     0.074 A 
ATOM     46  C   UNL A   1      43.760  26.422  30.099  1.00  0.00     0.029 A 
ATOM     47  N   UNL A   1      42.421  27.906  31.072  1.00  0.00    -0.354 N 
ATOM     48  N   UNL A   1      41.553  29.676  33.268  1.00  0.00    -0.248 NA
ATOM     49  C   UNL A   1      41.787  30.454  35.459  1.00  0.00     0.031 C 
ATOM     50  C   UNL A   1      44.176  26.593  31.424  1.00  0.00     0.029 A 
ATOM     51  C   UNL A   1      43.369  27.549  32.018  1.00  0.00     0.049 A 
ATOM     52  H   UNL A   1      41.697  28.556  31.218  1.00  0.00     0.167 HD
ATOM     53  C   UNL A   1      42.638  29.040  33.864  1.00  0.00     0.074 A 
ATOM     54  C   UNL A   1      42.748  29.577  35.205  1.00  0.00     0.031 C 
ATOM     55  C   UNL A   1      43.471  28.102  33.348  1.00  0.00     0.034 A 
BRANCH  42  56
ATOM     56  C   UNL A   1      42.169  26.465  27.502  1.00  0.00     0.023 A 
ATOM     57  C   UNL A   1      41.746  25.129  27.400  1.00  0.00     0.031 A 
ATOM     58  C   UNL A   1      42.952  26.985  26.455  1.00  0.00     0.131 A 
ATOM     59  C   UNL A   1      42.169  24.341  26.316  1.00  0.00     0.055 A 
ATOM     60  C   UNL A   1      43.298  26.222  25.338  1.00  0.00     0.041 A 
ATOM     61  F   UNL A   1      43.407  28.248  26.503  1.00  0.00    -0.206 F 
ATOM     62  C   UNL A   1      42.919  24.885  25.272  1.00  0.00     0.022 A 
BRANCH  59  63
ATOM     63  S   UNL A   1      41.849  22.555  26.364  1.00  0.00     0.124 S 
ATOM     64  O   UNL A   1      42.497  22.173  27.617  1.00  0.00    -0.237 OA
ATOM     65  O   UNL A   1      40.393  22.494  26.355  1.00  0.00    -0.237 OA
ATOM     66  O   UNL A   1      42.504  22.057  25.156  1.00  0.00    -0.744 OA
ENDBRANCH  59  63
ENDBRANCH  42  56
BRANCH  43  67
ATOM     67  C   UNL A   1      39.483  32.264  35.242  1.00  0.00     0.023 A 
ATOM     68  C   UNL A   1      38.774  31.681  36.302  1.00  0.00     0.031 A 
ATOM     69  C   UNL A   1      39.744  33.647  35.307  1.00  0.00     0.131 A 
ATOM     70  C   UNL A   1      38.318  32.480  37.363  1.00  0.00     0.055 A 
ATOM     71  C   UNL A   1      39.345  34.426  36.395  1.00  0.00     0.041 A 
ATOM     72  F   UNL A   1      40.415  34.260  34.319  1.00  0.00    -0.206 F 
ATOM     73  C   UNL A   1      38.616  33.844  37.426  1.00  0.00     0.022 A 
BRANCH  70  74
ATOM     74  S   UNL A   1      37.248  31.729  38.619  1.00  0.00     0.124 S 
ATOM     75  O   UNL A   1      37.059  30.386  38.082  1.00  0.00    -0.237 OA
ATOM     76  O   UNL A   1      38.073  31.829  39.819  1.00  0.00    -0.237 OA
ATOM     77  O   UNL A   1      36.060  32.579  38.608  1.00  0.00    -0.744 OA
ENDBRANCH  70  74
ENDBRANCH  43  67
BRANCH  55  78
ATOM     78  C   UNL A   1      44.625  27.661  34.210  1.00  0.00     0.023 A 
ATOM     79  C   UNL A   1      44.559  26.516  35.022  1.00  0.00     0.031 A 
ATOM     80  C   UNL A   1      45.821  28.403  34.205  1.00  0.00     0.131 A 
ATOM     81  C   UNL A   1      45.653  26.170  35.829  1.00  0.00     0.055 A 
ATOM     82  C   UNL A   1      46.924  28.024  34.968  1.00  0.00     0.041 A 
ATOM     83  F   UNL A   1      45.935  29.507  33.449  1.00  0.00    -0.206 F 
ATOM     84  C   UNL A   1      46.840  26.907  35.794  1.00  0.00     0.022 A 
BRANCH  81  85
ATOM     85  S   UNL A   1      45.485  24.780  36.982  1.00  0.00     0.124 S 
ATOM     86  O   UNL A   1      45.126  25.456  38.224  1.00  0.00    -0.237 OA
ATOM     87  O   UNL A   1      44.431  23.984  36.361  1.00  0.00    -0.237 OA
ATOM     88  O   UNL A   1      46.811  24.164  36.972  1.00  0.00    -0.744 OA
ENDBRANCH  81  85
ENDBRANCH  55  78
ENDBRANCH  29  30
ENDBRANCH  22  24
ENDBRANCH  21  22
ENDBRANCH   1  21
TORSDOF 16
ENDMDL
