MODEL 1
REMARK VINA RESULT:     -11.5      0.000      0.000
REMARK SMILES CCC(CC)(NC(=O)c1ccc(NC(C)=O)cc1)C(=O)OCCOC(=O)c1ccc(-c2c3nc(c(-c4cc(S(=O)(=O)[O-])ccc4F)c4ccc([nH]4)c(-c4cc(S(=O)(=O)[O-])ccc4F)c4nc(c(-c5cc(S(=O)(=O)[O-])ccc5F)c5ccc2[nH]5)C=C4)C=C3)cc1
REMARK SMILES IDX 22 1 21 2 19 3 20 4 3 5 2 6 1 7 4 8 5 9 6 10 7 11 8 13 9 14
REMARK SMILES IDX 10 15 18 16 11 17 17 18 12 19 13 20 14 21 15 23 16 24 23 25
REMARK SMILES IDX 24 26 25 27 26 28 27 29 28 30 89 31 29 32 88 33 30 34 31 35
REMARK SMILES IDX 32 36 82 37 33 38 87 39 81 40 83 41 34 42 86 43 80 44 79 45
REMARK SMILES IDX 35 47 67 48 47 49 66 50 48 51 51 52 65 53 84 54 49 55 50 56
REMARK SMILES IDX 64 58 85 59 52 60 36 61 37 62 45 63 38 64 44 65 46 66 43 67
REMARK SMILES IDX 39 68 40 69 41 70 42 71 68 72 69 73 77 74 70 75 76 76 78 77
REMARK SMILES IDX 75 78 71 79 72 80 73 81 74 82 53 83 54 84 62 85 55 86 61 87
REMARK SMILES IDX 63 88 60 89 56 90 57 91 58 92 59 93
REMARK H PARENT 6 12 13 22 83 46 51 57
REMARK Flexibility Score: inf
ROOT
ATOM      1  C   UNL A   1      35.566  21.113  25.300  1.00  0.00     0.274 C 
ENDROOT
BRANCH   1   2
ATOM      2  O   UNL A   1      35.210  22.159  24.366  1.00  0.00    -0.460 OA
BRANCH   2   3
ATOM      3  C   UNL A   1      33.897  22.278  24.071  1.00  0.00     0.331 C 
ATOM      4  O   UNL A   1      33.195  21.310  23.790  1.00  0.00    -0.249 OA
BRANCH   3   5
ATOM      5  C   UNL A   1      33.379  23.751  23.958  1.00  0.00     0.137 C 
BRANCH   5   6
ATOM      6  C   UNL A   1      34.569  24.697  24.364  1.00  0.00     0.037 C 
ATOM      7  C   UNL A   1      34.410  25.624  25.566  1.00  0.00     0.007 C 
ENDBRANCH   5   6
BRANCH   5   8
ATOM      8  C   UNL A   1      32.204  23.820  24.982  1.00  0.00     0.037 C 
ATOM      9  C   UNL A   1      30.801  23.667  24.407  1.00  0.00     0.007 C 
ENDBRANCH   5   8
BRANCH   5  10
ATOM     10  N   UNL A   1      32.917  24.339  22.644  1.00  0.00    -0.336 N 
ATOM     11  C   UNL A   1      33.028  25.547  22.010  1.00  0.00     0.252 C 
ATOM     12  H   UNL A   1      32.407  23.689  22.109  1.00  0.00     0.165 HD
ATOM     13  O   UNL A   1      33.319  25.577  20.815  1.00  0.00    -0.269 OA
BRANCH  11  14
ATOM     14  C   UNL A   1      32.557  26.791  22.630  1.00  0.00     0.039 A 
ATOM     15  C   UNL A   1      31.209  26.882  22.988  1.00  0.00     0.016 A 
ATOM     16  C   UNL A   1      33.390  27.897  22.768  1.00  0.00     0.016 A 
ATOM     17  C   UNL A   1      30.725  28.033  23.618  1.00  0.00     0.027 A 
ATOM     18  C   UNL A   1      32.904  29.041  23.417  1.00  0.00     0.027 A 
ATOM     19  C   UNL A   1      31.587  29.090  23.904  1.00  0.00     0.041 A 
BRANCH  19  20
ATOM     20  N   UNL A   1      31.265  30.141  24.793  1.00  0.00    -0.326 N 
ATOM     21  C   UNL A   1      31.670  30.268  26.111  1.00  0.00     0.221 C 
ATOM     22  H   UNL A   1      30.694  30.859  24.437  1.00  0.00     0.169 HD
ATOM     23  C   UNL A   1      31.574  31.690  26.611  1.00  0.00     0.114 C 
ATOM     24  O   UNL A   1      32.075  29.379  26.851  1.00  0.00    -0.275 OA
ENDBRANCH  19  20
ENDBRANCH  11  14
ENDBRANCH   5  10
ENDBRANCH   3   5
ENDBRANCH   2   3
ENDBRANCH   1   2
BRANCH   1  25
ATOM     25  C   UNL A   1      36.922  20.524  24.943  1.00  0.00     0.275 C 
BRANCH  25  26
ATOM     26  O   UNL A   1      37.919  21.527  25.143  1.00  0.00    -0.458 OA
BRANCH  26  27
ATOM     27  C   UNL A   1      38.988  21.137  25.875  1.00  0.00     0.338 C 
ATOM     28  O   UNL A   1      39.420  20.018  26.058  1.00  0.00    -0.246 OA
BRANCH  27  29
ATOM     29  C   UNL A   1      39.584  22.334  26.458  1.00  0.00     0.060 A 
ATOM     30  C   UNL A   1      40.578  22.198  27.425  1.00  0.00     0.016 A 
ATOM     31  C   UNL A   1      39.133  23.582  26.046  1.00  0.00     0.016 A 
ATOM     32  C   UNL A   1      41.118  23.329  28.016  1.00  0.00     0.010 A 
ATOM     33  C   UNL A   1      39.749  24.716  26.564  1.00  0.00     0.010 A 
ATOM     34  C   UNL A   1      40.750  24.593  27.545  1.00  0.00    -0.014 A 
BRANCH  34  35
ATOM     35  C   UNL A   1      41.463  25.801  28.013  1.00  0.00     0.031 A 
ATOM     36  C   UNL A   1      40.715  26.857  28.763  1.00  0.00     0.074 A 
ATOM     37  C   UNL A   1      42.761  25.951  27.684  1.00  0.00     0.049 A 
ATOM     38  N   UNL A   1      41.068  28.085  29.032  1.00  0.00    -0.248 NA
ATOM     39  C   UNL A   1      39.377  26.488  29.250  1.00  0.00     0.031 C 
ATOM     40  C   UNL A   1      43.574  24.957  26.976  1.00  0.00     0.029 A 
ATOM     41  N   UNL A   1      43.620  26.999  27.879  1.00  0.00    -0.354 N 
ATOM     42  C   UNL A   1      39.976  28.656  29.676  1.00  0.00     0.074 A 
ATOM     43  C   UNL A   1      38.950  27.638  29.751  1.00  0.00     0.031 C 
ATOM     44  C   UNL A   1      44.813  25.436  26.809  1.00  0.00     0.029 A 
ATOM     45  C   UNL A   1      44.854  26.805  27.305  1.00  0.00     0.049 A 
ATOM     46  H   UNL A   1      43.379  27.811  28.381  1.00  0.00     0.167 HD
ATOM     47  C   UNL A   1      39.855  29.923  30.144  1.00  0.00     0.034 A 
ATOM     48  C   UNL A   1      45.882  27.656  27.135  1.00  0.00     0.034 A 
ATOM     49  C   UNL A   1      40.912  30.901  30.046  1.00  0.00     0.049 A 
ATOM     50  C   UNL A   1      45.715  29.063  27.636  1.00  0.00     0.074 A 
ATOM     51  C   UNL A   1      40.922  32.217  30.474  1.00  0.00     0.029 A 
ATOM     52  N   UNL A   1      42.158  30.663  29.471  1.00  0.00    -0.354 N 
ATOM     53  N   UNL A   1      44.666  29.611  28.208  1.00  0.00    -0.248 NA
ATOM     54  C   UNL A   1      46.856  29.966  27.464  1.00  0.00     0.031 C 
ATOM     55  C   UNL A   1      42.149  32.786  30.109  1.00  0.00     0.029 A 
ATOM     56  C   UNL A   1      42.934  31.810  29.512  1.00  0.00     0.049 A 
ATOM     57  H   UNL A   1      42.446  29.802  29.088  1.00  0.00     0.167 HD
ATOM     58  C   UNL A   1      45.024  30.928  28.469  1.00  0.00     0.074 A 
ATOM     59  C   UNL A   1      46.393  31.080  28.012  1.00  0.00     0.031 C 
ATOM     60  C   UNL A   1      44.291  31.924  29.029  1.00  0.00     0.034 A 
BRANCH  47  61
ATOM     61  C   UNL A   1      38.515  30.321  30.716  1.00  0.00     0.023 A 
ATOM     62  C   UNL A   1      37.509  30.906  29.926  1.00  0.00     0.031 A 
ATOM     63  C   UNL A   1      38.267  30.180  32.094  1.00  0.00     0.131 A 
ATOM     64  C   UNL A   1      36.342  31.404  30.530  1.00  0.00     0.055 A 
ATOM     65  C   UNL A   1      37.070  30.605  32.676  1.00  0.00     0.041 A 
ATOM     66  F   UNL A   1      39.196  29.652  32.905  1.00  0.00    -0.206 F 
ATOM     67  C   UNL A   1      36.107  31.238  31.897  1.00  0.00     0.022 A 
BRANCH  64  68
ATOM     68  S   UNL A   1      35.211  32.413  29.533  1.00  0.00     0.124 S 
ATOM     69  O   UNL A   1      36.113  33.437  29.009  1.00  0.00    -0.237 OA
ATOM     70  O   UNL A   1      34.705  31.452  28.562  1.00  0.00    -0.237 OA
ATOM     71  O   UNL A   1      34.232  32.894  30.505  1.00  0.00    -0.744 OA
ENDBRANCH  64  68
ENDBRANCH  47  61
BRANCH  48  72
ATOM     72  C   UNL A   1      47.103  27.219  26.402  1.00  0.00     0.023 A 
ATOM     73  C   UNL A   1      48.135  26.529  27.053  1.00  0.00     0.031 A 
ATOM     74  C   UNL A   1      47.244  27.470  25.023  1.00  0.00     0.131 A 
ATOM     75  C   UNL A   1      49.272  26.127  26.332  1.00  0.00     0.055 A 
ATOM     76  C   UNL A   1      48.353  27.028  24.301  1.00  0.00     0.041 A 
ATOM     77  F   UNL A   1      46.282  28.120  24.349  1.00  0.00    -0.206 F 
ATOM     78  C   UNL A   1      49.380  26.358  24.958  1.00  0.00     0.022 A 
BRANCH  75  79
ATOM     79  S   UNL A   1      50.639  25.342  27.228  1.00  0.00     0.124 S 
ATOM     80  O   UNL A   1      51.561  25.021  26.144  1.00  0.00    -0.237 OA
ATOM     81  O   UNL A   1      51.058  26.407  28.133  1.00  0.00    -0.237 OA
ATOM     82  O   UNL A   1      50.008  24.192  27.872  1.00  0.00    -0.744 OA
ENDBRANCH  75  79
ENDBRANCH  48  72
BRANCH  60  83
ATOM     83  C   UNL A   1      44.989  33.246  29.198  1.00  0.00     0.023 A 
ATOM     84  C   UNL A   1      45.026  34.193  28.160  1.00  0.00     0.031 A 
ATOM     85  C   UNL A   1      45.640  33.550  30.405  1.00  0.00     0.131 A 
ATOM     86  C   UNL A   1      45.746  35.383  28.332  1.00  0.00     0.055 A 
ATOM     87  C   UNL A   1      46.311  34.759  30.589  1.00  0.00     0.041 A 
ATOM     88  F   UNL A   1      45.634  32.674  31.422  1.00  0.00    -0.206 F 
ATOM     89  C   UNL A   1      46.376  35.678  29.546  1.00  0.00     0.022 A 
BRANCH  86  90
ATOM     90  S   UNL A   1      45.916  36.509  26.922  1.00  0.00     0.124 S 
ATOM     91  O   UNL A   1      47.148  37.218  27.249  1.00  0.00    -0.237 OA
ATOM     92  O   UNL A   1      45.991  35.587  25.792  1.00  0.00    -0.237 OA
ATOM     93  O   UNL A   1      44.700  37.318  26.980  1.00  0.00    -0.744 OA
ENDBRANCH  86  90
ENDBRANCH  60  83
ENDBRANCH  34  35
ENDBRANCH  27  29
ENDBRANCH  26  27
ENDBRANCH  25  26
ENDBRANCH   1  25
TORSDOF 19
ENDMDL
MODEL 2
REMARK VINA RESULT:     -11.4      5.081     10.257
REMARK SMILES CCC(CC)(NC(=O)c1ccc(NC(C)=O)cc1)C(=O)OCCOC(=O)c1ccc(-c2c3nc(c(-c4cc(S(=O)(=O)[O-])ccc4F)c4ccc([nH]4)c(-c4cc(S(=O)(=O)[O-])ccc4F)c4nc(c(-c5cc(S(=O)(=O)[O-])ccc5F)c5ccc2[nH]5)C=C4)C=C3)cc1
REMARK SMILES IDX 22 1 21 2 19 3 20 4 3 5 2 6 1 7 4 8 5 9 6 10 7 11 8 13 9 14
REMARK SMILES IDX 10 15 18 16 11 17 17 18 12 19 13 20 14 21 15 23 16 24 23 25
REMARK SMILES IDX 24 26 25 27 26 28 27 29 28 30 89 31 29 32 88 33 30 34 31 35
REMARK SMILES IDX 32 36 82 37 33 38 87 39 81 40 83 41 34 42 86 43 80 44 79 45
REMARK SMILES IDX 35 47 67 48 47 49 66 50 48 51 51 52 65 53 84 54 49 55 50 56
REMARK SMILES IDX 64 58 85 59 52 60 36 61 37 62 45 63 38 64 44 65 46 66 43 67
REMARK SMILES IDX 39 68 40 69 41 70 42 71 68 72 69 73 77 74 70 75 76 76 78 77
REMARK SMILES IDX 75 78 71 79 72 80 73 81 74 82 53 83 54 84 62 85 55 86 61 87
REMARK SMILES IDX 63 88 60 89 56 90 57 91 58 92 59 93
REMARK H PARENT 6 12 13 22 83 46 51 57
REMARK Flexibility Score: inf
ROOT
ATOM      1  C   UNL A   1      32.935  28.979  25.601  1.00  0.00     0.274 C 
ENDROOT
BRANCH   1   2
ATOM      2  O   UNL A   1      31.846  28.116  25.198  1.00  0.00    -0.460 OA
BRANCH   2   3
ATOM      3  C   UNL A   1      31.469  27.171  26.087  1.00  0.00     0.331 C 
ATOM      4  O   UNL A   1      31.080  27.450  27.219  1.00  0.00    -0.249 OA
BRANCH   3   5
ATOM      5  C   UNL A   1      31.716  25.696  25.624  1.00  0.00     0.137 C 
BRANCH   5   6
ATOM      6  C   UNL A   1      33.150  25.285  26.123  1.00  0.00     0.037 C 
ATOM      7  C   UNL A   1      34.280  25.137  25.107  1.00  0.00     0.007 C 
ENDBRANCH   5   6
BRANCH   5   8
ATOM      8  C   UNL A   1      31.638  25.769  24.067  1.00  0.00     0.037 C 
ATOM      9  C   UNL A   1      30.315  25.345  23.439  1.00  0.00     0.007 C 
ENDBRANCH   5   8
BRANCH   5  10
ATOM     10  N   UNL A   1      30.853  24.551  26.104  1.00  0.00    -0.336 N 
ATOM     11  C   UNL A   1      31.068  23.322  26.667  1.00  0.00     0.252 C 
ATOM     12  H   UNL A   1      29.895  24.735  25.979  1.00  0.00     0.165 HD
ATOM     13  O   UNL A   1      30.384  22.971  27.627  1.00  0.00    -0.269 OA
BRANCH  11  14
ATOM     14  C   UNL A   1      31.897  22.305  26.011  1.00  0.00     0.039 A 
ATOM     15  C   UNL A   1      32.938  21.728  26.743  1.00  0.00     0.016 A 
ATOM     16  C   UNL A   1      31.732  21.988  24.666  1.00  0.00     0.016 A 
ATOM     17  C   UNL A   1      33.729  20.726  26.171  1.00  0.00     0.027 A 
ATOM     18  C   UNL A   1      32.515  20.970  24.103  1.00  0.00     0.027 A 
ATOM     19  C   UNL A   1      33.473  20.288  24.872  1.00  0.00     0.041 A 
BRANCH  19  20
ATOM     20  N   UNL A   1      34.006  19.095  24.332  1.00  0.00    -0.326 N 
ATOM     21  C   UNL A   1      33.372  17.867  24.244  1.00  0.00     0.221 C 
ATOM     22  H   UNL A   1      34.924  19.143  23.980  1.00  0.00     0.169 HD
ATOM     23  C   UNL A   1      34.002  16.966  23.207  1.00  0.00     0.114 C 
ATOM     24  O   UNL A   1      32.408  17.482  24.894  1.00  0.00    -0.275 OA
ENDBRANCH  19  20
ENDBRANCH  11  14
ENDBRANCH   5  10
ENDBRANCH   3   5
ENDBRANCH   2   3
ENDBRANCH   1   2
BRANCH   1  25
ATOM     25  C   UNL A   1      32.400  30.320  26.078  1.00  0.00     0.275 C 
BRANCH  25  26
ATOM     26  O   UNL A   1      32.862  30.544  27.412  1.00  0.00    -0.458 OA
BRANCH  26  27
ATOM     27  C   UNL A   1      33.563  31.686  27.593  1.00  0.00     0.338 C 
ATOM     28  O   UNL A   1      33.223  32.831  27.381  1.00  0.00    -0.246 OA
BRANCH  27  29
ATOM     29  C   UNL A   1      34.878  31.319  28.108  1.00  0.00     0.060 A 
ATOM     30  C   UNL A   1      35.884  32.283  28.156  1.00  0.00     0.016 A 
ATOM     31  C   UNL A   1      35.100  30.013  28.525  1.00  0.00     0.016 A 
ATOM     32  C   UNL A   1      37.147  31.933  28.601  1.00  0.00     0.010 A 
ATOM     33  C   UNL A   1      36.337  29.690  29.070  1.00  0.00     0.010 A 
ATOM     34  C   UNL A   1      37.363  30.650  29.118  1.00  0.00    -0.014 A 
BRANCH  34  35
ATOM     35  C   UNL A   1      38.639  30.321  29.788  1.00  0.00     0.031 A 
ATOM     36  C   UNL A   1      39.572  29.335  29.160  1.00  0.00     0.074 A 
ATOM     37  C   UNL A   1      38.894  30.867  30.993  1.00  0.00     0.049 A 
ATOM     38  N   UNL A   1      40.594  28.715  29.685  1.00  0.00    -0.248 NA
ATOM     39  C   UNL A   1      39.297  28.977  27.760  1.00  0.00     0.031 C 
ATOM     40  C   UNL A   1      38.049  31.859  31.667  1.00  0.00     0.029 A 
ATOM     41  N   UNL A   1      39.919  30.655  31.875  1.00  0.00    -0.354 N 
ATOM     42  C   UNL A   1      41.057  27.853  28.697  1.00  0.00     0.074 A 
ATOM     43  C   UNL A   1      40.198  28.030  27.545  1.00  0.00     0.031 C 
ATOM     44  C   UNL A   1      38.596  32.179  32.847  1.00  0.00     0.029 A 
ATOM     45  C   UNL A   1      39.770  31.343  33.057  1.00  0.00     0.049 A 
ATOM     46  H   UNL A   1      40.686  30.070  31.684  1.00  0.00     0.167 HD
ATOM     47  C   UNL A   1      42.099  26.989  28.769  1.00  0.00     0.034 A 
ATOM     48  C   UNL A   1      40.462  31.260  34.209  1.00  0.00     0.034 A 
ATOM     49  C   UNL A   1      42.928  26.852  29.944  1.00  0.00     0.049 A 
ATOM     50  C   UNL A   1      41.595  30.276  34.274  1.00  0.00     0.074 A 
ATOM     51  C   UNL A   1      44.010  26.016  30.152  1.00  0.00     0.029 A 
ATOM     52  N   UNL A   1      42.757  27.579  31.120  1.00  0.00    -0.354 N 
ATOM     53  N   UNL A   1      42.005  29.433  33.353  1.00  0.00    -0.248 NA
ATOM     54  C   UNL A   1      42.350  30.220  35.528  1.00  0.00     0.031 C 
ATOM     55  C   UNL A   1      44.456  26.198  31.467  1.00  0.00     0.029 A 
ATOM     56  C   UNL A   1      43.697  27.195  32.062  1.00  0.00     0.049 A 
ATOM     57  H   UNL A   1      42.066  28.266  31.261  1.00  0.00     0.167 HD
ATOM     58  C   UNL A   1      43.074  28.747  33.916  1.00  0.00     0.074 A 
ATOM     59  C   UNL A   1      43.256  29.294  35.247  1.00  0.00     0.031 C 
ATOM     60  C   UNL A   1      43.834  27.754  33.387  1.00  0.00     0.034 A 
BRANCH  47  61
ATOM     61  C   UNL A   1      42.330  26.087  27.579  1.00  0.00     0.023 A 
ATOM     62  C   UNL A   1      41.837  24.771  27.533  1.00  0.00     0.031 A 
ATOM     63  C   UNL A   1      43.120  26.529  26.502  1.00  0.00     0.131 A 
ATOM     64  C   UNL A   1      42.209  23.918  26.480  1.00  0.00     0.055 A 
ATOM     65  C   UNL A   1      43.420  25.701  25.417  1.00  0.00     0.041 A 
ATOM     66  F   UNL A   1      43.639  27.766  26.498  1.00  0.00    -0.206 F 
ATOM     67  C   UNL A   1      42.980  24.381  25.411  1.00  0.00     0.022 A 
BRANCH  64  68
ATOM     68  S   UNL A   1      41.806  22.154  26.607  1.00  0.00     0.124 S 
ATOM     69  O   UNL A   1      40.348  22.189  26.693  1.00  0.00    -0.237 OA
ATOM     70  O   UNL A   1      42.360  21.614  25.372  1.00  0.00    -0.237 OA
ATOM     71  O   UNL A   1      42.485  21.733  27.831  1.00  0.00    -0.744 OA
ENDBRANCH  64  68
ENDBRANCH  47  61
BRANCH  48  72
ATOM     72  C   UNL A   1      40.049  32.070  35.389  1.00  0.00     0.023 A 
ATOM     73  C   UNL A   1      39.100  31.593  36.303  1.00  0.00     0.031 A 
ATOM     74  C   UNL A   1      40.621  33.334  35.630  1.00  0.00     0.131 A 
ATOM     75  C   UNL A   1      38.736  32.380  37.408  1.00  0.00     0.055 A 
ATOM     76  C   UNL A   1      40.290  34.093  36.754  1.00  0.00     0.041 A 
ATOM     77  F   UNL A   1      41.540  33.836  34.790  1.00  0.00    -0.206 F 
ATOM     78  C   UNL A   1      39.336  33.619  37.648  1.00  0.00     0.022 A 
BRANCH  75  79
ATOM     79  S   UNL A   1      37.420  31.786  38.506  1.00  0.00     0.124 S 
ATOM     80  O   UNL A   1      37.247  30.412  38.048  1.00  0.00    -0.237 OA
ATOM     81  O   UNL A   1      38.029  31.951  39.823  1.00  0.00    -0.237 OA
ATOM     82  O   UNL A   1      36.305  32.686  38.220  1.00  0.00    -0.744 OA
ENDBRANCH  75  79
ENDBRANCH  48  72
BRANCH  60  83
ATOM     83  C   UNL A   1      44.945  27.235  34.259  1.00  0.00     0.023 A 
ATOM     84  C   UNL A   1      44.782  26.083  35.047  1.00  0.00     0.031 A 
ATOM     85  C   UNL A   1      46.173  27.915  34.313  1.00  0.00     0.131 A 
ATOM     86  C   UNL A   1      45.816  25.673  35.898  1.00  0.00     0.055 A 
ATOM     87  C   UNL A   1      47.218  27.472  35.123  1.00  0.00     0.041 A 
ATOM     88  F   UNL A   1      46.373  29.023  33.581  1.00  0.00    -0.206 F 
ATOM     89  C   UNL A   1      47.039  26.352  35.929  1.00  0.00     0.022 A 
BRANCH  86  90
ATOM     90  S   UNL A   1      45.518  24.284  37.024  1.00  0.00     0.124 S 
ATOM     91  O   UNL A   1      46.876  23.862  37.349  1.00  0.00    -0.237 OA
ATOM     92  O   UNL A   1      44.770  24.915  38.108  1.00  0.00    -0.237 OA
ATOM     93  O   UNL A   1      44.752  23.341  36.211  1.00  0.00    -0.744 OA
ENDBRANCH  86  90
ENDBRANCH  60  83
ENDBRANCH  34  35
ENDBRANCH  27  29
ENDBRANCH  26  27
ENDBRANCH  25  26
ENDBRANCH   1  25
TORSDOF 19
ENDMDL
MODEL 3
REMARK VINA RESULT:     -11.3      4.991     10.207
REMARK SMILES CCC(CC)(NC(=O)c1ccc(NC(C)=O)cc1)C(=O)OCCOC(=O)c1ccc(-c2c3nc(c(-c4cc(S(=O)(=O)[O-])ccc4F)c4ccc([nH]4)c(-c4cc(S(=O)(=O)[O-])ccc4F)c4nc(c(-c5cc(S(=O)(=O)[O-])ccc5F)c5ccc2[nH]5)C=C4)C=C3)cc1
REMARK SMILES IDX 22 1 21 2 19 3 20 4 3 5 2 6 1 7 4 8 5 9 6 10 7 11 8 13 9 14
REMARK SMILES IDX 10 15 18 16 11 17 17 18 12 19 13 20 14 21 15 23 16 24 23 25
REMARK SMILES IDX 24 26 25 27 26 28 27 29 28 30 89 31 29 32 88 33 30 34 31 35
REMARK SMILES IDX 32 36 82 37 33 38 87 39 81 40 83 41 34 42 86 43 80 44 79 45
REMARK SMILES IDX 35 47 67 48 47 49 66 50 48 51 51 52 65 53 84 54 49 55 50 56
REMARK SMILES IDX 64 58 85 59 52 60 36 61 37 62 45 63 38 64 44 65 46 66 43 67
REMARK SMILES IDX 39 68 40 69 41 70 42 71 68 72 69 73 77 74 70 75 76 76 78 77
REMARK SMILES IDX 75 78 71 79 72 80 73 81 74 82 53 83 54 84 62 85 55 86 61 87
REMARK SMILES IDX 63 88 60 89 56 90 57 91 58 92 59 93
REMARK H PARENT 6 12 13 22 83 46 51 57
REMARK Flexibility Score: inf
ROOT
ATOM      1  C   UNL A   1      31.680  29.192  24.308  1.00  0.00     0.274 C 
ENDROOT
BRANCH   1   2
ATOM      2  O   UNL A   1      32.290  27.881  24.282  1.00  0.00    -0.460 OA
BRANCH   2   3
ATOM      3  C   UNL A   1      31.446  26.826  24.278  1.00  0.00     0.331 C 
ATOM      4  O   UNL A   1      30.225  26.961  24.279  1.00  0.00    -0.249 OA
BRANCH   3   5
ATOM      5  C   UNL A   1      32.137  25.430  24.432  1.00  0.00     0.137 C 
BRANCH   5   6
ATOM      6  C   UNL A   1      30.995  24.354  24.540  1.00  0.00     0.037 C 
ATOM      7  C   UNL A   1      30.634  23.783  25.909  1.00  0.00     0.007 C 
ENDBRANCH   5   6
BRANCH   5   8
ATOM      8  C   UNL A   1      32.950  25.553  25.758  1.00  0.00     0.037 C 
ATOM      9  C   UNL A   1      34.468  25.496  25.624  1.00  0.00     0.007 C 
ENDBRANCH   5   8
BRANCH   5  10
ATOM     10  N   UNL A   1      33.035  24.858  23.359  1.00  0.00    -0.336 N 
ATOM     11  C   UNL A   1      33.118  23.681  22.664  1.00  0.00     0.252 C 
ATOM     12  H   UNL A   1      33.740  25.491  23.093  1.00  0.00     0.165 HD
ATOM     13  O   UNL A   1      33.301  23.710  21.448  1.00  0.00    -0.269 OA
BRANCH  11  14
ATOM     14  C   UNL A   1      33.258  22.390  23.346  1.00  0.00     0.039 A 
ATOM     15  C   UNL A   1      32.283  21.414  23.120  1.00  0.00     0.016 A 
ATOM     16  C   UNL A   1      34.270  22.162  24.274  1.00  0.00     0.016 A 
ATOM     17  C   UNL A   1      32.398  20.154  23.717  1.00  0.00     0.027 A 
ATOM     18  C   UNL A   1      34.390  20.892  24.855  1.00  0.00     0.027 A 
ATOM     19  C   UNL A   1      33.493  19.860  24.529  1.00  0.00     0.041 A 
BRANCH  19  20
ATOM     20  N   UNL A   1      33.847  18.548  24.917  1.00  0.00    -0.326 N 
ATOM     21  C   UNL A   1      34.041  17.459  24.084  1.00  0.00     0.221 C 
ATOM     22  H   UNL A   1      33.969  18.392  25.881  1.00  0.00     0.169 HD
ATOM     23  C   UNL A   1      34.864  16.373  24.736  1.00  0.00     0.114 C 
ATOM     24  O   UNL A   1      33.629  17.319  22.938  1.00  0.00    -0.275 OA
ENDBRANCH  19  20
ENDBRANCH  11  14
ENDBRANCH   5  10
ENDBRANCH   3   5
ENDBRANCH   2   3
ENDBRANCH   1   2
BRANCH   1  25
ATOM     25  C   UNL A   1      31.739  29.776  25.711  1.00  0.00     0.275 C 
BRANCH  25  26
ATOM     26  O   UNL A   1      33.097  30.107  26.007  1.00  0.00    -0.458 OA
BRANCH  26  27
ATOM     27  C   UNL A   1      33.263  31.052  26.961  1.00  0.00     0.338 C 
ATOM     28  O   UNL A   1      32.504  31.935  27.299  1.00  0.00    -0.246 OA
BRANCH  27  29
ATOM     29  C   UNL A   1      34.576  30.846  27.562  1.00  0.00     0.060 A 
ATOM     30  C   UNL A   1      35.377  31.951  27.843  1.00  0.00     0.016 A 
ATOM     31  C   UNL A   1      35.003  29.550  27.824  1.00  0.00     0.016 A 
ATOM     32  C   UNL A   1      36.643  31.763  28.373  1.00  0.00     0.010 A 
ATOM     33  C   UNL A   1      36.230  29.369  28.451  1.00  0.00     0.010 A 
ATOM     34  C   UNL A   1      37.052  30.475  28.736  1.00  0.00    -0.014 A 
BRANCH  34  35
ATOM     35  C   UNL A   1      38.307  30.276  29.490  1.00  0.00     0.031 A 
ATOM     36  C   UNL A   1      39.367  29.376  28.939  1.00  0.00     0.074 A 
ATOM     37  C   UNL A   1      38.432  30.858  30.699  1.00  0.00     0.049 A 
ATOM     38  N   UNL A   1      40.407  28.861  29.537  1.00  0.00    -0.248 NA
ATOM     39  C   UNL A   1      39.216  28.978  27.531  1.00  0.00     0.031 C 
ATOM     40  C   UNL A   1      37.457  31.772  31.301  1.00  0.00     0.029 A 
ATOM     41  N   UNL A   1      39.414  30.754  31.647  1.00  0.00    -0.354 N 
ATOM     42  C   UNL A   1      41.012  28.037  28.595  1.00  0.00     0.074 A 
ATOM     43  C   UNL A   1      40.215  28.118  27.389  1.00  0.00     0.031 C 
ATOM     44  C   UNL A   1      37.895  32.156  32.508  1.00  0.00     0.029 A 
ATOM     45  C   UNL A   1      39.127  31.438  32.805  1.00  0.00     0.049 A 
ATOM     46  H   UNL A   1      40.244  30.242  31.514  1.00  0.00     0.167 HD
ATOM     47  C   UNL A   1      42.123  27.276  28.746  1.00  0.00     0.034 A 
ATOM     48  C   UNL A   1      39.748  31.434  33.999  1.00  0.00     0.034 A 
ATOM     49  C   UNL A   1      42.884  27.232  29.973  1.00  0.00     0.049 A 
ATOM     50  C   UNL A   1      40.962  30.562  34.152  1.00  0.00     0.074 A 
ATOM     51  C   UNL A   1      44.025  26.504  30.263  1.00  0.00     0.029 A 
ATOM     52  N   UNL A   1      42.571  27.952  31.123  1.00  0.00    -0.354 N 
ATOM     53  N   UNL A   1      41.507  29.752  33.272  1.00  0.00    -0.248 NA
ATOM     54  C   UNL A   1      41.638  30.593  35.451  1.00  0.00     0.031 C 
ATOM     55  C   UNL A   1      44.367  26.743  31.600  1.00  0.00     0.029 A 
ATOM     56  C   UNL A   1      43.481  27.670  32.129  1.00  0.00     0.049 A 
ATOM     57  H   UNL A   1      41.811  28.573  31.209  1.00  0.00     0.167 HD
ATOM     58  C   UNL A   1      42.598  29.177  33.913  1.00  0.00     0.074 A 
ATOM     59  C   UNL A   1      42.643  29.754  35.244  1.00  0.00     0.031 C 
ATOM     60  C   UNL A   1      43.480  28.254  33.450  1.00  0.00     0.034 A 
BRANCH  47  61
ATOM     61  C   UNL A   1      42.513  26.386  27.589  1.00  0.00     0.023 A 
ATOM     62  C   UNL A   1      41.986  25.092  27.431  1.00  0.00     0.031 A 
ATOM     63  C   UNL A   1      43.486  26.815  26.667  1.00  0.00     0.131 A 
ATOM     64  C   UNL A   1      42.494  24.244  26.433  1.00  0.00     0.055 A 
ATOM     65  C   UNL A   1      43.929  25.995  25.627  1.00  0.00     0.041 A 
ATOM     66  F   UNL A   1      44.044  28.030  26.778  1.00  0.00    -0.206 F 
ATOM     67  C   UNL A   1      43.447  24.694  25.517  1.00  0.00     0.022 A 
BRANCH  64  68
ATOM     68  S   UNL A   1      42.010  22.495  26.450  1.00  0.00     0.124 S 
ATOM     69  O   UNL A   1      42.675  22.017  27.660  1.00  0.00    -0.237 OA
ATOM     70  O   UNL A   1      40.556  22.572  26.508  1.00  0.00    -0.237 OA
ATOM     71  O   UNL A   1      42.558  21.974  25.200  1.00  0.00    -0.744 OA
ENDBRANCH  64  68
ENDBRANCH  47  61
BRANCH  48  72
ATOM     72  C   UNL A   1      39.187  32.215  35.137  1.00  0.00     0.023 A 
ATOM     73  C   UNL A   1      38.569  31.577  36.222  1.00  0.00     0.031 A 
ATOM     74  C   UNL A   1      39.281  33.619  35.163  1.00  0.00     0.131 A 
ATOM     75  C   UNL A   1      38.054  32.343  37.281  1.00  0.00     0.055 A 
ATOM     76  C   UNL A   1      38.810  34.372  36.238  1.00  0.00     0.041 A 
ATOM     77  F   UNL A   1      39.870  34.279  34.152  1.00  0.00    -0.206 F 
ATOM     78  C   UNL A   1      38.184  33.734  37.304  1.00  0.00     0.022 A 
BRANCH  75  79
ATOM     79  S   UNL A   1      37.157  31.496  38.612  1.00  0.00     0.124 S 
ATOM     80  O   UNL A   1      35.922  32.269  38.678  1.00  0.00    -0.237 OA
ATOM     81  O   UNL A   1      37.040  30.142  38.082  1.00  0.00    -0.237 OA
ATOM     82  O   UNL A   1      38.045  31.637  39.763  1.00  0.00    -0.744 OA
ENDBRANCH  75  79
ENDBRANCH  48  72
BRANCH  60  83
ATOM     83  C   UNL A   1      44.577  27.853  34.398  1.00  0.00     0.023 A 
ATOM     84  C   UNL A   1      44.470  26.705  35.200  1.00  0.00     0.031 A 
ATOM     85  C   UNL A   1      45.734  28.643  34.511  1.00  0.00     0.131 A 
ATOM     86  C   UNL A   1      45.482  26.404  36.121  1.00  0.00     0.055 A 
ATOM     87  C   UNL A   1      46.763  28.310  35.392  1.00  0.00     0.041 A 
ATOM     88  F   UNL A   1      45.879  29.751  33.767  1.00  0.00    -0.206 F 
ATOM     89  C   UNL A   1      46.635  27.191  36.211  1.00  0.00     0.022 A 
BRANCH  86  90
ATOM     90  S   UNL A   1      45.240  25.013  37.258  1.00  0.00     0.124 S 
ATOM     91  O   UNL A   1      44.693  23.991  36.373  1.00  0.00    -0.237 OA
ATOM     92  O   UNL A   1      46.594  24.772  37.750  1.00  0.00    -0.237 OA
ATOM     93  O   UNL A   1      44.306  25.540  38.251  1.00  0.00    -0.744 OA
ENDBRANCH  86  90
ENDBRANCH  60  83
ENDBRANCH  34  35
ENDBRANCH  27  29
ENDBRANCH  26  27
ENDBRANCH  25  26
ENDBRANCH   1  25
TORSDOF 19
ENDMDL
