MODEL 1
REMARK VINA RESULT:      -9.9      0.000      0.000
REMARK SMILES CCCCCCNC(=O)Oc1cccc(-c2ccc([C@@H](C)C(=O)OCCOC(=O)c3ccc(-c4c5nc(c(-c6cc(S(=O)(=O)[O-])ccc6F)c6ccc([nH]6)c(-c6cc(S(=O)(=O)[O-])ccc6F)c6nc(c(-c7cc(S(=O)(=O)[O-])ccc7F)c7ccc4[nH]7)C=C6)C=C5)cc3)cc2C)c1
REMARK SMILES IDX 20 1 21 2 19 3 16 4 17 5 94 6 18 7 93 8 95 9 15 10 11 11
REMARK SMILES IDX 12 12 96 13 13 14 14 15 10 16 8 17 7 18 9 20 6 21 5 22 4 23
REMARK SMILES IDX 3 24 2 25 1 26 22 27 23 28 24 29 25 30 26 31 27 32 28 33
REMARK SMILES IDX 29 34 30 35 31 36 92 37 32 38 91 39 33 40 34 41 35 42 85 43
REMARK SMILES IDX 36 44 90 45 84 46 86 47 37 48 89 49 83 50 82 51 38 53 70 54
REMARK SMILES IDX 50 55 69 56 51 57 54 58 68 59 87 60 52 61 53 62 67 64 88 65
REMARK SMILES IDX 55 66 39 67 40 68 48 69 41 70 47 71 49 72 46 73 42 74 43 75
REMARK SMILES IDX 44 76 45 77 71 78 72 79 80 80 73 81 79 82 81 83 78 84 74 85
REMARK SMILES IDX 75 86 76 87 77 88 56 89 57 90 65 91 58 92 64 93 66 94 63 95
REMARK SMILES IDX 59 96 60 97 61 98 62 99
REMARK H PARENT 7 19 86 52 54 63
REMARK Flexibility Score: inf
ROOT
ATOM      1  C   UNL A   1      33.640  19.634  24.947  1.00  0.00     0.126 C 
ATOM      2  C   UNL A   1      33.112  18.674  23.883  1.00  0.00     0.025 C 
ENDROOT
BRANCH   1   3
ATOM      3  C   UNL A   1      33.029  21.023  24.827  1.00  0.00    -0.034 A 
ATOM      4  C   UNL A   1      31.907  23.627  24.533  1.00  0.00    -0.015 A 
ATOM      5  C   UNL A   1      31.575  22.795  25.619  1.00  0.00     0.009 A 
ATOM      6  C   UNL A   1      32.835  23.143  23.588  1.00  0.00    -0.043 A 
ATOM      7  C   UNL A   1      32.130  21.522  25.771  1.00  0.00     0.005 A 
ATOM      8  C   UNL A   1      33.373  21.848  23.744  1.00  0.00     0.008 A 
ATOM      9  C   UNL A   1      33.261  23.926  22.371  1.00  0.00     0.045 C 
BRANCH   4  10
ATOM     10  C   UNL A   1      31.293  24.966  24.458  1.00  0.00    -0.014 A 
ATOM     11  C   UNL A   1      31.120  27.280  25.160  1.00  0.00     0.133 A 
ATOM     12  C   UNL A   1      30.058  27.497  24.284  1.00  0.00     0.047 A 
ATOM     13  C   UNL A   1      31.738  26.031  25.256  1.00  0.00     0.056 A 
ATOM     14  C   UNL A   1      29.617  26.454  23.476  1.00  0.00     0.004 A 
ATOM     15  C   UNL A   1      30.227  25.201  23.566  1.00  0.00     0.009 A 
BRANCH  11  16
ATOM     16  O   UNL A   1      31.436  28.332  26.036  1.00  0.00    -0.410 OA
BRANCH  16  17
ATOM     17  C   UNL A   1      31.826  29.550  25.501  1.00  0.00     0.412 C 
ATOM     18  N   UNL A   1      33.177  29.759  25.577  1.00  0.00    -0.321 N 
ATOM     19  H   UNL A   1      33.515  30.600  25.193  1.00  0.00     0.167 HD
ATOM     20  O   UNL A   1      31.083  30.403  25.031  1.00  0.00    -0.224 OA
BRANCH  18  21
ATOM     21  C   UNL A   1      34.163  28.872  26.164  1.00  0.00     0.119 C 
BRANCH  21  22
ATOM     22  C   UNL A   1      34.636  29.343  27.538  1.00  0.00     0.021 C 
BRANCH  22  23
ATOM     23  C   UNL A   1      35.460  30.637  27.535  1.00  0.00     0.002 C 
BRANCH  23  24
ATOM     24  C   UNL A   1      36.444  30.804  28.698  1.00  0.00    -0.000 C 
BRANCH  24  25
ATOM     25  C   UNL A   1      36.943  29.505  29.336  1.00  0.00    -0.003 C 
ATOM     26  C   UNL A   1      36.628  29.401  30.820  1.00  0.00     0.004 C 
ENDBRANCH  24  25
ENDBRANCH  23  24
ENDBRANCH  22  23
ENDBRANCH  21  22
ENDBRANCH  18  21
ENDBRANCH  16  17
ENDBRANCH  11  16
ENDBRANCH   4  10
ENDBRANCH   1   3
BRANCH   1  27
ATOM     27  C   UNL A   1      35.163  19.570  24.987  1.00  0.00     0.313 C 
ATOM     28  O   UNL A   1      35.785  18.580  24.610  1.00  0.00    -0.252 OA
BRANCH  27  29
ATOM     29  O   UNL A   1      35.754  20.721  25.405  1.00  0.00    -0.462 OA
BRANCH  29  30
ATOM     30  C   UNL A   1      37.122  20.933  25.010  1.00  0.00     0.274 C 
BRANCH  30  31
ATOM     31  C   UNL A   1      37.852  21.857  25.987  1.00  0.00     0.275 C 
BRANCH  31  32
ATOM     32  O   UNL A   1      39.269  21.861  25.741  1.00  0.00    -0.458 OA
BRANCH  32  33
ATOM     33  C   UNL A   1      40.033  21.683  26.845  1.00  0.00     0.338 C 
ATOM     34  O   UNL A   1      40.345  20.626  27.361  1.00  0.00    -0.246 OA
BRANCH  33  35
ATOM     35  C   UNL A   1      40.566  22.977  27.293  1.00  0.00     0.060 A 
ATOM     36  C   UNL A   1      40.160  24.122  26.603  1.00  0.00     0.016 A 
ATOM     37  C   UNL A   1      41.518  23.061  28.309  1.00  0.00     0.016 A 
ATOM     38  C   UNL A   1      40.722  25.356  26.906  1.00  0.00     0.010 A 
ATOM     39  C   UNL A   1      42.078  24.304  28.620  1.00  0.00     0.010 A 
ATOM     40  C   UNL A   1      41.698  25.455  27.904  1.00  0.00    -0.014 A 
BRANCH  40  41
ATOM     41  C   UNL A   1      42.366  26.758  28.135  1.00  0.00     0.031 A 
ATOM     42  C   UNL A   1      43.703  27.030  27.507  1.00  0.00     0.074 A 
ATOM     43  C   UNL A   1      41.754  27.703  28.870  1.00  0.00     0.049 A 
ATOM     44  N   UNL A   1      44.459  28.094  27.590  1.00  0.00    -0.248 NA
ATOM     45  C   UNL A   1      44.264  25.952  26.680  1.00  0.00     0.031 C 
ATOM     46  C   UNL A   1      40.445  27.555  29.507  1.00  0.00     0.029 A 
ATOM     47  N   UNL A   1      42.151  28.971  29.206  1.00  0.00    -0.354 N 
ATOM     48  C   UNL A   1      45.592  27.814  26.833  1.00  0.00     0.074 A 
ATOM     49  C   UNL A   1      45.436  26.462  26.338  1.00  0.00     0.031 C 
ATOM     50  C   UNL A   1      40.150  28.691  30.163  1.00  0.00     0.029 A 
ATOM     51  C   UNL A   1      41.261  29.627  30.021  1.00  0.00     0.049 A 
ATOM     52  H   UNL A   1      42.994  29.374  28.894  1.00  0.00     0.167 HD
ATOM     53  C   UNL A   1      46.654  28.615  26.569  1.00  0.00     0.034 A 
ATOM     54  C   UNL A   1      41.342  30.838  30.608  1.00  0.00     0.034 A 
ATOM     55  C   UNL A   1      46.795  29.957  27.088  1.00  0.00     0.049 A 
ATOM     56  C   UNL A   1      42.553  31.693  30.349  1.00  0.00     0.074 A 
ATOM     57  C   UNL A   1      47.820  30.863  26.880  1.00  0.00     0.029 A 
ATOM     58  N   UNL A   1      45.885  30.579  27.936  1.00  0.00    -0.354 N 
ATOM     59  N   UNL A   1      43.615  31.423  29.625  1.00  0.00    -0.248 NA
ATOM     60  C   UNL A   1      42.571  33.019  30.977  1.00  0.00     0.031 C 
ATOM     61  C   UNL A   1      47.562  32.005  27.649  1.00  0.00     0.029 A 
ATOM     62  C   UNL A   1      46.341  31.844  28.283  1.00  0.00     0.049 A 
ATOM     63  H   UNL A   1      45.041  30.181  28.246  1.00  0.00     0.167 HD
ATOM     64  C   UNL A   1      44.424  32.553  29.701  1.00  0.00     0.074 A 
ATOM     65  C   UNL A   1      43.718  33.512  30.527  1.00  0.00     0.031 C 
ATOM     66  C   UNL A   1      45.638  32.778  29.135  1.00  0.00     0.034 A 
BRANCH  53  67
ATOM     67  C   UNL A   1      47.765  28.024  25.731  1.00  0.00     0.023 A 
ATOM     68  C   UNL A   1      47.840  28.237  24.342  1.00  0.00     0.031 A 
ATOM     69  C   UNL A   1      48.719  27.172  26.315  1.00  0.00     0.131 A 
ATOM     70  C   UNL A   1      48.781  27.534  23.573  1.00  0.00     0.055 A 
ATOM     71  C   UNL A   1      49.709  26.543  25.557  1.00  0.00     0.041 A 
ATOM     72  F   UNL A   1      48.689  26.910  27.631  1.00  0.00    -0.206 F 
ATOM     73  C   UNL A   1      49.731  26.706  24.174  1.00  0.00     0.022 A 
BRANCH  70  74
ATOM     74  S   UNL A   1      48.632  27.577  21.764  1.00  0.00     0.124 S 
ATOM     75  O   UNL A   1      48.971  26.202  21.404  1.00  0.00    -0.237 OA
ATOM     76  O   UNL A   1      47.238  27.962  21.573  1.00  0.00    -0.237 OA
ATOM     77  O   UNL A   1      49.617  28.577  21.361  1.00  0.00    -0.744 OA
ENDBRANCH  70  74
ENDBRANCH  53  67
BRANCH  54  78
ATOM     78  C   UNL A   1      40.263  31.282  31.532  1.00  0.00     0.023 A 
ATOM     79  C   UNL A   1      40.295  30.973  32.899  1.00  0.00     0.031 A 
ATOM     80  C   UNL A   1      39.179  32.035  31.045  1.00  0.00     0.131 A 
ATOM     81  C   UNL A   1      39.247  31.399  33.733  1.00  0.00     0.055 A 
ATOM     82  C   UNL A   1      38.163  32.490  31.884  1.00  0.00     0.041 A 
ATOM     83  F   UNL A   1      39.109  32.362  29.745  1.00  0.00    -0.206 F 
ATOM     84  C   UNL A   1      38.190  32.167  33.236  1.00  0.00     0.022 A 
BRANCH  81  85
ATOM     85  S   UNL A   1      39.268  30.908  35.479  1.00  0.00     0.124 S 
ATOM     86  O   UNL A   1      37.869  31.073  35.852  1.00  0.00    -0.237 OA
ATOM     87  O   UNL A   1      39.756  29.535  35.403  1.00  0.00    -0.237 OA
ATOM     88  O   UNL A   1      40.194  31.861  36.089  1.00  0.00    -0.744 OA
ENDBRANCH  81  85
ENDBRANCH  54  78
BRANCH  66  89
ATOM     89  C   UNL A   1      46.260  34.132  29.378  1.00  0.00     0.023 A 
ATOM     90  C   UNL A   1      46.025  35.218  28.516  1.00  0.00     0.031 A 
ATOM     91  C   UNL A   1      47.112  34.330  30.478  1.00  0.00     0.131 A 
ATOM     92  C   UNL A   1      46.675  36.441  28.742  1.00  0.00     0.055 A 
ATOM     93  C   UNL A   1      47.715  35.564  30.726  1.00  0.00     0.041 A 
ATOM     94  F   UNL A   1      47.373  33.325  31.330  1.00  0.00    -0.206 F 
ATOM     95  C   UNL A   1      47.508  36.625  29.849  1.00  0.00     0.022 A 
BRANCH  92  96
ATOM     96  S   UNL A   1      46.486  37.770  27.521  1.00  0.00     0.124 S 
ATOM     97  O   UNL A   1      46.791  37.080  26.271  1.00  0.00    -0.237 OA
ATOM     98  O   UNL A   1      45.095  38.169  27.707  1.00  0.00    -0.237 OA
ATOM     99  O   UNL A   1      47.474  38.763  27.938  1.00  0.00    -0.744 OA
ENDBRANCH  92  96
ENDBRANCH  66  89
ENDBRANCH  40  41
ENDBRANCH  33  35
ENDBRANCH  32  33
ENDBRANCH  31  32
ENDBRANCH  30  31
ENDBRANCH  29  30
ENDBRANCH  27  29
ENDBRANCH   1  27
TORSDOF 23
ENDMDL
MODEL 2
REMARK VINA RESULT:      -9.8      3.790      6.667
REMARK SMILES CCCCCCNC(=O)Oc1cccc(-c2ccc([C@@H](C)C(=O)OCCOC(=O)c3ccc(-c4c5nc(c(-c6cc(S(=O)(=O)[O-])ccc6F)c6ccc([nH]6)c(-c6cc(S(=O)(=O)[O-])ccc6F)c6nc(c(-c7cc(S(=O)(=O)[O-])ccc7F)c7ccc4[nH]7)C=C6)C=C5)cc3)cc2C)c1
REMARK SMILES IDX 20 1 21 2 19 3 16 4 17 5 94 6 18 7 93 8 95 9 15 10 11 11
REMARK SMILES IDX 12 12 96 13 13 14 14 15 10 16 8 17 7 18 9 20 6 21 5 22 4 23
REMARK SMILES IDX 3 24 2 25 1 26 22 27 23 28 24 29 25 30 26 31 27 32 28 33
REMARK SMILES IDX 29 34 30 35 31 36 92 37 32 38 91 39 33 40 34 41 35 42 85 43
REMARK SMILES IDX 36 44 90 45 84 46 86 47 37 48 89 49 83 50 82 51 38 53 70 54
REMARK SMILES IDX 50 55 69 56 51 57 54 58 68 59 87 60 52 61 53 62 67 64 88 65
REMARK SMILES IDX 55 66 39 67 40 68 48 69 41 70 47 71 49 72 46 73 42 74 43 75
REMARK SMILES IDX 44 76 45 77 71 78 72 79 80 80 73 81 79 82 81 83 78 84 74 85
REMARK SMILES IDX 75 86 76 87 77 88 56 89 57 90 65 91 58 92 64 93 66 94 63 95
REMARK SMILES IDX 59 96 60 97 61 98 62 99
REMARK H PARENT 7 19 86 52 54 63
REMARK Flexibility Score: inf
ROOT
ATOM      1  C   UNL A   1      41.279  22.220  27.040  1.00  0.00     0.126 C 
ATOM      2  C   UNL A   1      41.640  22.949  28.332  1.00  0.00     0.025 C 
ENDROOT
BRANCH   1   3
ATOM      3  C   UNL A   1      39.877  22.560  26.556  1.00  0.00    -0.034 A 
ATOM      4  C   UNL A   1      37.236  23.126  25.643  1.00  0.00    -0.015 A 
ATOM      5  C   UNL A   1      38.025  24.102  26.279  1.00  0.00     0.009 A 
ATOM      6  C   UNL A   1      37.796  21.846  25.449  1.00  0.00    -0.043 A 
ATOM      7  C   UNL A   1      39.323  23.831  26.719  1.00  0.00     0.005 A 
ATOM      8  C   UNL A   1      39.100  21.581  25.916  1.00  0.00     0.008 A 
ATOM      9  C   UNL A   1      37.049  20.707  24.799  1.00  0.00     0.045 C 
BRANCH   4  10
ATOM     10  C   UNL A   1      35.883  23.500  25.189  1.00  0.00    -0.014 A 
ATOM     11  C   UNL A   1      33.557  24.035  25.617  1.00  0.00     0.133 A 
ATOM     12  C   UNL A   1      33.313  24.190  24.253  1.00  0.00     0.047 A 
ATOM     13  C   UNL A   1      34.825  23.692  26.092  1.00  0.00     0.056 A 
ATOM     14  C   UNL A   1      34.355  24.018  23.349  1.00  0.00     0.004 A 
ATOM     15  C   UNL A   1      35.626  23.672  23.815  1.00  0.00     0.009 A 
BRANCH  11  16
ATOM     16  O   UNL A   1      32.440  24.098  26.466  1.00  0.00    -0.410 OA
BRANCH  16  17
ATOM     17  C   UNL A   1      31.308  23.370  26.134  1.00  0.00     0.412 C 
ATOM     18  N   UNL A   1      30.223  24.160  25.868  1.00  0.00    -0.321 N 
ATOM     19  H   UNL A   1      29.395  23.697  25.605  1.00  0.00     0.167 HD
ATOM     20  O   UNL A   1      31.220  22.148  26.101  1.00  0.00    -0.224 OA
BRANCH  18  21
ATOM     21  C   UNL A   1      30.164  25.608  25.933  1.00  0.00     0.119 C 
BRANCH  21  22
ATOM     22  C   UNL A   1      29.790  26.244  24.595  1.00  0.00     0.021 C 
BRANCH  22  23
ATOM     23  C   UNL A   1      30.874  27.132  23.971  1.00  0.00     0.002 C 
BRANCH  23  24
ATOM     24  C   UNL A   1      31.602  28.074  24.935  1.00  0.00    -0.000 C 
BRANCH  24  25
ATOM     25  C   UNL A   1      33.123  27.913  24.997  1.00  0.00    -0.003 C 
ATOM     26  C   UNL A   1      33.638  27.563  26.384  1.00  0.00     0.004 C 
ENDBRANCH  24  25
ENDBRANCH  23  24
ENDBRANCH  22  23
ENDBRANCH  21  22
ENDBRANCH  18  21
ENDBRANCH  16  17
ENDBRANCH  11  16
ENDBRANCH   4  10
ENDBRANCH   1   3
BRANCH   1  27
ATOM     27  C   UNL A   1      41.600  20.735  27.180  1.00  0.00     0.313 C 
ATOM     28  O   UNL A   1      40.960  19.997  27.924  1.00  0.00    -0.252 OA
BRANCH  27  29
ATOM     29  O   UNL A   1      42.600  20.307  26.364  1.00  0.00    -0.462 OA
BRANCH  29  30
ATOM     30  C   UNL A   1      43.281  21.309  25.587  1.00  0.00     0.274 C 
BRANCH  30  31
ATOM     31  C   UNL A   1      44.732  20.910  25.306  1.00  0.00     0.275 C 
BRANCH  31  32
ATOM     32  O   UNL A   1      45.651  21.730  26.049  1.00  0.00    -0.458 OA
BRANCH  32  33
ATOM     33  C   UNL A   1      46.133  22.797  25.367  1.00  0.00     0.338 C 
ATOM     34  O   UNL A   1      46.644  22.794  24.263  1.00  0.00    -0.246 OA
BRANCH  33  35
ATOM     35  C   UNL A   1      45.836  24.032  26.107  1.00  0.00     0.060 A 
ATOM     36  C   UNL A   1      46.817  24.528  26.967  1.00  0.00     0.016 A 
ATOM     37  C   UNL A   1      44.584  24.643  26.029  1.00  0.00     0.016 A 
ATOM     38  C   UNL A   1      46.545  25.623  27.778  1.00  0.00     0.010 A 
ATOM     39  C   UNL A   1      44.313  25.751  26.839  1.00  0.00     0.010 A 
ATOM     40  C   UNL A   1      45.286  26.233  27.734  1.00  0.00    -0.014 A 
BRANCH  40  41
ATOM     41  C   UNL A   1      44.979  27.327  28.686  1.00  0.00     0.031 A 
ATOM     42  C   UNL A   1      45.084  28.755  28.235  1.00  0.00     0.074 A 
ATOM     43  C   UNL A   1      44.569  27.034  29.933  1.00  0.00     0.049 A 
ATOM     44  N   UNL A   1      44.872  29.857  28.909  1.00  0.00    -0.248 NA
ATOM     45  C   UNL A   1      45.491  28.969  26.839  1.00  0.00     0.031 C 
ATOM     46  C   UNL A   1      44.409  25.682  30.469  1.00  0.00     0.029 A 
ATOM     47  N   UNL A   1      44.215  27.853  30.973  1.00  0.00    -0.354 N 
ATOM     48  C   UNL A   1      45.126  30.898  28.022  1.00  0.00     0.074 A 
ATOM     49  C   UNL A   1      45.550  30.290  26.778  1.00  0.00     0.031 C 
ATOM     50  C   UNL A   1      43.992  25.766  31.743  1.00  0.00     0.029 A 
ATOM     51  C   UNL A   1      43.891  27.173  32.121  1.00  0.00     0.049 A 
ATOM     52  H   UNL A   1      44.195  28.835  30.904  1.00  0.00     0.167 HD
ATOM     53  C   UNL A   1      45.005  32.234  28.227  1.00  0.00     0.034 A 
ATOM     54  C   UNL A   1      43.572  27.631  33.348  1.00  0.00     0.034 A 
ATOM     55  C   UNL A   1      44.595  32.819  29.482  1.00  0.00     0.049 A 
ATOM     56  C   UNL A   1      43.496  29.117  33.573  1.00  0.00     0.074 A 
ATOM     57  C   UNL A   1      44.427  34.155  29.803  1.00  0.00     0.029 A 
ATOM     58  N   UNL A   1      44.302  32.098  30.636  1.00  0.00    -0.354 N 
ATOM     59  N   UNL A   1      43.730  30.094  32.726  1.00  0.00    -0.248 NA
ATOM     60  C   UNL A   1      43.102  29.563  34.915  1.00  0.00     0.031 C 
ATOM     61  C   UNL A   1      44.096  34.246  31.160  1.00  0.00     0.029 A 
ATOM     62  C   UNL A   1      43.985  32.963  31.675  1.00  0.00     0.049 A 
ATOM     63  H   UNL A   1      44.317  31.117  30.705  1.00  0.00     0.167 HD
ATOM     64  C   UNL A   1      43.500  31.271  33.432  1.00  0.00     0.074 A 
ATOM     65  C   UNL A   1      43.092  30.881  34.767  1.00  0.00     0.031 C 
ATOM     66  C   UNL A   1      43.610  32.558  33.011  1.00  0.00     0.034 A 
BRANCH  53  67
ATOM     67  C   UNL A   1      45.385  33.138  27.076  1.00  0.00     0.023 A 
ATOM     68  C   UNL A   1      46.698  33.620  26.914  1.00  0.00     0.031 A 
ATOM     69  C   UNL A   1      44.407  33.587  26.172  1.00  0.00     0.131 A 
ATOM     70  C   UNL A   1      46.974  34.591  25.938  1.00  0.00     0.055 A 
ATOM     71  C   UNL A   1      44.706  34.487  25.146  1.00  0.00     0.041 A 
ATOM     72  F   UNL A   1      43.132  33.181  26.285  1.00  0.00    -0.206 F 
ATOM     73  C   UNL A   1      45.992  35.011  25.038  1.00  0.00     0.022 A 
BRANCH  70  74
ATOM     74  S   UNL A   1      48.584  35.429  25.977  1.00  0.00     0.124 S 
ATOM     75  O   UNL A   1      48.226  36.784  25.566  1.00  0.00    -0.237 OA
ATOM     76  O   UNL A   1      48.988  35.269  27.369  1.00  0.00    -0.237 OA
ATOM     77  O   UNL A   1      49.383  34.685  25.005  1.00  0.00    -0.744 OA
ENDBRANCH  70  74
ENDBRANCH  53  67
BRANCH  54  78
ATOM     78  C   UNL A   1      43.350  26.667  34.460  1.00  0.00     0.023 A 
ATOM     79  C   UNL A   1      44.422  26.102  35.165  1.00  0.00     0.031 A 
ATOM     80  C   UNL A   1      42.043  26.303  34.832  1.00  0.00     0.131 A 
ATOM     81  C   UNL A   1      44.168  25.184  36.198  1.00  0.00     0.055 A 
ATOM     82  C   UNL A   1      41.796  25.423  35.885  1.00  0.00     0.041 A 
ATOM     83  F   UNL A   1      40.985  26.824  34.190  1.00  0.00    -0.206 F 
ATOM     84  C   UNL A   1      42.862  24.852  36.570  1.00  0.00     0.022 A 
BRANCH  81  85
ATOM     85  S   UNL A   1      45.574  24.400  37.033  1.00  0.00     0.124 S 
ATOM     86  O   UNL A   1      46.679  24.748  36.147  1.00  0.00    -0.237 OA
ATOM     87  O   UNL A   1      45.562  25.060  38.335  1.00  0.00    -0.237 OA
ATOM     88  O   UNL A   1      45.212  22.984  37.054  1.00  0.00    -0.744 OA
ENDBRANCH  81  85
ENDBRANCH  54  78
BRANCH  66  89
ATOM     89  C   UNL A   1      43.258  33.632  34.012  1.00  0.00     0.023 A 
ATOM     90  C   UNL A   1      41.922  33.935  34.330  1.00  0.00     0.031 A 
ATOM     91  C   UNL A   1      44.274  34.372  34.641  1.00  0.00     0.131 A 
ATOM     92  C   UNL A   1      41.637  34.985  35.216  1.00  0.00     0.055 A 
ATOM     93  C   UNL A   1      43.985  35.381  35.561  1.00  0.00     0.041 A 
ATOM     94  F   UNL A   1      45.566  34.125  34.371  1.00  0.00    -0.206 F 
ATOM     95  C   UNL A   1      42.660  35.701  35.844  1.00  0.00     0.022 A 
BRANCH  92  96
ATOM     96  S   UNL A   1      39.906  35.464  35.477  1.00  0.00     0.124 S 
ATOM     97  O   UNL A   1      39.491  34.543  36.531  1.00  0.00    -0.237 OA
ATOM     98  O   UNL A   1      40.025  36.865  35.864  1.00  0.00    -0.237 OA
ATOM     99  O   UNL A   1      39.286  35.234  34.173  1.00  0.00    -0.744 OA
ENDBRANCH  92  96
ENDBRANCH  66  89
ENDBRANCH  40  41
ENDBRANCH  33  35
ENDBRANCH  32  33
ENDBRANCH  31  32
ENDBRANCH  30  31
ENDBRANCH  29  30
ENDBRANCH  27  29
ENDBRANCH   1  27
TORSDOF 23
ENDMDL
MODEL 3
REMARK VINA RESULT:      -9.8      1.843      2.123
REMARK SMILES CCCCCCNC(=O)Oc1cccc(-c2ccc([C@@H](C)C(=O)OCCOC(=O)c3ccc(-c4c5nc(c(-c6cc(S(=O)(=O)[O-])ccc6F)c6ccc([nH]6)c(-c6cc(S(=O)(=O)[O-])ccc6F)c6nc(c(-c7cc(S(=O)(=O)[O-])ccc7F)c7ccc4[nH]7)C=C6)C=C5)cc3)cc2C)c1
REMARK SMILES IDX 20 1 21 2 19 3 16 4 17 5 94 6 18 7 93 8 95 9 15 10 11 11
REMARK SMILES IDX 12 12 96 13 13 14 14 15 10 16 8 17 7 18 9 20 6 21 5 22 4 23
REMARK SMILES IDX 3 24 2 25 1 26 22 27 23 28 24 29 25 30 26 31 27 32 28 33
REMARK SMILES IDX 29 34 30 35 31 36 92 37 32 38 91 39 33 40 34 41 35 42 85 43
REMARK SMILES IDX 36 44 90 45 84 46 86 47 37 48 89 49 83 50 82 51 38 53 70 54
REMARK SMILES IDX 50 55 69 56 51 57 54 58 68 59 87 60 52 61 53 62 67 64 88 65
REMARK SMILES IDX 55 66 39 67 40 68 48 69 41 70 47 71 49 72 46 73 42 74 43 75
REMARK SMILES IDX 44 76 45 77 71 78 72 79 80 80 73 81 79 82 81 83 78 84 74 85
REMARK SMILES IDX 75 86 76 87 77 88 56 89 57 90 65 91 58 92 64 93 66 94 63 95
REMARK SMILES IDX 59 96 60 97 61 98 62 99
REMARK H PARENT 7 19 86 52 54 63
REMARK Flexibility Score: inf
ROOT
ATOM      1  C   UNL A   1      33.700  19.594  25.025  1.00  0.00     0.126 C 
ATOM      2  C   UNL A   1      33.102  18.611  24.021  1.00  0.00     0.025 C 
ENDROOT
BRANCH   1   3
ATOM      3  C   UNL A   1      33.096  20.986  24.901  1.00  0.00    -0.034 A 
ATOM      4  C   UNL A   1      31.982  23.593  24.597  1.00  0.00    -0.015 A 
ATOM      5  C   UNL A   1      31.693  22.789  25.716  1.00  0.00     0.009 A 
ATOM      6  C   UNL A   1      32.864  23.079  23.624  1.00  0.00    -0.043 A 
ATOM      7  C   UNL A   1      32.244  21.514  25.872  1.00  0.00     0.005 A 
ATOM      8  C   UNL A   1      33.397  21.784  23.785  1.00  0.00     0.008 A 
ATOM      9  C   UNL A   1      33.240  23.831  22.371  1.00  0.00     0.045 C 
BRANCH   4  10
ATOM     10  C   UNL A   1      31.377  24.935  24.519  1.00  0.00    -0.014 A 
ATOM     11  C   UNL A   1      31.212  27.250  25.223  1.00  0.00     0.133 A 
ATOM     12  C   UNL A   1      30.158  27.473  24.339  1.00  0.00     0.047 A 
ATOM     13  C   UNL A   1      31.822  25.997  25.322  1.00  0.00     0.056 A 
ATOM     14  C   UNL A   1      29.717  26.435  23.526  1.00  0.00     0.004 A 
ATOM     15  C   UNL A   1      30.319  25.178  23.620  1.00  0.00     0.009 A 
BRANCH  11  16
ATOM     16  O   UNL A   1      31.526  28.299  26.102  1.00  0.00    -0.410 OA
BRANCH  16  17
ATOM     17  C   UNL A   1      31.957  29.506  25.573  1.00  0.00     0.412 C 
ATOM     18  N   UNL A   1      33.308  29.692  25.695  1.00  0.00    -0.321 N 
ATOM     19  H   UNL A   1      33.673  30.524  25.317  1.00  0.00     0.167 HD
ATOM     20  O   UNL A   1      31.245  30.368  25.072  1.00  0.00    -0.224 OA
BRANCH  18  21
ATOM     21  C   UNL A   1      34.257  28.792  26.322  1.00  0.00     0.119 C 
BRANCH  21  22
ATOM     22  C   UNL A   1      34.877  29.379  27.588  1.00  0.00     0.021 C 
BRANCH  22  23
ATOM     23  C   UNL A   1      36.101  30.275  27.359  1.00  0.00     0.002 C 
BRANCH  23  24
ATOM     24  C   UNL A   1      37.054  30.421  28.550  1.00  0.00    -0.000 C 
BRANCH  24  25
ATOM     25  C   UNL A   1      37.053  29.257  29.545  1.00  0.00    -0.003 C 
ATOM     26  C   UNL A   1      36.586  29.653  30.937  1.00  0.00     0.004 C 
ENDBRANCH  24  25
ENDBRANCH  23  24
ENDBRANCH  22  23
ENDBRANCH  21  22
ENDBRANCH  18  21
ENDBRANCH  16  17
ENDBRANCH  11  16
ENDBRANCH   4  10
ENDBRANCH   1   3
BRANCH   1  27
ATOM     27  C   UNL A   1      35.222  19.516  24.978  1.00  0.00     0.313 C 
ATOM     28  O   UNL A   1      35.813  18.496  24.633  1.00  0.00    -0.252 OA
BRANCH  27  29
ATOM     29  O   UNL A   1      35.846  20.685  25.283  1.00  0.00    -0.462 OA
BRANCH  29  30
ATOM     30  C   UNL A   1      37.229  20.805  24.900  1.00  0.00     0.274 C 
BRANCH  30  31
ATOM     31  C   UNL A   1      38.000  21.710  25.863  1.00  0.00     0.275 C 
BRANCH  31  32
ATOM     32  O   UNL A   1      39.421  21.568  25.688  1.00  0.00    -0.458 OA
BRANCH  32  33
ATOM     33  C   UNL A   1      40.120  21.434  26.840  1.00  0.00     0.338 C 
ATOM     34  O   UNL A   1      40.371  20.401  27.432  1.00  0.00    -0.246 OA
BRANCH  33  35
ATOM     35  C   UNL A   1      40.671  22.737  27.238  1.00  0.00     0.060 A 
ATOM     36  C   UNL A   1      40.268  23.863  26.517  1.00  0.00     0.016 A 
ATOM     37  C   UNL A   1      41.636  22.843  28.241  1.00  0.00     0.016 A 
ATOM     38  C   UNL A   1      40.846  25.100  26.773  1.00  0.00     0.010 A 
ATOM     39  C   UNL A   1      42.212  24.090  28.505  1.00  0.00     0.010 A 
ATOM     40  C   UNL A   1      41.835  25.221  27.757  1.00  0.00    -0.014 A 
BRANCH  40  41
ATOM     41  C   UNL A   1      42.519  26.524  27.938  1.00  0.00     0.031 A 
ATOM     42  C   UNL A   1      43.854  26.758  27.293  1.00  0.00     0.074 A 
ATOM     43  C   UNL A   1      41.921  27.501  28.641  1.00  0.00     0.049 A 
ATOM     44  N   UNL A   1      44.623  27.817  27.334  1.00  0.00    -0.248 NA
ATOM     45  C   UNL A   1      44.399  25.646  26.502  1.00  0.00     0.031 C 
ATOM     46  C   UNL A   1      40.614  27.391  29.291  1.00  0.00     0.029 A 
ATOM     47  N   UNL A   1      42.334  28.776  28.930  1.00  0.00    -0.354 N 
ATOM     48  C   UNL A   1      45.748  27.497  26.582  1.00  0.00     0.074 A 
ATOM     49  C   UNL A   1      45.575  26.130  26.135  1.00  0.00     0.031 C 
ATOM     50  C   UNL A   1      40.335  28.552  29.906  1.00  0.00     0.029 A 
ATOM     51  C   UNL A   1      41.456  29.470  29.726  1.00  0.00     0.049 A 
ATOM     52  H   UNL A   1      43.179  29.158  28.599  1.00  0.00     0.167 HD
ATOM     53  C   UNL A   1      46.818  28.277  26.284  1.00  0.00     0.034 A 
ATOM     54  C   UNL A   1      41.554  30.700  30.269  1.00  0.00     0.034 A 
ATOM     55  C   UNL A   1      46.977  29.634  26.754  1.00  0.00     0.049 A 
ATOM     56  C   UNL A   1      42.772  31.532  29.973  1.00  0.00     0.074 A 
ATOM     57  C   UNL A   1      48.010  30.521  26.508  1.00  0.00     0.029 A 
ATOM     58  N   UNL A   1      46.078  30.296  27.584  1.00  0.00    -0.354 N 
ATOM     59  N   UNL A   1      43.827  31.225  29.254  1.00  0.00    -0.248 NA
ATOM     60  C   UNL A   1      42.808  32.880  30.553  1.00  0.00     0.031 C 
ATOM     61  C   UNL A   1      47.769  31.693  27.237  1.00  0.00     0.029 A 
ATOM     62  C   UNL A   1      46.549  31.568  27.884  1.00  0.00     0.049 A 
ATOM     63  H   UNL A   1      45.231  29.919  27.912  1.00  0.00     0.167 HD
ATOM     64  C   UNL A   1      44.649  32.348  29.286  1.00  0.00     0.074 A 
ATOM     65  C   UNL A   1      43.958  33.343  30.081  1.00  0.00     0.031 C 
ATOM     66  C   UNL A   1      45.861  32.539  28.705  1.00  0.00     0.034 A 
BRANCH  53  67
ATOM     67  C   UNL A   1      47.917  27.643  25.462  1.00  0.00     0.023 A 
ATOM     68  C   UNL A   1      49.066  27.091  26.059  1.00  0.00     0.031 A 
ATOM     69  C   UNL A   1      47.853  27.659  24.058  1.00  0.00     0.131 A 
ATOM     70  C   UNL A   1      50.140  26.668  25.259  1.00  0.00     0.055 A 
ATOM     71  C   UNL A   1      48.889  27.156  23.266  1.00  0.00     0.041 A 
ATOM     72  F   UNL A   1      46.795  28.191  23.426  1.00  0.00    -0.206 F 
ATOM     73  C   UNL A   1      50.049  26.677  23.866  1.00  0.00     0.022 A 
BRANCH  70  74
ATOM     74  S   UNL A   1      51.720  26.279  26.063  1.00  0.00     0.124 S 
ATOM     75  O   UNL A   1      52.684  26.733  25.062  1.00  0.00    -0.237 OA
ATOM     76  O   UNL A   1      51.653  27.067  27.289  1.00  0.00    -0.237 OA
ATOM     77  O   UNL A   1      51.665  24.830  26.247  1.00  0.00    -0.744 OA
ENDBRANCH  70  74
ENDBRANCH  53  67
BRANCH  54  78
ATOM     78  C   UNL A   1      40.485  31.189  31.182  1.00  0.00     0.023 A 
ATOM     79  C   UNL A   1      39.488  32.071  30.739  1.00  0.00     0.031 A 
ATOM     80  C   UNL A   1      40.450  30.767  32.523  1.00  0.00     0.131 A 
ATOM     81  C   UNL A   1      38.507  32.519  31.639  1.00  0.00     0.055 A 
ATOM     82  C   UNL A   1      39.451  31.183  33.401  1.00  0.00     0.041 A 
ATOM     83  F   UNL A   1      41.379  29.917  32.991  1.00  0.00    -0.206 F 
ATOM     84  C   UNL A   1      38.474  32.070  32.962  1.00  0.00     0.022 A 
BRANCH  81  85
ATOM     85  S   UNL A   1      37.284  33.729  31.063  1.00  0.00     0.124 S 
ATOM     86  O   UNL A   1      37.565  33.779  29.633  1.00  0.00    -0.237 OA
ATOM     87  O   UNL A   1      36.026  33.098  31.449  1.00  0.00    -0.237 OA
ATOM     88  O   UNL A   1      37.626  34.939  31.809  1.00  0.00    -0.744 OA
ENDBRANCH  81  85
ENDBRANCH  54  78
BRANCH  66  89
ATOM     89  C   UNL A   1      46.500  33.893  28.897  1.00  0.00     0.023 A 
ATOM     90  C   UNL A   1      46.207  34.974  28.046  1.00  0.00     0.031 A 
ATOM     91  C   UNL A   1      47.426  34.097  29.935  1.00  0.00     0.131 A 
ATOM     92  C   UNL A   1      46.872  36.198  28.220  1.00  0.00     0.055 A 
ATOM     93  C   UNL A   1      48.045  35.332  30.133  1.00  0.00     0.041 A 
ATOM     94  F   UNL A   1      47.743  33.098  30.773  1.00  0.00    -0.206 F 
ATOM     95  C   UNL A   1      47.779  36.388  29.266  1.00  0.00     0.022 A 
BRANCH  92  96
ATOM     96  S   UNL A   1      46.601  37.520  27.006  1.00  0.00     0.124 S 
ATOM     97  O   UNL A   1      47.101  38.693  27.718  1.00  0.00    -0.237 OA
ATOM     98  O   UNL A   1      47.403  37.072  25.873  1.00  0.00    -0.237 OA
ATOM     99  O   UNL A   1      45.156  37.496  26.789  1.00  0.00    -0.744 OA
ENDBRANCH  92  96
ENDBRANCH  66  89
ENDBRANCH  40  41
ENDBRANCH  33  35
ENDBRANCH  32  33
ENDBRANCH  31  32
ENDBRANCH  30  31
ENDBRANCH  29  30
ENDBRANCH  27  29
ENDBRANCH   1  27
TORSDOF 23
ENDMDL
