MODEL 1
REMARK VINA RESULT:     -12.7      0.000      0.000
REMARK SMILES O=C(OCCOC(=O)[C@H]1CCCN(c2cc(-c3ccccn3)nc(-c3ccccc3F)n2)C1)c1ccc(-c2c3nc(c(-c4cc(S(=O)(=O)[O-])ccc4F)c4ccc([nH]4)c(-c4cc(S(=O)(=O)[O-])ccc4F)c4nc(c(-c5cc(S(=O)(=O)[O-])ccc5F)c5ccc2[nH]5)C=C4)C=C3)cc1
REMARK SMILES IDX 4 1 3 2 2 3 1 4 34 5 35 6 96 7 36 8 95 9 37 10 38 11 39 12
REMARK SMILES IDX 89 13 40 14 94 15 88 16 90 17 41 18 93 19 87 20 86 21 42 23
REMARK SMILES IDX 74 24 54 25 73 26 55 27 58 28 72 29 91 30 56 31 57 32 71 34
REMARK SMILES IDX 92 35 59 36 43 37 44 38 52 39 45 40 51 41 53 42 50 43 46 44
REMARK SMILES IDX 47 45 48 46 49 47 75 48 76 49 84 50 77 51 83 52 85 53 82 54
REMARK SMILES IDX 78 55 79 56 80 57 81 58 60 59 61 60 69 61 62 62 68 63 70 64
REMARK SMILES IDX 67 65 63 66 64 67 65 68 66 69 5 70 6 71 7 72 8 73 9 74 10 75
REMARK SMILES IDX 33 76 11 77 13 78 12 79 14 80 15 81 32 82 16 83 24 84 23 85
REMARK SMILES IDX 17 86 18 87 22 88 19 89 21 90 20 91 25 92 26 93 30 94 27 95
REMARK SMILES IDX 29 96 31 97 28 98
REMARK H PARENT 90 22 58 33
REMARK Flexibility Score: inf
ROOT
ATOM      1  C   UNL A   1      31.807  29.620  26.344  1.00  0.00     0.275 C 
ENDROOT
BRANCH   1   2
ATOM      2  O   UNL A   1      32.780  30.663  26.180  1.00  0.00    -0.458 OA
BRANCH   2   3
ATOM      3  C   UNL A   1      33.431  31.423  27.092  1.00  0.00     0.338 C 
ATOM      4  O   UNL A   1      33.016  32.562  27.302  1.00  0.00    -0.246 OA
BRANCH   3   5
ATOM      5  C   UNL A   1      34.676  30.996  27.815  1.00  0.00     0.060 A 
ATOM      6  C   UNL A   1      34.928  29.727  28.346  1.00  0.00     0.016 A 
ATOM      7  C   UNL A   1      35.675  31.977  27.972  1.00  0.00     0.016 A 
ATOM      8  C   UNL A   1      36.157  29.413  28.934  1.00  0.00     0.010 A 
ATOM      9  C   UNL A   1      36.897  31.678  28.585  1.00  0.00     0.010 A 
ATOM     10  C   UNL A   1      37.148  30.384  29.057  1.00  0.00    -0.014 A 
BRANCH  10  11
ATOM     11  C   UNL A   1      38.354  30.087  29.858  1.00  0.00     0.031 A 
ATOM     12  C   UNL A   1      39.347  29.140  29.260  1.00  0.00     0.074 A 
ATOM     13  C   UNL A   1      38.599  30.702  31.031  1.00  0.00     0.049 A 
ATOM     14  N   UNL A   1      40.485  28.732  29.744  1.00  0.00    -0.248 NA
ATOM     15  C   UNL A   1      39.026  28.609  27.923  1.00  0.00     0.031 C 
ATOM     16  C   UNL A   1      37.757  31.734  31.631  1.00  0.00     0.029 A 
ATOM     17  N   UNL A   1      39.625  30.559  31.932  1.00  0.00    -0.354 N 
ATOM     18  C   UNL A   1      41.037  27.933  28.753  1.00  0.00     0.074 A 
ATOM     19  C   UNL A   1      40.083  27.855  27.673  1.00  0.00     0.031 C 
ATOM     20  C   UNL A   1      38.270  32.098  32.818  1.00  0.00     0.029 A 
ATOM     21  C   UNL A   1      39.474  31.319  33.072  1.00  0.00     0.049 A 
ATOM     22  H   UNL A   1      40.396  29.969  31.777  1.00  0.00     0.167 HD
ATOM     23  C   UNL A   1      42.256  27.351  28.736  1.00  0.00     0.034 A 
ATOM     24  C   UNL A   1      40.220  31.368  34.195  1.00  0.00     0.034 A 
ATOM     25  C   UNL A   1      43.178  27.423  29.832  1.00  0.00     0.049 A 
ATOM     26  C   UNL A   1      41.487  30.556  34.230  1.00  0.00     0.074 A 
ATOM     27  C   UNL A   1      44.423  26.837  29.945  1.00  0.00     0.029 A 
ATOM     28  N   UNL A   1      42.946  28.117  31.012  1.00  0.00    -0.354 N 
ATOM     29  N   UNL A   1      41.992  29.790  33.289  1.00  0.00    -0.248 NA
ATOM     30  C   UNL A   1      42.300  30.630  35.450  1.00  0.00     0.031 C 
ATOM     31  C   UNL A   1      44.917  27.123  31.220  1.00  0.00     0.029 A 
ATOM     32  C   UNL A   1      44.011  27.946  31.876  1.00  0.00     0.049 A 
ATOM     33  H   UNL A   1      42.141  28.649  31.206  1.00  0.00     0.167 HD
ATOM     34  C   UNL A   1      43.205  29.328  33.785  1.00  0.00     0.074 A 
ATOM     35  C   UNL A   1      43.351  29.892  35.114  1.00  0.00     0.031 C 
ATOM     36  C   UNL A   1      44.123  28.526  33.192  1.00  0.00     0.034 A 
BRANCH  23  37
ATOM     37  C   UNL A   1      42.619  26.573  27.506  1.00  0.00     0.023 A 
ATOM     38  C   UNL A   1      42.688  25.169  27.531  1.00  0.00     0.031 A 
ATOM     39  C   UNL A   1      42.935  27.240  26.313  1.00  0.00     0.131 A 
ATOM     40  C   UNL A   1      43.107  24.475  26.387  1.00  0.00     0.055 A 
ATOM     41  C   UNL A   1      43.294  26.540  25.161  1.00  0.00     0.041 A 
ATOM     42  F   UNL A   1      42.916  28.581  26.255  1.00  0.00    -0.206 F 
ATOM     43  C   UNL A   1      43.387  25.151  25.196  1.00  0.00     0.022 A 
BRANCH  40  44
ATOM     44  S   UNL A   1      43.352  22.683  26.496  1.00  0.00     0.124 S 
ATOM     45  O   UNL A   1      44.804  22.594  26.645  1.00  0.00    -0.237 OA
ATOM     46  O   UNL A   1      42.569  22.323  27.673  1.00  0.00    -0.237 OA
ATOM     47  O   UNL A   1      42.829  22.189  25.224  1.00  0.00    -0.744 OA
ENDBRANCH  40  44
ENDBRANCH  23  37
BRANCH  24  48
ATOM     48  C   UNL A   1      39.786  32.180  35.371  1.00  0.00     0.023 A 
ATOM     49  C   UNL A   1      38.941  31.652  36.360  1.00  0.00     0.031 A 
ATOM     50  C   UNL A   1      40.188  33.523  35.500  1.00  0.00     0.131 A 
ATOM     51  C   UNL A   1      38.500  32.470  37.416  1.00  0.00     0.055 A 
ATOM     52  C   UNL A   1      39.771  34.323  36.566  1.00  0.00     0.041 A 
ATOM     53  F   UNL A   1      41.003  34.077  34.588  1.00  0.00    -0.206 F 
ATOM     54  C   UNL A   1      38.914  33.800  37.528  1.00  0.00     0.022 A 
BRANCH  51  55
ATOM     55  S   UNL A   1      37.339  31.781  38.629  1.00  0.00     0.124 S 
ATOM     56  O   UNL A   1      36.198  32.679  38.494  1.00  0.00    -0.237 OA
ATOM     57  O   UNL A   1      37.153  30.423  38.128  1.00  0.00    -0.237 OA
ATOM     58  O   UNL A   1      38.067  31.880  39.892  1.00  0.00    -0.744 OA
ENDBRANCH  51  55
ENDBRANCH  24  48
BRANCH  36  59
ATOM     59  C   UNL A   1      45.384  28.237  33.954  1.00  0.00     0.023 A 
ATOM     60  C   UNL A   1      45.498  27.101  34.768  1.00  0.00     0.031 A 
ATOM     61  C   UNL A   1      46.507  29.068  33.796  1.00  0.00     0.131 A 
ATOM     62  C   UNL A   1      46.712  26.834  35.413  1.00  0.00     0.055 A 
ATOM     63  C   UNL A   1      47.727  28.768  34.399  1.00  0.00     0.041 A 
ATOM     64  F   UNL A   1      46.441  30.164  33.022  1.00  0.00    -0.206 F 
ATOM     65  C   UNL A   1      47.833  27.646  35.216  1.00  0.00     0.022 A 
BRANCH  62  66
ATOM     66  S   UNL A   1      46.799  25.415  36.537  1.00  0.00     0.124 S 
ATOM     67  O   UNL A   1      46.514  24.301  35.637  1.00  0.00    -0.237 OA
ATOM     68  O   UNL A   1      48.168  25.493  37.038  1.00  0.00    -0.237 OA
ATOM     69  O   UNL A   1      45.761  25.697  37.526  1.00  0.00    -0.744 OA
ENDBRANCH  62  66
ENDBRANCH  36  59
ENDBRANCH  10  11
ENDBRANCH   3   5
ENDBRANCH   2   3
ENDBRANCH   1   2
BRANCH   1  70
ATOM     70  C   UNL A   1      31.730  28.612  25.199  1.00  0.00     0.274 C 
BRANCH  70  71
ATOM     71  O   UNL A   1      32.067  27.260  25.542  1.00  0.00    -0.462 OA
BRANCH  71  72
ATOM     72  C   UNL A   1      32.918  26.637  24.681  1.00  0.00     0.310 C 
ATOM     73  O   UNL A   1      33.946  27.146  24.241  1.00  0.00    -0.252 OA
BRANCH  72  74
ATOM     74  C   UNL A   1      32.421  25.287  24.234  1.00  0.00     0.118 C 
ATOM     75  C   UNL A   1      31.069  25.205  23.548  1.00  0.00     0.019 C 
ATOM     76  C   UNL A   1      33.434  24.620  23.318  1.00  0.00     0.133 C 
ATOM     77  C   UNL A   1      30.661  23.737  23.331  1.00  0.00     0.022 C 
ATOM     78  N   UNL A   1      33.100  23.209  23.195  1.00  0.00    -0.356 N 
ATOM     79  C   UNL A   1      31.763  22.837  22.748  1.00  0.00     0.118 C 
BRANCH  78  80
ATOM     80  C   UNL A   1      33.751  22.443  24.152  1.00  0.00     0.133 A 
ATOM     81  C   UNL A   1      33.349  21.144  24.292  1.00  0.00     0.077 A 
ATOM     82  N   UNL A   1      34.919  22.876  24.647  1.00  0.00    -0.211 NA
ATOM     83  C   UNL A   1      34.259  20.273  24.856  1.00  0.00     0.095 A 
ATOM     84  C   UNL A   1      35.740  21.970  25.202  1.00  0.00     0.165 A 
ATOM     85  N   UNL A   1      35.472  20.663  25.313  1.00  0.00    -0.226 NA
BRANCH  83  86
ATOM     86  C   UNL A   1      33.934  18.847  24.874  1.00  0.00     0.089 A 
ATOM     87  C   UNL A   1      34.847  17.903  24.389  1.00  0.00     0.030 A 
ATOM     88  N   UNL A   1      32.654  18.528  25.193  1.00  0.00    -0.255 NA
ATOM     89  C   UNL A   1      34.419  16.598  24.183  1.00  0.00     0.004 A 
ATOM     90  C   UNL A   1      32.272  17.252  24.983  1.00  0.00     0.112 A 
ATOM     91  C   UNL A   1      33.102  16.267  24.474  1.00  0.00     0.020 A 
ENDBRANCH  83  86
BRANCH  84  92
ATOM     92  C   UNL A   1      37.025  22.481  25.680  1.00  0.00     0.055 A 
ATOM     93  C   UNL A   1      37.144  23.809  26.136  1.00  0.00     0.015 A 
ATOM     94  C   UNL A   1      38.184  21.699  25.669  1.00  0.00     0.134 A 
ATOM     95  C   UNL A   1      38.362  24.311  26.607  1.00  0.00     0.001 A 
ATOM     96  C   UNL A   1      39.406  22.195  26.130  1.00  0.00     0.040 A 
ATOM     97  F   UNL A   1      38.166  20.453  25.170  1.00  0.00    -0.206 F 
ATOM     98  C   UNL A   1      39.493  23.499  26.613  1.00  0.00     0.003 A 
ENDBRANCH  84  92
ENDBRANCH  78  80
ENDBRANCH  72  74
ENDBRANCH  71  72
ENDBRANCH  70  71
ENDBRANCH   1  70
TORSDOF 17
ENDMDL
MODEL 2
REMARK VINA RESULT:     -12.6      1.246      7.403
REMARK SMILES O=C(OCCOC(=O)[C@H]1CCCN(c2cc(-c3ccccn3)nc(-c3ccccc3F)n2)C1)c1ccc(-c2c3nc(c(-c4cc(S(=O)(=O)[O-])ccc4F)c4ccc([nH]4)c(-c4cc(S(=O)(=O)[O-])ccc4F)c4nc(c(-c5cc(S(=O)(=O)[O-])ccc5F)c5ccc2[nH]5)C=C4)C=C3)cc1
REMARK SMILES IDX 4 1 3 2 2 3 1 4 34 5 35 6 96 7 36 8 95 9 37 10 38 11 39 12
REMARK SMILES IDX 89 13 40 14 94 15 88 16 90 17 41 18 93 19 87 20 86 21 42 23
REMARK SMILES IDX 74 24 54 25 73 26 55 27 58 28 72 29 91 30 56 31 57 32 71 34
REMARK SMILES IDX 92 35 59 36 43 37 44 38 52 39 45 40 51 41 53 42 50 43 46 44
REMARK SMILES IDX 47 45 48 46 49 47 75 48 76 49 84 50 77 51 83 52 85 53 82 54
REMARK SMILES IDX 78 55 79 56 80 57 81 58 60 59 61 60 69 61 62 62 68 63 70 64
REMARK SMILES IDX 67 65 63 66 64 67 65 68 66 69 5 70 6 71 7 72 8 73 9 74 10 75
REMARK SMILES IDX 33 76 11 77 13 78 12 79 14 80 15 81 32 82 16 83 24 84 23 85
REMARK SMILES IDX 17 86 18 87 22 88 19 89 21 90 20 91 25 92 26 93 30 94 27 95
REMARK SMILES IDX 29 96 31 97 28 98
REMARK H PARENT 90 22 58 33
REMARK Flexibility Score: inf
ROOT
ATOM      1  C   UNL A   1      31.683  29.945  25.504  1.00  0.00     0.275 C 
ENDROOT
BRANCH   1   2
ATOM      2  O   UNL A   1      33.014  30.270  25.934  1.00  0.00    -0.458 OA
BRANCH   2   3
ATOM      3  C   UNL A   1      33.455  31.058  26.942  1.00  0.00     0.338 C 
ATOM      4  O   UNL A   1      32.777  32.037  27.253  1.00  0.00    -0.246 OA
BRANCH   3   5
ATOM      5  C   UNL A   1      34.758  30.862  27.661  1.00  0.00     0.060 A 
ATOM      6  C   UNL A   1      35.790  31.798  27.769  1.00  0.00     0.016 A 
ATOM      7  C   UNL A   1      34.948  29.610  28.279  1.00  0.00     0.016 A 
ATOM      8  C   UNL A   1      36.934  31.541  28.532  1.00  0.00     0.010 A 
ATOM      9  C   UNL A   1      36.102  29.333  29.022  1.00  0.00     0.010 A 
ATOM     10  C   UNL A   1      37.097  30.309  29.162  1.00  0.00    -0.014 A 
BRANCH  10  11
ATOM     11  C   UNL A   1      38.395  29.986  29.790  1.00  0.00     0.031 A 
ATOM     12  C   UNL A   1      38.664  30.588  31.134  1.00  0.00     0.074 A 
ATOM     13  C   UNL A   1      39.263  29.122  29.230  1.00  0.00     0.049 A 
ATOM     14  N   UNL A   1      39.708  30.450  31.901  1.00  0.00    -0.248 NA
ATOM     15  C   UNL A   1      37.597  31.433  31.702  1.00  0.00     0.031 C 
ATOM     16  C   UNL A   1      39.033  28.386  27.990  1.00  0.00     0.029 A 
ATOM     17  N   UNL A   1      40.511  28.708  29.623  1.00  0.00    -0.354 N 
ATOM     18  C   UNL A   1      39.406  31.151  33.059  1.00  0.00     0.074 A 
ATOM     19  C   UNL A   1      38.117  31.773  32.870  1.00  0.00     0.031 C 
ATOM     20  C   UNL A   1      40.117  27.650  27.696  1.00  0.00     0.029 A 
ATOM     21  C   UNL A   1      41.127  27.866  28.724  1.00  0.00     0.049 A 
ATOM     22  H   UNL A   1      40.927  28.987  30.470  1.00  0.00     0.167 HD
ATOM     23  C   UNL A   1      40.129  31.232  34.196  1.00  0.00     0.034 A 
ATOM     24  C   UNL A   1      42.369  27.340  28.726  1.00  0.00     0.034 A 
ATOM     25  C   UNL A   1      41.420  30.625  34.353  1.00  0.00     0.049 A 
ATOM     26  C   UNL A   1      43.237  27.602  29.928  1.00  0.00     0.074 A 
ATOM     27  C   UNL A   1      42.264  30.676  35.443  1.00  0.00     0.029 A 
ATOM     28  N   UNL A   1      42.056  29.865  33.380  1.00  0.00    -0.354 N 
ATOM     29  N   UNL A   1      42.945  28.283  31.013  1.00  0.00    -0.248 NA
ATOM     30  C   UNL A   1      44.582  27.012  29.930  1.00  0.00     0.031 C 
ATOM     31  C   UNL A   1      43.440  30.001  35.106  1.00  0.00     0.029 A 
ATOM     32  C   UNL A   1      43.300  29.469  33.832  1.00  0.00     0.049 A 
ATOM     33  H   UNL A   1      41.677  29.645  32.498  1.00  0.00     0.167 HD
ATOM     34  C   UNL A   1      44.050  28.163  31.847  1.00  0.00     0.074 A 
ATOM     35  C   UNL A   1      45.020  27.355  31.134  1.00  0.00     0.031 C 
ATOM     36  C   UNL A   1      44.240  28.660  33.094  1.00  0.00     0.034 A 
BRANCH  23  37
ATOM     37  C   UNL A   1      39.539  32.029  35.321  1.00  0.00     0.023 A 
ATOM     38  C   UNL A   1      39.905  33.370  35.530  1.00  0.00     0.031 A 
ATOM     39  C   UNL A   1      38.635  31.433  36.213  1.00  0.00     0.131 A 
ATOM     40  C   UNL A   1      39.396  34.064  36.636  1.00  0.00     0.055 A 
ATOM     41  C   UNL A   1      38.086  32.147  37.279  1.00  0.00     0.041 A 
ATOM     42  F   UNL A   1      38.285  30.145  36.072  1.00  0.00    -0.206 F 
ATOM     43  C   UNL A   1      38.471  33.468  37.498  1.00  0.00     0.022 A 
BRANCH  40  44
ATOM     44  S   UNL A   1      40.015  35.732  36.979  1.00  0.00     0.124 S 
ATOM     45  O   UNL A   1      41.443  35.482  37.170  1.00  0.00    -0.237 OA
ATOM     46  O   UNL A   1      39.654  36.463  35.770  1.00  0.00    -0.237 OA
ATOM     47  O   UNL A   1      39.289  36.125  38.185  1.00  0.00    -0.744 OA
ENDBRANCH  40  44
ENDBRANCH  23  37
BRANCH  24  48
ATOM     48  C   UNL A   1      42.872  26.549  27.564  1.00  0.00     0.023 A 
ATOM     49  C   UNL A   1      42.817  25.146  27.548  1.00  0.00     0.031 A 
ATOM     50  C   UNL A   1      43.453  27.196  26.457  1.00  0.00     0.131 A 
ATOM     51  C   UNL A   1      43.363  24.435  26.463  1.00  0.00     0.055 A 
ATOM     52  C   UNL A   1      43.968  26.487  25.369  1.00  0.00     0.041 A 
ATOM     53  F   UNL A   1      43.524  28.536  26.415  1.00  0.00    -0.206 F 
ATOM     54  C   UNL A   1      43.933  25.096  25.373  1.00  0.00     0.022 A 
BRANCH  51  55
ATOM     55  S   UNL A   1      43.355  22.621  26.515  1.00  0.00     0.124 S 
ATOM     56  O   UNL A   1      44.781  22.316  26.537  1.00  0.00    -0.237 OA
ATOM     57  O   UNL A   1      42.622  22.359  27.749  1.00  0.00    -0.237 OA
ATOM     58  O   UNL A   1      42.654  22.248  25.288  1.00  0.00    -0.744 OA
ENDBRANCH  51  55
ENDBRANCH  24  48
BRANCH  36  59
ATOM     59  C   UNL A   1      45.527  28.317  33.786  1.00  0.00     0.023 A 
ATOM     60  C   UNL A   1      45.703  27.079  34.422  1.00  0.00     0.031 A 
ATOM     61  C   UNL A   1      46.612  29.209  33.736  1.00  0.00     0.131 A 
ATOM     62  C   UNL A   1      46.940  26.772  35.003  1.00  0.00     0.055 A 
ATOM     63  C   UNL A   1      47.856  28.876  34.271  1.00  0.00     0.041 A 
ATOM     64  F   UNL A   1      46.487  30.403  33.133  1.00  0.00    -0.206 F 
ATOM     65  C   UNL A   1      48.023  27.652  34.912  1.00  0.00     0.022 A 
BRANCH  62  66
ATOM     66  S   UNL A   1      47.108  25.209  35.904  1.00  0.00     0.124 S 
ATOM     67  O   UNL A   1      45.713  24.815  36.083  1.00  0.00    -0.237 OA
ATOM     68  O   UNL A   1      47.885  24.393  34.979  1.00  0.00    -0.237 OA
ATOM     69  O   UNL A   1      47.806  25.594  37.129  1.00  0.00    -0.744 OA
ENDBRANCH  62  66
ENDBRANCH  36  59
ENDBRANCH  10  11
ENDBRANCH   3   5
ENDBRANCH   2   3
ENDBRANCH   1   2
BRANCH   1  70
ATOM     70  C   UNL A   1      31.565  28.702  24.623  1.00  0.00     0.274 C 
BRANCH  70  71
ATOM     71  O   UNL A   1      31.800  27.451  25.284  1.00  0.00    -0.462 OA
BRANCH  71  72
ATOM     72  C   UNL A   1      32.812  26.701  24.766  1.00  0.00     0.310 C 
ATOM     73  O   UNL A   1      33.963  27.105  24.624  1.00  0.00    -0.252 OA
BRANCH  72  74
ATOM     74  C   UNL A   1      32.357  25.348  24.285  1.00  0.00     0.118 C 
ATOM     75  C   UNL A   1      31.027  25.248  23.559  1.00  0.00     0.019 C 
ATOM     76  C   UNL A   1      33.410  24.716  23.390  1.00  0.00     0.133 C 
ATOM     77  C   UNL A   1      30.658  23.775  23.309  1.00  0.00     0.022 C 
ATOM     78  N   UNL A   1      33.110  23.301  23.236  1.00  0.00    -0.356 N 
ATOM     79  C   UNL A   1      31.795  22.908  22.745  1.00  0.00     0.118 C 
BRANCH  78  80
ATOM     80  C   UNL A   1      33.749  22.534  24.201  1.00  0.00     0.133 A 
ATOM     81  C   UNL A   1      33.322  21.245  24.358  1.00  0.00     0.077 A 
ATOM     82  N   UNL A   1      34.928  22.950  24.686  1.00  0.00    -0.211 NA
ATOM     83  C   UNL A   1      34.216  20.363  24.930  1.00  0.00     0.095 A 
ATOM     84  C   UNL A   1      35.733  22.035  25.249  1.00  0.00     0.165 A 
ATOM     85  N   UNL A   1      35.438  20.735  25.377  1.00  0.00    -0.226 NA
BRANCH  83  86
ATOM     86  C   UNL A   1      33.863  18.944  24.967  1.00  0.00     0.089 A 
ATOM     87  C   UNL A   1      34.805  17.968  24.624  1.00  0.00     0.030 A 
ATOM     88  N   UNL A   1      32.550  18.659  25.154  1.00  0.00    -0.255 NA
ATOM     89  C   UNL A   1      34.377  16.662  24.422  1.00  0.00     0.004 A 
ATOM     90  C   UNL A   1      32.167  17.381  24.952  1.00  0.00     0.112 A 
ATOM     91  C   UNL A   1      33.029  16.364  24.578  1.00  0.00     0.020 A 
ENDBRANCH  83  86
BRANCH  84  92
ATOM     92  C   UNL A   1      37.029  22.526  25.715  1.00  0.00     0.055 A 
ATOM     93  C   UNL A   1      37.168  23.846  26.188  1.00  0.00     0.015 A 
ATOM     94  C   UNL A   1      38.180  21.732  25.678  1.00  0.00     0.134 A 
ATOM     95  C   UNL A   1      38.398  24.329  26.648  1.00  0.00     0.001 A 
ATOM     96  C   UNL A   1      39.413  22.209  26.128  1.00  0.00     0.040 A 
ATOM     97  F   UNL A   1      38.142  20.493  25.162  1.00  0.00    -0.206 F 
ATOM     98  C   UNL A   1      39.520  23.505  26.627  1.00  0.00     0.003 A 
ENDBRANCH  84  92
ENDBRANCH  78  80
ENDBRANCH  72  74
ENDBRANCH  71  72
ENDBRANCH  70  71
ENDBRANCH   1  70
TORSDOF 17
ENDMDL
MODEL 3
REMARK VINA RESULT:     -12.5      1.658      7.479
REMARK SMILES O=C(OCCOC(=O)[C@H]1CCCN(c2cc(-c3ccccn3)nc(-c3ccccc3F)n2)C1)c1ccc(-c2c3nc(c(-c4cc(S(=O)(=O)[O-])ccc4F)c4ccc([nH]4)c(-c4cc(S(=O)(=O)[O-])ccc4F)c4nc(c(-c5cc(S(=O)(=O)[O-])ccc5F)c5ccc2[nH]5)C=C4)C=C3)cc1
REMARK SMILES IDX 4 1 3 2 2 3 1 4 34 5 35 6 96 7 36 8 95 9 37 10 38 11 39 12
REMARK SMILES IDX 89 13 40 14 94 15 88 16 90 17 41 18 93 19 87 20 86 21 42 23
REMARK SMILES IDX 74 24 54 25 73 26 55 27 58 28 72 29 91 30 56 31 57 32 71 34
REMARK SMILES IDX 92 35 59 36 43 37 44 38 52 39 45 40 51 41 53 42 50 43 46 44
REMARK SMILES IDX 47 45 48 46 49 47 75 48 76 49 84 50 77 51 83 52 85 53 82 54
REMARK SMILES IDX 78 55 79 56 80 57 81 58 60 59 61 60 69 61 62 62 68 63 70 64
REMARK SMILES IDX 67 65 63 66 64 67 65 68 66 69 5 70 6 71 7 72 8 73 9 74 10 75
REMARK SMILES IDX 33 76 11 77 13 78 12 79 14 80 15 81 32 82 16 83 24 84 23 85
REMARK SMILES IDX 17 86 18 87 22 88 19 89 21 90 20 91 25 92 26 93 30 94 27 95
REMARK SMILES IDX 29 96 31 97 28 98
REMARK H PARENT 90 22 58 33
REMARK Flexibility Score: inf
ROOT
ATOM      1  C   UNL A   1      31.879  29.862  25.337  1.00  0.00     0.275 C 
ENDROOT
BRANCH   1   2
ATOM      2  O   UNL A   1      33.117  29.943  26.061  1.00  0.00    -0.458 OA
BRANCH   2   3
ATOM      3  C   UNL A   1      33.516  30.778  27.048  1.00  0.00     0.338 C 
ATOM      4  O   UNL A   1      32.761  31.693  27.377  1.00  0.00    -0.246 OA
BRANCH   3   5
ATOM      5  C   UNL A   1      34.855  30.710  27.723  1.00  0.00     0.060 A 
ATOM      6  C   UNL A   1      35.813  31.728  27.761  1.00  0.00     0.016 A 
ATOM      7  C   UNL A   1      35.166  29.500  28.374  1.00  0.00     0.016 A 
ATOM      8  C   UNL A   1      37.000  31.588  28.488  1.00  0.00     0.010 A 
ATOM      9  C   UNL A   1      36.364  29.341  29.080  1.00  0.00     0.010 A 
ATOM     10  C   UNL A   1      37.283  30.396  29.152  1.00  0.00    -0.014 A 
BRANCH  10  11
ATOM     11  C   UNL A   1      38.624  30.198  29.740  1.00  0.00     0.031 A 
ATOM     12  C   UNL A   1      38.898  30.882  31.042  1.00  0.00     0.074 A 
ATOM     13  C   UNL A   1      39.531  29.373  29.184  1.00  0.00     0.049 A 
ATOM     14  N   UNL A   1      39.977  30.857  31.771  1.00  0.00    -0.248 NA
ATOM     15  C   UNL A   1      37.794  31.675  31.614  1.00  0.00     0.031 C 
ATOM     16  C   UNL A   1      39.310  28.563  27.989  1.00  0.00     0.029 A 
ATOM     17  N   UNL A   1      40.820  29.069  29.544  1.00  0.00    -0.354 N 
ATOM     18  C   UNL A   1      39.668  31.590  32.907  1.00  0.00     0.074 A 
ATOM     19  C   UNL A   1      38.330  32.107  32.743  1.00  0.00     0.031 C 
ATOM     20  C   UNL A   1      40.434  27.893  27.685  1.00  0.00     0.029 A 
ATOM     21  C   UNL A   1      41.463  28.231  28.659  1.00  0.00     0.049 A 
ATOM     22  H   UNL A   1      41.246  29.418  30.360  1.00  0.00     0.167 HD
ATOM     23  C   UNL A   1      40.425  31.777  34.009  1.00  0.00     0.034 A 
ATOM     24  C   UNL A   1      42.740  27.797  28.635  1.00  0.00     0.034 A 
ATOM     25  C   UNL A   1      41.762  31.274  34.140  1.00  0.00     0.049 A 
ATOM     26  C   UNL A   1      43.631  28.179  29.787  1.00  0.00     0.074 A 
ATOM     27  C   UNL A   1      42.641  31.437  35.192  1.00  0.00     0.029 A 
ATOM     28  N   UNL A   1      42.416  30.515  33.178  1.00  0.00    -0.354 N 
ATOM     29  N   UNL A   1      43.330  28.888  30.851  1.00  0.00    -0.248 NA
ATOM     30  C   UNL A   1      45.014  27.687  29.760  1.00  0.00     0.031 C 
ATOM     31  C   UNL A   1      43.850  30.833  34.838  1.00  0.00     0.029 A 
ATOM     32  C   UNL A   1      43.702  30.232  33.596  1.00  0.00     0.049 A 
ATOM     33  H   UNL A   1      42.022  30.225  32.323  1.00  0.00     0.167 HD
ATOM     34  C   UNL A   1      44.471  28.889  31.644  1.00  0.00     0.074 A 
ATOM     35  C   UNL A   1      45.471  28.119  30.929  1.00  0.00     0.031 C 
ATOM     36  C   UNL A   1      44.671  29.458  32.857  1.00  0.00     0.034 A 
BRANCH  23  37
ATOM     37  C   UNL A   1      39.821  32.583  35.120  1.00  0.00     0.023 A 
ATOM     38  C   UNL A   1      39.115  31.962  36.165  1.00  0.00     0.031 A 
ATOM     39  C   UNL A   1      39.917  33.982  35.115  1.00  0.00     0.131 A 
ATOM     40  C   UNL A   1      38.494  32.746  37.147  1.00  0.00     0.055 A 
ATOM     41  C   UNL A   1      39.347  34.756  36.127  1.00  0.00     0.041 A 
ATOM     42  F   UNL A   1      40.551  34.619  34.118  1.00  0.00    -0.206 F 
ATOM     43  C   UNL A   1      38.626  34.138  37.147  1.00  0.00     0.022 A 
BRANCH  40  44
ATOM     44  S   UNL A   1      37.450  31.932  38.383  1.00  0.00     0.124 S 
ATOM     45  O   UNL A   1      38.295  32.002  39.574  1.00  0.00    -0.237 OA
ATOM     46  O   UNL A   1      36.257  32.771  38.399  1.00  0.00    -0.237 OA
ATOM     47  O   UNL A   1      37.260  30.589  37.838  1.00  0.00    -0.744 OA
ENDBRANCH  40  44
ENDBRANCH  23  37
BRANCH  24  48
ATOM     48  C   UNL A   1      43.256  26.989  27.490  1.00  0.00     0.023 A 
ATOM     49  C   UNL A   1      43.204  25.585  27.496  1.00  0.00     0.031 A 
ATOM     50  C   UNL A   1      43.846  27.620  26.379  1.00  0.00     0.131 A 
ATOM     51  C   UNL A   1      43.762  24.859  26.428  1.00  0.00     0.055 A 
ATOM     52  C   UNL A   1      44.373  26.895  25.307  1.00  0.00     0.041 A 
ATOM     53  F   UNL A   1      43.913  28.959  26.317  1.00  0.00    -0.206 F 
ATOM     54  C   UNL A   1      44.341  25.505  25.332  1.00  0.00     0.022 A 
BRANCH  51  55
ATOM     55  S   UNL A   1      43.759  23.046  26.508  1.00  0.00     0.124 S 
ATOM     56  O   UNL A   1      45.185  22.743  26.490  1.00  0.00    -0.237 OA
ATOM     57  O   UNL A   1      43.064  22.803  27.768  1.00  0.00    -0.237 OA
ATOM     58  O   UNL A   1      43.020  22.653  25.309  1.00  0.00    -0.744 OA
ENDBRANCH  51  55
ENDBRANCH  24  48
BRANCH  36  59
ATOM     59  C   UNL A   1      46.005  29.242  33.512  1.00  0.00     0.023 A 
ATOM     60  C   UNL A   1      47.050  30.163  33.352  1.00  0.00     0.031 A 
ATOM     61  C   UNL A   1      46.198  28.144  34.367  1.00  0.00     0.131 A 
ATOM     62  C   UNL A   1      48.259  29.957  34.029  1.00  0.00     0.055 A 
ATOM     63  C   UNL A   1      47.385  27.973  35.079  1.00  0.00     0.041 A 
ATOM     64  F   UNL A   1      45.221  27.241  34.552  1.00  0.00    -0.206 F 
ATOM     65  C   UNL A   1      48.425  28.883  34.908  1.00  0.00     0.022 A 
BRANCH  62  66
ATOM     66  S   UNL A   1      49.626  31.107  33.725  1.00  0.00     0.124 S 
ATOM     67  O   UNL A   1      49.176  31.797  32.520  1.00  0.00    -0.237 OA
ATOM     68  O   UNL A   1      49.644  31.906  34.946  1.00  0.00    -0.237 OA
ATOM     69  O   UNL A   1      50.779  30.227  33.543  1.00  0.00    -0.744 OA
ENDBRANCH  62  66
ENDBRANCH  36  59
ENDBRANCH  10  11
ENDBRANCH   3   5
ENDBRANCH   2   3
ENDBRANCH   1   2
BRANCH   1  70
ATOM     70  C   UNL A   1      31.495  28.464  24.854  1.00  0.00     0.274 C 
BRANCH  70  71
ATOM     71  O   UNL A   1      32.416  27.418  25.191  1.00  0.00    -0.462 OA
BRANCH  71  72
ATOM     72  C   UNL A   1      31.868  26.340  25.816  1.00  0.00     0.310 C 
ATOM     73  O   UNL A   1      31.506  26.335  26.989  1.00  0.00    -0.252 OA
BRANCH  72  74
ATOM     74  C   UNL A   1      31.840  25.108  24.949  1.00  0.00     0.118 C 
ATOM     75  C   UNL A   1      30.693  24.938  23.969  1.00  0.00     0.019 C 
ATOM     76  C   UNL A   1      33.133  24.981  24.158  1.00  0.00     0.133 C 
ATOM     77  C   UNL A   1      30.746  23.548  23.311  1.00  0.00     0.022 C 
ATOM     78  N   UNL A   1      33.224  23.633  23.618  1.00  0.00    -0.356 N 
ATOM     79  C   UNL A   1      32.132  23.127  22.796  1.00  0.00     0.118 C 
BRANCH  78  80
ATOM     80  C   UNL A   1      33.897  22.780  24.483  1.00  0.00     0.133 A 
ATOM     81  C   UNL A   1      33.459  21.488  24.552  1.00  0.00     0.077 A 
ATOM     82  N   UNL A   1      35.103  23.141  24.944  1.00  0.00    -0.211 NA
ATOM     83  C   UNL A   1      34.366  20.550  25.003  1.00  0.00     0.095 A 
ATOM     84  C   UNL A   1      35.920  22.172  25.388  1.00  0.00     0.165 A 
ATOM     85  N   UNL A   1      35.613  20.869  25.420  1.00  0.00    -0.226 NA
BRANCH  83  86
ATOM     86  C   UNL A   1      33.995  19.137  24.937  1.00  0.00     0.089 A 
ATOM     87  C   UNL A   1      34.858  18.201  24.358  1.00  0.00     0.030 A 
ATOM     88  N   UNL A   1      32.716  18.838  25.279  1.00  0.00    -0.255 NA
ATOM     89  C   UNL A   1      34.380  16.926  24.081  1.00  0.00     0.004 A 
ATOM     90  C   UNL A   1      32.284  17.592  24.998  1.00  0.00     0.112 A 
ATOM     91  C   UNL A   1      33.064  16.618  24.396  1.00  0.00     0.020 A 
ENDBRANCH  83  86
BRANCH  84  92
ATOM     92  C   UNL A   1      37.244  22.608  25.831  1.00  0.00     0.055 A 
ATOM     93  C   UNL A   1      37.446  23.919  26.306  1.00  0.00     0.015 A 
ATOM     94  C   UNL A   1      38.361  21.768  25.768  1.00  0.00     0.134 A 
ATOM     95  C   UNL A   1      38.703  24.350  26.744  1.00  0.00     0.001 A 
ATOM     96  C   UNL A   1      39.621  22.193  26.196  1.00  0.00     0.040 A 
ATOM     97  F   UNL A   1      38.263  20.534  25.249  1.00  0.00    -0.206 F 
ATOM     98  C   UNL A   1      39.791  23.482  26.698  1.00  0.00     0.003 A 
ENDBRANCH  84  92
ENDBRANCH  78  80
ENDBRANCH  72  74
ENDBRANCH  71  72
ENDBRANCH  70  71
ENDBRANCH   1  70
TORSDOF 17
ENDMDL
