MODEL 1
REMARK VINA RESULT:     -11.9      0.000      0.000
REMARK SMILES C[C@@H](C(=O)OCCOC(=O)c1ccc(-c2c3nc(c(-c4cc(S(=O)(=O)[O-])ccc4F)c4ccc([nH]4)c(-c4cc(S(=O)(=O)[O-])ccc4F)c4nc(c(-c5cc(S(=O)(=O)[O-])ccc5F)c5ccc2[nH]5)C=C4)C=C3)cc1)c1ccc(Cc2ccoc2)cc1F
REMARK SMILES IDX 6 1 5 2 3 3 4 4 2 5 1 6 74 7 75 8 85 9 76 10 84 11 86 12
REMARK SMILES IDX 77 13 78 14 79 15 80 16 83 17 81 18 82 19 7 20 8 21 9 22
REMARK SMILES IDX 10 23 11 24 12 25 73 26 13 27 72 28 14 29 15 30 16 31 66 32
REMARK SMILES IDX 17 33 71 34 65 35 67 36 18 37 70 38 64 39 63 40 19 42 51 43
REMARK SMILES IDX 31 44 50 45 32 46 35 47 49 48 68 49 33 50 34 51 48 53 69 54
REMARK SMILES IDX 36 55 20 56 21 57 29 58 22 59 28 60 30 61 27 62 23 63 24 64
REMARK SMILES IDX 25 65 26 66 52 67 53 68 61 69 54 70 60 71 62 72 59 73 55 74
REMARK SMILES IDX 56 75 57 76 58 77 37 78 38 79 46 80 39 81 45 82 47 83 44 84
REMARK SMILES IDX 40 85 41 86 42 87 43 88
REMARK H PARENT 67 41 35 52
REMARK Flexibility Score: inf
ROOT
ATOM      1  C   UNL A   1      36.652  22.898  23.531  1.00  0.00     0.274 C 
ENDROOT
BRANCH   1   2
ATOM      2  O   UNL A   1      35.244  23.204  23.416  1.00  0.00    -0.462 OA
BRANCH   2   3
ATOM      3  C   UNL A   1      34.681  23.921  24.432  1.00  0.00     0.313 C 
ATOM      4  O   UNL A   1      35.279  24.795  25.050  1.00  0.00    -0.252 OA
BRANCH   3   5
ATOM      5  C   UNL A   1      33.247  23.459  24.770  1.00  0.00     0.129 C 
ATOM      6  C   UNL A   1      32.764  24.038  26.106  1.00  0.00     0.025 C 
BRANCH   5   7
ATOM      7  C   UNL A   1      33.067  21.945  24.605  1.00  0.00     0.002 A 
ATOM      8  C   UNL A   1      33.291  21.101  25.709  1.00  0.00     0.008 A 
ATOM      9  C   UNL A   1      32.663  21.323  23.419  1.00  0.00     0.127 A 
ATOM     10  C   UNL A   1      33.047  19.719  25.643  1.00  0.00     0.004 A 
ATOM     11  C   UNL A   1      32.443  19.942  23.339  1.00  0.00     0.043 A 
ATOM     12  F   UNL A   1      32.429  22.042  22.313  1.00  0.00    -0.207 F 
ATOM     13  C   UNL A   1      32.608  19.112  24.458  1.00  0.00    -0.041 A 
BRANCH  13  14
ATOM     14  C   UNL A   1      32.113  17.679  24.395  1.00  0.00     0.074 C 
BRANCH  14  15
ATOM     15  C   UNL A   1      33.227  16.736  24.677  1.00  0.00    -0.005 A 
ATOM     16  C   UNL A   1      34.630  16.985  24.586  1.00  0.00     0.046 A 
ATOM     17  C   UNL A   1      33.126  15.476  25.235  1.00  0.00     0.198 A 
ATOM     18  C   UNL A   1      35.265  15.862  25.059  1.00  0.00     0.195 A 
ATOM     19  O   UNL A   1      34.353  14.933  25.442  1.00  0.00    -0.472 OA
ENDBRANCH  14  15
ENDBRANCH  13  14
ENDBRANCH   5   7
ENDBRANCH   3   5
ENDBRANCH   2   3
ENDBRANCH   1   2
BRANCH   1  20
ATOM     20  C   UNL A   1      36.837  21.555  24.229  1.00  0.00     0.275 C 
BRANCH  20  21
ATOM     21  O   UNL A   1      37.257  21.799  25.580  1.00  0.00    -0.458 OA
BRANCH  21  22
ATOM     22  C   UNL A   1      38.539  21.494  25.876  1.00  0.00     0.338 C 
ATOM     23  O   UNL A   1      39.106  20.423  25.698  1.00  0.00    -0.246 OA
BRANCH  22  24
ATOM     24  C   UNL A   1      39.179  22.675  26.478  1.00  0.00     0.060 A 
ATOM     25  C   UNL A   1      38.630  23.938  26.271  1.00  0.00     0.016 A 
ATOM     26  C   UNL A   1      40.368  22.542  27.196  1.00  0.00     0.016 A 
ATOM     27  C   UNL A   1      39.305  25.069  26.719  1.00  0.00     0.010 A 
ATOM     28  C   UNL A   1      41.003  23.682  27.707  1.00  0.00     0.010 A 
ATOM     29  C   UNL A   1      40.502  24.969  27.439  1.00  0.00    -0.014 A 
BRANCH  29  30
ATOM     30  C   UNL A   1      41.261  26.201  27.819  1.00  0.00     0.031 A 
ATOM     31  C   UNL A   1      40.611  27.240  28.701  1.00  0.00     0.074 A 
ATOM     32  C   UNL A   1      42.548  26.378  27.449  1.00  0.00     0.049 A 
ATOM     33  N   UNL A   1      41.014  28.451  28.998  1.00  0.00    -0.248 NA
ATOM     34  C   UNL A   1      39.332  26.869  29.324  1.00  0.00     0.031 C 
ATOM     35  C   UNL A   1      43.350  25.426  26.679  1.00  0.00     0.029 A 
ATOM     36  N   UNL A   1      43.420  27.412  27.699  1.00  0.00    -0.354 N 
ATOM     37  C   UNL A   1      40.005  29.011  29.774  1.00  0.00     0.074 A 
ATOM     38  C   UNL A   1      38.975  28.002  29.910  1.00  0.00     0.031 C 
ATOM     39  C   UNL A   1      44.606  25.889  26.574  1.00  0.00     0.029 A 
ATOM     40  C   UNL A   1      44.675  27.222  27.163  1.00  0.00     0.049 A 
ATOM     41  H   UNL A   1      43.172  28.213  28.214  1.00  0.00     0.167 HD
ATOM     42  C   UNL A   1      39.938  30.254  30.315  1.00  0.00     0.034 A 
ATOM     43  C   UNL A   1      45.743  28.042  27.100  1.00  0.00     0.034 A 
ATOM     44  C   UNL A   1      40.995  31.232  30.226  1.00  0.00     0.049 A 
ATOM     45  C   UNL A   1      45.630  29.438  27.660  1.00  0.00     0.074 A 
ATOM     46  C   UNL A   1      41.023  32.521  30.732  1.00  0.00     0.029 A 
ATOM     47  N   UNL A   1      42.219  31.027  29.606  1.00  0.00    -0.354 N 
ATOM     48  N   UNL A   1      44.620  29.999  28.283  1.00  0.00    -0.248 NA
ATOM     49  C   UNL A   1      46.790  30.321  27.478  1.00  0.00     0.031 C 
ATOM     50  C   UNL A   1      42.240  33.112  30.370  1.00  0.00     0.029 A 
ATOM     51  C   UNL A   1      43.000  32.170  29.697  1.00  0.00     0.049 A 
ATOM     52  H   UNL A   1      42.494  30.191  29.165  1.00  0.00     0.167 HD
ATOM     53  C   UNL A   1      45.028  31.298  28.571  1.00  0.00     0.074 A 
ATOM     54  C   UNL A   1      46.384  31.429  28.079  1.00  0.00     0.031 C 
ATOM     55  C   UNL A   1      44.342  32.297  29.182  1.00  0.00     0.034 A 
BRANCH  42  56
ATOM     56  C   UNL A   1      38.643  30.651  30.982  1.00  0.00     0.023 A 
ATOM     57  C   UNL A   1      37.590  31.260  30.279  1.00  0.00     0.031 A 
ATOM     58  C   UNL A   1      38.477  30.439  32.363  1.00  0.00     0.131 A 
ATOM     59  C   UNL A   1      36.448  31.697  30.971  1.00  0.00     0.055 A 
ATOM     60  C   UNL A   1      37.308  30.806  33.032  1.00  0.00     0.041 A 
ATOM     61  F   UNL A   1      39.458  29.879  33.089  1.00  0.00    -0.206 F 
ATOM     62  C   UNL A   1      36.291  31.453  32.339  1.00  0.00     0.022 A 
BRANCH  59  63
ATOM     63  S   UNL A   1      35.233  32.712  30.089  1.00  0.00     0.124 S 
ATOM     64  O   UNL A   1      36.040  33.866  29.697  1.00  0.00    -0.237 OA
ATOM     65  O   UNL A   1      34.812  31.831  29.006  1.00  0.00    -0.237 OA
ATOM     66  O   UNL A   1      34.216  32.988  31.102  1.00  0.00    -0.744 OA
ENDBRANCH  59  63
ENDBRANCH  42  56
BRANCH  43  67
ATOM     67  C   UNL A   1      46.991  27.613  26.401  1.00  0.00     0.023 A 
ATOM     68  C   UNL A   1      47.184  27.873  25.035  1.00  0.00     0.031 A 
ATOM     69  C   UNL A   1      47.985  26.883  27.079  1.00  0.00     0.131 A 
ATOM     70  C   UNL A   1      48.326  27.378  24.384  1.00  0.00     0.055 A 
ATOM     71  C   UNL A   1      49.145  26.444  26.441  1.00  0.00     0.041 A 
ATOM     72  F   UNL A   1      47.848  26.596  28.383  1.00  0.00    -0.206 F 
ATOM     73  C   UNL A   1      49.315  26.681  25.081  1.00  0.00     0.022 A 
BRANCH  70  74
ATOM     74  S   UNL A   1      48.462  27.588  22.587  1.00  0.00     0.124 S 
ATOM     75  O   UNL A   1      47.251  28.340  22.283  1.00  0.00    -0.237 OA
ATOM     76  O   UNL A   1      49.721  28.315  22.464  1.00  0.00    -0.237 OA
ATOM     77  O   UNL A   1      48.487  26.215  22.086  1.00  0.00    -0.744 OA
ENDBRANCH  70  74
ENDBRANCH  43  67
BRANCH  55  78
ATOM     78  C   UNL A   1      45.066  33.606  29.373  1.00  0.00     0.023 A 
ATOM     79  C   UNL A   1      44.899  34.677  28.477  1.00  0.00     0.031 A 
ATOM     80  C   UNL A   1      45.948  33.776  30.454  1.00  0.00     0.131 A 
ATOM     81  C   UNL A   1      45.643  35.854  28.650  1.00  0.00     0.055 A 
ATOM     82  C   UNL A   1      46.647  34.968  30.650  1.00  0.00     0.041 A 
ATOM     83  F   UNL A   1      46.145  32.785  31.338  1.00  0.00    -0.206 F 
ATOM     84  C   UNL A   1      46.505  36.011  29.739  1.00  0.00     0.022 A 
BRANCH  81  85
ATOM     85  S   UNL A   1      45.529  37.152  27.388  1.00  0.00     0.124 S 
ATOM     86  O   UNL A   1      44.118  37.100  27.022  1.00  0.00    -0.237 OA
ATOM     87  O   UNL A   1      45.955  38.340  28.121  1.00  0.00    -0.237 OA
ATOM     88  O   UNL A   1      46.456  36.703  26.350  1.00  0.00    -0.744 OA
ENDBRANCH  81  85
ENDBRANCH  55  78
ENDBRANCH  29  30
ENDBRANCH  22  24
ENDBRANCH  21  22
ENDBRANCH  20  21
ENDBRANCH   1  20
TORSDOF 17
ENDMDL
MODEL 2
REMARK VINA RESULT:     -11.8      2.358      4.264
REMARK SMILES C[C@@H](C(=O)OCCOC(=O)c1ccc(-c2c3nc(c(-c4cc(S(=O)(=O)[O-])ccc4F)c4ccc([nH]4)c(-c4cc(S(=O)(=O)[O-])ccc4F)c4nc(c(-c5cc(S(=O)(=O)[O-])ccc5F)c5ccc2[nH]5)C=C4)C=C3)cc1)c1ccc(Cc2ccoc2)cc1F
REMARK SMILES IDX 6 1 5 2 3 3 4 4 2 5 1 6 74 7 75 8 85 9 76 10 84 11 86 12
REMARK SMILES IDX 77 13 78 14 79 15 80 16 83 17 81 18 82 19 7 20 8 21 9 22
REMARK SMILES IDX 10 23 11 24 12 25 73 26 13 27 72 28 14 29 15 30 16 31 66 32
REMARK SMILES IDX 17 33 71 34 65 35 67 36 18 37 70 38 64 39 63 40 19 42 51 43
REMARK SMILES IDX 31 44 50 45 32 46 35 47 49 48 68 49 33 50 34 51 48 53 69 54
REMARK SMILES IDX 36 55 20 56 21 57 29 58 22 59 28 60 30 61 27 62 23 63 24 64
REMARK SMILES IDX 25 65 26 66 52 67 53 68 61 69 54 70 60 71 62 72 59 73 55 74
REMARK SMILES IDX 56 75 57 76 58 77 37 78 38 79 46 80 39 81 45 82 47 83 44 84
REMARK SMILES IDX 40 85 41 86 42 87 43 88
REMARK H PARENT 67 41 35 52
REMARK Flexibility Score: inf
ROOT
ATOM      1  C   UNL A   1      34.914  20.591  24.729  1.00  0.00     0.274 C 
ENDROOT
BRANCH   1   2
ATOM      2  O   UNL A   1      33.771  21.431  24.453  1.00  0.00    -0.462 OA
BRANCH   2   3
ATOM      3  C   UNL A   1      32.897  21.646  25.480  1.00  0.00     0.313 C 
ATOM      4  O   UNL A   1      31.815  21.077  25.571  1.00  0.00    -0.252 OA
BRANCH   3   5
ATOM      5  C   UNL A   1      33.380  22.737  26.460  1.00  0.00     0.129 C 
ATOM      6  C   UNL A   1      32.999  22.407  27.909  1.00  0.00     0.025 C 
BRANCH   5   7
ATOM      7  C   UNL A   1      33.015  24.150  25.989  1.00  0.00     0.002 A 
ATOM      8  C   UNL A   1      31.701  24.619  26.177  1.00  0.00     0.008 A 
ATOM      9  C   UNL A   1      33.915  25.040  25.395  1.00  0.00     0.127 A 
ATOM     10  C   UNL A   1      31.336  25.937  25.856  1.00  0.00     0.004 A 
ATOM     11  C   UNL A   1      33.550  26.348  25.047  1.00  0.00     0.043 A 
ATOM     12  F   UNL A   1      35.186  24.683  25.171  1.00  0.00    -0.207 F 
ATOM     13  C   UNL A   1      32.256  26.832  25.292  1.00  0.00    -0.041 A 
BRANCH  13  14
ATOM     14  C   UNL A   1      31.983  28.317  25.141  1.00  0.00     0.074 C 
BRANCH  14  15
ATOM     15  C   UNL A   1      31.073  28.559  23.991  1.00  0.00    -0.005 A 
ATOM     16  C   UNL A   1      30.150  29.635  23.816  1.00  0.00     0.046 A 
ATOM     17  C   UNL A   1      31.053  27.876  22.791  1.00  0.00     0.198 A 
ATOM     18  C   UNL A   1      29.624  29.505  22.553  1.00  0.00     0.195 A 
ATOM     19  O   UNL A   1      30.161  28.425  21.929  1.00  0.00    -0.472 OA
ENDBRANCH  14  15
ENDBRANCH  13  14
ENDBRANCH   5   7
ENDBRANCH   3   5
ENDBRANCH   2   3
ENDBRANCH   1   2
BRANCH   1  20
ATOM     20  C   UNL A   1      36.202  21.380  24.518  1.00  0.00     0.275 C 
BRANCH  20  21
ATOM     21  O   UNL A   1      36.886  21.476  25.776  1.00  0.00    -0.458 OA
BRANCH  21  22
ATOM     22  C   UNL A   1      38.216  21.246  25.757  1.00  0.00     0.338 C 
ATOM     23  O   UNL A   1      38.790  20.252  25.329  1.00  0.00    -0.246 OA
BRANCH  22  24
ATOM     24  C   UNL A   1      38.904  22.400  26.359  1.00  0.00     0.060 A 
ATOM     25  C   UNL A   1      38.405  23.684  26.154  1.00  0.00     0.016 A 
ATOM     26  C   UNL A   1      40.090  22.219  27.072  1.00  0.00     0.016 A 
ATOM     27  C   UNL A   1      39.126  24.787  26.602  1.00  0.00     0.010 A 
ATOM     28  C   UNL A   1      40.771  23.332  27.583  1.00  0.00     0.010 A 
ATOM     29  C   UNL A   1      40.321  24.638  27.318  1.00  0.00    -0.014 A 
BRANCH  29  30
ATOM     30  C   UNL A   1      41.129  25.838  27.698  1.00  0.00     0.031 A 
ATOM     31  C   UNL A   1      40.526  26.897  28.590  1.00  0.00     0.074 A 
ATOM     32  C   UNL A   1      42.419  25.969  27.316  1.00  0.00     0.049 A 
ATOM     33  N   UNL A   1      40.978  28.090  28.890  1.00  0.00    -0.248 NA
ATOM     34  C   UNL A   1      39.241  26.570  29.224  1.00  0.00     0.031 C 
ATOM     35  C   UNL A   1      43.177  24.991  26.534  1.00  0.00     0.029 A 
ATOM     36  N   UNL A   1      43.331  26.968  27.563  1.00  0.00    -0.354 N 
ATOM     37  C   UNL A   1      39.998  28.683  29.679  1.00  0.00     0.074 A 
ATOM     38  C   UNL A   1      38.932  27.713  29.819  1.00  0.00     0.031 C 
ATOM     39  C   UNL A   1      44.448  25.407  26.420  1.00  0.00     0.029 A 
ATOM     40  C   UNL A   1      44.573  26.734  27.015  1.00  0.00     0.049 A 
ATOM     41  H   UNL A   1      43.118  27.775  28.085  1.00  0.00     0.167 HD
ATOM     42  C   UNL A   1      39.983  29.925  30.227  1.00  0.00     0.034 A 
ATOM     43  C   UNL A   1      45.671  27.513  26.947  1.00  0.00     0.034 A 
ATOM     44  C   UNL A   1      41.075  30.863  30.133  1.00  0.00     0.049 A 
ATOM     45  C   UNL A   1      45.615  28.910  27.514  1.00  0.00     0.074 A 
ATOM     46  C   UNL A   1      41.157  32.148  30.645  1.00  0.00     0.029 A 
ATOM     47  N   UNL A   1      42.285  30.615  29.500  1.00  0.00    -0.354 N 
ATOM     48  N   UNL A   1      44.633  29.504  28.150  1.00  0.00    -0.248 NA
ATOM     49  C   UNL A   1      46.806  29.749  27.326  1.00  0.00     0.031 C 
ATOM     50  C   UNL A   1      42.391  32.693  30.275  1.00  0.00     0.029 A 
ATOM     51  C   UNL A   1      43.109  31.728  29.590  1.00  0.00     0.049 A 
ATOM     52  H   UNL A   1      42.524  29.772  29.052  1.00  0.00     0.167 HD
ATOM     53  C   UNL A   1      45.093  30.785  28.441  1.00  0.00     0.074 A 
ATOM     54  C   UNL A   1      46.447  30.868  27.936  1.00  0.00     0.031 C 
ATOM     55  C   UNL A   1      44.450  31.806  29.063  1.00  0.00     0.034 A 
BRANCH  42  56
ATOM     56  C   UNL A   1      38.709  30.367  30.907  1.00  0.00     0.023 A 
ATOM     57  C   UNL A   1      37.663  30.996  30.212  1.00  0.00     0.031 A 
ATOM     58  C   UNL A   1      38.559  30.177  32.293  1.00  0.00     0.131 A 
ATOM     59  C   UNL A   1      36.545  31.474  30.916  1.00  0.00     0.055 A 
ATOM     60  C   UNL A   1      37.411  30.585  32.975  1.00  0.00     0.041 A 
ATOM     61  F   UNL A   1      39.535  29.599  33.012  1.00  0.00    -0.206 F 
ATOM     62  C   UNL A   1      36.403  31.252  32.288  1.00  0.00     0.022 A 
BRANCH  59  63
ATOM     63  S   UNL A   1      35.345  32.512  30.038  1.00  0.00     0.124 S 
ATOM     64  O   UNL A   1      34.391  32.823  31.101  1.00  0.00    -0.237 OA
ATOM     65  O   UNL A   1      36.169  33.623  29.574  1.00  0.00    -0.237 OA
ATOM     66  O   UNL A   1      34.833  31.633  28.989  1.00  0.00    -0.744 OA
ENDBRANCH  59  63
ENDBRANCH  42  56
BRANCH  43  67
ATOM     67  C   UNL A   1      46.895  27.041  26.233  1.00  0.00     0.023 A 
ATOM     68  C   UNL A   1      47.930  26.387  26.920  1.00  0.00     0.031 A 
ATOM     69  C   UNL A   1      47.070  27.288  24.858  1.00  0.00     0.131 A 
ATOM     70  C   UNL A   1      49.107  26.036  26.239  1.00  0.00     0.055 A 
ATOM     71  C   UNL A   1      48.217  26.884  24.175  1.00  0.00     0.041 A 
ATOM     72  F   UNL A   1      46.118  27.919  24.154  1.00  0.00    -0.206 F 
ATOM     73  C   UNL A   1      49.250  26.264  24.869  1.00  0.00     0.022 A 
BRANCH  70  74
ATOM     74  S   UNL A   1      50.489  25.346  27.191  1.00  0.00     0.124 S 
ATOM     75  O   UNL A   1      49.856  24.215  27.857  1.00  0.00    -0.237 OA
ATOM     76  O   UNL A   1      51.447  25.022  26.139  1.00  0.00    -0.237 OA
ATOM     77  O   UNL A   1      50.881  26.448  28.068  1.00  0.00    -0.744 OA
ENDBRANCH  70  74
ENDBRANCH  43  67
BRANCH  55  78
ATOM     78  C   UNL A   1      45.224  33.086  29.253  1.00  0.00     0.023 A 
ATOM     79  C   UNL A   1      45.066  34.179  28.384  1.00  0.00     0.031 A 
ATOM     80  C   UNL A   1      46.147  33.205  30.308  1.00  0.00     0.131 A 
ATOM     81  C   UNL A   1      45.855  35.327  28.554  1.00  0.00     0.055 A 
ATOM     82  C   UNL A   1      46.893  34.368  30.502  1.00  0.00     0.041 A 
ATOM     83  F   UNL A   1      46.338  32.191  31.166  1.00  0.00    -0.206 F 
ATOM     84  C   UNL A   1      46.758  35.434  29.616  1.00  0.00     0.022 A 
BRANCH  81  85
ATOM     85  S   UNL A   1      45.745  36.653  27.320  1.00  0.00     0.124 S 
ATOM     86  O   UNL A   1      46.907  36.385  26.480  1.00  0.00    -0.237 OA
ATOM     87  O   UNL A   1      44.443  36.404  26.708  1.00  0.00    -0.237 OA
ATOM     88  O   UNL A   1      45.827  37.874  28.120  1.00  0.00    -0.744 OA
ENDBRANCH  81  85
ENDBRANCH  55  78
ENDBRANCH  29  30
ENDBRANCH  22  24
ENDBRANCH  21  22
ENDBRANCH  20  21
ENDBRANCH   1  20
TORSDOF 17
ENDMDL
MODEL 3
REMARK VINA RESULT:     -11.8      5.280      9.981
REMARK SMILES C[C@@H](C(=O)OCCOC(=O)c1ccc(-c2c3nc(c(-c4cc(S(=O)(=O)[O-])ccc4F)c4ccc([nH]4)c(-c4cc(S(=O)(=O)[O-])ccc4F)c4nc(c(-c5cc(S(=O)(=O)[O-])ccc5F)c5ccc2[nH]5)C=C4)C=C3)cc1)c1ccc(Cc2ccoc2)cc1F
REMARK SMILES IDX 6 1 5 2 3 3 4 4 2 5 1 6 74 7 75 8 85 9 76 10 84 11 86 12
REMARK SMILES IDX 77 13 78 14 79 15 80 16 83 17 81 18 82 19 7 20 8 21 9 22
REMARK SMILES IDX 10 23 11 24 12 25 73 26 13 27 72 28 14 29 15 30 16 31 66 32
REMARK SMILES IDX 17 33 71 34 65 35 67 36 18 37 70 38 64 39 63 40 19 42 51 43
REMARK SMILES IDX 31 44 50 45 32 46 35 47 49 48 68 49 33 50 34 51 48 53 69 54
REMARK SMILES IDX 36 55 20 56 21 57 29 58 22 59 28 60 30 61 27 62 23 63 24 64
REMARK SMILES IDX 25 65 26 66 52 67 53 68 61 69 54 70 60 71 62 72 59 73 55 74
REMARK SMILES IDX 56 75 57 76 58 77 37 78 38 79 46 80 39 81 45 82 47 83 44 84
REMARK SMILES IDX 40 85 41 86 42 87 43 88
REMARK H PARENT 67 41 35 52
REMARK Flexibility Score: inf
ROOT
ATOM      1  C   UNL A   1      31.327  29.841  24.721  1.00  0.00     0.274 C 
ENDROOT
BRANCH   1   2
ATOM      2  O   UNL A   1      31.060  28.452  24.429  1.00  0.00    -0.462 OA
BRANCH   2   3
ATOM      3  C   UNL A   1      31.654  27.927  23.317  1.00  0.00     0.313 C 
ATOM      4  O   UNL A   1      31.030  27.598  22.314  1.00  0.00    -0.252 OA
BRANCH   3   5
ATOM      5  C   UNL A   1      33.174  27.717  23.491  1.00  0.00     0.129 C 
ATOM      6  C   UNL A   1      33.957  28.195  22.262  1.00  0.00     0.025 C 
BRANCH   5   7
ATOM      7  C   UNL A   1      33.516  26.304  23.981  1.00  0.00     0.002 A 
ATOM      8  C   UNL A   1      33.705  25.276  23.038  1.00  0.00     0.008 A 
ATOM      9  C   UNL A   1      33.683  25.955  25.325  1.00  0.00     0.127 A 
ATOM     10  C   UNL A   1      34.116  23.989  23.423  1.00  0.00     0.004 A 
ATOM     11  C   UNL A   1      34.067  24.666  25.718  1.00  0.00     0.043 A 
ATOM     12  F   UNL A   1      33.520  26.863  26.295  1.00  0.00    -0.207 F 
ATOM     13  C   UNL A   1      34.315  23.660  24.771  1.00  0.00    -0.041 A 
BRANCH  13  14
ATOM     14  C   UNL A   1      34.973  22.368  25.221  1.00  0.00     0.074 C 
BRANCH  14  15
ATOM     15  C   UNL A   1      34.033  21.228  25.062  1.00  0.00    -0.005 A 
ATOM     16  C   UNL A   1      34.343  19.879  24.710  1.00  0.00     0.046 A 
ATOM     17  C   UNL A   1      32.688  21.212  25.377  1.00  0.00     0.198 A 
ATOM     18  C   UNL A   1      33.173  19.165  24.806  1.00  0.00     0.195 A 
ATOM     19  O   UNL A   1      32.158  19.975  25.198  1.00  0.00    -0.472 OA
ENDBRANCH  14  15
ENDBRANCH  13  14
ENDBRANCH   5   7
ENDBRANCH   3   5
ENDBRANCH   2   3
ENDBRANCH   1   2
BRANCH   1  20
ATOM     20  C   UNL A   1      31.755  29.994  26.176  1.00  0.00     0.275 C 
BRANCH  20  21
ATOM     21  O   UNL A   1      33.136  30.387  26.203  1.00  0.00    -0.458 OA
BRANCH  21  22
ATOM     22  C   UNL A   1      33.483  31.305  27.131  1.00  0.00     0.338 C 
ATOM     23  O   UNL A   1      32.829  32.274  27.494  1.00  0.00    -0.246 OA
BRANCH  22  24
ATOM     24  C   UNL A   1      34.816  30.966  27.656  1.00  0.00     0.060 A 
ATOM     25  C   UNL A   1      35.126  29.640  27.948  1.00  0.00     0.016 A 
ATOM     26  C   UNL A   1      35.743  31.973  27.927  1.00  0.00     0.016 A 
ATOM     27  C   UNL A   1      36.331  29.332  28.572  1.00  0.00     0.010 A 
ATOM     28  C   UNL A   1      36.983  31.644  28.488  1.00  0.00     0.010 A 
ATOM     29  C   UNL A   1      37.280  30.320  28.860  1.00  0.00    -0.014 A 
BRANCH  29  30
ATOM     30  C   UNL A   1      38.520  29.979  29.624  1.00  0.00     0.031 A 
ATOM     31  C   UNL A   1      39.557  29.074  29.004  1.00  0.00     0.074 A 
ATOM     32  C   UNL A   1      38.771  30.518  30.837  1.00  0.00     0.049 A 
ATOM     33  N   UNL A   1      40.604  28.509  29.553  1.00  0.00    -0.248 NA
ATOM     34  C   UNL A   1      39.388  28.758  27.578  1.00  0.00     0.031 C 
ATOM     35  C   UNL A   1      37.917  31.482  31.533  1.00  0.00     0.029 A 
ATOM     36  N   UNL A   1      39.837  30.353  31.689  1.00  0.00    -0.354 N 
ATOM     37  C   UNL A   1      41.171  27.711  28.564  1.00  0.00     0.074 A 
ATOM     38  C   UNL A   1      40.355  27.875  27.378  1.00  0.00     0.031 C 
ATOM     39  C   UNL A   1      38.520  31.869  32.668  1.00  0.00     0.029 A 
ATOM     40  C   UNL A   1      39.745  31.096  32.846  1.00  0.00     0.049 A 
ATOM     41  H   UNL A   1      40.598  29.761  31.492  1.00  0.00     0.167 HD
ATOM     42  C   UNL A   1      42.263  26.909  28.640  1.00  0.00     0.034 A 
ATOM     43  C   UNL A   1      40.520  31.117  33.949  1.00  0.00     0.034 A 
ATOM     44  C   UNL A   1      43.105  26.798  29.806  1.00  0.00     0.049 A 
ATOM     45  C   UNL A   1      41.698  30.178  34.035  1.00  0.00     0.074 A 
ATOM     46  C   UNL A   1      44.229  26.009  29.988  1.00  0.00     0.029 A 
ATOM     47  N   UNL A   1      42.929  27.509  30.985  1.00  0.00    -0.354 N 
ATOM     48  N   UNL A   1      42.149  29.335  33.135  1.00  0.00    -0.248 NA
ATOM     49  C   UNL A   1      42.450  30.173  35.296  1.00  0.00     0.031 C 
ATOM     50  C   UNL A   1      44.698  26.202  31.293  1.00  0.00     0.029 A 
ATOM     51  C   UNL A   1      43.909  27.161  31.904  1.00  0.00     0.049 A 
ATOM     52  H   UNL A   1      42.213  28.165  31.146  1.00  0.00     0.167 HD
ATOM     53  C   UNL A   1      43.241  28.705  33.725  1.00  0.00     0.074 A 
ATOM     54  C   UNL A   1      43.398  29.283  35.043  1.00  0.00     0.031 C 
ATOM     55  C   UNL A   1      44.041  27.729  33.224  1.00  0.00     0.034 A 
BRANCH  42  56
ATOM     56  C   UNL A   1      42.559  26.026  27.451  1.00  0.00     0.023 A 
ATOM     57  C   UNL A   1      42.074  24.712  27.349  1.00  0.00     0.031 A 
ATOM     58  C   UNL A   1      43.373  26.510  26.410  1.00  0.00     0.131 A 
ATOM     59  C   UNL A   1      42.463  23.905  26.266  1.00  0.00     0.055 A 
ATOM     60  C   UNL A   1      43.694  25.729  25.298  1.00  0.00     0.041 A 
ATOM     61  F   UNL A   1      43.881  27.752  26.463  1.00  0.00    -0.206 F 
ATOM     62  C   UNL A   1      43.251  24.413  25.230  1.00  0.00     0.022 A 
BRANCH  59  63
ATOM     63  S   UNL A   1      42.042  22.142  26.302  1.00  0.00     0.124 S 
ATOM     64  O   UNL A   1      40.597  22.179  26.082  1.00  0.00    -0.237 OA
ATOM     65  O   UNL A   1      42.840  21.605  25.206  1.00  0.00    -0.237 OA
ATOM     66  O   UNL A   1      42.450  21.719  27.639  1.00  0.00    -0.744 OA
ENDBRANCH  59  63
ENDBRANCH  42  56
BRANCH  43  67
ATOM     67  C   UNL A   1      40.165  31.984  35.111  1.00  0.00     0.023 A 
ATOM     68  C   UNL A   1      39.244  31.559  36.080  1.00  0.00     0.031 A 
ATOM     69  C   UNL A   1      40.702  33.279  35.237  1.00  0.00     0.131 A 
ATOM     70  C   UNL A   1      38.861  32.432  37.112  1.00  0.00     0.055 A 
ATOM     71  C   UNL A   1      40.364  34.121  36.297  1.00  0.00     0.041 A 
ATOM     72  F   UNL A   1      41.580  33.742  34.333  1.00  0.00    -0.206 F 
ATOM     73  C   UNL A   1      39.427  33.702  37.237  1.00  0.00     0.022 A 
BRANCH  70  74
ATOM     74  S   UNL A   1      37.545  31.913  38.249  1.00  0.00     0.124 S 
ATOM     75  O   UNL A   1      37.266  30.560  37.781  1.00  0.00    -0.237 OA
ATOM     76  O   UNL A   1      38.207  32.022  39.544  1.00  0.00    -0.237 OA
ATOM     77  O   UNL A   1      36.485  32.889  38.009  1.00  0.00    -0.744 OA
ENDBRANCH  70  74
ENDBRANCH  43  67
BRANCH  55  78
ATOM     78  C   UNL A   1      45.170  27.253  34.103  1.00  0.00     0.023 A 
ATOM     79  C   UNL A   1      45.029  26.136  34.944  1.00  0.00     0.031 A 
ATOM     80  C   UNL A   1      46.398  27.940  34.111  1.00  0.00     0.131 A 
ATOM     81  C   UNL A   1      46.081  25.766  35.797  1.00  0.00     0.055 A 
ATOM     82  C   UNL A   1      47.457  27.537  34.925  1.00  0.00     0.041 A 
ATOM     83  F   UNL A   1      46.585  29.014  33.328  1.00  0.00    -0.206 F 
ATOM     84  C   UNL A   1      47.298  26.452  35.782  1.00  0.00     0.022 A 
BRANCH  81  85
ATOM     85  S   UNL A   1      45.809  24.424  36.986  1.00  0.00     0.124 S 
ATOM     86  O   UNL A   1      47.162  23.920  37.194  1.00  0.00    -0.237 OA
ATOM     87  O   UNL A   1      45.208  25.124  38.117  1.00  0.00    -0.237 OA
ATOM     88  O   UNL A   1      44.911  23.513  36.277  1.00  0.00    -0.744 OA
ENDBRANCH  81  85
ENDBRANCH  55  78
ENDBRANCH  29  30
ENDBRANCH  22  24
ENDBRANCH  21  22
ENDBRANCH  20  21
ENDBRANCH   1  20
TORSDOF 17
ENDMDL
