MODEL 1
REMARK VINA RESULT:     -12.4      0.000      0.000
REMARK SMILES O=C(OCCOC(=O)c1cc(-c2ccoc2)nc2c(F)cccc12)c1ccc(-c2c3nc(c(-c4cc(S(=O)(=O)[O-])ccc4F)c4ccc([nH]4)c(-c4cc(S(=O)(=O)[O-])ccc4F)c4nc(c(-c5cc(S(=O)(=O)[O-])ccc5F)c5ccc2[nH]5)C=C4)C=C3)cc1
REMARK SMILES IDX 4 1 3 2 2 3 1 4 25 5 26 6 87 7 27 8 86 9 28 10 29 11 30 12
REMARK SMILES IDX 80 13 31 14 85 15 79 16 81 17 32 18 84 19 78 20 77 21 33 23
REMARK SMILES IDX 65 24 45 25 64 26 46 27 49 28 63 29 82 30 47 31 48 32 62 34
REMARK SMILES IDX 83 35 50 36 34 37 35 38 43 39 36 40 42 41 44 42 41 43 37 44
REMARK SMILES IDX 38 45 39 46 40 47 66 48 67 49 75 50 68 51 74 52 76 53 73 54
REMARK SMILES IDX 69 55 70 56 71 57 72 58 51 59 52 60 60 61 53 62 59 63 61 64
REMARK SMILES IDX 58 65 54 66 55 67 56 68 57 69 5 70 6 71 7 72 8 73 9 74 10 75
REMARK SMILES IDX 24 76 11 77 18 78 23 79 17 80 19 81 22 82 20 83 21 84 12 85
REMARK SMILES IDX 13 86 16 87 14 88 15 89
REMARK H PARENT 81 22 49 33
REMARK Flexibility Score: inf
ROOT
ATOM      1  C   UNL A   1      31.616  31.888  27.049  1.00  0.00     0.275 C 
ENDROOT
BRANCH   1   2
ATOM      2  O   UNL A   1      32.169  33.211  27.058  1.00  0.00    -0.458 OA
BRANCH   2   3
ATOM      3  C   UNL A   1      32.975  33.803  27.970  1.00  0.00     0.338 C 
ATOM      4  O   UNL A   1      32.681  34.937  28.349  1.00  0.00    -0.246 OA
BRANCH   3   5
ATOM      5  C   UNL A   1      34.285  33.231  28.433  1.00  0.00     0.060 A 
ATOM      6  C   UNL A   1      35.564  33.606  28.027  1.00  0.00     0.016 A 
ATOM      7  C   UNL A   1      34.193  32.243  29.425  1.00  0.00     0.016 A 
ATOM      8  C   UNL A   1      36.700  33.091  28.658  1.00  0.00     0.010 A 
ATOM      9  C   UNL A   1      35.318  31.766  30.104  1.00  0.00     0.010 A 
ATOM     10  C   UNL A   1      36.589  32.189  29.718  1.00  0.00    -0.014 A 
BRANCH  10  11
ATOM     11  C   UNL A   1      37.817  31.593  30.294  1.00  0.00     0.031 A 
ATOM     12  C   UNL A   1      38.248  32.028  31.664  1.00  0.00     0.074 A 
ATOM     13  C   UNL A   1      38.462  30.594  29.658  1.00  0.00     0.049 A 
ATOM     14  N   UNL A   1      39.211  31.555  32.409  1.00  0.00    -0.248 NA
ATOM     15  C   UNL A   1      37.467  33.103  32.297  1.00  0.00     0.031 C 
ATOM     16  C   UNL A   1      38.066  30.019  28.373  1.00  0.00     0.029 A 
ATOM     17  N   UNL A   1      39.578  29.875  30.003  1.00  0.00    -0.354 N 
ATOM     18  C   UNL A   1      39.097  32.218  33.624  1.00  0.00     0.074 A 
ATOM     19  C   UNL A   1      38.055  33.209  33.476  1.00  0.00     0.031 C 
ATOM     20  C   UNL A   1      38.948  29.070  28.018  1.00  0.00     0.029 A 
ATOM     21  C   UNL A   1      39.983  28.984  29.034  1.00  0.00     0.049 A 
ATOM     22  H   UNL A   1      40.046  29.985  30.863  1.00  0.00     0.167 HD
ATOM     23  C   UNL A   1      39.754  31.969  34.780  1.00  0.00     0.034 A 
ATOM     24  C   UNL A   1      41.072  28.196  28.968  1.00  0.00     0.034 A 
ATOM     25  C   UNL A   1      40.820  31.011  34.893  1.00  0.00     0.049 A 
ATOM     26  C   UNL A   1      41.942  28.106  30.189  1.00  0.00     0.074 A 
ATOM     27  C   UNL A   1      41.592  30.704  35.998  1.00  0.00     0.029 A 
ATOM     28  N   UNL A   1      41.283  30.217  33.849  1.00  0.00    -0.354 N 
ATOM     29  N   UNL A   1      41.802  28.720  31.342  1.00  0.00    -0.248 NA
ATOM     30  C   UNL A   1      43.069  27.171  30.127  1.00  0.00     0.031 C 
ATOM     31  C   UNL A   1      42.564  29.778  35.604  1.00  0.00     0.029 A 
ATOM     32  C   UNL A   1      42.350  29.446  34.275  1.00  0.00     0.049 A 
ATOM     33  H   UNL A   1      40.905  30.205  32.941  1.00  0.00     0.167 HD
ATOM     34  C   UNL A   1      42.792  28.201  32.166  1.00  0.00     0.074 A 
ATOM     35  C   UNL A   1      43.513  27.220  31.374  1.00  0.00     0.031 C 
ATOM     36  C   UNL A   1      43.066  28.490  33.463  1.00  0.00     0.034 A 
BRANCH  23  37
ATOM     37  C   UNL A   1      39.328  32.773  35.981  1.00  0.00     0.023 A 
ATOM     38  C   UNL A   1      39.800  34.084  36.182  1.00  0.00     0.031 A 
ATOM     39  C   UNL A   1      38.505  32.206  36.966  1.00  0.00     0.131 A 
ATOM     40  C   UNL A   1      39.506  34.757  37.377  1.00  0.00     0.055 A 
ATOM     41  C   UNL A   1      38.153  32.912  38.119  1.00  0.00     0.041 A 
ATOM     42  F   UNL A   1      38.054  30.949  36.840  1.00  0.00    -0.206 F 
ATOM     43  C   UNL A   1      38.666  34.189  38.337  1.00  0.00     0.022 A 
BRANCH  40  44
ATOM     44  S   UNL A   1      40.353  36.325  37.722  1.00  0.00     0.124 S 
ATOM     45  O   UNL A   1      41.504  35.873  38.501  1.00  0.00    -0.237 OA
ATOM     46  O   UNL A   1      40.647  36.829  36.386  1.00  0.00    -0.237 OA
ATOM     47  O   UNL A   1      39.362  37.091  38.475  1.00  0.00    -0.744 OA
ENDBRANCH  40  44
ENDBRANCH  23  37
BRANCH  24  48
ATOM     48  C   UNL A   1      41.430  27.469  27.716  1.00  0.00     0.023 A 
ATOM     49  C   UNL A   1      41.346  26.073  27.606  1.00  0.00     0.031 A 
ATOM     50  C   UNL A   1      41.970  28.181  26.629  1.00  0.00     0.131 A 
ATOM     51  C   UNL A   1      41.845  25.431  26.458  1.00  0.00     0.055 A 
ATOM     52  C   UNL A   1      42.413  27.545  25.468  1.00  0.00     0.041 A 
ATOM     53  F   UNL A   1      42.091  29.517  26.688  1.00  0.00    -0.206 F 
ATOM     54  C   UNL A   1      42.365  26.157  25.385  1.00  0.00     0.022 A 
BRANCH  51  55
ATOM     55  S   UNL A   1      41.916  23.617  26.437  1.00  0.00     0.124 S 
ATOM     56  O   UNL A   1      42.712  23.364  25.242  1.00  0.00    -0.237 OA
ATOM     57  O   UNL A   1      42.562  23.329  27.713  1.00  0.00    -0.237 OA
ATOM     58  O   UNL A   1      40.512  23.223  26.349  1.00  0.00    -0.744 OA
ENDBRANCH  51  55
ENDBRANCH  24  48
BRANCH  36  59
ATOM     59  C   UNL A   1      44.168  27.689  34.104  1.00  0.00     0.023 A 
ATOM     60  C   UNL A   1      43.910  26.460  34.732  1.00  0.00     0.031 A 
ATOM     61  C   UNL A   1      45.480  28.193  34.140  1.00  0.00     0.131 A 
ATOM     62  C   UNL A   1      44.927  25.822  35.450  1.00  0.00     0.055 A 
ATOM     63  C   UNL A   1      46.510  27.507  34.782  1.00  0.00     0.041 A 
ATOM     64  F   UNL A   1      45.779  29.368  33.562  1.00  0.00    -0.206 F 
ATOM     65  C   UNL A   1      46.231  26.324  35.461  1.00  0.00     0.022 A 
BRANCH  62  66
ATOM     66  S   UNL A   1      44.483  24.410  36.496  1.00  0.00     0.124 S 
ATOM     67  O   UNL A   1      43.907  25.072  37.663  1.00  0.00    -0.237 OA
ATOM     68  O   UNL A   1      43.545  23.677  35.652  1.00  0.00    -0.237 OA
ATOM     69  O   UNL A   1      45.761  23.743  36.729  1.00  0.00    -0.744 OA
ENDBRANCH  62  66
ENDBRANCH  36  59
ENDBRANCH  10  11
ENDBRANCH   3   5
ENDBRANCH   2   3
ENDBRANCH   1   2
BRANCH   1  70
ATOM     70  C   UNL A   1      32.540  30.810  26.471  1.00  0.00     0.275 C 
BRANCH  70  71
ATOM     71  O   UNL A   1      32.774  29.702  27.358  1.00  0.00    -0.458 OA
BRANCH  71  72
ATOM     72  C   UNL A   1      31.945  28.636  27.214  1.00  0.00     0.339 C 
ATOM     73  O   UNL A   1      31.300  28.089  28.097  1.00  0.00    -0.246 OA
BRANCH  72  74
ATOM     74  C   UNL A   1      31.832  28.270  25.787  1.00  0.00     0.071 A 
ATOM     75  C   UNL A   1      30.853  28.944  25.044  1.00  0.00     0.045 A 
ATOM     76  C   UNL A   1      32.631  27.260  25.201  1.00  0.00     0.018 A 
ATOM     77  C   UNL A   1      30.744  28.641  23.703  1.00  0.00     0.075 A 
ATOM     78  C   UNL A   1      32.423  27.024  23.826  1.00  0.00     0.107 A 
ATOM     79  C   UNL A   1      33.581  26.465  25.899  1.00  0.00     0.011 A 
ATOM     80  N   UNL A   1      31.506  27.702  23.109  1.00  0.00    -0.245 NA
ATOM     81  C   UNL A   1      33.175  26.029  23.205  1.00  0.00     0.149 A 
ATOM     82  C   UNL A   1      34.297  25.458  25.252  1.00  0.00     0.004 A 
ATOM     83  F   UNL A   1      33.010  25.791  21.894  1.00  0.00    -0.205 F 
ATOM     84  C   UNL A   1      34.089  25.241  23.898  1.00  0.00     0.041 A 
BRANCH  77  85
ATOM     85  C   UNL A   1      29.775  29.260  22.820  1.00  0.00     0.038 A 
ATOM     86  C   UNL A   1      28.358  29.136  22.839  1.00  0.00     0.052 A 
ATOM     87  C   UNL A   1      30.060  29.981  21.681  1.00  0.00     0.205 A 
ATOM     88  C   UNL A   1      27.887  29.819  21.743  1.00  0.00     0.195 A 
ATOM     89  O   UNL A   1      28.918  30.343  21.036  1.00  0.00    -0.472 OA
ENDBRANCH  77  85
ENDBRANCH  72  74
ENDBRANCH  71  72
ENDBRANCH  70  71
ENDBRANCH   1  70
TORSDOF 15
ENDMDL
MODEL 2
REMARK VINA RESULT:     -12.3      5.386     10.599
REMARK SMILES O=C(OCCOC(=O)c1cc(-c2ccoc2)nc2c(F)cccc12)c1ccc(-c2c3nc(c(-c4cc(S(=O)(=O)[O-])ccc4F)c4ccc([nH]4)c(-c4cc(S(=O)(=O)[O-])ccc4F)c4nc(c(-c5cc(S(=O)(=O)[O-])ccc5F)c5ccc2[nH]5)C=C4)C=C3)cc1
REMARK SMILES IDX 4 1 3 2 2 3 1 4 25 5 26 6 87 7 27 8 86 9 28 10 29 11 30 12
REMARK SMILES IDX 80 13 31 14 85 15 79 16 81 17 32 18 84 19 78 20 77 21 33 23
REMARK SMILES IDX 65 24 45 25 64 26 46 27 49 28 63 29 82 30 47 31 48 32 62 34
REMARK SMILES IDX 83 35 50 36 34 37 35 38 43 39 36 40 42 41 44 42 41 43 37 44
REMARK SMILES IDX 38 45 39 46 40 47 66 48 67 49 75 50 68 51 74 52 76 53 73 54
REMARK SMILES IDX 69 55 70 56 71 57 72 58 51 59 52 60 60 61 53 62 59 63 61 64
REMARK SMILES IDX 58 65 54 66 55 67 56 68 57 69 5 70 6 71 7 72 8 73 9 74 10 75
REMARK SMILES IDX 24 76 11 77 18 78 23 79 17 80 19 81 22 82 20 83 21 84 12 85
REMARK SMILES IDX 13 86 16 87 14 88 15 89
REMARK H PARENT 81 22 49 33
REMARK Flexibility Score: inf
ROOT
ATOM      1  C   UNL A   1      37.418  21.367  24.555  1.00  0.00     0.275 C 
ENDROOT
BRANCH   1   2
ATOM      2  O   UNL A   1      37.967  21.648  25.850  1.00  0.00    -0.458 OA
BRANCH   2   3
ATOM      3  C   UNL A   1      39.251  21.872  26.213  1.00  0.00     0.338 C 
ATOM      4  O   UNL A   1      40.046  20.936  26.124  1.00  0.00    -0.246 OA
BRANCH   3   5
ATOM      5  C   UNL A   1      39.736  23.138  26.860  1.00  0.00     0.060 A 
ATOM      6  C   UNL A   1      40.539  23.259  27.991  1.00  0.00     0.016 A 
ATOM      7  C   UNL A   1      39.369  24.326  26.207  1.00  0.00     0.016 A 
ATOM      8  C   UNL A   1      41.039  24.501  28.392  1.00  0.00     0.010 A 
ATOM      9  C   UNL A   1      39.910  25.565  26.561  1.00  0.00     0.010 A 
ATOM     10  C   UNL A   1      40.753  25.660  27.668  1.00  0.00    -0.014 A 
BRANCH  10  11
ATOM     11  C   UNL A   1      41.221  26.969  28.180  1.00  0.00     0.031 A 
ATOM     12  C   UNL A   1      42.683  27.293  28.085  1.00  0.00     0.074 A 
ATOM     13  C   UNL A   1      40.341  27.896  28.608  1.00  0.00     0.049 A 
ATOM     14  N   UNL A   1      43.294  28.416  28.353  1.00  0.00    -0.248 NA
ATOM     15  C   UNL A   1      43.568  26.232  27.576  1.00  0.00     0.031 C 
ATOM     16  C   UNL A   1      38.889  27.727  28.641  1.00  0.00     0.029 A 
ATOM     17  N   UNL A   1      40.528  29.168  29.086  1.00  0.00    -0.354 N 
ATOM     18  C   UNL A   1      44.613  28.220  27.971  1.00  0.00     0.074 A 
ATOM     19  C   UNL A   1      44.743  26.838  27.568  1.00  0.00     0.031 C 
ATOM     20  C   UNL A   1      38.323  28.832  29.154  1.00  0.00     0.029 A 
ATOM     21  C   UNL A   1      39.368  29.777  29.507  1.00  0.00     0.049 A 
ATOM     22  H   UNL A   1      41.410  29.605  29.123  1.00  0.00     0.167 HD
ATOM     23  C   UNL A   1      45.610  29.132  27.893  1.00  0.00     0.034 A 
ATOM     24  C   UNL A   1      39.171  30.959  30.121  1.00  0.00     0.034 A 
ATOM     25  C   UNL A   1      45.473  30.491  28.343  1.00  0.00     0.049 A 
ATOM     26  C   UNL A   1      40.348  31.883  30.248  1.00  0.00     0.074 A 
ATOM     27  C   UNL A   1      46.422  31.495  28.360  1.00  0.00     0.029 A 
ATOM     28  N   UNL A   1      44.311  31.032  28.883  1.00  0.00    -0.354 N 
ATOM     29  N   UNL A   1      41.586  31.691  29.853  1.00  0.00    -0.248 NA
ATOM     30  C   UNL A   1      40.090  33.201  30.834  1.00  0.00     0.031 C 
ATOM     31  C   UNL A   1      45.856  32.618  28.973  1.00  0.00     0.029 A 
ATOM     32  C   UNL A   1      44.529  32.344  29.266  1.00  0.00     0.049 A 
ATOM     33  H   UNL A   1      43.457  30.551  28.977  1.00  0.00     0.167 HD
ATOM     34  C   UNL A   1      42.245  32.889  30.091  1.00  0.00     0.074 A 
ATOM     35  C   UNL A   1      41.260  33.794  30.657  1.00  0.00     0.031 C 
ATOM     36  C   UNL A   1      43.538  33.220  29.846  1.00  0.00     0.034 A 
BRANCH  23  37
ATOM     37  C   UNL A   1      46.916  28.654  27.318  1.00  0.00     0.023 A 
ATOM     38  C   UNL A   1      47.047  28.380  25.942  1.00  0.00     0.031 A 
ATOM     39  C   UNL A   1      48.016  28.400  28.151  1.00  0.00     0.131 A 
ATOM     40  C   UNL A   1      48.227  27.799  25.455  1.00  0.00     0.055 A 
ATOM     41  C   UNL A   1      49.215  27.892  27.645  1.00  0.00     0.041 A 
ATOM     42  F   UNL A   1      47.935  28.612  29.474  1.00  0.00    -0.206 F 
ATOM     43  C   UNL A   1      49.321  27.576  26.293  1.00  0.00     0.022 A 
BRANCH  40  44
ATOM     44  S   UNL A   1      48.259  27.207  23.739  1.00  0.00     0.124 S 
ATOM     45  O   UNL A   1      47.466  28.229  23.059  1.00  0.00    -0.237 OA
ATOM     46  O   UNL A   1      49.685  27.199  23.433  1.00  0.00    -0.237 OA
ATOM     47  O   UNL A   1      47.630  25.891  23.819  1.00  0.00    -0.744 OA
ENDBRANCH  40  44
ENDBRANCH  23  37
BRANCH  24  48
ATOM     48  C   UNL A   1      37.843  31.325  30.694  1.00  0.00     0.023 A 
ATOM     49  C   UNL A   1      36.878  32.032  29.962  1.00  0.00     0.031 A 
ATOM     50  C   UNL A   1      37.569  31.049  32.046  1.00  0.00     0.131 A 
ATOM     51  C   UNL A   1      35.710  32.486  30.602  1.00  0.00     0.055 A 
ATOM     52  C   UNL A   1      36.384  31.453  32.663  1.00  0.00     0.041 A 
ATOM     53  F   UNL A   1      38.466  30.391  32.798  1.00  0.00    -0.206 F 
ATOM     54  C   UNL A   1      35.451  32.190  31.942  1.00  0.00     0.022 A 
BRANCH  51  55
ATOM     55  S   UNL A   1      34.584  33.577  29.687  1.00  0.00     0.124 S 
ATOM     56  O   UNL A   1      33.954  32.645  28.759  1.00  0.00    -0.237 OA
ATOM     57  O   UNL A   1      33.735  34.094  30.755  1.00  0.00    -0.237 OA
ATOM     58  O   UNL A   1      35.481  34.557  29.078  1.00  0.00    -0.744 OA
ENDBRANCH  51  55
ENDBRANCH  24  48
BRANCH  36  59
ATOM     59  C   UNL A   1      43.930  34.642  30.149  1.00  0.00     0.023 A 
ATOM     60  C   UNL A   1      43.681  35.681  29.238  1.00  0.00     0.031 A 
ATOM     61  C   UNL A   1      44.616  34.948  31.337  1.00  0.00     0.131 A 
ATOM     62  C   UNL A   1      44.198  36.957  29.485  1.00  0.00     0.055 A 
ATOM     63  C   UNL A   1      45.050  36.243  31.618  1.00  0.00     0.041 A 
ATOM     64  F   UNL A   1      44.887  33.990  32.239  1.00  0.00    -0.206 F 
ATOM     65  C   UNL A   1      44.860  37.253  30.679  1.00  0.00     0.022 A 
BRANCH  62  66
ATOM     66  S   UNL A   1      44.124  38.185  28.153  1.00  0.00     0.124 S 
ATOM     67  O   UNL A   1      45.353  38.942  28.376  1.00  0.00    -0.237 OA
ATOM     68  O   UNL A   1      44.099  37.349  26.957  1.00  0.00    -0.237 OA
ATOM     69  O   UNL A   1      42.888  38.913  28.428  1.00  0.00    -0.744 OA
ENDBRANCH  62  66
ENDBRANCH  36  59
ENDBRANCH  10  11
ENDBRANCH   3   5
ENDBRANCH   2   3
ENDBRANCH   1   2
BRANCH   1  70
ATOM     70  C   UNL A   1      36.883  22.592  23.805  1.00  0.00     0.275 C 
BRANCH  70  71
ATOM     71  O   UNL A   1      35.815  23.274  24.485  1.00  0.00    -0.458 OA
BRANCH  71  72
ATOM     72  C   UNL A   1      34.668  23.446  23.779  1.00  0.00     0.339 C 
ATOM     73  O   UNL A   1      34.535  24.089  22.748  1.00  0.00    -0.246 OA
BRANCH  72  74
ATOM     74  C   UNL A   1      33.581  22.640  24.374  1.00  0.00     0.071 A 
ATOM     75  C   UNL A   1      33.654  21.253  24.183  1.00  0.00     0.045 A 
ATOM     76  C   UNL A   1      32.494  23.230  25.060  1.00  0.00     0.018 A 
ATOM     77  C   UNL A   1      32.666  20.475  24.749  1.00  0.00     0.075 A 
ATOM     78  C   UNL A   1      31.534  22.338  25.585  1.00  0.00     0.107 A 
ATOM     79  C   UNL A   1      32.293  24.628  25.221  1.00  0.00     0.011 A 
ATOM     80  N   UNL A   1      31.630  21.003  25.430  1.00  0.00    -0.245 NA
ATOM     81  C   UNL A   1      30.437  22.870  26.258  1.00  0.00     0.149 A 
ATOM     82  C   UNL A   1      31.168  25.127  25.876  1.00  0.00     0.004 A 
ATOM     83  F   UNL A   1      29.515  22.046  26.781  1.00  0.00    -0.205 F 
ATOM     84  C   UNL A   1      30.236  24.240  26.395  1.00  0.00     0.041 A 
BRANCH  77  85
ATOM     85  C   UNL A   1      32.618  19.031  24.628  1.00  0.00     0.038 A 
ATOM     86  C   UNL A   1      32.645  18.056  25.664  1.00  0.00     0.052 A 
ATOM     87  C   UNL A   1      32.687  18.314  23.453  1.00  0.00     0.205 A 
ATOM     88  C   UNL A   1      32.687  16.828  25.049  1.00  0.00     0.195 A 
ATOM     89  O   UNL A   1      32.706  16.976  23.702  1.00  0.00    -0.472 OA
ENDBRANCH  77  85
ENDBRANCH  72  74
ENDBRANCH  71  72
ENDBRANCH  70  71
ENDBRANCH   1  70
TORSDOF 15
ENDMDL
MODEL 3
REMARK VINA RESULT:     -12.3      2.048      2.633
REMARK SMILES O=C(OCCOC(=O)c1cc(-c2ccoc2)nc2c(F)cccc12)c1ccc(-c2c3nc(c(-c4cc(S(=O)(=O)[O-])ccc4F)c4ccc([nH]4)c(-c4cc(S(=O)(=O)[O-])ccc4F)c4nc(c(-c5cc(S(=O)(=O)[O-])ccc5F)c5ccc2[nH]5)C=C4)C=C3)cc1
REMARK SMILES IDX 4 1 3 2 2 3 1 4 25 5 26 6 87 7 27 8 86 9 28 10 29 11 30 12
REMARK SMILES IDX 80 13 31 14 85 15 79 16 81 17 32 18 84 19 78 20 77 21 33 23
REMARK SMILES IDX 65 24 45 25 64 26 46 27 49 28 63 29 82 30 47 31 48 32 62 34
REMARK SMILES IDX 83 35 50 36 34 37 35 38 43 39 36 40 42 41 44 42 41 43 37 44
REMARK SMILES IDX 38 45 39 46 40 47 66 48 67 49 75 50 68 51 74 52 76 53 73 54
REMARK SMILES IDX 69 55 70 56 71 57 72 58 51 59 52 60 60 61 53 62 59 63 61 64
REMARK SMILES IDX 58 65 54 66 55 67 56 68 57 69 5 70 6 71 7 72 8 73 9 74 10 75
REMARK SMILES IDX 24 76 11 77 18 78 23 79 17 80 19 81 22 82 20 83 21 84 12 85
REMARK SMILES IDX 13 86 16 87 14 88 15 89
REMARK H PARENT 81 22 49 33
REMARK Flexibility Score: inf
ROOT
ATOM      1  C   UNL A   1      32.177  29.960  26.839  1.00  0.00     0.275 C 
ENDROOT
BRANCH   1   2
ATOM      2  O   UNL A   1      33.303  30.831  26.668  1.00  0.00    -0.458 OA
BRANCH   2   3
ATOM      3  C   UNL A   1      34.031  31.493  27.596  1.00  0.00     0.338 C 
ATOM      4  O   UNL A   1      33.597  32.569  28.007  1.00  0.00    -0.246 OA
BRANCH   3   5
ATOM      5  C   UNL A   1      35.403  31.077  28.045  1.00  0.00     0.060 A 
ATOM      6  C   UNL A   1      36.580  31.818  27.970  1.00  0.00     0.016 A 
ATOM      7  C   UNL A   1      35.481  29.814  28.652  1.00  0.00     0.016 A 
ATOM      8  C   UNL A   1      37.759  31.362  28.568  1.00  0.00     0.010 A 
ATOM      9  C   UNL A   1      36.635  29.374  29.306  1.00  0.00     0.010 A 
ATOM     10  C   UNL A   1      37.792  30.152  29.263  1.00  0.00    -0.014 A 
BRANCH  10  11
ATOM     11  C   UNL A   1      39.082  29.659  29.798  1.00  0.00     0.031 A 
ATOM     12  C   UNL A   1      39.609  30.263  31.067  1.00  0.00     0.074 A 
ATOM     13  C   UNL A   1      39.708  28.609  29.229  1.00  0.00     0.049 A 
ATOM     14  N   UNL A   1      40.644  29.905  31.778  1.00  0.00    -0.248 NA
ATOM     15  C   UNL A   1      38.844  31.385  31.636  1.00  0.00     0.031 C 
ATOM     16  C   UNL A   1      39.228  27.877  28.057  1.00  0.00     0.029 A 
ATOM     17  N   UNL A   1      40.872  27.963  29.558  1.00  0.00    -0.354 N 
ATOM     18  C   UNL A   1      40.607  30.702  32.913  1.00  0.00     0.074 A 
ATOM     19  C   UNL A   1      39.523  31.643  32.741  1.00  0.00     0.031 C 
ATOM     20  C   UNL A   1      40.111  26.915  27.740  1.00  0.00     0.029 A 
ATOM     21  C   UNL A   1      41.227  26.974  28.668  1.00  0.00     0.049 A 
ATOM     22  H   UNL A   1      41.404  28.185  30.357  1.00  0.00     0.167 HD
ATOM     23  C   UNL A   1      41.363  30.608  34.031  1.00  0.00     0.034 A 
ATOM     24  C   UNL A   1      42.334  26.211  28.601  1.00  0.00     0.034 A 
ATOM     25  C   UNL A   1      42.468  29.697  34.162  1.00  0.00     0.049 A 
ATOM     26  C   UNL A   1      43.303  26.287  29.746  1.00  0.00     0.074 A 
ATOM     27  C   UNL A   1      43.337  29.541  35.225  1.00  0.00     0.029 A 
ATOM     28  N   UNL A   1      42.871  28.797  33.181  1.00  0.00    -0.354 N 
ATOM     29  N   UNL A   1      43.236  27.028  30.828  1.00  0.00    -0.248 NA
ATOM     30  C   UNL A   1      44.453  25.380  29.697  1.00  0.00     0.031 C 
ATOM     31  C   UNL A   1      44.306  28.600  34.860  1.00  0.00     0.029 A 
ATOM     32  C   UNL A   1      43.996  28.108  33.601  1.00  0.00     0.049 A 
ATOM     33  H   UNL A   1      42.421  28.669  32.315  1.00  0.00     0.167 HD
ATOM     34  C   UNL A   1      44.307  26.635  31.619  1.00  0.00     0.074 A 
ATOM     35  C   UNL A   1      44.994  25.586  30.887  1.00  0.00     0.031 C 
ATOM     36  C   UNL A   1      44.676  27.081  32.846  1.00  0.00     0.034 A 
BRANCH  23  37
ATOM     37  C   UNL A   1      41.009  31.537  35.162  1.00  0.00     0.023 A 
ATOM     38  C   UNL A   1      39.888  31.291  35.979  1.00  0.00     0.031 A 
ATOM     39  C   UNL A   1      41.748  32.708  35.386  1.00  0.00     0.131 A 
ATOM     40  C   UNL A   1      39.495  32.244  36.931  1.00  0.00     0.055 A 
ATOM     41  C   UNL A   1      41.395  33.615  36.388  1.00  0.00     0.041 A 
ATOM     42  F   UNL A   1      42.806  33.007  34.616  1.00  0.00    -0.206 F 
ATOM     43  C   UNL A   1      40.255  33.393  37.157  1.00  0.00     0.022 A 
BRANCH  40  44
ATOM     44  S   UNL A   1      37.899  32.028  37.768  1.00  0.00     0.124 S 
ATOM     45  O   UNL A   1      38.261  32.278  39.162  1.00  0.00    -0.237 OA
ATOM     46  O   UNL A   1      37.068  33.045  37.133  1.00  0.00    -0.237 OA
ATOM     47  O   UNL A   1      37.536  30.646  37.464  1.00  0.00    -0.744 OA
ENDBRANCH  40  44
ENDBRANCH  23  37
BRANCH  24  48
ATOM     48  C   UNL A   1      42.614  25.351  27.415  1.00  0.00     0.023 A 
ATOM     49  C   UNL A   1      42.158  24.028  27.321  1.00  0.00     0.031 A 
ATOM     50  C   UNL A   1      43.449  25.832  26.389  1.00  0.00     0.131 A 
ATOM     51  C   UNL A   1      42.584  23.216  26.254  1.00  0.00     0.055 A 
ATOM     52  C   UNL A   1      43.824  25.040  25.302  1.00  0.00     0.041 A 
ATOM     53  F   UNL A   1      43.928  27.085  26.438  1.00  0.00    -0.206 F 
ATOM     54  C   UNL A   1      43.402  23.716  25.239  1.00  0.00     0.022 A 
BRANCH  51  55
ATOM     55  S   UNL A   1      42.150  21.453  26.275  1.00  0.00     0.124 S 
ATOM     56  O   UNL A   1      42.361  21.111  27.676  1.00  0.00    -0.237 OA
ATOM     57  O   UNL A   1      40.764  21.481  25.820  1.00  0.00    -0.237 OA
ATOM     58  O   UNL A   1      43.099  20.859  25.336  1.00  0.00    -0.744 OA
ENDBRANCH  51  55
ENDBRANCH  24  48
BRANCH  36  59
ATOM     59  C   UNL A   1      45.853  26.389  33.480  1.00  0.00     0.023 A 
ATOM     60  C   UNL A   1      45.689  25.239  34.269  1.00  0.00     0.031 A 
ATOM     61  C   UNL A   1      47.146  26.923  33.341  1.00  0.00     0.131 A 
ATOM     62  C   UNL A   1      46.783  24.716  34.967  1.00  0.00     0.055 A 
ATOM     63  C   UNL A   1      48.248  26.343  33.968  1.00  0.00     0.041 A 
ATOM     64  F   UNL A   1      47.357  28.026  32.605  1.00  0.00    -0.206 F 
ATOM     65  C   UNL A   1      48.066  25.245  34.805  1.00  0.00     0.022 A 
BRANCH  62  66
ATOM     66  S   UNL A   1      46.475  23.431  36.208  1.00  0.00     0.124 S 
ATOM     67  O   UNL A   1      45.252  23.915  36.841  1.00  0.00    -0.237 OA
ATOM     68  O   UNL A   1      46.336  22.232  35.389  1.00  0.00    -0.237 OA
ATOM     69  O   UNL A   1      47.669  23.475  37.048  1.00  0.00    -0.744 OA
ENDBRANCH  62  66
ENDBRANCH  36  59
ENDBRANCH  10  11
ENDBRANCH   3   5
ENDBRANCH   2   3
ENDBRANCH   1   2
BRANCH   1  70
ATOM     70  C   UNL A   1      32.502  28.610  27.487  1.00  0.00     0.275 C 
BRANCH  70  71
ATOM     71  O   UNL A   1      32.777  27.558  26.545  1.00  0.00    -0.458 OA
BRANCH  71  72
ATOM     72  C   UNL A   1      31.716  26.798  26.170  1.00  0.00     0.339 C 
ATOM     73  O   UNL A   1      30.993  26.140  26.904  1.00  0.00    -0.246 OA
BRANCH  72  74
ATOM     74  C   UNL A   1      31.469  26.953  24.720  1.00  0.00     0.071 A 
ATOM     75  C   UNL A   1      30.592  27.979  24.342  1.00  0.00     0.045 A 
ATOM     76  C   UNL A   1      32.043  26.087  23.760  1.00  0.00     0.018 A 
ATOM     77  C   UNL A   1      30.364  28.163  22.994  1.00  0.00     0.075 A 
ATOM     78  C   UNL A   1      31.727  26.360  22.412  1.00  0.00     0.107 A 
ATOM     79  C   UNL A   1      32.866  24.968  24.060  1.00  0.00     0.011 A 
ATOM     80  N   UNL A   1      30.914  27.372  22.053  1.00  0.00    -0.245 NA
ATOM     81  C   UNL A   1      32.256  25.527  21.429  1.00  0.00     0.149 A 
ATOM     82  C   UNL A   1      33.356  24.138  23.052  1.00  0.00     0.004 A 
ATOM     83  F   UNL A   1      31.986  25.770  20.136  1.00  0.00    -0.205 F 
ATOM     84  C   UNL A   1      33.046  24.421  21.731  1.00  0.00     0.041 A 
BRANCH  77  85
ATOM     85  C   UNL A   1      29.480  29.183  22.465  1.00  0.00     0.038 A 
ATOM     86  C   UNL A   1      28.067  29.281  22.596  1.00  0.00     0.052 A 
ATOM     87  C   UNL A   1      29.833  30.189  21.592  1.00  0.00     0.205 A 
ATOM     88  C   UNL A   1      27.673  30.354  21.834  1.00  0.00     0.195 A 
ATOM     89  O   UNL A   1      28.744  30.917  21.224  1.00  0.00    -0.472 OA
ENDBRANCH  77  85
ENDBRANCH  72  74
ENDBRANCH  71  72
ENDBRANCH  70  71
ENDBRANCH   1  70
TORSDOF 15
ENDMDL
