MODEL 1
REMARK VINA RESULT:     -10.4      0.000      0.000
REMARK SMILES O=C(CC1=c2ccccc2=NC1)OCCOC(=O)c1ccc(-c2c3nc(c(-c4cc(S(=O)(=O)[O-])ccc4F)c4ccc([nH]4)c(-c4cc(S(=O)(=O)[O-])ccc4F)c4nc(c(-c5cc(S(=O)(=O)[O-])ccc5F)c5ccc2[nH]5)C=C4)C=C3)cc1
REMARK SMILES IDX 15 1 14 2 13 3 2 4 1 5 3 6 4 7 5 8 12 9 6 10 10 11 11 12
REMARK SMILES IDX 7 13 9 14 8 15 16 16 17 17 18 18 19 19 20 20 81 21 21 22
REMARK SMILES IDX 80 23 22 24 23 25 24 26 74 27 25 28 79 29 73 30 75 31 26 32
REMARK SMILES IDX 78 33 72 34 71 35 27 37 59 38 39 39 58 40 40 41 43 42 57 43
REMARK SMILES IDX 76 44 41 45 42 46 56 48 77 49 44 50 28 51 29 52 37 53 30 54
REMARK SMILES IDX 36 55 38 56 35 57 31 58 32 59 33 60 34 61 60 62 61 63 69 64
REMARK SMILES IDX 62 65 68 66 70 67 67 68 63 69 64 70 65 71 66 72 45 73 46 74
REMARK SMILES IDX 54 75 47 76 53 77 55 78 52 79 48 80 49 81 50 82 51 83
REMARK H PARENT 75 36 43 47
REMARK Flexibility Score: inf
ROOT
ATOM      1  C   UNL A   1      33.698  33.822  28.107  1.00  0.00     0.275 C 
ENDROOT
BRANCH   1   2
ATOM      2  C   UNL A   1      34.457  35.017  28.680  1.00  0.00     0.274 C 
BRANCH   2   3
ATOM      3  O   UNL A   1      33.561  36.122  28.939  1.00  0.00    -0.462 OA
BRANCH   3   4
ATOM      4  C   UNL A   1      33.134  36.536  30.156  1.00  0.00     0.310 C 
ATOM      5  O   UNL A   1      33.053  37.738  30.400  1.00  0.00    -0.252 OA
BRANCH   4   6
ATOM      6  C   UNL A   1      32.714  35.500  31.182  1.00  0.00     0.156 C 
BRANCH   6   7
ATOM      7  C   UNL A   1      33.728  35.091  32.197  1.00  0.00    -0.028 C 
ATOM      8  C   UNL A   1      34.445  33.978  32.335  1.00  0.00     0.001 A 
ATOM      9  C   UNL A   1      34.100  36.093  33.252  1.00  0.00     0.175 C 
ATOM     10  C   UNL A   1      34.539  32.722  31.661  1.00  0.00     0.010 A 
ATOM     11  C   UNL A   1      35.346  34.317  33.451  1.00  0.00     0.065 A 
ATOM     12  N   UNL A   1      35.217  35.482  34.005  1.00  0.00    -0.280 NA
ATOM     13  C   UNL A   1      35.488  31.851  32.040  1.00  0.00     0.001 A 
ATOM     14  C   UNL A   1      36.360  33.305  33.814  1.00  0.00     0.028 A 
ATOM     15  C   UNL A   1      36.410  32.156  33.120  1.00  0.00     0.002 A 
ENDBRANCH   6   7
ENDBRANCH   4   6
ENDBRANCH   3   4
ENDBRANCH   2   3
ENDBRANCH   1   2
BRANCH   1  16
ATOM     16  O   UNL A   1      34.631  32.907  27.513  1.00  0.00    -0.458 OA
BRANCH  16  17
ATOM     17  C   UNL A   1      34.399  31.590  27.739  1.00  0.00     0.338 C 
ATOM     18  O   UNL A   1      33.430  30.950  27.373  1.00  0.00    -0.246 OA
BRANCH  17  19
ATOM     19  C   UNL A   1      35.636  30.997  28.298  1.00  0.00     0.060 A 
ATOM     20  C   UNL A   1      35.607  29.814  29.046  1.00  0.00     0.016 A 
ATOM     21  C   UNL A   1      36.836  31.703  28.142  1.00  0.00     0.016 A 
ATOM     22  C   UNL A   1      36.779  29.339  29.638  1.00  0.00     0.010 A 
ATOM     23  C   UNL A   1      38.007  31.225  28.734  1.00  0.00     0.010 A 
ATOM     24  C   UNL A   1      37.988  30.038  29.479  1.00  0.00    -0.014 A 
BRANCH  24  25
ATOM     25  C   UNL A   1      39.253  29.441  29.967  1.00  0.00     0.031 A 
ATOM     26  C   UNL A   1      39.886  28.265  29.289  1.00  0.00     0.074 A 
ATOM     27  C   UNL A   1      39.822  29.985  31.060  1.00  0.00     0.049 A 
ATOM     28  N   UNL A   1      41.018  27.674  29.571  1.00  0.00    -0.248 NA
ATOM     29  C   UNL A   1      39.165  27.677  28.150  1.00  0.00     0.031 C 
ATOM     30  C   UNL A   1      39.274  31.122  31.800  1.00  0.00     0.029 A 
ATOM     31  N   UNL A   1      40.967  29.660  31.741  1.00  0.00    -0.354 N 
ATOM     32  C   UNL A   1      41.160  26.656  28.636  1.00  0.00     0.074 A 
ATOM     33  C   UNL A   1      39.977  26.685  27.802  1.00  0.00     0.031 C 
ATOM     34  C   UNL A   1      40.083  31.401  32.831  1.00  0.00     0.029 A 
ATOM     35  C   UNL A   1      41.189  30.446  32.847  1.00  0.00     0.049 A 
ATOM     36  H   UNL A   1      41.572  28.934  31.464  1.00  0.00     0.167 HD
ATOM     37  C   UNL A   1      42.195  25.794  28.487  1.00  0.00     0.034 A 
ATOM     38  C   UNL A   1      42.166  30.401  33.776  1.00  0.00     0.034 A 
ATOM     39  C   UNL A   1      43.357  25.775  29.343  1.00  0.00     0.049 A 
ATOM     40  C   UNL A   1      43.277  29.396  33.616  1.00  0.00     0.074 A 
ATOM     41  C   UNL A   1      44.481  24.974  29.235  1.00  0.00     0.029 A 
ATOM     42  N   UNL A   1      43.545  26.572  30.464  1.00  0.00    -0.354 N 
ATOM     43  N   UNL A   1      43.457  28.516  32.658  1.00  0.00    -0.248 NA
ATOM     44  C   UNL A   1      44.325  29.382  34.645  1.00  0.00     0.031 C 
ATOM     45  C   UNL A   1      45.310  25.233  30.326  1.00  0.00     0.029 A 
ATOM     46  C   UNL A   1      44.746  26.252  31.077  1.00  0.00     0.049 A 
ATOM     47  H   UNL A   1      42.917  27.263  30.778  1.00  0.00     0.167 HD
ATOM     48  C   UNL A   1      44.651  27.868  32.953  1.00  0.00     0.074 A 
ATOM     49  C   UNL A   1      45.161  28.468  34.169  1.00  0.00     0.031 C 
ATOM     50  C   UNL A   1      45.265  26.865  32.276  1.00  0.00     0.034 A 
BRANCH  37  51
ATOM     51  C   UNL A   1      42.170  24.806  27.349  1.00  0.00     0.023 A 
ATOM     52  C   UNL A   1      41.456  23.598  27.476  1.00  0.00     0.031 A 
ATOM     53  C   UNL A   1      43.000  24.974  26.226  1.00  0.00     0.131 A 
ATOM     54  C   UNL A   1      41.626  22.586  26.522  1.00  0.00     0.055 A 
ATOM     55  C   UNL A   1      43.135  23.978  25.260  1.00  0.00     0.041 A 
ATOM     56  F   UNL A   1      43.705  26.105  26.065  1.00  0.00    -0.206 F 
ATOM     57  C   UNL A   1      42.459  22.770  25.414  1.00  0.00     0.022 A 
BRANCH  54  58
ATOM     58  S   UNL A   1      40.839  20.964  26.725  1.00  0.00     0.124 S 
ATOM     59  O   UNL A   1      41.770  20.089  26.014  1.00  0.00    -0.237 OA
ATOM     60  O   UNL A   1      40.824  20.810  28.176  1.00  0.00    -0.237 OA
ATOM     61  O   UNL A   1      39.535  21.125  26.091  1.00  0.00    -0.744 OA
ENDBRANCH  54  58
ENDBRANCH  37  51
BRANCH  38  62
ATOM     62  C   UNL A   1      42.141  31.385  34.897  1.00  0.00     0.023 A 
ATOM     63  C   UNL A   1      41.084  31.394  35.825  1.00  0.00     0.031 A 
ATOM     64  C   UNL A   1      43.109  32.397  34.987  1.00  0.00     0.131 A 
ATOM     65  C   UNL A   1      40.982  32.434  36.758  1.00  0.00     0.055 A 
ATOM     66  C   UNL A   1      43.044  33.392  35.963  1.00  0.00     0.041 A 
ATOM     67  F   UNL A   1      44.126  32.440  34.113  1.00  0.00    -0.206 F 
ATOM     68  C   UNL A   1      41.966  33.423  36.844  1.00  0.00     0.022 A 
BRANCH  65  69
ATOM     69  S   UNL A   1      39.503  32.615  37.791  1.00  0.00     0.124 S 
ATOM     70  O   UNL A   1      40.066  32.589  39.136  1.00  0.00    -0.237 OA
ATOM     71  O   UNL A   1      38.986  33.908  37.347  1.00  0.00    -0.237 OA
ATOM     72  O   UNL A   1      38.684  31.464  37.425  1.00  0.00    -0.744 OA
ENDBRANCH  65  69
ENDBRANCH  38  62
BRANCH  50  73
ATOM     73  C   UNL A   1      46.575  26.326  32.801  1.00  0.00     0.023 A 
ATOM     74  C   UNL A   1      47.791  26.792  32.263  1.00  0.00     0.031 A 
ATOM     75  C   UNL A   1      46.615  25.242  33.695  1.00  0.00     0.131 A 
ATOM     76  C   UNL A   1      48.989  26.140  32.581  1.00  0.00     0.055 A 
ATOM     77  C   UNL A   1      47.818  24.629  34.048  1.00  0.00     0.041 A 
ATOM     78  F   UNL A   1      45.482  24.757  34.228  1.00  0.00    -0.206 F 
ATOM     79  C   UNL A   1      49.010  25.065  33.477  1.00  0.00     0.022 A 
BRANCH  76  80
ATOM     80  S   UNL A   1      50.549  26.599  31.776  1.00  0.00     0.124 S 
ATOM     81  O   UNL A   1      50.230  26.403  30.363  1.00  0.00    -0.237 OA
ATOM     82  O   UNL A   1      50.711  27.990  32.190  1.00  0.00    -0.237 OA
ATOM     83  O   UNL A   1      51.521  25.662  32.328  1.00  0.00    -0.744 OA
ENDBRANCH  76  80
ENDBRANCH  50  73
ENDBRANCH  24  25
ENDBRANCH  17  19
ENDBRANCH  16  17
ENDBRANCH   1  16
TORSDOF 15
ENDMDL
MODEL 2
REMARK VINA RESULT:     -10.4      1.944      8.164
REMARK SMILES O=C(CC1=c2ccccc2=NC1)OCCOC(=O)c1ccc(-c2c3nc(c(-c4cc(S(=O)(=O)[O-])ccc4F)c4ccc([nH]4)c(-c4cc(S(=O)(=O)[O-])ccc4F)c4nc(c(-c5cc(S(=O)(=O)[O-])ccc5F)c5ccc2[nH]5)C=C4)C=C3)cc1
REMARK SMILES IDX 15 1 14 2 13 3 2 4 1 5 3 6 4 7 5 8 12 9 6 10 10 11 11 12
REMARK SMILES IDX 7 13 9 14 8 15 16 16 17 17 18 18 19 19 20 20 81 21 21 22
REMARK SMILES IDX 80 23 22 24 23 25 24 26 74 27 25 28 79 29 73 30 75 31 26 32
REMARK SMILES IDX 78 33 72 34 71 35 27 37 59 38 39 39 58 40 40 41 43 42 57 43
REMARK SMILES IDX 76 44 41 45 42 46 56 48 77 49 44 50 28 51 29 52 37 53 30 54
REMARK SMILES IDX 36 55 38 56 35 57 31 58 32 59 33 60 34 61 60 62 61 63 69 64
REMARK SMILES IDX 62 65 68 66 70 67 67 68 63 69 64 70 65 71 66 72 45 73 46 74
REMARK SMILES IDX 54 75 47 76 53 77 55 78 52 79 48 80 49 81 50 82 51 83
REMARK H PARENT 75 36 43 47
REMARK Flexibility Score: inf
ROOT
ATOM      1  C   UNL A   1      33.117  33.428  27.723  1.00  0.00     0.275 C 
ENDROOT
BRANCH   1   2
ATOM      2  C   UNL A   1      33.216  34.782  28.423  1.00  0.00     0.274 C 
BRANCH   2   3
ATOM      3  O   UNL A   1      34.134  34.720  29.538  1.00  0.00    -0.462 OA
BRANCH   3   4
ATOM      4  C   UNL A   1      33.796  34.636  30.847  1.00  0.00     0.310 C 
ATOM      5  O   UNL A   1      32.892  35.340  31.292  1.00  0.00    -0.252 OA
BRANCH   4   6
ATOM      6  C   UNL A   1      34.514  33.634  31.731  1.00  0.00     0.156 C 
BRANCH   6   7
ATOM      7  C   UNL A   1      35.945  33.906  32.055  1.00  0.00    -0.028 C 
ATOM      8  C   UNL A   1      37.042  33.899  31.300  1.00  0.00     0.001 A 
ATOM      9  C   UNL A   1      36.272  34.331  33.459  1.00  0.00     0.175 C 
ATOM     10  C   UNL A   1      37.355  33.597  29.940  1.00  0.00     0.010 A 
ATOM     11  C   UNL A   1      38.068  34.407  32.228  1.00  0.00     0.065 A 
ATOM     12  N   UNL A   1      37.709  34.678  33.444  1.00  0.00    -0.280 NA
ATOM     13  C   UNL A   1      38.605  33.811  29.499  1.00  0.00     0.001 A 
ATOM     14  C   UNL A   1      39.422  34.611  31.670  1.00  0.00     0.028 A 
ATOM     15  C   UNL A   1      39.640  34.333  30.374  1.00  0.00     0.002 A 
ENDBRANCH   6   7
ENDBRANCH   4   6
ENDBRANCH   3   4
ENDBRANCH   2   3
ENDBRANCH   1   2
BRANCH   1  16
ATOM     16  O   UNL A   1      34.373  32.743  27.834  1.00  0.00    -0.458 OA
BRANCH  16  17
ATOM     17  C   UNL A   1      34.332  31.395  27.682  1.00  0.00     0.338 C 
ATOM     18  O   UNL A   1      33.514  30.762  27.039  1.00  0.00    -0.246 OA
BRANCH  17  19
ATOM     19  C   UNL A   1      35.589  30.835  28.228  1.00  0.00     0.060 A 
ATOM     20  C   UNL A   1      36.826  31.082  27.619  1.00  0.00     0.016 A 
ATOM     21  C   UNL A   1      35.505  29.965  29.322  1.00  0.00     0.016 A 
ATOM     22  C   UNL A   1      37.975  30.457  28.106  1.00  0.00     0.010 A 
ATOM     23  C   UNL A   1      36.657  29.342  29.808  1.00  0.00     0.010 A 
ATOM     24  C   UNL A   1      37.899  29.589  29.207  1.00  0.00    -0.014 A 
BRANCH  24  25
ATOM     25  C   UNL A   1      39.142  29.065  29.820  1.00  0.00     0.031 A 
ATOM     26  C   UNL A   1      39.687  29.618  31.101  1.00  0.00     0.074 A 
ATOM     27  C   UNL A   1      39.785  28.070  29.178  1.00  0.00     0.049 A 
ATOM     28  N   UNL A   1      40.732  29.222  31.780  1.00  0.00    -0.248 NA
ATOM     29  C   UNL A   1      38.974  30.755  31.700  1.00  0.00     0.031 C 
ATOM     30  C   UNL A   1      39.343  27.476  27.917  1.00  0.00     0.029 A 
ATOM     31  N   UNL A   1      40.938  27.393  29.484  1.00  0.00    -0.354 N 
ATOM     32  C   UNL A   1      40.795  30.043  32.898  1.00  0.00     0.074 A 
ATOM     33  C   UNL A   1      39.704  30.989  32.785  1.00  0.00     0.031 C 
ATOM     34  C   UNL A   1      40.212  26.522  27.556  1.00  0.00     0.029 A 
ATOM     35  C   UNL A   1      41.290  26.456  28.541  1.00  0.00     0.049 A 
ATOM     36  H   UNL A   1      41.463  27.562  30.300  1.00  0.00     0.167 HD
ATOM     37  C   UNL A   1      41.677  29.994  33.926  1.00  0.00     0.034 A 
ATOM     38  C   UNL A   1      42.363  25.642  28.467  1.00  0.00     0.034 A 
ATOM     39  C   UNL A   1      42.767  29.051  34.007  1.00  0.00     0.049 A 
ATOM     40  C   UNL A   1      43.357  25.646  29.599  1.00  0.00     0.074 A 
ATOM     41  C   UNL A   1      43.678  28.891  35.037  1.00  0.00     0.029 A 
ATOM     42  N   UNL A   1      43.107  28.127  33.029  1.00  0.00    -0.354 N 
ATOM     43  N   UNL A   1      43.338  26.349  30.707  1.00  0.00    -0.248 NA
ATOM     44  C   UNL A   1      44.508  24.740  29.486  1.00  0.00     0.031 C 
ATOM     45  C   UNL A   1      44.608  27.925  34.652  1.00  0.00     0.029 A 
ATOM     46  C   UNL A   1      44.237  27.423  33.415  1.00  0.00     0.049 A 
ATOM     47  H   UNL A   1      42.618  27.991  32.185  1.00  0.00     0.167 HD
ATOM     48  C   UNL A   1      44.454  25.949  31.435  1.00  0.00     0.074 A 
ATOM     49  C   UNL A   1      45.118  24.929  30.650  1.00  0.00     0.031 C 
ATOM     50  C   UNL A   1      44.886  26.391  32.642  1.00  0.00     0.034 A 
BRANCH  37  51
ATOM     51  C   UNL A   1      41.513  30.949  35.080  1.00  0.00     0.023 A 
ATOM     52  C   UNL A   1      40.304  30.985  35.803  1.00  0.00     0.031 A 
ATOM     53  C   UNL A   1      42.472  31.945  35.338  1.00  0.00     0.131 A 
ATOM     54  C   UNL A   1      40.067  32.025  36.711  1.00  0.00     0.055 A 
ATOM     55  C   UNL A   1      42.247  32.955  36.272  1.00  0.00     0.041 A 
ATOM     56  F   UNL A   1      43.637  31.956  34.669  1.00  0.00    -0.206 F 
ATOM     57  C   UNL A   1      41.033  33.008  36.952  1.00  0.00     0.022 A 
BRANCH  54  58
ATOM     58  S   UNL A   1      38.469  32.189  37.555  1.00  0.00     0.124 S 
ATOM     59  O   UNL A   1      37.845  30.900  37.266  1.00  0.00    -0.237 OA
ATOM     60  O   UNL A   1      38.875  32.389  38.942  1.00  0.00    -0.237 OA
ATOM     61  O   UNL A   1      37.847  33.338  36.906  1.00  0.00    -0.744 OA
ENDBRANCH  54  58
ENDBRANCH  37  51
BRANCH  38  62
ATOM     62  C   UNL A   1      42.495  24.727  27.298  1.00  0.00     0.023 A 
ATOM     63  C   UNL A   1      41.943  23.433  27.329  1.00  0.00     0.031 A 
ATOM     64  C   UNL A   1      43.270  25.089  26.185  1.00  0.00     0.131 A 
ATOM     65  C   UNL A   1      42.230  22.526  26.301  1.00  0.00     0.055 A 
ATOM     66  C   UNL A   1      43.496  24.206  25.127  1.00  0.00     0.041 A 
ATOM     67  F   UNL A   1      43.833  26.305  26.118  1.00  0.00    -0.206 F 
ATOM     68  C   UNL A   1      42.988  22.911  25.191  1.00  0.00     0.022 A 
BRANCH  65  69
ATOM     69  S   UNL A   1      41.750  20.783  26.439  1.00  0.00     0.124 S 
ATOM     70  O   UNL A   1      42.584  20.157  25.419  1.00  0.00    -0.237 OA
ATOM     71  O   UNL A   1      42.112  20.482  27.822  1.00  0.00    -0.237 OA
ATOM     72  O   UNL A   1      40.317  20.797  26.164  1.00  0.00    -0.744 OA
ENDBRANCH  65  69
ENDBRANCH  38  62
BRANCH  50  73
ATOM     73  C   UNL A   1      46.138  25.787  33.234  1.00  0.00     0.023 A 
ATOM     74  C   UNL A   1      46.050  24.632  34.036  1.00  0.00     0.031 A 
ATOM     75  C   UNL A   1      47.377  26.445  33.151  1.00  0.00     0.131 A 
ATOM     76  C   UNL A   1      47.165  24.203  34.766  1.00  0.00     0.055 A 
ATOM     77  C   UNL A   1      48.500  25.983  33.841  1.00  0.00     0.041 A 
ATOM     78  F   UNL A   1      47.511  27.555  32.407  1.00  0.00    -0.206 F 
ATOM     79  C   UNL A   1      48.392  24.868  34.667  1.00  0.00     0.022 A 
BRANCH  76  80
ATOM     80  S   UNL A   1      47.043  22.826  35.941  1.00  0.00     0.124 S 
ATOM     81  O   UNL A   1      47.698  21.743  35.209  1.00  0.00    -0.237 OA
ATOM     82  O   UNL A   1      47.783  23.336  37.091  1.00  0.00    -0.237 OA
ATOM     83  O   UNL A   1      45.607  22.659  36.141  1.00  0.00    -0.744 OA
ENDBRANCH  76  80
ENDBRANCH  50  73
ENDBRANCH  24  25
ENDBRANCH  17  19
ENDBRANCH  16  17
ENDBRANCH   1  16
TORSDOF 15
ENDMDL
MODEL 3
REMARK VINA RESULT:     -10.4      5.437      9.274
REMARK SMILES O=C(CC1=c2ccccc2=NC1)OCCOC(=O)c1ccc(-c2c3nc(c(-c4cc(S(=O)(=O)[O-])ccc4F)c4ccc([nH]4)c(-c4cc(S(=O)(=O)[O-])ccc4F)c4nc(c(-c5cc(S(=O)(=O)[O-])ccc5F)c5ccc2[nH]5)C=C4)C=C3)cc1
REMARK SMILES IDX 15 1 14 2 13 3 2 4 1 5 3 6 4 7 5 8 12 9 6 10 10 11 11 12
REMARK SMILES IDX 7 13 9 14 8 15 16 16 17 17 18 18 19 19 20 20 81 21 21 22
REMARK SMILES IDX 80 23 22 24 23 25 24 26 74 27 25 28 79 29 73 30 75 31 26 32
REMARK SMILES IDX 78 33 72 34 71 35 27 37 59 38 39 39 58 40 40 41 43 42 57 43
REMARK SMILES IDX 76 44 41 45 42 46 56 48 77 49 44 50 28 51 29 52 37 53 30 54
REMARK SMILES IDX 36 55 38 56 35 57 31 58 32 59 33 60 34 61 60 62 61 63 69 64
REMARK SMILES IDX 62 65 68 66 70 67 67 68 63 69 64 70 65 71 66 72 45 73 46 74
REMARK SMILES IDX 54 75 47 76 53 77 55 78 52 79 48 80 49 81 50 82 51 83
REMARK H PARENT 75 36 43 47
REMARK Flexibility Score: inf
ROOT
ATOM      1  C   UNL A   1      37.657  20.166  24.943  1.00  0.00     0.275 C 
ENDROOT
BRANCH   1   2
ATOM      2  C   UNL A   1      36.132  20.213  25.015  1.00  0.00     0.274 C 
BRANCH   2   3
ATOM      3  O   UNL A   1      35.615  21.340  24.273  1.00  0.00    -0.462 OA
BRANCH   3   4
ATOM      4  C   UNL A   1      34.572  22.125  24.637  1.00  0.00     0.310 C 
ATOM      5  O   UNL A   1      33.635  22.298  23.860  1.00  0.00    -0.252 OA
BRANCH   4   6
ATOM      6  C   UNL A   1      34.559  22.739  26.025  1.00  0.00     0.156 C 
BRANCH   6   7
ATOM      7  C   UNL A   1      33.437  23.664  26.355  1.00  0.00    -0.028 C 
ATOM      8  C   UNL A   1      33.267  24.967  26.138  1.00  0.00     0.001 A 
ATOM      9  C   UNL A   1      32.214  23.073  26.999  1.00  0.00     0.175 C 
ATOM     10  C   UNL A   1      34.043  26.027  25.576  1.00  0.00     0.010 A 
ATOM     11  C   UNL A   1      31.878  25.184  26.580  1.00  0.00     0.065 A 
ATOM     12  N   UNL A   1      31.228  24.172  27.063  1.00  0.00    -0.280 NA
ATOM     13  C   UNL A   1      33.477  27.236  25.427  1.00  0.00     0.001 A 
ATOM     14  C   UNL A   1      31.328  26.543  26.388  1.00  0.00     0.028 A 
ATOM     15  C   UNL A   1      32.103  27.486  25.829  1.00  0.00     0.002 A 
ENDBRANCH   6   7
ENDBRANCH   4   6
ENDBRANCH   3   4
ENDBRANCH   2   3
ENDBRANCH   1   2
BRANCH   1  16
ATOM     16  O   UNL A   1      38.201  21.251  25.710  1.00  0.00    -0.458 OA
BRANCH  16  17
ATOM     17  C   UNL A   1      39.404  21.023  26.293  1.00  0.00     0.338 C 
ATOM     18  O   UNL A   1      40.014  19.969  26.312  1.00  0.00    -0.246 OA
BRANCH  17  19
ATOM     19  C   UNL A   1      39.973  22.330  26.696  1.00  0.00     0.060 A 
ATOM     20  C   UNL A   1      40.974  22.423  27.670  1.00  0.00     0.016 A 
ATOM     21  C   UNL A   1      39.415  23.491  26.146  1.00  0.00     0.016 A 
ATOM     22  C   UNL A   1      41.415  23.679  28.093  1.00  0.00     0.010 A 
ATOM     23  C   UNL A   1      39.859  24.745  26.569  1.00  0.00     0.010 A 
ATOM     24  C   UNL A   1      40.865  24.847  27.540  1.00  0.00    -0.014 A 
BRANCH  24  25
ATOM     25  C   UNL A   1      41.454  26.166  27.869  1.00  0.00     0.031 A 
ATOM     26  C   UNL A   1      42.866  26.514  27.511  1.00  0.00     0.074 A 
ATOM     27  C   UNL A   1      40.677  27.054  28.521  1.00  0.00     0.049 A 
ATOM     28  N   UNL A   1      43.496  27.647  27.687  1.00  0.00    -0.248 NA
ATOM     29  C   UNL A   1      43.676  25.466  26.872  1.00  0.00     0.031 C 
ATOM     30  C   UNL A   1      39.295  26.802  28.928  1.00  0.00     0.029 A 
ATOM     31  N   UNL A   1      40.932  28.328  28.960  1.00  0.00    -0.354 N 
ATOM     32  C   UNL A   1      44.770  27.460  27.165  1.00  0.00     0.074 A 
ATOM     33  C   UNL A   1      44.836  26.090  26.701  1.00  0.00     0.031 C 
ATOM     34  C   UNL A   1      38.822  27.887  29.556  1.00  0.00     0.029 A 
ATOM     35  C   UNL A   1      39.874  28.900  29.626  1.00  0.00     0.049 A 
ATOM     36  H   UNL A   1      41.790  28.788  28.813  1.00  0.00     0.167 HD
ATOM     37  C   UNL A   1      45.777  28.362  27.072  1.00  0.00     0.034 A 
ATOM     38  C   UNL A   1      39.762  30.098  30.235  1.00  0.00     0.034 A 
ATOM     39  C   UNL A   1      45.691  29.718  27.558  1.00  0.00     0.049 A 
ATOM     40  C   UNL A   1      40.918  31.062  30.162  1.00  0.00     0.074 A 
ATOM     41  C   UNL A   1      46.642  30.719  27.458  1.00  0.00     0.029 A 
ATOM     42  N   UNL A   1      44.613  30.262  28.242  1.00  0.00    -0.354 N 
ATOM     43  N   UNL A   1      42.075  30.912  29.561  1.00  0.00    -0.248 NA
ATOM     44  C   UNL A   1      40.755  32.359  30.831  1.00  0.00     0.031 C 
ATOM     45  C   UNL A   1      46.172  31.840  28.142  1.00  0.00     0.029 A 
ATOM     46  C   UNL A   1      44.894  31.571  28.604  1.00  0.00     0.049 A 
ATOM     47  H   UNL A   1      43.773  29.788  28.441  1.00  0.00     0.167 HD
ATOM     48  C   UNL A   1      42.764  32.105  29.754  1.00  0.00     0.074 A 
ATOM     49  C   UNL A   1      41.887  32.974  30.511  1.00  0.00     0.031 C 
ATOM     50  C   UNL A   1      44.011  32.444  29.340  1.00  0.00     0.034 A 
BRANCH  37  51
ATOM     51  C   UNL A   1      47.064  27.958  26.398  1.00  0.00     0.023 A 
ATOM     52  C   UNL A   1      47.213  28.113  25.006  1.00  0.00     0.031 A 
ATOM     53  C   UNL A   1      48.056  27.250  27.099  1.00  0.00     0.131 A 
ATOM     54  C   UNL A   1      48.303  27.525  24.353  1.00  0.00     0.055 A 
ATOM     55  C   UNL A   1      49.160  26.699  26.448  1.00  0.00     0.041 A 
ATOM     56  F   UNL A   1      47.955  27.069  28.425  1.00  0.00    -0.206 F 
ATOM     57  C   UNL A   1      49.279  26.821  25.066  1.00  0.00     0.022 A 
BRANCH  54  58
ATOM     58  S   UNL A   1      48.456  27.578  22.545  1.00  0.00     0.124 S 
ATOM     59  O   UNL A   1      47.248  28.309  22.165  1.00  0.00    -0.237 OA
ATOM     60  O   UNL A   1      49.707  28.306  22.366  1.00  0.00    -0.237 OA
ATOM     61  O   UNL A   1      48.478  26.173  22.153  1.00  0.00    -0.744 OA
ENDBRANCH  54  58
ENDBRANCH  37  51
BRANCH  38  62
ATOM     62  C   UNL A   1      38.478  30.449  30.906  1.00  0.00     0.023 A 
ATOM     63  C   UNL A   1      37.477  31.161  30.219  1.00  0.00     0.031 A 
ATOM     64  C   UNL A   1      38.281  30.181  32.270  1.00  0.00     0.131 A 
ATOM     65  C   UNL A   1      36.358  31.638  30.914  1.00  0.00     0.055 A 
ATOM     66  C   UNL A   1      37.132  30.596  32.943  1.00  0.00     0.041 A 
ATOM     67  F   UNL A   1      39.216  29.521  32.971  1.00  0.00    -0.206 F 
ATOM     68  C   UNL A   1      36.171  31.345  32.268  1.00  0.00     0.022 A 
BRANCH  65  69
ATOM     69  S   UNL A   1      35.186  32.772  30.121  1.00  0.00     0.124 S 
ATOM     70  O   UNL A   1      36.058  33.861  29.695  1.00  0.00    -0.237 OA
ATOM     71  O   UNL A   1      34.645  31.940  29.048  1.00  0.00    -0.237 OA
ATOM     72  O   UNL A   1      34.243  33.096  31.187  1.00  0.00    -0.744 OA
ENDBRANCH  65  69
ENDBRANCH  38  62
BRANCH  50  73
ATOM     73  C   UNL A   1      44.540  33.820  29.672  1.00  0.00     0.023 A 
ATOM     74  C   UNL A   1      44.464  34.851  28.715  1.00  0.00     0.031 A 
ATOM     75  C   UNL A   1      45.267  34.059  30.850  1.00  0.00     0.131 A 
ATOM     76  C   UNL A   1      45.149  36.053  28.929  1.00  0.00     0.055 A 
ATOM     77  C   UNL A   1      45.906  35.279  31.082  1.00  0.00     0.041 A 
ATOM     78  F   UNL A   1      45.376  33.105  31.789  1.00  0.00    -0.206 F 
ATOM     79  C   UNL A   1      45.863  36.275  30.111  1.00  0.00     0.022 A 
BRANCH  76  80
ATOM     80  S   UNL A   1      45.217  37.335  27.647  1.00  0.00     0.124 S 
ATOM     81  O   UNL A   1      43.800  37.566  27.373  1.00  0.00    -0.237 OA
ATOM     82  O   UNL A   1      45.903  38.423  28.336  1.00  0.00    -0.237 OA
ATOM     83  O   UNL A   1      45.964  36.709  26.561  1.00  0.00    -0.744 OA
ENDBRANCH  76  80
ENDBRANCH  50  73
ENDBRANCH  24  25
ENDBRANCH  17  19
ENDBRANCH  16  17
ENDBRANCH   1  16
TORSDOF 15
ENDMDL
