MODEL 1
REMARK VINA RESULT:     -12.4      0.000      0.000
REMARK SMILES Cc1ccccc1O[C@@H](C)C(=O)Oc1ccccc1C(=O)OCCOC(=O)c1ccc(-c2c3nc(c(-c4cc(S(=O)(=O)[O-])ccc4F)c4ccc([nH]4)c(-c4cc(S(=O)(=O)[O-])ccc4F)c4nc(c(-c5cc(S(=O)(=O)[O-])ccc5F)c5ccc2[nH]5)C=C4)C=C3)cc1
REMARK SMILES IDX 23 1 22 2 20 3 21 4 19 5 14 6 15 7 16 8 18 9 17 10 13 11
REMARK SMILES IDX 11 12 12 13 9 14 10 15 8 16 7 17 1 18 2 19 3 20 4 21 6 22
REMARK SMILES IDX 5 23 24 24 25 25 26 26 27 27 28 28 29 29 90 30 30 31 89 32
REMARK SMILES IDX 31 33 32 34 33 35 83 36 34 37 88 38 82 39 84 40 35 41 87 42
REMARK SMILES IDX 81 43 80 44 36 46 68 47 48 48 67 49 49 50 52 51 66 52 85 53
REMARK SMILES IDX 50 54 51 55 65 57 86 58 53 59 37 60 38 61 46 62 39 63 45 64
REMARK SMILES IDX 47 65 44 66 40 67 41 68 42 69 43 70 69 71 70 72 78 73 71 74
REMARK SMILES IDX 77 75 79 76 76 77 72 78 73 79 74 80 75 81 54 82 55 83 63 84
REMARK SMILES IDX 56 85 62 86 64 87 61 88 57 89 58 90 59 91 60 92
REMARK H PARENT 84 45 52 56
REMARK Flexibility Score: inf
ROOT
ATOM      1  C   UNL A   1      33.608  31.175  27.421  1.00  0.00     0.275 C 
ENDROOT
BRANCH   1   2
ATOM      2  O   UNL A   1      34.272  30.100  26.727  1.00  0.00    -0.458 OA
BRANCH   2   3
ATOM      3  C   UNL A   1      33.408  28.923  26.424  1.00  0.00     0.342 C 
ATOM      4  O   UNL A   1      33.864  28.104  27.268  1.00  0.00    -0.246 OA
BRANCH   3   5
ATOM      5  C   UNL A   1      31.805  28.735  24.980  1.00  0.00     0.102 A 
ATOM      6  C   UNL A   1      31.361  27.417  24.074  1.00  0.00     0.145 A 
ATOM      7  C   UNL A   1      30.398  27.292  23.037  1.00  0.00     0.048 A 
ATOM      8  C   UNL A   1      29.655  28.398  22.690  1.00  0.00     0.004 A 
ATOM      9  C   UNL A   1      30.829  29.742  24.421  1.00  0.00     0.019 A 
ATOM     10  C   UNL A   1      29.860  29.591  23.369  1.00  0.00     0.001 A 
BRANCH   6  11
ATOM     11  O   UNL A   1      32.200  26.021  24.009  1.00  0.00    -0.423 OA
BRANCH  11  12
ATOM     12  C   UNL A   1      32.977  25.406  22.999  1.00  0.00     0.352 C 
ATOM     13  O   UNL A   1      33.598  26.120  22.205  1.00  0.00    -0.247 OA
BRANCH  12  14
ATOM     14  C   UNL A   1      33.089  23.812  22.909  1.00  0.00     0.280 C 
ATOM     15  C   UNL A   1      32.425  22.531  22.384  1.00  0.00     0.066 C 
BRANCH  14  16
ATOM     16  O   UNL A   1      33.527  23.414  24.194  1.00  0.00    -0.479 OA
BRANCH  16  17
ATOM     17  C   UNL A   1      34.580  22.558  24.311  1.00  0.00     0.123 A 
ATOM     18  C   UNL A   1      33.722  20.355  25.500  1.00  0.00     0.048 C 
ATOM     19  C   UNL A   1      34.744  21.317  24.955  1.00  0.00    -0.009 A 
ATOM     20  C   UNL A   1      36.054  20.813  25.051  1.00  0.00     0.007 A 
ATOM     21  C   UNL A   1      37.135  21.462  24.462  1.00  0.00     0.001 A 
ATOM     22  C   UNL A   1      35.662  23.153  23.651  1.00  0.00     0.047 A 
ATOM     23  C   UNL A   1      36.931  22.614  23.721  1.00  0.00     0.004 A 
ENDBRANCH  16  17
ENDBRANCH  14  16
ENDBRANCH  12  14
ENDBRANCH  11  12
ENDBRANCH   6  11
ENDBRANCH   3   5
ENDBRANCH   2   3
ENDBRANCH   1   2
BRANCH   1  24
ATOM     24  C   UNL A   1      34.651  32.162  27.982  1.00  0.00     0.275 C 
BRANCH  24  25
ATOM     25  O   UNL A   1      35.157  31.887  29.318  1.00  0.00    -0.458 OA
BRANCH  25  26
ATOM     26  C   UNL A   1      36.490  31.677  29.485  1.00  0.00     0.338 C 
ATOM     27  O   UNL A   1      37.326  32.464  29.878  1.00  0.00    -0.246 OA
BRANCH  26  28
ATOM     28  C   UNL A   1      36.756  30.266  29.136  1.00  0.00     0.060 A 
ATOM     29  C   UNL A   1      37.115  29.211  30.550  1.00  0.00     0.016 A 
ATOM     30  C   UNL A   1      37.696  30.067  27.620  1.00  0.00     0.016 A 
ATOM     31  C   UNL A   1      38.466  27.924  30.419  1.00  0.00     0.010 A 
ATOM     32  C   UNL A   1      39.117  28.918  27.575  1.00  0.00     0.010 A 
ATOM     33  C   UNL A   1      39.505  27.853  28.977  1.00  0.00    -0.014 A 
BRANCH  33  34
ATOM     34  C   UNL A   1      40.948  27.548  29.107  1.00  0.00     0.031 A 
ATOM     35  C   UNL A   1      41.246  26.143  28.777  1.00  0.00     0.074 A 
ATOM     36  C   UNL A   1      41.954  28.466  29.294  1.00  0.00     0.049 A 
ATOM     37  N   UNL A   1      42.404  25.619  28.877  1.00  0.00    -0.248 NA
ATOM     38  C   UNL A   1      40.244  25.169  28.331  1.00  0.00     0.031 C 
ATOM     39  C   UNL A   1      43.385  28.320  28.983  1.00  0.00     0.029 A 
ATOM     40  N   UNL A   1      41.942  29.741  29.877  1.00  0.00    -0.354 N 
ATOM     41  C   UNL A   1      42.384  24.405  28.240  1.00  0.00     0.074 A 
ATOM     42  C   UNL A   1      41.006  24.139  27.962  1.00  0.00     0.031 C 
ATOM     43  C   UNL A   1      44.109  29.292  29.569  1.00  0.00     0.029 A 
ATOM     44  C   UNL A   1      43.224  30.097  30.389  1.00  0.00     0.049 A 
ATOM     45  H   UNL A   1      41.146  30.320  29.925  1.00  0.00     0.167 HD
ATOM     46  C   UNL A   1      43.590  23.860  27.951  1.00  0.00     0.034 A 
ATOM     47  C   UNL A   1      43.483  30.362  31.720  1.00  0.00     0.034 A 
ATOM     48  C   UNL A   1      44.618  24.528  28.761  1.00  0.00     0.049 A 
ATOM     49  C   UNL A   1      44.019  29.064  32.408  1.00  0.00     0.074 A 
ATOM     50  C   UNL A   1      45.563  25.505  28.509  1.00  0.00     0.029 A 
ATOM     51  N   UNL A   1      44.450  24.507  30.143  1.00  0.00    -0.354 N 
ATOM     52  N   UNL A   1      44.331  27.961  31.775  1.00  0.00    -0.248 NA
ATOM     53  C   UNL A   1      44.215  28.915  33.851  1.00  0.00     0.031 C 
ATOM     54  C   UNL A   1      45.865  26.143  29.754  1.00  0.00     0.029 A 
ATOM     55  C   UNL A   1      45.150  25.522  30.766  1.00  0.00     0.049 A 
ATOM     56  H   UNL A   1      43.897  23.847  30.620  1.00  0.00     0.167 HD
ATOM     57  C   UNL A   1      44.714  26.973  32.648  1.00  0.00     0.074 A 
ATOM     58  C   UNL A   1      44.660  27.647  33.940  1.00  0.00     0.031 C 
ATOM     59  C   UNL A   1      45.033  25.700  32.219  1.00  0.00     0.034 A 
BRANCH  46  60
ATOM     60  C   UNL A   1      43.869  22.893  26.832  1.00  0.00     0.023 A 
ATOM     61  C   UNL A   1      43.189  21.663  26.875  1.00  0.00     0.031 A 
ATOM     62  C   UNL A   1      44.833  23.012  25.805  1.00  0.00     0.131 A 
ATOM     63  C   UNL A   1      43.480  20.626  25.975  1.00  0.00     0.055 A 
ATOM     64  C   UNL A   1      45.105  21.986  24.888  1.00  0.00     0.041 A 
ATOM     65  F   UNL A   1      45.591  24.101  25.644  1.00  0.00    -0.206 F 
ATOM     66  C   UNL A   1      44.432  20.780  24.973  1.00  0.00     0.022 A 
BRANCH  63  67
ATOM     67  S   UNL A   1      42.606  19.056  26.171  1.00  0.00     0.124 S 
ATOM     68  O   UNL A   1      42.456  18.972  27.621  1.00  0.00    -0.237 OA
ATOM     69  O   UNL A   1      41.387  19.287  25.405  1.00  0.00    -0.237 OA
ATOM     70  O   UNL A   1      43.527  18.082  25.588  1.00  0.00    -0.744 OA
ENDBRANCH  63  67
ENDBRANCH  46  60
BRANCH  47  71
ATOM     71  C   UNL A   1      42.485  31.293  32.421  1.00  0.00     0.023 A 
ATOM     72  C   UNL A   1      41.368  30.771  33.171  1.00  0.00     0.031 A 
ATOM     73  C   UNL A   1      43.182  32.297  33.025  1.00  0.00     0.131 A 
ATOM     74  C   UNL A   1      41.338  30.877  34.580  1.00  0.00     0.055 A 
ATOM     75  C   UNL A   1      43.292  32.098  34.371  1.00  0.00     0.041 A 
ATOM     76  F   UNL A   1      44.207  32.935  32.435  1.00  0.00    -0.206 F 
ATOM     77  C   UNL A   1      42.441  31.385  35.191  1.00  0.00     0.022 A 
BRANCH  74  78
ATOM     78  S   UNL A   1      40.008  30.337  35.674  1.00  0.00     0.124 S 
ATOM     79  O   UNL A   1      38.898  30.157  34.746  1.00  0.00    -0.237 OA
ATOM     80  O   UNL A   1      40.565  29.130  36.270  1.00  0.00    -0.237 OA
ATOM     81  O   UNL A   1      39.840  31.464  36.597  1.00  0.00    -0.744 OA
ENDBRANCH  74  78
ENDBRANCH  47  71
BRANCH  59  82
ATOM     82  C   UNL A   1      45.362  24.504  33.115  1.00  0.00     0.023 A 
ATOM     83  C   UNL A   1      46.579  24.375  33.785  1.00  0.00     0.031 A 
ATOM     84  C   UNL A   1      44.467  23.417  33.317  1.00  0.00     0.131 A 
ATOM     85  C   UNL A   1      46.941  23.185  34.439  1.00  0.00     0.055 A 
ATOM     86  C   UNL A   1      44.777  22.285  34.079  1.00  0.00     0.041 A 
ATOM     87  F   UNL A   1      43.238  23.380  32.787  1.00  0.00    -0.206 F 
ATOM     88  C   UNL A   1      46.044  22.140  34.610  1.00  0.00     0.022 A 
BRANCH  85  89
ATOM     89  S   UNL A   1      48.672  23.013  34.929  1.00  0.00     0.124 S 
ATOM     90  O   UNL A   1      49.241  24.275  34.463  1.00  0.00    -0.237 OA
ATOM     91  O   UNL A   1      48.569  22.863  36.377  1.00  0.00    -0.237 OA
ATOM     92  O   UNL A   1      49.118  21.824  34.206  1.00  0.00    -0.744 OA
ENDBRANCH  85  89
ENDBRANCH  59  82
ENDBRANCH  33  34
ENDBRANCH  26  28
ENDBRANCH  25  26
ENDBRANCH  24  25
ENDBRANCH   1  24
TORSDOF 19
ENDMDL
MODEL 2
REMARK VINA RESULT:     -12.2      4.549     10.694
REMARK SMILES Cc1ccccc1O[C@@H](C)C(=O)Oc1ccccc1C(=O)OCCOC(=O)c1ccc(-c2c3nc(c(-c4cc(S(=O)(=O)[O-])ccc4F)c4ccc([nH]4)c(-c4cc(S(=O)(=O)[O-])ccc4F)c4nc(c(-c5cc(S(=O)(=O)[O-])ccc5F)c5ccc2[nH]5)C=C4)C=C3)cc1
REMARK SMILES IDX 23 1 22 2 20 3 21 4 19 5 14 6 15 7 16 8 18 9 17 10 13 11
REMARK SMILES IDX 11 12 12 13 9 14 10 15 8 16 7 17 1 18 2 19 3 20 4 21 6 22
REMARK SMILES IDX 5 23 24 24 25 25 26 26 27 27 28 28 29 29 90 30 30 31 89 32
REMARK SMILES IDX 31 33 32 34 33 35 83 36 34 37 88 38 82 39 84 40 35 41 87 42
REMARK SMILES IDX 81 43 80 44 36 46 68 47 48 48 67 49 49 50 52 51 66 52 85 53
REMARK SMILES IDX 50 54 51 55 65 57 86 58 53 59 37 60 38 61 46 62 39 63 45 64
REMARK SMILES IDX 47 65 44 66 40 67 41 68 42 69 43 70 69 71 70 72 78 73 71 74
REMARK SMILES IDX 77 75 79 76 76 77 72 78 73 79 74 80 75 81 54 82 55 83 63 84
REMARK SMILES IDX 56 85 62 86 64 87 61 88 57 89 58 90 59 91 60 92
REMARK H PARENT 84 45 52 56
REMARK Flexibility Score: inf
ROOT
ATOM      1  C   UNL A   1      38.946  21.239  26.106  1.00  0.00     0.275 C 
ENDROOT
BRANCH   1   2
ATOM      2  O   UNL A   1      38.340  22.315  25.364  1.00  0.00    -0.458 OA
BRANCH   2   3
ATOM      3  C   UNL A   1      36.864  22.440  25.536  1.00  0.00     0.342 C 
ATOM      4  O   UNL A   1      36.809  23.587  26.058  1.00  0.00    -0.246 OA
BRANCH   3   5
ATOM      5  C   UNL A   1      35.298  21.050  24.984  1.00  0.00     0.102 A 
ATOM      6  C   UNL A   1      33.680  21.336  24.746  1.00  0.00     0.145 A 
ATOM      7  C   UNL A   1      32.610  20.433  24.502  1.00  0.00     0.048 A 
ATOM      8  C   UNL A   1      32.889  19.088  24.409  1.00  0.00     0.004 A 
ATOM      9  C   UNL A   1      35.301  19.553  24.791  1.00  0.00     0.019 A 
ATOM     10  C   UNL A   1      34.202  18.659  24.543  1.00  0.00     0.001 A 
BRANCH   6  11
ATOM     11  O   UNL A   1      32.942  22.756  25.055  1.00  0.00    -0.423 OA
BRANCH  11  12
ATOM     12  C   UNL A   1      31.963  23.507  24.363  1.00  0.00     0.352 C 
ATOM     13  O   UNL A   1      30.781  23.410  24.709  1.00  0.00    -0.247 OA
BRANCH  12  14
ATOM     14  C   UNL A   1      32.379  24.502  23.180  1.00  0.00     0.280 C 
ATOM     15  C   UNL A   1      33.492  25.400  22.624  1.00  0.00     0.066 C 
BRANCH  14  16
ATOM     16  O   UNL A   1      31.224  25.288  22.955  1.00  0.00    -0.479 OA
BRANCH  16  17
ATOM     17  C   UNL A   1      31.186  26.573  23.402  1.00  0.00     0.123 A 
ATOM     18  C   UNL A   1      32.065  26.603  25.898  1.00  0.00     0.048 C 
ATOM     19  C   UNL A   1      31.413  27.161  24.661  1.00  0.00    -0.009 A 
ATOM     20  C   UNL A   1      31.067  28.517  24.806  1.00  0.00     0.007 A 
ATOM     21  C   UNL A   1      30.604  29.275  23.735  1.00  0.00     0.001 A 
ATOM     22  C   UNL A   1      30.802  27.369  22.316  1.00  0.00     0.047 A 
ATOM     23  C   UNL A   1      30.513  28.710  22.475  1.00  0.00     0.004 A 
ENDBRANCH  16  17
ENDBRANCH  14  16
ENDBRANCH  12  14
ENDBRANCH  11  12
ENDBRANCH   6  11
ENDBRANCH   3   5
ENDBRANCH   2   3
ENDBRANCH   1   2
BRANCH   1  24
ATOM     24  C   UNL A   1      40.161  21.764  26.896  1.00  0.00     0.275 C 
BRANCH  24  25
ATOM     25  O   UNL A   1      40.902  22.864  26.300  1.00  0.00    -0.458 OA
BRANCH  25  26
ATOM     26  C   UNL A   1      41.323  23.881  27.098  1.00  0.00     0.338 C 
ATOM     27  O   UNL A   1      42.327  23.929  27.778  1.00  0.00    -0.246 OA
BRANCH  26  28
ATOM     28  C   UNL A   1      40.340  24.977  26.963  1.00  0.00     0.060 A 
ATOM     29  C   UNL A   1      40.960  26.419  26.081  1.00  0.00     0.016 A 
ATOM     30  C   UNL A   1      39.312  25.200  28.416  1.00  0.00     0.016 A 
ATOM     31  C   UNL A   1      40.524  28.132  26.696  1.00  0.00     0.010 A 
ATOM     32  C   UNL A   1      39.039  26.878  29.089  1.00  0.00     0.010 A 
ATOM     33  C   UNL A   1      39.652  28.341  28.232  1.00  0.00    -0.014 A 
BRANCH  33  34
ATOM     34  C   UNL A   1      39.992  29.460  29.140  1.00  0.00     0.031 A 
ATOM     35  C   UNL A   1      39.004  30.551  29.064  1.00  0.00     0.074 A 
ATOM     36  C   UNL A   1      40.967  29.446  30.109  1.00  0.00     0.049 A 
ATOM     37  N   UNL A   1      39.110  31.652  29.700  1.00  0.00    -0.248 NA
ATOM     38  C   UNL A   1      37.802  30.520  28.224  1.00  0.00     0.031 C 
ATOM     39  C   UNL A   1      41.064  30.291  31.310  1.00  0.00     0.029 A 
ATOM     40  N   UNL A   1      42.153  28.705  30.213  1.00  0.00    -0.354 N 
ATOM     41  C   UNL A   1      37.910  32.310  29.623  1.00  0.00     0.074 A 
ATOM     42  C   UNL A   1      37.140  31.596  28.650  1.00  0.00     0.031 C 
ATOM     43  C   UNL A   1      42.290  30.207  31.862  1.00  0.00     0.029 A 
ATOM     44  C   UNL A   1      43.123  29.376  31.014  1.00  0.00     0.049 A 
ATOM     45  H   UNL A   1      42.297  27.829  29.787  1.00  0.00     0.167 HD
ATOM     46  C   UNL A   1      37.724  33.321  30.505  1.00  0.00     0.034 A 
ATOM     47  C   UNL A   1      44.358  29.791  30.554  1.00  0.00     0.034 A 
ATOM     48  C   UNL A   1      39.027  33.716  31.055  1.00  0.00     0.049 A 
ATOM     49  C   UNL A   1      44.271  31.292  30.124  1.00  0.00     0.074 A 
ATOM     50  C   UNL A   1      39.688  33.472  32.245  1.00  0.00     0.029 A 
ATOM     51  N   UNL A   1      40.008  34.104  30.146  1.00  0.00    -0.354 N 
ATOM     52  N   UNL A   1      43.236  32.066  30.334  1.00  0.00    -0.248 NA
ATOM     53  C   UNL A   1      45.329  32.009  29.411  1.00  0.00     0.031 C 
ATOM     54  C   UNL A   1      41.091  33.610  31.994  1.00  0.00     0.029 A 
ATOM     55  C   UNL A   1      41.280  33.988  30.675  1.00  0.00     0.049 A 
ATOM     56  H   UNL A   1      39.818  34.424  29.234  1.00  0.00     0.167 HD
ATOM     57  C   UNL A   1      43.424  33.313  29.791  1.00  0.00     0.074 A 
ATOM     58  C   UNL A   1      44.779  33.230  29.259  1.00  0.00     0.031 C 
ATOM     59  C   UNL A   1      42.446  34.285  29.833  1.00  0.00     0.034 A 
BRANCH  46  60
ATOM     60  C   UNL A   1      36.392  33.811  31.008  1.00  0.00     0.023 A 
ATOM     61  C   UNL A   1      35.488  34.288  30.043  1.00  0.00     0.031 A 
ATOM     62  C   UNL A   1      35.982  33.973  32.351  1.00  0.00     0.131 A 
ATOM     63  C   UNL A   1      34.282  34.908  30.405  1.00  0.00     0.055 A 
ATOM     64  C   UNL A   1      34.764  34.568  32.712  1.00  0.00     0.041 A 
ATOM     65  F   UNL A   1      36.736  33.605  33.391  1.00  0.00    -0.206 F 
ATOM     66  C   UNL A   1      33.907  35.047  31.737  1.00  0.00     0.022 A 
BRANCH  63  67
ATOM     67  S   UNL A   1      33.231  35.561  29.087  1.00  0.00     0.124 S 
ATOM     68  O   UNL A   1      34.185  36.325  28.289  1.00  0.00    -0.237 OA
ATOM     69  O   UNL A   1      32.708  34.343  28.481  1.00  0.00    -0.237 OA
ATOM     70  O   UNL A   1      32.245  36.365  29.809  1.00  0.00    -0.744 OA
ENDBRANCH  63  67
ENDBRANCH  46  60
BRANCH  47  71
ATOM     71  C   UNL A   1      45.143  28.760  29.731  1.00  0.00     0.023 A 
ATOM     72  C   UNL A   1      45.184  28.822  28.290  1.00  0.00     0.031 A 
ATOM     73  C   UNL A   1      46.340  28.538  30.345  1.00  0.00     0.131 A 
ATOM     74  C   UNL A   1      46.377  29.181  27.621  1.00  0.00     0.055 A 
ATOM     75  C   UNL A   1      47.361  29.190  29.715  1.00  0.00     0.041 A 
ATOM     76  F   UNL A   1      46.464  28.388  31.674  1.00  0.00    -0.206 F 
ATOM     77  C   UNL A   1      47.431  29.565  28.388  1.00  0.00     0.022 A 
BRANCH  74  78
ATOM     78  S   UNL A   1      46.630  29.257  25.836  1.00  0.00     0.124 S 
ATOM     79  O   UNL A   1      48.049  28.941  25.711  1.00  0.00    -0.237 OA
ATOM     80  O   UNL A   1      45.692  28.257  25.344  1.00  0.00    -0.237 OA
ATOM     81  O   UNL A   1      46.294  30.643  25.497  1.00  0.00    -0.744 OA
ENDBRANCH  74  78
ENDBRANCH  47  71
BRANCH  59  82
ATOM     82  C   UNL A   1      42.515  35.661  29.166  1.00  0.00     0.023 A 
ATOM     83  C   UNL A   1      43.271  36.714  29.681  1.00  0.00     0.031 A 
ATOM     84  C   UNL A   1      41.793  35.986  27.983  1.00  0.00     0.131 A 
ATOM     85  C   UNL A   1      43.168  38.019  29.172  1.00  0.00     0.055 A 
ATOM     86  C   UNL A   1      41.792  37.257  27.397  1.00  0.00     0.041 A 
ATOM     87  F   UNL A   1      41.042  35.096  27.323  1.00  0.00    -0.206 F 
ATOM     88  C   UNL A   1      42.447  38.301  28.020  1.00  0.00     0.022 A 
BRANCH  85  89
ATOM     89  S   UNL A   1      43.897  39.345  30.160  1.00  0.00     0.124 S 
ATOM     90  O   UNL A   1      42.852  40.364  30.107  1.00  0.00    -0.237 OA
ATOM     91  O   UNL A   1      44.083  38.698  31.455  1.00  0.00    -0.237 OA
ATOM     92  O   UNL A   1      45.125  39.674  29.442  1.00  0.00    -0.744 OA
ENDBRANCH  85  89
ENDBRANCH  59  82
ENDBRANCH  33  34
ENDBRANCH  26  28
ENDBRANCH  25  26
ENDBRANCH  24  25
ENDBRANCH   1  24
TORSDOF 19
ENDMDL
MODEL 3
REMARK VINA RESULT:     -11.7      1.716      2.050
REMARK SMILES Cc1ccccc1O[C@@H](C)C(=O)Oc1ccccc1C(=O)OCCOC(=O)c1ccc(-c2c3nc(c(-c4cc(S(=O)(=O)[O-])ccc4F)c4ccc([nH]4)c(-c4cc(S(=O)(=O)[O-])ccc4F)c4nc(c(-c5cc(S(=O)(=O)[O-])ccc5F)c5ccc2[nH]5)C=C4)C=C3)cc1
REMARK SMILES IDX 23 1 22 2 20 3 21 4 19 5 14 6 15 7 16 8 18 9 17 10 13 11
REMARK SMILES IDX 11 12 12 13 9 14 10 15 8 16 7 17 1 18 2 19 3 20 4 21 6 22
REMARK SMILES IDX 5 23 24 24 25 25 26 26 27 27 28 28 29 29 90 30 30 31 89 32
REMARK SMILES IDX 31 33 32 34 33 35 83 36 34 37 88 38 82 39 84 40 35 41 87 42
REMARK SMILES IDX 81 43 80 44 36 46 68 47 48 48 67 49 49 50 52 51 66 52 85 53
REMARK SMILES IDX 50 54 51 55 65 57 86 58 53 59 37 60 38 61 46 62 39 63 45 64
REMARK SMILES IDX 47 65 44 66 40 67 41 68 42 69 43 70 69 71 70 72 78 73 71 74
REMARK SMILES IDX 77 75 79 76 76 77 72 78 73 79 74 80 75 81 54 82 55 83 63 84
REMARK SMILES IDX 56 85 62 86 64 87 61 88 57 89 58 90 59 91 60 92
REMARK H PARENT 84 45 52 56
REMARK Flexibility Score: inf
ROOT
ATOM      1  C   UNL A   1      32.883  32.176  27.473  1.00  0.00     0.275 C 
ENDROOT
BRANCH   1   2
ATOM      2  O   UNL A   1      33.500  31.135  26.690  1.00  0.00    -0.458 OA
BRANCH   2   3
ATOM      3  C   UNL A   1      32.650  29.931  26.471  1.00  0.00     0.342 C 
ATOM      4  O   UNL A   1      33.014  29.232  27.457  1.00  0.00    -0.246 OA
BRANCH   3   5
ATOM      5  C   UNL A   1      31.183  29.552  24.923  1.00  0.00     0.102 A 
ATOM      6  C   UNL A   1      30.874  28.146  24.095  1.00  0.00     0.145 A 
ATOM      7  C   UNL A   1      30.007  27.894  22.998  1.00  0.00     0.048 A 
ATOM      8  C   UNL A   1      29.249  28.931  22.503  1.00  0.00     0.004 A 
ATOM      9  C   UNL A   1      30.215  30.462  24.207  1.00  0.00     0.019 A 
ATOM     10  C   UNL A   1      29.345  30.182  23.097  1.00  0.00     0.001 A 
BRANCH   6  11
ATOM     11  O   UNL A   1      31.775  26.792  24.212  1.00  0.00    -0.423 OA
BRANCH  11  12
ATOM     12  C   UNL A   1      33.169  26.556  24.202  1.00  0.00     0.352 C 
ATOM     13  O   UNL A   1      33.938  27.506  24.383  1.00  0.00    -0.247 OA
BRANCH  12  14
ATOM     14  C   UNL A   1      33.747  25.076  24.005  1.00  0.00     0.280 C 
ATOM     15  C   UNL A   1      34.442  24.115  23.030  1.00  0.00     0.066 C 
BRANCH  14  16
ATOM     16  O   UNL A   1      32.786  24.236  24.616  1.00  0.00    -0.479 OA
BRANCH  16  17
ATOM     17  C   UNL A   1      33.196  23.141  25.315  1.00  0.00     0.123 A 
ATOM     18  C   UNL A   1      32.714  20.996  23.842  1.00  0.00     0.048 C 
ATOM     19  C   UNL A   1      33.079  21.757  25.089  1.00  0.00    -0.009 A 
ATOM     20  C   UNL A   1      33.436  20.903  26.149  1.00  0.00     0.007 A 
ATOM     21  C   UNL A   1      33.964  21.392  27.340  1.00  0.00     0.001 A 
ATOM     22  C   UNL A   1      33.808  23.612  26.483  1.00  0.00     0.047 A 
ATOM     23  C   UNL A   1      34.192  22.749  27.490  1.00  0.00     0.004 A 
ENDBRANCH  16  17
ENDBRANCH  14  16
ENDBRANCH  12  14
ENDBRANCH  11  12
ENDBRANCH   6  11
ENDBRANCH   3   5
ENDBRANCH   2   3
ENDBRANCH   1   2
BRANCH   1  24
ATOM     24  C   UNL A   1      33.948  32.890  28.330  1.00  0.00     0.275 C 
BRANCH  24  25
ATOM     25  O   UNL A   1      34.338  32.234  29.567  1.00  0.00    -0.458 OA
BRANCH  25  26
ATOM     26  C   UNL A   1      35.661  32.072  29.837  1.00  0.00     0.338 C 
ATOM     27  O   UNL A   1      36.441  32.895  30.270  1.00  0.00    -0.246 OA
BRANCH  26  28
ATOM     28  C   UNL A   1      35.997  30.663  29.542  1.00  0.00     0.060 A 
ATOM     29  C   UNL A   1      36.648  29.750  30.950  1.00  0.00     0.016 A 
ATOM     30  C   UNL A   1      36.721  30.423  27.918  1.00  0.00     0.016 A 
ATOM     31  C   UNL A   1      38.074  28.565  30.700  1.00  0.00     0.010 A 
ATOM     32  C   UNL A   1      38.216  29.387  27.732  1.00  0.00     0.010 A 
ATOM     33  C   UNL A   1      38.895  28.466  29.125  1.00  0.00    -0.014 A 
BRANCH  33  34
ATOM     34  C   UNL A   1      40.363  28.284  29.055  1.00  0.00     0.031 A 
ATOM     35  C   UNL A   1      40.731  26.894  28.733  1.00  0.00     0.074 A 
ATOM     36  C   UNL A   1      41.303  29.287  29.065  1.00  0.00     0.049 A 
ATOM     37  N   UNL A   1      41.933  26.470  28.682  1.00  0.00    -0.248 NA
ATOM     38  C   UNL A   1      39.764  25.823  28.469  1.00  0.00     0.031 C 
ATOM     39  C   UNL A   1      42.682  29.243  28.555  1.00  0.00     0.029 A 
ATOM     40  N   UNL A   1      41.262  30.583  29.600  1.00  0.00    -0.354 N 
ATOM     41  C   UNL A   1      41.928  25.231  28.096  1.00  0.00     0.074 A 
ATOM     42  C   UNL A   1      40.552  24.842  28.028  1.00  0.00     0.031 C 
ATOM     43  C   UNL A   1      43.395  30.297  28.998  1.00  0.00     0.029 A 
ATOM     44  C   UNL A   1      42.568  31.063  29.909  1.00  0.00     0.049 A 
ATOM     45  H   UNL A   1      40.435  31.097  29.743  1.00  0.00     0.167 HD
ATOM     46  C   UNL A   1      43.124  24.772  27.654  1.00  0.00     0.034 A 
ATOM     47  C   UNL A   1      42.989  31.408  31.180  1.00  0.00     0.034 A 
ATOM     48  C   UNL A   1      44.194  25.556  28.284  1.00  0.00     0.049 A 
ATOM     49  C   UNL A   1      43.727  30.191  31.826  1.00  0.00     0.074 A 
ATOM     50  C   UNL A   1      45.006  26.594  27.866  1.00  0.00     0.029 A 
ATOM     51  N   UNL A   1      44.225  25.585  29.676  1.00  0.00    -0.354 N 
ATOM     52  N   UNL A   1      44.040  29.089  31.192  1.00  0.00    -0.248 NA
ATOM     53  C   UNL A   1      44.136  30.124  33.230  1.00  0.00     0.031 C 
ATOM     54  C   UNL A   1      45.425  27.311  29.033  1.00  0.00     0.029 A 
ATOM     55  C   UNL A   1      44.916  26.681  30.157  1.00  0.00     0.049 A 
ATOM     56  H   UNL A   1      43.804  24.905  30.250  1.00  0.00     0.167 HD
ATOM     57  C   UNL A   1      44.626  28.175  32.033  1.00  0.00     0.074 A 
ATOM     58  C   UNL A   1      44.697  28.901  33.296  1.00  0.00     0.031 C 
ATOM     59  C   UNL A   1      44.990  26.915  31.605  1.00  0.00     0.034 A 
BRANCH  46  60
ATOM     60  C   UNL A   1      43.324  23.780  26.539  1.00  0.00     0.023 A 
ATOM     61  C   UNL A   1      42.864  22.472  26.767  1.00  0.00     0.031 A 
ATOM     62  C   UNL A   1      44.039  23.967  25.334  1.00  0.00     0.131 A 
ATOM     63  C   UNL A   1      43.130  21.429  25.866  1.00  0.00     0.055 A 
ATOM     64  C   UNL A   1      44.281  22.930  24.421  1.00  0.00     0.041 A 
ATOM     65  F   UNL A   1      44.574  25.139  24.980  1.00  0.00    -0.206 F 
ATOM     66  C   UNL A   1      43.832  21.649  24.687  1.00  0.00     0.022 A 
BRANCH  63  67
ATOM     67  S   UNL A   1      42.563  19.767  26.296  1.00  0.00     0.124 S 
ATOM     68  O   UNL A   1      41.497  19.548  25.323  1.00  0.00    -0.237 OA
ATOM     69  O   UNL A   1      43.775  18.976  26.119  1.00  0.00    -0.237 OA
ATOM     70  O   UNL A   1      42.116  19.911  27.681  1.00  0.00    -0.744 OA
ENDBRANCH  63  67
ENDBRANCH  46  60
BRANCH  47  71
ATOM     71  C   UNL A   1      42.024  32.287  31.985  1.00  0.00     0.023 A 
ATOM     72  C   UNL A   1      41.119  31.718  32.955  1.00  0.00     0.031 A 
ATOM     73  C   UNL A   1      42.691  33.405  32.389  1.00  0.00     0.131 A 
ATOM     74  C   UNL A   1      41.317  31.938  34.338  1.00  0.00     0.055 A 
ATOM     75  C   UNL A   1      43.052  33.332  33.704  1.00  0.00     0.041 A 
ATOM     76  F   UNL A   1      43.519  34.094  31.586  1.00  0.00    -0.206 F 
ATOM     77  C   UNL A   1      42.442  32.607  34.708  1.00  0.00     0.022 A 
BRANCH  74  78
ATOM     78  S   UNL A   1      40.265  31.357  35.684  1.00  0.00     0.124 S 
ATOM     79  O   UNL A   1      39.254  30.583  34.975  1.00  0.00    -0.237 OA
ATOM     80  O   UNL A   1      41.202  30.608  36.511  1.00  0.00    -0.237 OA
ATOM     81  O   UNL A   1      39.759  32.594  36.286  1.00  0.00    -0.744 OA
ENDBRANCH  74  78
ENDBRANCH  47  71
BRANCH  59  82
ATOM     82  C   UNL A   1      45.544  25.791  32.484  1.00  0.00     0.023 A 
ATOM     83  C   UNL A   1      44.724  24.891  33.165  1.00  0.00     0.031 A 
ATOM     84  C   UNL A   1      46.936  25.588  32.698  1.00  0.00     0.131 A 
ATOM     85  C   UNL A   1      45.238  23.996  34.119  1.00  0.00     0.055 A 
ATOM     86  C   UNL A   1      47.458  24.608  33.550  1.00  0.00     0.041 A 
ATOM     87  F   UNL A   1      47.878  26.327  32.100  1.00  0.00    -0.206 F 
ATOM     88  C   UNL A   1      46.603  23.831  34.308  1.00  0.00     0.022 A 
BRANCH  85  89
ATOM     89  S   UNL A   1      44.044  23.168  35.193  1.00  0.00     0.124 S 
ATOM     90  O   UNL A   1      44.649  21.847  35.347  1.00  0.00    -0.237 OA
ATOM     91  O   UNL A   1      44.063  24.013  36.383  1.00  0.00    -0.237 OA
ATOM     92  O   UNL A   1      42.805  23.200  34.421  1.00  0.00    -0.744 OA
ENDBRANCH  85  89
ENDBRANCH  59  82
ENDBRANCH  33  34
ENDBRANCH  26  28
ENDBRANCH  25  26
ENDBRANCH  24  25
ENDBRANCH   1  24
TORSDOF 19
ENDMDL
