MODEL 1
REMARK VINA RESULT:     -11.9      0.000      0.000
REMARK SMILES Cc1ccc(Cl)c(Nc2ccccc2C(=O)NCC(=O)OCCOC(=O)c2ccc(-c3c4nc(c(-c5cc(S(=O)(=O)[O-])ccc5F)c5ccc([nH]5)c(-c5cc(S(=O)(=O)[O-])ccc5F)c5nc(c(-c6cc(S(=O)(=O)[O-])ccc6F)c6ccc3[nH]6)C=C5)C=C4)cc2)c1Cl
REMARK SMILES IDX 22 1 21 2 19 3 20 4 18 5 17 6 15 7 16 8 14 10 9 11 10 12
REMARK SMILES IDX 11 13 13 14 12 15 8 16 7 18 1 19 2 20 3 21 90 22 4 23 91 24
REMARK SMILES IDX 5 25 6 26 23 27 24 28 25 29 26 30 27 31 28 32 89 33 29 34
REMARK SMILES IDX 88 35 30 36 31 37 32 38 82 39 33 40 87 41 81 42 83 43 34 44
REMARK SMILES IDX 86 45 80 46 79 47 35 49 67 50 47 51 66 52 48 53 51 54 65 55
REMARK SMILES IDX 84 56 49 57 50 58 64 60 85 61 52 62 36 63 37 64 45 65 38 66
REMARK SMILES IDX 44 67 46 68 43 69 39 70 40 71 41 72 42 73 68 74 69 75 77 76
REMARK SMILES IDX 70 77 76 78 78 79 75 80 71 81 72 82 73 83 74 84 53 85 54 86
REMARK SMILES IDX 62 87 55 88 61 89 63 90 60 91 56 92 57 93 58 94 59 95
REMARK H PARENT 17 9 8 17 83 48 51 59
REMARK Flexibility Score: inf
ROOT
ATOM      1  C   UNL A   1      35.376  21.752  25.800  1.00  0.00     0.274 C 
ENDROOT
BRANCH   1   2
ATOM      2  O   UNL A   1      35.431  23.082  25.253  1.00  0.00    -0.461 OA
BRANCH   2   3
ATOM      3  C   UNL A   1      34.500  23.915  25.782  1.00  0.00     0.325 C 
ATOM      4  O   UNL A   1      34.001  23.782  26.899  1.00  0.00    -0.250 OA
BRANCH   3   5
ATOM      5  C   UNL A   1      34.251  25.162  24.964  1.00  0.00     0.239 C 
BRANCH   5   6
ATOM      6  N   UNL A   1      34.237  25.199  23.520  1.00  0.00    -0.341 N 
ATOM      7  C   UNL A   1      33.533  26.010  22.662  1.00  0.00     0.253 C 
ATOM      8  O   UNL A   1      33.913  26.039  21.488  1.00  0.00    -0.269 OA
ATOM      9  H   UNL A   1      34.822  24.540  23.082  1.00  0.00     0.164 HD
BRANCH   7  10
ATOM     10  C   UNL A   1      32.243  26.693  23.007  1.00  0.00     0.063 A 
ATOM     11  C   UNL A   1      30.949  26.155  23.171  1.00  0.00     0.051 A 
ATOM     12  C   UNL A   1      29.878  27.061  23.373  1.00  0.00     0.027 A 
ATOM     13  C   UNL A   1      30.073  28.435  23.508  1.00  0.00     0.002 A 
ATOM     14  C   UNL A   1      32.421  28.088  23.183  1.00  0.00     0.016 A 
ATOM     15  C   UNL A   1      31.356  28.948  23.444  1.00  0.00     0.001 A 
BRANCH  11  16
ATOM     16  N   UNL A   1      30.578  24.798  23.285  1.00  0.00    -0.352 N 
ATOM     17  H   UNL A   1      29.830  24.557  22.693  1.00  0.00     0.167 HD
BRANCH  16  18
ATOM     18  C   UNL A   1      31.041  23.706  24.059  1.00  0.00     0.077 A 
ATOM     19  C   UNL A   1      32.720  20.258  23.824  1.00  0.00     0.046 C 
ATOM     20  C   UNL A   1      31.998  21.466  24.354  1.00  0.00    -0.030 A 
ATOM     21  C   UNL A   1      31.607  21.472  25.699  1.00  0.00     0.006 A 
ATOM     22  C   UNL A   1      31.743  22.597  23.548  1.00  0.00     0.069 A 
ATOM     23  C   UNL A   1      30.998  22.592  26.247  1.00  0.00     0.023 A 
ATOM     24  Cl  UNL A   1      32.465  22.661  21.966  1.00  0.00    -0.082 Cl
ATOM     25  C   UNL A   1      30.713  23.689  25.438  1.00  0.00     0.066 A 
ATOM     26  Cl  UNL A   1      29.905  25.038  26.174  1.00  0.00    -0.082 Cl
ENDBRANCH  16  18
ENDBRANCH  11  16
ENDBRANCH   7  10
ENDBRANCH   5   6
ENDBRANCH   3   5
ENDBRANCH   2   3
ENDBRANCH   1   2
BRANCH   1  27
ATOM     27  C   UNL A   1      36.332  20.819  25.055  1.00  0.00     0.275 C 
BRANCH  27  28
ATOM     28  O   UNL A   1      37.593  21.461  24.767  1.00  0.00    -0.458 OA
BRANCH  28  29
ATOM     29  C   UNL A   1      38.616  21.132  25.590  1.00  0.00     0.338 C 
ATOM     30  O   UNL A   1      39.047  20.005  25.799  1.00  0.00    -0.246 OA
BRANCH  29  31
ATOM     31  C   UNL A   1      39.164  22.321  26.276  1.00  0.00     0.060 A 
ATOM     32  C   UNL A   1      38.652  23.595  26.047  1.00  0.00     0.016 A 
ATOM     33  C   UNL A   1      40.303  22.171  27.072  1.00  0.00     0.016 A 
ATOM     34  C   UNL A   1      39.334  24.717  26.544  1.00  0.00     0.010 A 
ATOM     35  C   UNL A   1      40.931  23.294  27.630  1.00  0.00     0.010 A 
ATOM     36  C   UNL A   1      40.493  24.597  27.333  1.00  0.00    -0.014 A 
BRANCH  36  37
ATOM     37  C   UNL A   1      41.294  25.792  27.785  1.00  0.00     0.031 A 
ATOM     38  C   UNL A   1      40.655  26.850  28.667  1.00  0.00     0.074 A 
ATOM     39  C   UNL A   1      42.588  25.974  27.441  1.00  0.00     0.049 A 
ATOM     40  N   UNL A   1      41.041  28.079  28.916  1.00  0.00    -0.248 NA
ATOM     41  C   UNL A   1      39.401  26.476  29.336  1.00  0.00     0.031 C 
ATOM     42  C   UNL A   1      43.402  25.051  26.653  1.00  0.00     0.029 A 
ATOM     43  N   UNL A   1      43.452  27.013  27.718  1.00  0.00    -0.354 N 
ATOM     44  C   UNL A   1      40.028  28.655  29.681  1.00  0.00     0.074 A 
ATOM     45  C   UNL A   1      39.020  27.629  29.865  1.00  0.00     0.031 C 
ATOM     46  C   UNL A   1      44.651  25.531  26.558  1.00  0.00     0.029 A 
ATOM     47  C   UNL A   1      44.701  26.859  27.161  1.00  0.00     0.049 A 
ATOM     48  H   UNL A   1      43.198  27.793  28.263  1.00  0.00     0.167 HD
ATOM     49  C   UNL A   1      39.938  29.920  30.171  1.00  0.00     0.034 A 
ATOM     50  C   UNL A   1      45.753  27.700  27.071  1.00  0.00     0.034 A 
ATOM     51  C   UNL A   1      40.990  30.908  30.076  1.00  0.00     0.049 A 
ATOM     52  C   UNL A   1      45.643  29.099  27.614  1.00  0.00     0.074 A 
ATOM     53  C   UNL A   1      41.008  32.200  30.579  1.00  0.00     0.029 A 
ATOM     54  N   UNL A   1      42.219  30.712  29.461  1.00  0.00    -0.354 N 
ATOM     55  N   UNL A   1      44.627  29.676  28.211  1.00  0.00    -0.248 NA
ATOM     56  C   UNL A   1      46.813  29.972  27.439  1.00  0.00     0.031 C 
ATOM     57  C   UNL A   1      42.221  32.800  30.222  1.00  0.00     0.029 A 
ATOM     58  C   UNL A   1      42.991  31.862  29.556  1.00  0.00     0.049 A 
ATOM     59  H   UNL A   1      42.501  29.878  29.021  1.00  0.00     0.167 HD
ATOM     60  C   UNL A   1      45.034  30.982  28.472  1.00  0.00     0.074 A 
ATOM     61  C   UNL A   1      46.397  31.099  27.998  1.00  0.00     0.031 C 
ATOM     62  C   UNL A   1      44.337  31.994  29.050  1.00  0.00     0.034 A 
BRANCH  49  63
ATOM     63  C   UNL A   1      38.624  30.338  30.794  1.00  0.00     0.023 A 
ATOM     64  C   UNL A   1      37.590  30.938  30.057  1.00  0.00     0.031 A 
ATOM     65  C   UNL A   1      38.419  30.146  32.175  1.00  0.00     0.131 A 
ATOM     66  C   UNL A   1      36.438  31.399  30.717  1.00  0.00     0.055 A 
ATOM     67  C   UNL A   1      37.236  30.530  32.810  1.00  0.00     0.041 A 
ATOM     68  F   UNL A   1      39.376  29.592  32.937  1.00  0.00    -0.206 F 
ATOM     69  C   UNL A   1      36.243  31.177  32.083  1.00  0.00     0.022 A 
BRANCH  66  70
ATOM     70  S   UNL A   1      35.272  32.439  29.795  1.00  0.00     0.124 S 
ATOM     71  O   UNL A   1      34.882  31.551  28.702  1.00  0.00    -0.237 OA
ATOM     72  O   UNL A   1      34.245  32.718  30.791  1.00  0.00    -0.237 OA
ATOM     73  O   UNL A   1      36.084  33.587  29.394  1.00  0.00    -0.744 OA
ENDBRANCH  66  70
ENDBRANCH  49  63
BRANCH  50  74
ATOM     74  C   UNL A   1      46.976  27.275  26.329  1.00  0.00     0.023 A 
ATOM     75  C   UNL A   1      47.164  27.607  24.978  1.00  0.00     0.031 A 
ATOM     76  C   UNL A   1      47.975  26.522  26.973  1.00  0.00     0.131 A 
ATOM     77  C   UNL A   1      48.323  27.176  24.312  1.00  0.00     0.055 A 
ATOM     78  C   UNL A   1      49.147  26.142  26.322  1.00  0.00     0.041 A 
ATOM     79  F   UNL A   1      47.837  26.175  28.262  1.00  0.00    -0.206 F 
ATOM     80  C   UNL A   1      49.324  26.466  24.980  1.00  0.00     0.022 A 
BRANCH  77  81
ATOM     81  S   UNL A   1      48.497  27.528  22.541  1.00  0.00     0.124 S 
ATOM     82  O   UNL A   1      49.731  28.304  22.514  1.00  0.00    -0.237 OA
ATOM     83  O   UNL A   1      48.569  26.188  21.968  1.00  0.00    -0.237 OA
ATOM     84  O   UNL A   1      47.282  28.273  22.221  1.00  0.00    -0.744 OA
ENDBRANCH  77  81
ENDBRANCH  50  74
BRANCH  62  85
ATOM     85  C   UNL A   1      45.052  33.311  29.216  1.00  0.00     0.023 A 
ATOM     86  C   UNL A   1      45.023  34.298  28.213  1.00  0.00     0.031 A 
ATOM     87  C   UNL A   1      45.797  33.573  30.380  1.00  0.00     0.131 A 
ATOM     88  C   UNL A   1      45.766  35.479  28.372  1.00  0.00     0.055 A 
ATOM     89  C   UNL A   1      46.494  34.770  30.553  1.00  0.00     0.041 A 
ATOM     90  F   UNL A   1      45.862  32.665  31.366  1.00  0.00    -0.206 F 
ATOM     91  C   UNL A   1      46.492  35.726  29.541  1.00  0.00     0.022 A 
BRANCH  88  92
ATOM     92  S   UNL A   1      45.845  36.656  26.993  1.00  0.00     0.124 S 
ATOM     93  O   UNL A   1      46.122  35.777  25.860  1.00  0.00    -0.237 OA
ATOM     94  O   UNL A   1      44.518  37.261  27.022  1.00  0.00    -0.237 OA
ATOM     95  O   UNL A   1      46.941  37.548  27.366  1.00  0.00    -0.744 OA
ENDBRANCH  88  92
ENDBRANCH  62  85
ENDBRANCH  36  37
ENDBRANCH  29  31
ENDBRANCH  28  29
ENDBRANCH  27  28
ENDBRANCH   1  27
TORSDOF 18
ENDMDL
MODEL 2
REMARK VINA RESULT:     -11.7      5.251      9.812
REMARK SMILES Cc1ccc(Cl)c(Nc2ccccc2C(=O)NCC(=O)OCCOC(=O)c2ccc(-c3c4nc(c(-c5cc(S(=O)(=O)[O-])ccc5F)c5ccc([nH]5)c(-c5cc(S(=O)(=O)[O-])ccc5F)c5nc(c(-c6cc(S(=O)(=O)[O-])ccc6F)c6ccc3[nH]6)C=C5)C=C4)cc2)c1Cl
REMARK SMILES IDX 22 1 21 2 19 3 20 4 18 5 17 6 15 7 16 8 14 10 9 11 10 12
REMARK SMILES IDX 11 13 13 14 12 15 8 16 7 18 1 19 2 20 3 21 90 22 4 23 91 24
REMARK SMILES IDX 5 25 6 26 23 27 24 28 25 29 26 30 27 31 28 32 89 33 29 34
REMARK SMILES IDX 88 35 30 36 31 37 32 38 82 39 33 40 87 41 81 42 83 43 34 44
REMARK SMILES IDX 86 45 80 46 79 47 35 49 67 50 47 51 66 52 48 53 51 54 65 55
REMARK SMILES IDX 84 56 49 57 50 58 64 60 85 61 52 62 36 63 37 64 45 65 38 66
REMARK SMILES IDX 44 67 46 68 43 69 39 70 40 71 41 72 42 73 68 74 69 75 77 76
REMARK SMILES IDX 70 77 76 78 78 79 75 80 71 81 72 82 73 83 74 84 53 85 54 86
REMARK SMILES IDX 62 87 55 88 61 89 63 90 60 91 56 92 57 93 58 94 59 95
REMARK H PARENT 17 9 8 17 83 48 51 59
REMARK Flexibility Score: inf
ROOT
ATOM      1  C   UNL A   1      31.145  29.054  25.047  1.00  0.00     0.274 C 
ENDROOT
BRANCH   1   2
ATOM      2  O   UNL A   1      31.975  27.928  25.385  1.00  0.00    -0.461 OA
BRANCH   2   3
ATOM      3  C   UNL A   1      31.431  27.131  26.338  1.00  0.00     0.325 C 
ATOM      4  O   UNL A   1      31.128  27.506  27.469  1.00  0.00    -0.250 OA
BRANCH   3   5
ATOM      5  C   UNL A   1      31.030  25.760  25.841  1.00  0.00     0.239 C 
BRANCH   5   6
ATOM      6  N   UNL A   1      31.085  24.557  26.639  1.00  0.00    -0.341 N 
ATOM      7  C   UNL A   1      32.107  23.654  26.810  1.00  0.00     0.253 C 
ATOM      8  O   UNL A   1      32.008  22.876  27.763  1.00  0.00    -0.269 OA
ATOM      9  H   UNL A   1      30.262  24.352  27.139  1.00  0.00     0.164 HD
BRANCH   7  10
ATOM     10  C   UNL A   1      33.212  23.427  25.822  1.00  0.00     0.063 A 
ATOM     11  C   UNL A   1      33.386  22.390  24.879  1.00  0.00     0.051 A 
ATOM     12  C   UNL A   1      34.602  22.355  24.153  1.00  0.00     0.027 A 
ATOM     13  C   UNL A   1      35.574  23.349  24.269  1.00  0.00     0.002 A 
ATOM     14  C   UNL A   1      34.198  24.442  25.896  1.00  0.00     0.016 A 
ATOM     15  C   UNL A   1      35.356  24.415  25.123  1.00  0.00     0.001 A 
BRANCH  11  16
ATOM     16  N   UNL A   1      32.443  21.428  24.461  1.00  0.00    -0.352 N 
ATOM     17  H   UNL A   1      31.520  21.772  24.466  1.00  0.00     0.167 HD
BRANCH  16  18
ATOM     18  C   UNL A   1      32.524  20.079  24.037  1.00  0.00     0.077 A 
ATOM     19  C   UNL A   1      33.579  16.558  25.157  1.00  0.00     0.046 C 
ATOM     20  C   UNL A   1      33.143  17.720  24.308  1.00  0.00    -0.030 A 
ATOM     21  C   UNL A   1      32.935  17.505  22.939  1.00  0.00     0.006 A 
ATOM     22  C   UNL A   1      32.905  18.999  24.858  1.00  0.00     0.069 A 
ATOM     23  C   UNL A   1      32.469  18.532  22.131  1.00  0.00     0.023 A 
ATOM     24  Cl  UNL A   1      32.923  19.168  26.589  1.00  0.00    -0.082 Cl
ATOM     25  C   UNL A   1      32.274  19.801  22.670  1.00  0.00     0.066 A 
ATOM     26  Cl  UNL A   1      31.738  21.053  21.594  1.00  0.00    -0.082 Cl
ENDBRANCH  16  18
ENDBRANCH  11  16
ENDBRANCH   7  10
ENDBRANCH   5   6
ENDBRANCH   3   5
ENDBRANCH   2   3
ENDBRANCH   1   2
BRANCH   1  27
ATOM     27  C   UNL A   1      31.687  30.337  25.679  1.00  0.00     0.275 C 
BRANCH  27  28
ATOM     28  O   UNL A   1      32.972  30.126  26.302  1.00  0.00    -0.458 OA
BRANCH  28  29
ATOM     29  C   UNL A   1      33.413  31.137  27.088  1.00  0.00     0.338 C 
ATOM     30  O   UNL A   1      32.820  32.181  27.329  1.00  0.00    -0.246 OA
BRANCH  29  31
ATOM     31  C   UNL A   1      34.763  30.860  27.621  1.00  0.00     0.060 A 
ATOM     32  C   UNL A   1      35.181  29.563  27.909  1.00  0.00     0.016 A 
ATOM     33  C   UNL A   1      35.584  31.939  27.961  1.00  0.00     0.016 A 
ATOM     34  C   UNL A   1      36.379  29.361  28.614  1.00  0.00     0.010 A 
ATOM     35  C   UNL A   1      36.816  31.720  28.594  1.00  0.00     0.010 A 
ATOM     36  C   UNL A   1      37.216  30.429  28.985  1.00  0.00    -0.014 A 
BRANCH  36  37
ATOM     37  C   UNL A   1      38.449  30.236  29.831  1.00  0.00     0.031 A 
ATOM     38  C   UNL A   1      39.591  29.370  29.331  1.00  0.00     0.074 A 
ATOM     39  C   UNL A   1      38.598  30.814  31.043  1.00  0.00     0.049 A 
ATOM     40  N   UNL A   1      40.584  28.827  29.994  1.00  0.00    -0.248 NA
ATOM     41  C   UNL A   1      39.596  29.057  27.895  1.00  0.00     0.031 C 
ATOM     42  C   UNL A   1      37.650  31.727  31.679  1.00  0.00     0.029 A 
ATOM     43  N   UNL A   1      39.620  30.715  31.965  1.00  0.00    -0.354 N 
ATOM     44  C   UNL A   1      41.268  28.026  29.079  1.00  0.00     0.074 A 
ATOM     45  C   UNL A   1      40.579  28.173  27.812  1.00  0.00     0.031 C 
ATOM     46  C   UNL A   1      38.154  32.146  32.850  1.00  0.00     0.029 A 
ATOM     47  C   UNL A   1      39.399  31.434  33.117  1.00  0.00     0.049 A 
ATOM     48  H   UNL A   1      40.432  30.180  31.811  1.00  0.00     0.167 HD
ATOM     49  C   UNL A   1      42.355  27.234  29.278  1.00  0.00     0.034 A 
ATOM     50  C   UNL A   1      40.066  31.475  34.290  1.00  0.00     0.034 A 
ATOM     51  C   UNL A   1      43.102  27.171  30.515  1.00  0.00     0.049 A 
ATOM     52  C   UNL A   1      41.266  30.593  34.502  1.00  0.00     0.074 A 
ATOM     53  C   UNL A   1      44.241  26.432  30.797  1.00  0.00     0.029 A 
ATOM     54  N   UNL A   1      42.806  27.887  31.667  1.00  0.00    -0.354 N 
ATOM     55  N   UNL A   1      41.817  29.736  33.675  1.00  0.00    -0.248 NA
ATOM     56  C   UNL A   1      41.913  30.660  35.821  1.00  0.00     0.031 C 
ATOM     57  C   UNL A   1      44.599  26.659  32.132  1.00  0.00     0.029 A 
ATOM     58  C   UNL A   1      43.727  27.593  32.663  1.00  0.00     0.049 A 
ATOM     59  H   UNL A   1      42.052  28.512  31.762  1.00  0.00     0.167 HD
ATOM     60  C   UNL A   1      42.869  29.155  34.380  1.00  0.00     0.074 A 
ATOM     61  C   UNL A   1      42.896  29.781  35.685  1.00  0.00     0.031 C 
ATOM     62  C   UNL A   1      43.733  28.187  33.979  1.00  0.00     0.034 A 
BRANCH  49  63
ATOM     63  C   UNL A   1      42.763  26.310  28.152  1.00  0.00     0.023 A 
ATOM     64  C   UNL A   1      42.093  25.107  27.874  1.00  0.00     0.031 A 
ATOM     65  C   UNL A   1      43.875  26.641  27.352  1.00  0.00     0.131 A 
ATOM     66  C   UNL A   1      42.589  24.244  26.882  1.00  0.00     0.055 A 
ATOM     67  C   UNL A   1      44.311  25.818  26.311  1.00  0.00     0.041 A 
ATOM     68  F   UNL A   1      44.567  27.770  27.577  1.00  0.00    -0.206 F 
ATOM     69  C   UNL A   1      43.677  24.602  26.083  1.00  0.00     0.022 A 
BRANCH  66  70
ATOM     70  S   UNL A   1      41.892  22.573  26.765  1.00  0.00     0.124 S 
ATOM     71  O   UNL A   1      42.609  21.877  27.831  1.00  0.00    -0.237 OA
ATOM     72  O   UNL A   1      40.472  22.809  26.998  1.00  0.00    -0.237 OA
ATOM     73  O   UNL A   1      42.242  22.151  25.411  1.00  0.00    -0.744 OA
ENDBRANCH  66  70
ENDBRANCH  49  63
BRANCH  50  74
ATOM     74  C   UNL A   1      39.537  32.308  35.410  1.00  0.00     0.023 A 
ATOM     75  C   UNL A   1      40.003  33.613  35.635  1.00  0.00     0.031 A 
ATOM     76  C   UNL A   1      38.552  31.797  36.275  1.00  0.00     0.131 A 
ATOM     77  C   UNL A   1      39.489  34.359  36.708  1.00  0.00     0.055 A 
ATOM     78  C   UNL A   1      38.008  32.561  37.307  1.00  0.00     0.041 A 
ATOM     79  F   UNL A   1      38.080  30.553  36.104  1.00  0.00    -0.206 F 
ATOM     80  C   UNL A   1      38.481  33.850  37.531  1.00  0.00     0.022 A 
BRANCH  77  81
ATOM     81  S   UNL A   1      40.180  36.003  37.042  1.00  0.00     0.124 S 
ATOM     82  O   UNL A   1      41.605  35.710  37.142  1.00  0.00    -0.237 OA
ATOM     83  O   UNL A   1      39.761  36.756  35.864  1.00  0.00    -0.237 OA
ATOM     84  O   UNL A   1      39.533  36.397  38.291  1.00  0.00    -0.744 OA
ENDBRANCH  77  81
ENDBRANCH  50  74
BRANCH  62  85
ATOM     85  C   UNL A   1      44.792  27.762  34.966  1.00  0.00     0.023 A 
ATOM     86  C   UNL A   1      44.483  26.956  36.077  1.00  0.00     0.031 A 
ATOM     87  C   UNL A   1      46.121  28.192  34.810  1.00  0.00     0.131 A 
ATOM     88  C   UNL A   1      45.481  26.647  37.016  1.00  0.00     0.055 A 
ATOM     89  C   UNL A   1      47.119  27.841  35.720  1.00  0.00     0.041 A 
ATOM     90  F   UNL A   1      46.470  28.966  33.770  1.00  0.00    -0.206 F 
ATOM     91  C   UNL A   1      46.800  27.075  36.837  1.00  0.00     0.022 A 
BRANCH  88  92
ATOM     92  S   UNL A   1      45.017  25.750  38.523  1.00  0.00     0.124 S 
ATOM     93  O   UNL A   1      46.158  26.010  39.396  1.00  0.00    -0.237 OA
ATOM     94  O   UNL A   1      43.765  26.397  38.900  1.00  0.00    -0.237 OA
ATOM     95  O   UNL A   1      44.886  24.365  38.072  1.00  0.00    -0.744 OA
ENDBRANCH  88  92
ENDBRANCH  62  85
ENDBRANCH  36  37
ENDBRANCH  29  31
ENDBRANCH  28  29
ENDBRANCH  27  28
ENDBRANCH   1  27
TORSDOF 18
ENDMDL
MODEL 3
REMARK VINA RESULT:     -11.5      5.094      9.850
REMARK SMILES Cc1ccc(Cl)c(Nc2ccccc2C(=O)NCC(=O)OCCOC(=O)c2ccc(-c3c4nc(c(-c5cc(S(=O)(=O)[O-])ccc5F)c5ccc([nH]5)c(-c5cc(S(=O)(=O)[O-])ccc5F)c5nc(c(-c6cc(S(=O)(=O)[O-])ccc6F)c6ccc3[nH]6)C=C5)C=C4)cc2)c1Cl
REMARK SMILES IDX 22 1 21 2 19 3 20 4 18 5 17 6 15 7 16 8 14 10 9 11 10 12
REMARK SMILES IDX 11 13 13 14 12 15 8 16 7 18 1 19 2 20 3 21 90 22 4 23 91 24
REMARK SMILES IDX 5 25 6 26 23 27 24 28 25 29 26 30 27 31 28 32 89 33 29 34
REMARK SMILES IDX 88 35 30 36 31 37 32 38 82 39 33 40 87 41 81 42 83 43 34 44
REMARK SMILES IDX 86 45 80 46 79 47 35 49 67 50 47 51 66 52 48 53 51 54 65 55
REMARK SMILES IDX 84 56 49 57 50 58 64 60 85 61 52 62 36 63 37 64 45 65 38 66
REMARK SMILES IDX 44 67 46 68 43 69 39 70 40 71 41 72 42 73 68 74 69 75 77 76
REMARK SMILES IDX 70 77 76 78 78 79 75 80 71 81 72 82 73 83 74 84 53 85 54 86
REMARK SMILES IDX 62 87 55 88 61 89 63 90 60 91 56 92 57 93 58 94 59 95
REMARK H PARENT 17 9 8 17 83 48 51 59
REMARK Flexibility Score: inf
ROOT
ATOM      1  C   UNL A   1      31.649  29.191  25.241  1.00  0.00     0.274 C 
ENDROOT
BRANCH   1   2
ATOM      2  O   UNL A   1      32.344  28.298  26.130  1.00  0.00    -0.461 OA
BRANCH   2   3
ATOM      3  C   UNL A   1      31.510  27.537  26.881  1.00  0.00     0.325 C 
ATOM      4  O   UNL A   1      31.160  27.811  28.027  1.00  0.00    -0.250 OA
BRANCH   3   5
ATOM      5  C   UNL A   1      30.866  26.396  26.124  1.00  0.00     0.239 C 
BRANCH   5   6
ATOM      6  N   UNL A   1      30.803  25.035  26.604  1.00  0.00    -0.341 N 
ATOM      7  C   UNL A   1      31.517  23.926  26.216  1.00  0.00     0.253 C 
ATOM      8  O   UNL A   1      31.486  22.952  26.974  1.00  0.00    -0.269 OA
ATOM      9  H   UNL A   1      30.147  24.877  27.320  1.00  0.00     0.164 HD
BRANCH   7  10
ATOM     10  C   UNL A   1      32.155  23.756  24.869  1.00  0.00     0.063 A 
ATOM     11  C   UNL A   1      33.341  23.083  24.507  1.00  0.00     0.051 A 
ATOM     12  C   UNL A   1      33.779  23.192  23.163  1.00  0.00     0.027 A 
ATOM     13  C   UNL A   1      33.036  23.850  22.184  1.00  0.00     0.002 A 
ATOM     14  C   UNL A   1      31.400  24.389  23.850  1.00  0.00     0.016 A 
ATOM     15  C   UNL A   1      31.824  24.425  22.523  1.00  0.00     0.001 A 
BRANCH  11  16
ATOM     16  N   UNL A   1      34.110  22.195  25.288  1.00  0.00    -0.352 N 
ATOM     17  H   UNL A   1      34.125  22.441  26.242  1.00  0.00     0.167 HD
BRANCH  16  18
ATOM     18  C   UNL A   1      34.866  21.029  25.010  1.00  0.00     0.077 A 
ATOM     19  C   UNL A   1      34.570  17.257  24.339  1.00  0.00     0.046 C 
ATOM     20  C   UNL A   1      35.136  18.620  24.632  1.00  0.00    -0.030 A 
ATOM     21  C   UNL A   1      36.521  18.746  24.795  1.00  0.00     0.006 A 
ATOM     22  C   UNL A   1      34.316  19.768  24.707  1.00  0.00     0.069 A 
ATOM     23  C   UNL A   1      37.092  19.994  25.000  1.00  0.00     0.023 A 
ATOM     24  Cl  UNL A   1      32.644  19.619  24.248  1.00  0.00    -0.082 Cl
ATOM     25  C   UNL A   1      36.277  21.117  25.114  1.00  0.00     0.066 A 
ATOM     26  Cl  UNL A   1      37.050  22.640  25.421  1.00  0.00    -0.082 Cl
ENDBRANCH  16  18
ENDBRANCH  11  16
ENDBRANCH   7  10
ENDBRANCH   5   6
ENDBRANCH   3   5
ENDBRANCH   2   3
ENDBRANCH   1   2
BRANCH   1  27
ATOM     27  C   UNL A   1      31.688  30.625  25.772  1.00  0.00     0.275 C 
BRANCH  27  28
ATOM     28  O   UNL A   1      32.269  30.692  27.093  1.00  0.00    -0.458 OA
BRANCH  28  29
ATOM     29  C   UNL A   1      33.035  31.780  27.339  1.00  0.00     0.338 C 
ATOM     30  O   UNL A   1      32.696  32.951  27.214  1.00  0.00    -0.246 OA
BRANCH  29  31
ATOM     31  C   UNL A   1      34.400  31.399  27.758  1.00  0.00     0.060 A 
ATOM     32  C   UNL A   1      34.735  30.076  28.034  1.00  0.00     0.016 A 
ATOM     33  C   UNL A   1      35.334  32.410  28.001  1.00  0.00     0.016 A 
ATOM     34  C   UNL A   1      35.970  29.784  28.635  1.00  0.00     0.010 A 
ATOM     35  C   UNL A   1      36.596  32.097  28.528  1.00  0.00     0.010 A 
ATOM     36  C   UNL A   1      36.922  30.783  28.909  1.00  0.00    -0.014 A 
BRANCH  36  37
ATOM     37  C   UNL A   1      38.206  30.500  29.647  1.00  0.00     0.031 A 
ATOM     38  C   UNL A   1      39.264  29.607  29.024  1.00  0.00     0.074 A 
ATOM     39  C   UNL A   1      38.474  31.017  30.866  1.00  0.00     0.049 A 
ATOM     40  N   UNL A   1      40.278  28.992  29.584  1.00  0.00    -0.248 NA
ATOM     41  C   UNL A   1      39.144  29.358  27.580  1.00  0.00     0.031 C 
ATOM     42  C   UNL A   1      37.621  31.941  31.610  1.00  0.00     0.029 A 
ATOM     43  N   UNL A   1      39.558  30.833  31.699  1.00  0.00    -0.354 N 
ATOM     44  C   UNL A   1      40.851  28.203  28.587  1.00  0.00     0.074 A 
ATOM     45  C   UNL A   1      40.075  28.436  27.385  1.00  0.00     0.031 C 
ATOM     46  C   UNL A   1      38.233  32.286  32.754  1.00  0.00     0.029 A 
ATOM     47  C   UNL A   1      39.460  31.509  32.894  1.00  0.00     0.049 A 
ATOM     48  H   UNL A   1      40.330  30.270  31.461  1.00  0.00     0.167 HD
ATOM     49  C   UNL A   1      41.912  27.356  28.668  1.00  0.00     0.034 A 
ATOM     50  C   UNL A   1      40.216  31.470  34.012  1.00  0.00     0.034 A 
ATOM     51  C   UNL A   1      42.747  27.206  29.838  1.00  0.00     0.049 A 
ATOM     52  C   UNL A   1      41.386  30.527  34.093  1.00  0.00     0.074 A 
ATOM     53  C   UNL A   1      43.868  26.406  30.000  1.00  0.00     0.029 A 
ATOM     54  N   UNL A   1      42.575  27.883  31.038  1.00  0.00    -0.354 N 
ATOM     55  N   UNL A   1      41.831  29.684  33.191  1.00  0.00    -0.248 NA
ATOM     56  C   UNL A   1      42.135  30.507  35.358  1.00  0.00     0.031 C 
ATOM     57  C   UNL A   1      44.339  26.559  31.310  1.00  0.00     0.029 A 
ATOM     58  C   UNL A   1      43.555  27.505  31.946  1.00  0.00     0.049 A 
ATOM     59  H   UNL A   1      41.860  28.536  31.218  1.00  0.00     0.167 HD
ATOM     60  C   UNL A   1      42.906  29.027  33.786  1.00  0.00     0.074 A 
ATOM     61  C   UNL A   1      43.061  29.593  35.110  1.00  0.00     0.031 C 
ATOM     62  C   UNL A   1      43.689  28.041  33.281  1.00  0.00     0.034 A 
BRANCH  49  63
ATOM     63  C   UNL A   1      42.189  26.466  27.476  1.00  0.00     0.023 A 
ATOM     64  C   UNL A   1      41.734  25.139  27.397  1.00  0.00     0.031 A 
ATOM     65  C   UNL A   1      42.953  26.962  26.402  1.00  0.00     0.131 A 
ATOM     66  C   UNL A   1      42.116  24.333  26.311  1.00  0.00     0.055 A 
ATOM     67  C   UNL A   1      43.258  26.181  25.285  1.00  0.00     0.041 A 
ATOM     68  F   UNL A   1      43.430  28.218  26.425  1.00  0.00    -0.206 F 
ATOM     69  C   UNL A   1      42.854  24.851  25.243  1.00  0.00     0.022 A 
BRANCH  66  70
ATOM     70  S   UNL A   1      41.776  22.553  26.395  1.00  0.00     0.124 S 
ATOM     71  O   UNL A   1      42.395  22.193  27.669  1.00  0.00    -0.237 OA
ATOM     72  O   UNL A   1      40.319  22.510  26.358  1.00  0.00    -0.237 OA
ATOM     73  O   UNL A   1      42.448  22.020  25.212  1.00  0.00    -0.744 OA
ENDBRANCH  66  70
ENDBRANCH  49  63
BRANCH  50  74
ATOM     74  C   UNL A   1      39.815  32.275  35.202  1.00  0.00     0.023 A 
ATOM     75  C   UNL A   1      38.966  31.750  36.189  1.00  0.00     0.031 A 
ATOM     76  C   UNL A   1      40.282  33.593  35.361  1.00  0.00     0.131 A 
ATOM     77  C   UNL A   1      38.603  32.546  37.287  1.00  0.00     0.055 A 
ATOM     78  C   UNL A   1      39.959  34.361  36.479  1.00  0.00     0.041 A 
ATOM     79  F   UNL A   1      41.090  34.141  34.440  1.00  0.00    -0.206 F 
ATOM     80  C   UNL A   1      39.110  33.838  37.449  1.00  0.00     0.022 A 
BRANCH  77  81
ATOM     81  S   UNL A   1      37.423  31.883  38.496  1.00  0.00     0.124 S 
ATOM     82  O   UNL A   1      38.179  31.994  39.738  1.00  0.00    -0.237 OA
ATOM     83  O   UNL A   1      36.292  32.793  38.350  1.00  0.00    -0.237 OA
ATOM     84  O   UNL A   1      37.186  30.520  38.028  1.00  0.00    -0.744 OA
ENDBRANCH  77  81
ENDBRANCH  50  74
BRANCH  62  85
ATOM     85  C   UNL A   1      44.799  27.527  34.163  1.00  0.00     0.023 A 
ATOM     86  C   UNL A   1      44.569  26.538  35.138  1.00  0.00     0.031 A 
ATOM     87  C   UNL A   1      46.099  28.052  34.049  1.00  0.00     0.131 A 
ATOM     88  C   UNL A   1      45.611  26.143  35.993  1.00  0.00     0.055 A 
ATOM     89  C   UNL A   1      47.142  27.620  34.869  1.00  0.00     0.041 A 
ATOM     90  F   UNL A   1      46.373  28.999  33.137  1.00  0.00    -0.206 F 
ATOM     91  C   UNL A   1      46.899  26.669  35.856  1.00  0.00     0.022 A 
BRANCH  88  92
ATOM     92  S   UNL A   1      45.242  24.993  37.348  1.00  0.00     0.124 S 
ATOM     93  O   UNL A   1      45.467  25.828  38.524  1.00  0.00    -0.237 OA
ATOM     94  O   UNL A   1      43.855  24.628  37.079  1.00  0.00    -0.237 OA
ATOM     95  O   UNL A   1      46.213  23.917  37.158  1.00  0.00    -0.744 OA
ENDBRANCH  88  92
ENDBRANCH  62  85
ENDBRANCH  36  37
ENDBRANCH  29  31
ENDBRANCH  28  29
ENDBRANCH  27  28
ENDBRANCH   1  27
TORSDOF 18
ENDMDL
