MODEL 1
REMARK VINA RESULT:     -11.8      0.000      0.000
REMARK SMILES O=C(OCCOC(=O)c1cc(NC(=O)c2cccnc2Cl)ccc1O)c1ccc(-c2c3nc(c(-c4cc(S(=O)(=O)[O-])ccc4F)c4ccc([nH]4)c(-c4cc(S(=O)(=O)[O-])ccc4F)c4nc(c(-c5cc(S(=O)(=O)[O-])ccc5F)c5ccc2[nH]5)C=C4)C=C3)cc1
REMARK SMILES IDX 4 1 3 2 2 3 1 4 26 5 27 6 88 7 28 8 87 9 29 10 30 11 31 12
REMARK SMILES IDX 81 13 32 14 86 15 80 16 82 17 33 18 85 19 79 20 78 21 34 23
REMARK SMILES IDX 66 24 46 25 65 26 47 27 50 28 64 29 83 30 48 31 49 32 63 34
REMARK SMILES IDX 84 35 51 36 35 37 36 38 44 39 37 40 43 41 45 42 42 43 38 44
REMARK SMILES IDX 39 45 40 46 41 47 67 48 68 49 76 50 69 51 75 52 77 53 74 54
REMARK SMILES IDX 70 55 71 56 72 57 73 58 52 59 53 60 61 61 54 62 60 63 62 64
REMARK SMILES IDX 59 65 55 66 56 67 57 68 58 69 5 70 6 71 7 72 8 73 9 74 10 75
REMARK SMILES IDX 24 76 11 77 23 78 22 79 25 80 12 82 13 83 14 85 15 86 16 87
REMARK SMILES IDX 20 88 17 89 19 90 21 91 18 92
REMARK H PARENT 82 22 50 33 25 81 12 84
REMARK Flexibility Score: inf
ROOT
ATOM      1  C   UNL A   1      39.988  20.516  25.878  1.00  0.00     0.275 C 
ENDROOT
BRANCH   1   2
ATOM      2  O   UNL A   1      39.562  21.535  26.795  1.00  0.00    -0.458 OA
BRANCH   2   3
ATOM      3  C   UNL A   1      38.847  22.645  26.509  1.00  0.00     0.338 C 
ATOM      4  O   UNL A   1      37.860  22.520  25.786  1.00  0.00    -0.246 OA
BRANCH   3   5
ATOM      5  C   UNL A   1      39.174  24.012  27.042  1.00  0.00     0.060 A 
ATOM      6  C   UNL A   1      39.078  24.431  28.368  1.00  0.00     0.016 A 
ATOM      7  C   UNL A   1      39.692  24.931  26.112  1.00  0.00     0.016 A 
ATOM      8  C   UNL A   1      39.531  25.688  28.761  1.00  0.00     0.010 A 
ATOM      9  C   UNL A   1      40.193  26.175  26.502  1.00  0.00     0.010 A 
ATOM     10  C   UNL A   1      40.117  26.557  27.839  1.00  0.00    -0.014 A 
BRANCH  10  11
ATOM     11  C   UNL A   1      40.588  27.877  28.311  1.00  0.00     0.031 A 
ATOM     12  C   UNL A   1      42.039  28.216  28.184  1.00  0.00     0.074 A 
ATOM     13  C   UNL A   1      39.684  28.778  28.744  1.00  0.00     0.049 A 
ATOM     14  N   UNL A   1      42.630  29.364  28.373  1.00  0.00    -0.248 NA
ATOM     15  C   UNL A   1      42.941  27.130  27.766  1.00  0.00     0.031 C 
ATOM     16  C   UNL A   1      38.247  28.528  28.852  1.00  0.00     0.029 A 
ATOM     17  N   UNL A   1      39.816  30.081  29.146  1.00  0.00    -0.354 N 
ATOM     18  C   UNL A   1      43.963  29.153  28.043  1.00  0.00     0.074 A 
ATOM     19  C   UNL A   1      44.110  27.747  27.738  1.00  0.00     0.031 C 
ATOM     20  C   UNL A   1      37.629  29.632  29.301  1.00  0.00     0.029 A 
ATOM     21  C   UNL A   1      38.627  30.673  29.509  1.00  0.00     0.049 A 
ATOM     22  H   UNL A   1      40.681  30.550  29.174  1.00  0.00     0.167 HD
ATOM     23  C   UNL A   1      44.958  30.067  27.959  1.00  0.00     0.034 A 
ATOM     24  C   UNL A   1      38.371  31.923  29.940  1.00  0.00     0.034 A 
ATOM     25  C   UNL A   1      44.781  31.451  28.316  1.00  0.00     0.049 A 
ATOM     26  C   UNL A   1      39.524  32.896  29.940  1.00  0.00     0.074 A 
ATOM     27  C   UNL A   1      45.715  32.470  28.330  1.00  0.00     0.029 A 
ATOM     28  N   UNL A   1      43.577  32.006  28.740  1.00  0.00    -0.354 N 
ATOM     29  N   UNL A   1      40.773  32.688  29.584  1.00  0.00    -0.248 NA
ATOM     30  C   UNL A   1      39.230  34.271  30.351  1.00  0.00     0.031 C 
ATOM     31  C   UNL A   1      45.090  33.624  28.820  1.00  0.00     0.029 A 
ATOM     32  C   UNL A   1      43.748  33.346  29.042  1.00  0.00     0.049 A 
ATOM     33  H   UNL A   1      42.727  31.517  28.815  1.00  0.00     0.167 HD
ATOM     34  C   UNL A   1      41.408  33.919  29.698  1.00  0.00     0.074 A 
ATOM     35  C   UNL A   1      40.390  34.865  30.121  1.00  0.00     0.031 C 
ATOM     36  C   UNL A   1      42.708  34.248  29.479  1.00  0.00     0.034 A 
BRANCH  23  37
ATOM     37  C   UNL A   1      46.302  29.566  27.495  1.00  0.00     0.023 A 
ATOM     38  C   UNL A   1      46.510  29.172  26.158  1.00  0.00     0.031 A 
ATOM     39  C   UNL A   1      47.364  29.408  28.400  1.00  0.00     0.131 A 
ATOM     40  C   UNL A   1      47.721  28.568  25.785  1.00  0.00     0.055 A 
ATOM     41  C   UNL A   1      48.593  28.875  28.004  1.00  0.00     0.041 A 
ATOM     42  F   UNL A   1      47.214  29.740  29.692  1.00  0.00    -0.206 F 
ATOM     43  C   UNL A   1      48.773  28.438  26.694  1.00  0.00     0.022 A 
BRANCH  40  44
ATOM     44  S   UNL A   1      47.850  27.830  24.132  1.00  0.00     0.124 S 
ATOM     45  O   UNL A   1      47.454  26.448  24.394  1.00  0.00    -0.237 OA
ATOM     46  O   UNL A   1      46.907  28.626  23.354  1.00  0.00    -0.237 OA
ATOM     47  O   UNL A   1      49.257  28.014  23.783  1.00  0.00    -0.744 OA
ENDBRANCH  40  44
ENDBRANCH  23  37
BRANCH  24  48
ATOM     48  C   UNL A   1      37.004  32.321  30.393  1.00  0.00     0.023 A 
ATOM     49  C   UNL A   1      36.071  32.901  29.518  1.00  0.00     0.031 A 
ATOM     50  C   UNL A   1      36.629  32.183  31.744  1.00  0.00     0.131 A 
ATOM     51  C   UNL A   1      34.846  33.380  30.011  1.00  0.00     0.055 A 
ATOM     52  C   UNL A   1      35.388  32.610  32.220  1.00  0.00     0.041 A 
ATOM     53  F   UNL A   1      37.469  31.617  32.628  1.00  0.00    -0.206 F 
ATOM     54  C   UNL A   1      34.494  33.230  31.355  1.00  0.00     0.022 A 
BRANCH  51  55
ATOM     55  S   UNL A   1      33.756  34.304  28.892  1.00  0.00     0.124 S 
ATOM     56  O   UNL A   1      32.763  34.838  29.816  1.00  0.00    -0.237 OA
ATOM     57  O   UNL A   1      34.680  35.271  28.310  1.00  0.00    -0.237 OA
ATOM     58  O   UNL A   1      33.267  33.278  27.972  1.00  0.00    -0.744 OA
ENDBRANCH  51  55
ENDBRANCH  24  48
BRANCH  36  59
ATOM     59  C   UNL A   1      43.070  35.697  29.683  1.00  0.00     0.023 A 
ATOM     60  C   UNL A   1      42.862  36.649  28.672  1.00  0.00     0.031 A 
ATOM     61  C   UNL A   1      43.664  36.119  30.884  1.00  0.00     0.131 A 
ATOM     62  C   UNL A   1      43.326  37.958  28.844  1.00  0.00     0.055 A 
ATOM     63  C   UNL A   1      44.049  37.445  31.082  1.00  0.00     0.041 A 
ATOM     64  F   UNL A   1      43.887  35.249  31.882  1.00  0.00    -0.206 F 
ATOM     65  C   UNL A   1      43.899  38.369  30.050  1.00  0.00     0.022 A 
BRANCH  62  66
ATOM     66  S   UNL A   1      43.295  39.075  27.417  1.00  0.00     0.124 S 
ATOM     67  O   UNL A   1      44.614  38.852  26.833  1.00  0.00    -0.237 OA
ATOM     68  O   UNL A   1      42.164  38.569  26.649  1.00  0.00    -0.237 OA
ATOM     69  O   UNL A   1      43.098  40.392  28.019  1.00  0.00    -0.744 OA
ENDBRANCH  62  66
ENDBRANCH  36  59
ENDBRANCH  10  11
ENDBRANCH   3   5
ENDBRANCH   2   3
ENDBRANCH   1   2
BRANCH   1  70
ATOM     70  C   UNL A   1      41.056  19.549  26.407  1.00  0.00     0.275 C 
BRANCH  70  71
ATOM     71  O   UNL A   1      42.016  19.152  25.415  1.00  0.00    -0.458 OA
BRANCH  71  72
ATOM     72  C   UNL A   1      43.205  18.674  25.867  1.00  0.00     0.342 C 
ATOM     73  O   UNL A   1      43.391  17.609  26.441  1.00  0.00    -0.246 OA
BRANCH  72  74
ATOM     74  C   UNL A   1      44.313  19.561  25.443  1.00  0.00     0.103 A 
ATOM     75  C   UNL A   1      44.035  20.933  25.242  1.00  0.00     0.045 A 
ATOM     76  C   UNL A   1      45.593  19.062  25.198  1.00  0.00     0.130 A 
ATOM     77  C   UNL A   1      45.042  21.804  24.824  1.00  0.00     0.042 A 
ATOM     78  C   UNL A   1      46.604  19.924  24.786  1.00  0.00     0.049 A 
ATOM     79  C   UNL A   1      46.327  21.282  24.608  1.00  0.00     0.030 A 
BRANCH  76  80
ATOM     80  O   UNL A   1      45.861  17.729  25.333  1.00  0.00    -0.507 OA
ATOM     81  H   UNL A   1      46.410  17.295  24.710  1.00  0.00     0.293 HD
ENDBRANCH  76  80
BRANCH  77  82
ATOM     82  N   UNL A   1      44.880  23.164  24.496  1.00  0.00    -0.322 N 
ATOM     83  C   UNL A   1      44.699  24.318  25.215  1.00  0.00     0.258 C 
ATOM     84  H   UNL A   1      44.901  23.323  23.525  1.00  0.00     0.170 HD
ATOM     85  O   UNL A   1      44.303  25.338  24.650  1.00  0.00    -0.269 OA
BRANCH  83  86
ATOM     86  C   UNL A   1      45.054  24.431  26.622  1.00  0.00     0.077 A 
ATOM     87  C   UNL A   1      46.331  24.844  26.995  1.00  0.00     0.018 A 
ATOM     88  C   UNL A   1      44.195  23.963  27.605  1.00  0.00     0.141 A 
ATOM     89  C   UNL A   1      46.655  24.880  28.349  1.00  0.00     0.021 A 
ATOM     90  N   UNL A   1      44.490  23.969  28.926  1.00  0.00    -0.244 NA
ATOM     91  Cl  UNL A   1      42.637  23.308  27.270  1.00  0.00    -0.061 Cl
ATOM     92  C   UNL A   1      45.703  24.458  29.268  1.00  0.00     0.113 A 
ENDBRANCH  83  86
ENDBRANCH  77  82
ENDBRANCH  72  74
ENDBRANCH  71  72
ENDBRANCH  70  71
ENDBRANCH   1  70
TORSDOF 17
ENDMDL
MODEL 2
REMARK VINA RESULT:     -11.7      4.963     13.118
REMARK SMILES O=C(OCCOC(=O)c1cc(NC(=O)c2cccnc2Cl)ccc1O)c1ccc(-c2c3nc(c(-c4cc(S(=O)(=O)[O-])ccc4F)c4ccc([nH]4)c(-c4cc(S(=O)(=O)[O-])ccc4F)c4nc(c(-c5cc(S(=O)(=O)[O-])ccc5F)c5ccc2[nH]5)C=C4)C=C3)cc1
REMARK SMILES IDX 4 1 3 2 2 3 1 4 26 5 27 6 88 7 28 8 87 9 29 10 30 11 31 12
REMARK SMILES IDX 81 13 32 14 86 15 80 16 82 17 33 18 85 19 79 20 78 21 34 23
REMARK SMILES IDX 66 24 46 25 65 26 47 27 50 28 64 29 83 30 48 31 49 32 63 34
REMARK SMILES IDX 84 35 51 36 35 37 36 38 44 39 37 40 43 41 45 42 42 43 38 44
REMARK SMILES IDX 39 45 40 46 41 47 67 48 68 49 76 50 69 51 75 52 77 53 74 54
REMARK SMILES IDX 70 55 71 56 72 57 73 58 52 59 53 60 61 61 54 62 60 63 62 64
REMARK SMILES IDX 59 65 55 66 56 67 57 68 58 69 5 70 6 71 7 72 8 73 9 74 10 75
REMARK SMILES IDX 24 76 11 77 23 78 22 79 25 80 12 82 13 83 14 85 15 86 16 87
REMARK SMILES IDX 20 88 17 89 19 90 21 91 18 92
REMARK H PARENT 82 22 50 33 25 81 12 84
REMARK Flexibility Score: inf
ROOT
ATOM      1  C   UNL A   1      34.228  32.689  28.135  1.00  0.00     0.275 C 
ENDROOT
BRANCH   1   2
ATOM      2  O   UNL A   1      33.712  31.509  27.502  1.00  0.00    -0.458 OA
BRANCH   2   3
ATOM      3  C   UNL A   1      34.370  30.352  27.267  1.00  0.00     0.338 C 
ATOM      4  O   UNL A   1      33.891  29.578  26.442  1.00  0.00    -0.246 OA
BRANCH   3   5
ATOM      5  C   UNL A   1      35.662  29.975  27.937  1.00  0.00     0.060 A 
ATOM      6  C   UNL A   1      35.807  29.407  29.201  1.00  0.00     0.016 A 
ATOM      7  C   UNL A   1      36.829  30.155  27.174  1.00  0.00     0.016 A 
ATOM      8  C   UNL A   1      37.051  28.984  29.663  1.00  0.00     0.010 A 
ATOM      9  C   UNL A   1      38.074  29.692  27.606  1.00  0.00     0.010 A 
ATOM     10  C   UNL A   1      38.187  29.096  28.861  1.00  0.00    -0.014 A 
BRANCH  10  11
ATOM     11  C   UNL A   1      39.482  28.625  29.397  1.00  0.00     0.031 A 
ATOM     12  C   UNL A   1      40.018  29.249  30.647  1.00  0.00     0.074 A 
ATOM     13  C   UNL A   1      40.092  27.576  28.811  1.00  0.00     0.049 A 
ATOM     14  N   UNL A   1      41.034  28.877  31.376  1.00  0.00    -0.248 NA
ATOM     15  C   UNL A   1      39.304  30.431  31.158  1.00  0.00     0.031 C 
ATOM     16  C   UNL A   1      39.601  26.892  27.614  1.00  0.00     0.029 A 
ATOM     17  N   UNL A   1      41.227  26.882  29.137  1.00  0.00    -0.354 N 
ATOM     18  C   UNL A   1      41.048  29.743  32.461  1.00  0.00     0.074 A 
ATOM     19  C   UNL A   1      40.002  30.718  32.244  1.00  0.00     0.031 C 
ATOM     20  C   UNL A   1      40.431  25.886  27.297  1.00  0.00     0.029 A 
ATOM     21  C   UNL A   1      41.512  25.848  28.273  1.00  0.00     0.049 A 
ATOM     22  H   UNL A   1      41.786  27.102  29.916  1.00  0.00     0.167 HD
ATOM     23  C   UNL A   1      41.837  29.694  33.561  1.00  0.00     0.034 A 
ATOM     24  C   UNL A   1      42.524  24.959  28.282  1.00  0.00     0.034 A 
ATOM     25  C   UNL A   1      42.899  28.735  33.718  1.00  0.00     0.049 A 
ATOM     26  C   UNL A   1      43.456  24.995  29.466  1.00  0.00     0.074 A 
ATOM     27  C   UNL A   1      43.808  28.607  34.752  1.00  0.00     0.029 A 
ATOM     28  N   UNL A   1      43.204  27.739  32.794  1.00  0.00    -0.354 N 
ATOM     29  N   UNL A   1      43.430  25.799  30.508  1.00  0.00    -0.248 NA
ATOM     30  C   UNL A   1      44.519  23.988  29.504  1.00  0.00     0.031 C 
ATOM     31  C   UNL A   1      44.696  27.575  34.424  1.00  0.00     0.029 A 
ATOM     32  C   UNL A   1      44.299  27.008  33.221  1.00  0.00     0.049 A 
ATOM     33  H   UNL A   1      42.710  27.577  31.957  1.00  0.00     0.167 HD
ATOM     34  C   UNL A   1      44.454  25.370  31.342  1.00  0.00     0.074 A 
ATOM     35  C   UNL A   1      45.052  24.216  30.694  1.00  0.00     0.031 C 
ATOM     36  C   UNL A   1      44.873  25.875  32.533  1.00  0.00     0.034 A 
BRANCH  23  37
ATOM     37  C   UNL A   1      41.578  30.726  34.629  1.00  0.00     0.023 A 
ATOM     38  C   UNL A   1      40.429  30.659  35.441  1.00  0.00     0.031 A 
ATOM     39  C   UNL A   1      42.438  31.823  34.794  1.00  0.00     0.131 A 
ATOM     40  C   UNL A   1      40.131  31.709  36.323  1.00  0.00     0.055 A 
ATOM     41  C   UNL A   1      42.173  32.828  35.728  1.00  0.00     0.041 A 
ATOM     42  F   UNL A   1      43.532  31.954  34.029  1.00  0.00    -0.206 F 
ATOM     43  C   UNL A   1      41.009  32.783  36.489  1.00  0.00     0.022 A 
BRANCH  40  44
ATOM     44  S   UNL A   1      38.515  31.720  37.147  1.00  0.00     0.124 S 
ATOM     45  O   UNL A   1      38.091  30.331  36.985  1.00  0.00    -0.237 OA
ATOM     46  O   UNL A   1      38.853  32.128  38.506  1.00  0.00    -0.237 OA
ATOM     47  O   UNL A   1      37.744  32.695  36.378  1.00  0.00    -0.744 OA
ENDBRANCH  40  44
ENDBRANCH  23  37
BRANCH  24  48
ATOM     48  C   UNL A   1      42.705  23.982  27.166  1.00  0.00     0.023 A 
ATOM     49  C   UNL A   1      42.090  22.720  27.177  1.00  0.00     0.031 A 
ATOM     50  C   UNL A   1      43.561  24.278  26.087  1.00  0.00     0.131 A 
ATOM     51  C   UNL A   1      42.388  21.781  26.175  1.00  0.00     0.055 A 
ATOM     52  C   UNL A   1      43.812  23.362  25.063  1.00  0.00     0.041 A 
ATOM     53  F   UNL A   1      44.165  25.476  26.007  1.00  0.00    -0.206 F 
ATOM     54  C   UNL A   1      43.239  22.097  25.113  1.00  0.00     0.022 A 
BRANCH  51  55
ATOM     55  S   UNL A   1      41.733  20.096  26.334  1.00  0.00     0.124 S 
ATOM     56  O   UNL A   1      40.298  20.320  26.210  1.00  0.00    -0.237 OA
ATOM     57  O   UNL A   1      42.378  19.420  25.214  1.00  0.00    -0.237 OA
ATOM     58  O   UNL A   1      42.190  19.679  27.659  1.00  0.00    -0.744 OA
ENDBRANCH  51  55
ENDBRANCH  24  48
BRANCH  36  59
ATOM     59  C   UNL A   1      46.019  25.154  33.194  1.00  0.00     0.023 A 
ATOM     60  C   UNL A   1      45.800  24.033  34.010  1.00  0.00     0.031 A 
ATOM     61  C   UNL A   1      47.337  25.617  33.037  1.00  0.00     0.131 A 
ATOM     62  C   UNL A   1      46.869  23.465  34.712  1.00  0.00     0.055 A 
ATOM     63  C   UNL A   1      48.410  24.995  33.674  1.00  0.00     0.041 A 
ATOM     64  F   UNL A   1      47.600  26.686  32.270  1.00  0.00    -0.206 F 
ATOM     65  C   UNL A   1      48.176  23.924  34.533  1.00  0.00     0.022 A 
BRANCH  62  66
ATOM     66  S   UNL A   1      46.503  22.209  35.967  1.00  0.00     0.124 S 
ATOM     67  O   UNL A   1      47.518  22.489  36.977  1.00  0.00    -0.237 OA
ATOM     68  O   UNL A   1      45.130  22.530  36.338  1.00  0.00    -0.237 OA
ATOM     69  O   UNL A   1      46.674  20.948  35.248  1.00  0.00    -0.744 OA
ENDBRANCH  62  66
ENDBRANCH  36  59
ENDBRANCH  10  11
ENDBRANCH   3   5
ENDBRANCH   2   3
ENDBRANCH   1   2
BRANCH   1  70
ATOM     70  C   UNL A   1      33.384  33.960  27.964  1.00  0.00     0.275 C 
BRANCH  70  71
ATOM     71  O   UNL A   1      33.980  35.130  28.548  1.00  0.00    -0.458 OA
BRANCH  71  72
ATOM     72  C   UNL A   1      33.190  35.882  29.358  1.00  0.00     0.342 C 
ATOM     73  O   UNL A   1      32.145  36.437  29.046  1.00  0.00    -0.246 OA
BRANCH  72  74
ATOM     74  C   UNL A   1      33.688  35.834  30.752  1.00  0.00     0.103 A 
ATOM     75  C   UNL A   1      34.275  34.634  31.214  1.00  0.00     0.045 A 
ATOM     76  C   UNL A   1      33.545  36.923  31.615  1.00  0.00     0.130 A 
ATOM     77  C   UNL A   1      34.740  34.534  32.526  1.00  0.00     0.042 A 
ATOM     78  C   UNL A   1      34.012  36.833  32.922  1.00  0.00     0.049 A 
ATOM     79  C   UNL A   1      34.607  35.651  33.367  1.00  0.00     0.030 A 
BRANCH  76  80
ATOM     80  O   UNL A   1      32.929  38.069  31.198  1.00  0.00    -0.507 OA
ATOM     81  H   UNL A   1      32.398  38.558  31.794  1.00  0.00     0.293 HD
ENDBRANCH  76  80
BRANCH  77  82
ATOM     82  N   UNL A   1      35.255  33.375  33.139  1.00  0.00    -0.322 N 
ATOM     83  C   UNL A   1      36.447  32.700  33.086  1.00  0.00     0.258 C 
ATOM     84  H   UNL A   1      34.607  32.951  33.747  1.00  0.00     0.170 HD
ATOM     85  O   UNL A   1      36.521  31.549  33.517  1.00  0.00    -0.269 OA
BRANCH  83  86
ATOM     86  C   UNL A   1      37.682  33.321  32.628  1.00  0.00     0.077 A 
ATOM     87  C   UNL A   1      38.531  33.951  33.535  1.00  0.00     0.018 A 
ATOM     88  C   UNL A   1      37.944  33.451  31.272  1.00  0.00     0.141 A 
ATOM     89  C   UNL A   1      39.672  34.588  33.053  1.00  0.00     0.021 A 
ATOM     90  N   UNL A   1      39.035  34.081  30.776  1.00  0.00    -0.244 NA
ATOM     91  Cl  UNL A   1      36.911  32.830  30.042  1.00  0.00    -0.061 Cl
ATOM     92  C   UNL A   1      39.888  34.607  31.681  1.00  0.00     0.113 A 
ENDBRANCH  83  86
ENDBRANCH  77  82
ENDBRANCH  72  74
ENDBRANCH  71  72
ENDBRANCH  70  71
ENDBRANCH   1  70
TORSDOF 17
ENDMDL
MODEL 3
REMARK VINA RESULT:     -11.5      4.912     13.011
REMARK SMILES O=C(OCCOC(=O)c1cc(NC(=O)c2cccnc2Cl)ccc1O)c1ccc(-c2c3nc(c(-c4cc(S(=O)(=O)[O-])ccc4F)c4ccc([nH]4)c(-c4cc(S(=O)(=O)[O-])ccc4F)c4nc(c(-c5cc(S(=O)(=O)[O-])ccc5F)c5ccc2[nH]5)C=C4)C=C3)cc1
REMARK SMILES IDX 4 1 3 2 2 3 1 4 26 5 27 6 88 7 28 8 87 9 29 10 30 11 31 12
REMARK SMILES IDX 81 13 32 14 86 15 80 16 82 17 33 18 85 19 79 20 78 21 34 23
REMARK SMILES IDX 66 24 46 25 65 26 47 27 50 28 64 29 83 30 48 31 49 32 63 34
REMARK SMILES IDX 84 35 51 36 35 37 36 38 44 39 37 40 43 41 45 42 42 43 38 44
REMARK SMILES IDX 39 45 40 46 41 47 67 48 68 49 76 50 69 51 75 52 77 53 74 54
REMARK SMILES IDX 70 55 71 56 72 57 73 58 52 59 53 60 61 61 54 62 60 63 62 64
REMARK SMILES IDX 59 65 55 66 56 67 57 68 58 69 5 70 6 71 7 72 8 73 9 74 10 75
REMARK SMILES IDX 24 76 11 77 23 78 22 79 25 80 12 82 13 83 14 85 15 86 16 87
REMARK SMILES IDX 20 88 17 89 19 90 21 91 18 92
REMARK H PARENT 82 22 50 33 25 81 12 84
REMARK Flexibility Score: inf
ROOT
ATOM      1  C   UNL A   1      34.227  32.679  28.061  1.00  0.00     0.275 C 
ENDROOT
BRANCH   1   2
ATOM      2  O   UNL A   1      33.817  31.557  27.266  1.00  0.00    -0.458 OA
BRANCH   2   3
ATOM      3  C   UNL A   1      34.349  30.315  27.270  1.00  0.00     0.338 C 
ATOM      4  O   UNL A   1      33.752  29.434  26.653  1.00  0.00    -0.246 OA
BRANCH   3   5
ATOM      5  C   UNL A   1      35.635  29.958  27.960  1.00  0.00     0.060 A 
ATOM      6  C   UNL A   1      35.771  29.438  29.247  1.00  0.00     0.016 A 
ATOM      7  C   UNL A   1      36.808  30.103  27.198  1.00  0.00     0.016 A 
ATOM      8  C   UNL A   1      37.011  29.028  29.731  1.00  0.00     0.010 A 
ATOM      9  C   UNL A   1      38.048  29.652  27.654  1.00  0.00     0.010 A 
ATOM     10  C   UNL A   1      38.152  29.104  28.931  1.00  0.00    -0.014 A 
BRANCH  10  11
ATOM     11  C   UNL A   1      39.441  28.648  29.493  1.00  0.00     0.031 A 
ATOM     12  C   UNL A   1      39.942  29.273  30.757  1.00  0.00     0.074 A 
ATOM     13  C   UNL A   1      40.079  27.612  28.914  1.00  0.00     0.049 A 
ATOM     14  N   UNL A   1      40.947  28.911  31.506  1.00  0.00    -0.248 NA
ATOM     15  C   UNL A   1      39.201  30.442  31.259  1.00  0.00     0.031 C 
ATOM     16  C   UNL A   1      39.623  26.928  27.704  1.00  0.00     0.029 A 
ATOM     17  N   UNL A   1      41.216  26.932  29.260  1.00  0.00    -0.354 N 
ATOM     18  C   UNL A   1      40.926  29.771  32.596  1.00  0.00     0.074 A 
ATOM     19  C   UNL A   1      39.871  30.732  32.361  1.00  0.00     0.031 C 
ATOM     20  C   UNL A   1      40.474  25.935  27.399  1.00  0.00     0.029 A 
ATOM     21  C   UNL A   1      41.535  25.908  28.397  1.00  0.00     0.049 A 
ATOM     22  H   UNL A   1      41.756  27.156  30.052  1.00  0.00     0.167 HD
ATOM     23  C   UNL A   1      41.692  29.727  33.711  1.00  0.00     0.034 A 
ATOM     24  C   UNL A   1      42.559  25.033  28.423  1.00  0.00     0.034 A 
ATOM     25  C   UNL A   1      42.764  28.782  33.886  1.00  0.00     0.049 A 
ATOM     26  C   UNL A   1      43.465  25.076  29.627  1.00  0.00     0.074 A 
ATOM     27  C   UNL A   1      43.652  28.662  34.939  1.00  0.00     0.029 A 
ATOM     28  N   UNL A   1      43.102  27.796  32.963  1.00  0.00    -0.354 N 
ATOM     29  N   UNL A   1      43.405  25.873  30.672  1.00  0.00    -0.248 NA
ATOM     30  C   UNL A   1      44.541  24.083  29.682  1.00  0.00     0.031 C 
ATOM     31  C   UNL A   1      44.562  27.644  34.624  1.00  0.00     0.029 A 
ATOM     32  C   UNL A   1      44.199  27.079  33.410  1.00  0.00     0.049 A 
ATOM     33  H   UNL A   1      42.630  27.632  32.116  1.00  0.00     0.167 HD
ATOM     34  C   UNL A   1      44.418  25.453  31.526  1.00  0.00     0.074 A 
ATOM     35  C   UNL A   1      45.045  24.312  30.884  1.00  0.00     0.031 C 
ATOM     36  C   UNL A   1      44.804  25.958  32.727  1.00  0.00     0.034 A 
BRANCH  23  37
ATOM     37  C   UNL A   1      41.395  30.749  34.779  1.00  0.00     0.023 A 
ATOM     38  C   UNL A   1      40.239  30.652  35.578  1.00  0.00     0.031 A 
ATOM     39  C   UNL A   1      42.226  31.867  34.957  1.00  0.00     0.131 A 
ATOM     40  C   UNL A   1      39.906  31.692  36.460  1.00  0.00     0.055 A 
ATOM     41  C   UNL A   1      41.927  32.862  35.891  1.00  0.00     0.041 A 
ATOM     42  F   UNL A   1      43.326  32.027  34.205  1.00  0.00    -0.206 F 
ATOM     43  C   UNL A   1      40.755  32.786  36.639  1.00  0.00     0.022 A 
BRANCH  40  44
ATOM     44  S   UNL A   1      38.280  31.660  37.265  1.00  0.00     0.124 S 
ATOM     45  O   UNL A   1      38.619  32.049  38.632  1.00  0.00    -0.237 OA
ATOM     46  O   UNL A   1      37.524  32.640  36.493  1.00  0.00    -0.237 OA
ATOM     47  O   UNL A   1      37.846  30.274  37.106  1.00  0.00    -0.744 OA
ENDBRANCH  40  44
ENDBRANCH  23  37
BRANCH  24  48
ATOM     48  C   UNL A   1      42.778  24.064  27.306  1.00  0.00     0.023 A 
ATOM     49  C   UNL A   1      42.115  22.828  27.255  1.00  0.00     0.031 A 
ATOM     50  C   UNL A   1      43.716  24.342  26.292  1.00  0.00     0.131 A 
ATOM     51  C   UNL A   1      42.445  21.892  26.259  1.00  0.00     0.055 A 
ATOM     52  C   UNL A   1      44.000  23.431  25.272  1.00  0.00     0.041 A 
ATOM     53  F   UNL A   1      44.368  25.516  26.272  1.00  0.00    -0.206 F 
ATOM     54  C   UNL A   1      43.377  22.189  25.263  1.00  0.00     0.022 A 
BRANCH  51  55
ATOM     55  S   UNL A   1      41.717  20.232  26.347  1.00  0.00     0.124 S 
ATOM     56  O   UNL A   1      42.377  19.557  25.236  1.00  0.00    -0.237 OA
ATOM     57  O   UNL A   1      42.113  19.805  27.685  1.00  0.00    -0.237 OA
ATOM     58  O   UNL A   1      40.287  20.478  26.170  1.00  0.00    -0.744 OA
ENDBRANCH  51  55
ENDBRANCH  24  48
BRANCH  36  59
ATOM     59  C   UNL A   1      45.946  25.250  33.409  1.00  0.00     0.023 A 
ATOM     60  C   UNL A   1      47.277  25.644  33.199  1.00  0.00     0.031 A 
ATOM     61  C   UNL A   1      45.702  24.146  34.243  1.00  0.00     0.131 A 
ATOM     62  C   UNL A   1      48.320  24.887  33.742  1.00  0.00     0.055 A 
ATOM     63  C   UNL A   1      46.744  23.445  34.850  1.00  0.00     0.041 A 
ATOM     64  F   UNL A   1      44.448  23.725  34.475  1.00  0.00    -0.206 F 
ATOM     65  C   UNL A   1      48.063  23.803  34.585  1.00  0.00     0.022 A 
BRANCH  62  66
ATOM     66  S   UNL A   1      50.016  25.258  33.218  1.00  0.00     0.124 S 
ATOM     67  O   UNL A   1      50.094  24.561  31.939  1.00  0.00    -0.237 OA
ATOM     68  O   UNL A   1      50.009  26.715  33.150  1.00  0.00    -0.237 OA
ATOM     69  O   UNL A   1      50.835  24.690  34.286  1.00  0.00    -0.744 OA
ENDBRANCH  62  66
ENDBRANCH  36  59
ENDBRANCH  10  11
ENDBRANCH   3   5
ENDBRANCH   2   3
ENDBRANCH   1   2
BRANCH   1  70
ATOM     70  C   UNL A   1      33.306  33.905  28.008  1.00  0.00     0.275 C 
BRANCH  70  71
ATOM     71  O   UNL A   1      33.915  35.107  28.506  1.00  0.00    -0.458 OA
BRANCH  71  72
ATOM     72  C   UNL A   1      33.140  35.917  29.273  1.00  0.00     0.342 C 
ATOM     73  O   UNL A   1      32.113  36.486  28.924  1.00  0.00    -0.246 OA
BRANCH  72  74
ATOM     74  C   UNL A   1      33.622  35.920  30.673  1.00  0.00     0.103 A 
ATOM     75  C   UNL A   1      34.156  34.722  31.200  1.00  0.00     0.045 A 
ATOM     76  C   UNL A   1      33.515  37.055  31.479  1.00  0.00     0.130 A 
ATOM     77  C   UNL A   1      34.604  34.669  32.521  1.00  0.00     0.042 A 
ATOM     78  C   UNL A   1      33.965  37.012  32.794  1.00  0.00     0.049 A 
ATOM     79  C   UNL A   1      34.509  35.831  33.304  1.00  0.00     0.030 A 
BRANCH  76  80
ATOM     80  O   UNL A   1      32.949  38.202  30.999  1.00  0.00    -0.507 OA
ATOM     81  H   UNL A   1      33.198  39.031  31.355  1.00  0.00     0.293 HD
ENDBRANCH  76  80
BRANCH  77  82
ATOM     82  N   UNL A   1      35.066  33.523  33.196  1.00  0.00    -0.322 N 
ATOM     83  C   UNL A   1      36.243  32.819  33.216  1.00  0.00     0.258 C 
ATOM     84  H   UNL A   1      34.385  33.136  33.792  1.00  0.00     0.170 HD
ATOM     85  O   UNL A   1      36.273  31.684  33.692  1.00  0.00    -0.269 OA
BRANCH  83  86
ATOM     86  C   UNL A   1      37.510  33.395  32.787  1.00  0.00     0.077 A 
ATOM     87  C   UNL A   1      38.348  34.019  33.708  1.00  0.00     0.018 A 
ATOM     88  C   UNL A   1      37.819  33.490  31.438  1.00  0.00     0.141 A 
ATOM     89  C   UNL A   1      39.521  34.613  33.251  1.00  0.00     0.021 A 
ATOM     90  N   UNL A   1      38.943  34.077  30.965  1.00  0.00    -0.244 NA
ATOM     91  Cl  UNL A   1      36.808  32.873  30.188  1.00  0.00    -0.061 Cl
ATOM     92  C   UNL A   1      39.783  34.597  31.887  1.00  0.00     0.113 A 
ENDBRANCH  83  86
ENDBRANCH  77  82
ENDBRANCH  72  74
ENDBRANCH  71  72
ENDBRANCH  70  71
ENDBRANCH   1  70
TORSDOF 17
ENDMDL
