MODEL 1
REMARK VINA RESULT:     -12.8      0.000      0.000
REMARK SMILES O=C(OCCOC(=O)c1ccccc1/C=C1\SC(=S)N(Cc2ccccc2)C1=O)c1ccc(-c2c3nc(c(-c4cc(S(=O)(=O)[O-])ccc4F)c4ccc([nH]4)c(-c4cc(S(=O)(=O)[O-])ccc4F)c4nc(c(-c5cc(S(=O)(=O)[O-])ccc5F)c5ccc2[nH]5)C=C4)C=C3)cc1
REMARK SMILES IDX 4 1 3 2 2 3 1 4 30 5 31 6 92 7 32 8 91 9 33 10 34 11 35 12
REMARK SMILES IDX 85 13 36 14 90 15 84 16 86 17 37 18 89 19 83 20 82 21 38 23
REMARK SMILES IDX 70 24 50 25 69 26 51 27 54 28 68 29 87 30 52 31 53 32 67 34
REMARK SMILES IDX 88 35 55 36 39 37 40 38 48 39 41 40 47 41 49 42 46 43 42 44
REMARK SMILES IDX 43 45 44 46 45 47 71 48 72 49 80 50 73 51 79 52 81 53 78 54
REMARK SMILES IDX 74 55 75 56 76 57 77 58 56 59 57 60 65 61 58 62 64 63 66 64
REMARK SMILES IDX 63 65 59 66 60 67 61 68 62 69 5 70 6 71 7 72 8 73 9 74 10 75
REMARK SMILES IDX 14 76 11 77 13 78 12 79 15 80 16 81 17 82 28 83 18 84 20 85
REMARK SMILES IDX 29 86 19 87 21 88 22 89 23 90 27 91 24 92 26 93 25 94
REMARK H PARENT 86 22 54 33
REMARK Flexibility Score: inf
ROOT
ATOM      1  C   UNL A   1      31.804  30.896  26.697  1.00  0.00     0.275 C 
ENDROOT
BRANCH   1   2
ATOM      2  O   UNL A   1      32.187  32.277  26.847  1.00  0.00    -0.458 OA
BRANCH   2   3
ATOM      3  C   UNL A   1      33.110  32.867  27.642  1.00  0.00     0.338 C 
ATOM      4  O   UNL A   1      32.897  34.026  28.002  1.00  0.00    -0.246 OA
BRANCH   3   5
ATOM      5  C   UNL A   1      34.406  32.241  28.076  1.00  0.00     0.060 A 
ATOM      6  C   UNL A   1      34.573  30.943  28.561  1.00  0.00     0.016 A 
ATOM      7  C   UNL A   1      35.550  33.068  28.026  1.00  0.00     0.016 A 
ATOM      8  C   UNL A   1      35.827  30.479  28.970  1.00  0.00     0.010 A 
ATOM      9  C   UNL A   1      36.808  32.612  28.441  1.00  0.00     0.010 A 
ATOM     10  C   UNL A   1      36.945  31.317  28.943  1.00  0.00    -0.014 A 
BRANCH  10  11
ATOM     11  C   UNL A   1      38.177  30.862  29.630  1.00  0.00     0.031 A 
ATOM     12  C   UNL A   1      38.373  31.259  31.059  1.00  0.00     0.074 A 
ATOM     13  C   UNL A   1      39.023  30.007  29.029  1.00  0.00     0.049 A 
ATOM     14  N   UNL A   1      39.270  30.851  31.914  1.00  0.00    -0.248 NA
ATOM     15  C   UNL A   1      37.426  32.249  31.595  1.00  0.00     0.031 C 
ATOM     16  C   UNL A   1      38.892  29.566  27.650  1.00  0.00     0.029 A 
ATOM     17  N   UNL A   1      40.122  29.330  29.485  1.00  0.00    -0.354 N 
ATOM     18  C   UNL A   1      38.991  31.523  33.096  1.00  0.00     0.074 A 
ATOM     19  C   UNL A   1      37.867  32.396  32.833  1.00  0.00     0.031 C 
ATOM     20  C   UNL A   1      39.826  28.643  27.377  1.00  0.00     0.029 A 
ATOM     21  C   UNL A   1      40.660  28.462  28.559  1.00  0.00     0.049 A 
ATOM     22  H   UNL A   1      40.493  29.452  30.389  1.00  0.00     0.167 HD
ATOM     23  C   UNL A   1      39.618  31.412  34.293  1.00  0.00     0.034 A 
ATOM     24  C   UNL A   1      41.706  27.618  28.662  1.00  0.00     0.034 A 
ATOM     25  C   UNL A   1      40.769  30.570  34.503  1.00  0.00     0.049 A 
ATOM     26  C   UNL A   1      42.420  27.556  29.987  1.00  0.00     0.074 A 
ATOM     27  C   UNL A   1      41.537  30.419  35.642  1.00  0.00     0.029 A 
ATOM     28  N   UNL A   1      41.330  29.745  33.532  1.00  0.00    -0.354 N 
ATOM     29  N   UNL A   1      42.146  28.197  31.102  1.00  0.00    -0.248 NA
ATOM     30  C   UNL A   1      43.576  26.658  30.074  1.00  0.00     0.031 C 
ATOM     31  C   UNL A   1      42.594  29.551  35.342  1.00  0.00     0.029 A 
ATOM     32  C   UNL A   1      42.447  29.101  34.039  1.00  0.00     0.049 A 
ATOM     33  H   UNL A   1      40.983  29.635  32.617  1.00  0.00     0.167 HD
ATOM     34  C   UNL A   1      43.087  27.765  32.030  1.00  0.00     0.074 A 
ATOM     35  C   UNL A   1      43.916  26.789  31.349  1.00  0.00     0.031 C 
ATOM     36  C   UNL A   1      43.259  28.141  33.324  1.00  0.00     0.034 A 
BRANCH  23  37
ATOM     37  C   UNL A   1      39.103  32.295  35.402  1.00  0.00     0.023 A 
ATOM     38  C   UNL A   1      39.537  33.627  35.544  1.00  0.00     0.031 A 
ATOM     39  C   UNL A   1      38.265  31.765  36.398  1.00  0.00     0.131 A 
ATOM     40  C   UNL A   1      39.213  34.347  36.703  1.00  0.00     0.055 A 
ATOM     41  C   UNL A   1      37.877  32.517  37.508  1.00  0.00     0.041 A 
ATOM     42  F   UNL A   1      37.846  30.493  36.331  1.00  0.00    -0.206 F 
ATOM     43  C   UNL A   1      38.367  33.810  37.677  1.00  0.00     0.022 A 
BRANCH  40  44
ATOM     44  S   UNL A   1      40.056  35.926  37.007  1.00  0.00     0.124 S 
ATOM     45  O   UNL A   1      39.714  36.680  35.803  1.00  0.00    -0.237 OA
ATOM     46  O   UNL A   1      39.435  36.383  38.244  1.00  0.00    -0.237 OA
ATOM     47  O   UNL A   1      41.464  35.548  37.118  1.00  0.00    -0.744 OA
ENDBRANCH  40  44
ENDBRANCH  23  37
BRANCH  24  48
ATOM     48  C   UNL A   1      42.149  26.793  27.498  1.00  0.00     0.023 A 
ATOM     49  C   UNL A   1      41.867  25.418  27.422  1.00  0.00     0.031 A 
ATOM     50  C   UNL A   1      42.904  27.362  26.455  1.00  0.00     0.131 A 
ATOM     51  C   UNL A   1      42.368  24.654  26.353  1.00  0.00     0.055 A 
ATOM     52  C   UNL A   1      43.361  26.608  25.371  1.00  0.00     0.041 A 
ATOM     53  F   UNL A   1      43.203  28.671  26.469  1.00  0.00    -0.206 F 
ATOM     54  C   UNL A   1      43.105  25.243  25.323  1.00  0.00     0.022 A 
BRANCH  51  55
ATOM     55  S   UNL A   1      42.109  22.858  26.364  1.00  0.00     0.124 S 
ATOM     56  O   UNL A   1      42.959  22.438  27.471  1.00  0.00    -0.237 OA
ATOM     57  O   UNL A   1      40.669  22.765  26.584  1.00  0.00    -0.237 OA
ATOM     58  O   UNL A   1      42.562  22.441  25.037  1.00  0.00    -0.744 OA
ENDBRANCH  51  55
ENDBRANCH  24  48
BRANCH  36  59
ATOM     59  C   UNL A   1      44.369  27.457  34.077  1.00  0.00     0.023 A 
ATOM     60  C   UNL A   1      44.158  26.247  34.761  1.00  0.00     0.031 A 
ATOM     61  C   UNL A   1      45.647  28.038  34.133  1.00  0.00     0.131 A 
ATOM     62  C   UNL A   1      45.192  25.690  35.525  1.00  0.00     0.055 A 
ATOM     63  C   UNL A   1      46.691  27.446  34.843  1.00  0.00     0.041 A 
ATOM     64  F   UNL A   1      45.900  29.194  33.498  1.00  0.00    -0.206 F 
ATOM     65  C   UNL A   1      46.462  26.272  35.557  1.00  0.00     0.022 A 
BRANCH  62  66
ATOM     66  S   UNL A   1      44.824  24.250  36.563  1.00  0.00     0.124 S 
ATOM     67  O   UNL A   1      43.764  23.592  35.806  1.00  0.00    -0.237 OA
ATOM     68  O   UNL A   1      46.107  23.555  36.599  1.00  0.00    -0.237 OA
ATOM     69  O   UNL A   1      44.404  24.841  37.832  1.00  0.00    -0.744 OA
ENDBRANCH  62  66
ENDBRANCH  36  59
ENDBRANCH  10  11
ENDBRANCH   3   5
ENDBRANCH   2   3
ENDBRANCH   1   2
BRANCH   1  70
ATOM     70  C   UNL A   1      32.690  30.104  25.741  1.00  0.00     0.275 C 
BRANCH  70  71
ATOM     71  O   UNL A   1      31.981  29.034  25.109  1.00  0.00    -0.458 OA
BRANCH  71  72
ATOM     72  C   UNL A   1      31.703  29.194  23.791  1.00  0.00     0.338 C 
ATOM     73  O   UNL A   1      32.521  29.310  22.890  1.00  0.00    -0.246 OA
BRANCH  72  74
ATOM     74  C   UNL A   1      30.241  29.120  23.552  1.00  0.00     0.067 A 
ATOM     75  C   UNL A   1      29.550  30.344  23.587  1.00  0.00     0.016 A 
ATOM     76  C   UNL A   1      29.550  27.928  23.268  1.00  0.00    -0.010 A 
ATOM     77  C   UNL A   1      28.183  30.391  23.316  1.00  0.00     0.001 A 
ATOM     78  C   UNL A   1      28.164  27.990  23.043  1.00  0.00     0.009 A 
ATOM     79  C   UNL A   1      27.489  29.214  23.053  1.00  0.00     0.001 A 
BRANCH  76  80
ATOM     80  C   UNL A   1      30.219  26.647  23.008  1.00  0.00     0.030 C 
ATOM     81  C   UNL A   1      30.544  25.666  23.853  1.00  0.00     0.081 C 
ATOM     82  S   UNL A   1      30.169  25.470  25.507  1.00  0.00    -0.054 SA
ATOM     83  C   UNL A   1      31.478  24.608  23.399  1.00  0.00     0.266 C 
ATOM     84  C   UNL A   1      31.194  24.040  25.652  1.00  0.00     0.148 C 
ATOM     85  N   UNL A   1      31.739  23.726  24.427  1.00  0.00    -0.288 N 
ATOM     86  O   UNL A   1      32.007  24.606  22.295  1.00  0.00    -0.268 OA
ATOM     87  S   UNL A   1      31.434  23.278  27.118  1.00  0.00    -0.052 S 
BRANCH  85  88
ATOM     88  C   UNL A   1      32.568  22.561  24.127  1.00  0.00     0.163 C 
BRANCH  88  89
ATOM     89  C   UNL A   1      34.033  22.888  24.312  1.00  0.00    -0.028 A 
ATOM     90  C   UNL A   1      34.936  22.754  23.250  1.00  0.00     0.005 A 
ATOM     91  C   UNL A   1      34.496  23.403  25.534  1.00  0.00     0.005 A 
ATOM     92  C   UNL A   1      36.269  23.137  23.404  1.00  0.00     0.000 A 
ATOM     93  C   UNL A   1      35.827  23.793  25.684  1.00  0.00     0.000 A 
ATOM     94  C   UNL A   1      36.712  23.661  24.617  1.00  0.00     0.000 A 
ENDBRANCH  88  89
ENDBRANCH  85  88
ENDBRANCH  76  80
ENDBRANCH  72  74
ENDBRANCH  71  72
ENDBRANCH  70  71
ENDBRANCH   1  70
TORSDOF 17
ENDMDL
MODEL 2
REMARK VINA RESULT:     -12.7      4.823     10.278
REMARK SMILES O=C(OCCOC(=O)c1ccccc1/C=C1\SC(=S)N(Cc2ccccc2)C1=O)c1ccc(-c2c3nc(c(-c4cc(S(=O)(=O)[O-])ccc4F)c4ccc([nH]4)c(-c4cc(S(=O)(=O)[O-])ccc4F)c4nc(c(-c5cc(S(=O)(=O)[O-])ccc5F)c5ccc2[nH]5)C=C4)C=C3)cc1
REMARK SMILES IDX 4 1 3 2 2 3 1 4 30 5 31 6 92 7 32 8 91 9 33 10 34 11 35 12
REMARK SMILES IDX 85 13 36 14 90 15 84 16 86 17 37 18 89 19 83 20 82 21 38 23
REMARK SMILES IDX 70 24 50 25 69 26 51 27 54 28 68 29 87 30 52 31 53 32 67 34
REMARK SMILES IDX 88 35 55 36 39 37 40 38 48 39 41 40 47 41 49 42 46 43 42 44
REMARK SMILES IDX 43 45 44 46 45 47 71 48 72 49 80 50 73 51 79 52 81 53 78 54
REMARK SMILES IDX 74 55 75 56 76 57 77 58 56 59 57 60 65 61 58 62 64 63 66 64
REMARK SMILES IDX 63 65 59 66 60 67 61 68 62 69 5 70 6 71 7 72 8 73 9 74 10 75
REMARK SMILES IDX 14 76 11 77 13 78 12 79 15 80 16 81 17 82 28 83 18 84 20 85
REMARK SMILES IDX 29 86 19 87 21 88 22 89 23 90 27 91 24 92 26 93 25 94
REMARK H PARENT 86 22 54 33
REMARK Flexibility Score: inf
ROOT
ATOM      1  C   UNL A   1      37.851  21.301  24.781  1.00  0.00     0.275 C 
ENDROOT
BRANCH   1   2
ATOM      2  O   UNL A   1      38.539  21.389  26.043  1.00  0.00    -0.458 OA
BRANCH   2   3
ATOM      3  C   UNL A   1      39.747  21.903  26.369  1.00  0.00     0.338 C 
ATOM      4  O   UNL A   1      40.736  21.187  26.205  1.00  0.00    -0.246 OA
BRANCH   3   5
ATOM      5  C   UNL A   1      39.977  23.261  26.971  1.00  0.00     0.060 A 
ATOM      6  C   UNL A   1      39.358  24.450  26.582  1.00  0.00     0.016 A 
ATOM      7  C   UNL A   1      40.945  23.338  27.996  1.00  0.00     0.016 A 
ATOM      8  C   UNL A   1      39.678  25.666  27.193  1.00  0.00     0.010 A 
ATOM      9  C   UNL A   1      41.276  24.554  28.608  1.00  0.00     0.010 A 
ATOM     10  C   UNL A   1      40.659  25.733  28.186  1.00  0.00    -0.014 A 
BRANCH  10  11
ATOM     11  C   UNL A   1      41.140  27.070  28.606  1.00  0.00     0.031 A 
ATOM     12  C   UNL A   1      42.545  27.453  28.262  1.00  0.00     0.074 A 
ATOM     13  C   UNL A   1      40.298  27.962  29.158  1.00  0.00     0.049 A 
ATOM     14  N   UNL A   1      43.135  28.612  28.367  1.00  0.00    -0.248 NA
ATOM     15  C   UNL A   1      43.396  26.382  27.723  1.00  0.00     0.031 C 
ATOM     16  C   UNL A   1      38.917  27.669  29.509  1.00  0.00     0.029 A 
ATOM     17  N   UNL A   1      40.445  29.283  29.486  1.00  0.00    -0.354 N 
ATOM     18  C   UNL A   1      44.425  28.416  27.895  1.00  0.00     0.074 A 
ATOM     19  C   UNL A   1      44.543  27.017  27.545  1.00  0.00     0.031 C 
ATOM     20  C   UNL A   1      38.313  28.785  29.945  1.00  0.00     0.029 A 
ATOM     21  C   UNL A   1      39.286  29.870  29.948  1.00  0.00     0.049 A 
ATOM     22  H   UNL A   1      41.298  29.767  29.399  1.00  0.00     0.167 HD
ATOM     23  C   UNL A   1      45.419  29.329  27.765  1.00  0.00     0.034 A 
ATOM     24  C   UNL A   1      39.046  31.141  30.328  1.00  0.00     0.034 A 
ATOM     25  C   UNL A   1      45.282  30.705  28.175  1.00  0.00     0.049 A 
ATOM     26  C   UNL A   1      40.184  32.123  30.225  1.00  0.00     0.074 A 
ATOM     27  C   UNL A   1      46.228  31.712  28.162  1.00  0.00     0.029 A 
ATOM     28  N   UNL A   1      44.116  31.260  28.695  1.00  0.00    -0.354 N 
ATOM     29  N   UNL A   1      41.404  31.927  29.776  1.00  0.00    -0.248 NA
ATOM     30  C   UNL A   1      39.917  33.494  30.672  1.00  0.00     0.031 C 
ATOM     31  C   UNL A   1      45.652  32.857  28.728  1.00  0.00     0.029 A 
ATOM     32  C   UNL A   1      44.326  32.588  29.028  1.00  0.00     0.049 A 
ATOM     33  H   UNL A   1      43.265  30.778  28.811  1.00  0.00     0.167 HD
ATOM     34  C   UNL A   1      42.046  33.156  29.870  1.00  0.00     0.074 A 
ATOM     35  C   UNL A   1      41.067  34.091  30.392  1.00  0.00     0.031 C 
ATOM     36  C   UNL A   1      43.326  33.488  29.561  1.00  0.00     0.034 A 
BRANCH  23  37
ATOM     37  C   UNL A   1      46.736  28.814  27.241  1.00  0.00     0.023 A 
ATOM     38  C   UNL A   1      46.959  28.631  25.863  1.00  0.00     0.031 A 
ATOM     39  C   UNL A   1      47.733  28.386  28.133  1.00  0.00     0.131 A 
ATOM     40  C   UNL A   1      48.104  27.948  25.425  1.00  0.00     0.055 A 
ATOM     41  C   UNL A   1      48.910  27.783  27.685  1.00  0.00     0.041 A 
ATOM     42  F   UNL A   1      47.562  28.506  29.458  1.00  0.00    -0.206 F 
ATOM     43  C   UNL A   1      49.093  27.542  26.326  1.00  0.00     0.022 A 
BRANCH  40  44
ATOM     44  S   UNL A   1      48.199  27.439  23.686  1.00  0.00     0.124 S 
ATOM     45  O   UNL A   1      47.952  26.002  23.786  1.00  0.00    -0.237 OA
ATOM     46  O   UNL A   1      47.139  28.227  23.067  1.00  0.00    -0.237 OA
ATOM     47  O   UNL A   1      49.559  27.805  23.294  1.00  0.00    -0.744 OA
ENDBRANCH  40  44
ENDBRANCH  23  37
BRANCH  24  48
ATOM     48  C   UNL A   1      37.706  31.550  30.849  1.00  0.00     0.023 A 
ATOM     49  C   UNL A   1      36.762  32.187  30.025  1.00  0.00     0.031 A 
ATOM     50  C   UNL A   1      37.364  31.349  32.199  1.00  0.00     0.131 A 
ATOM     51  C   UNL A   1      35.542  32.632  30.567  1.00  0.00     0.055 A 
ATOM     52  C   UNL A   1      36.133  31.752  32.721  1.00  0.00     0.041 A 
ATOM     53  F   UNL A   1      38.223  30.742  33.034  1.00  0.00    -0.206 F 
ATOM     54  C   UNL A   1      35.220  32.410  31.907  1.00  0.00     0.022 A 
BRANCH  51  55
ATOM     55  S   UNL A   1      34.410  33.579  29.511  1.00  0.00     0.124 S 
ATOM     56  O   UNL A   1      35.323  34.494  28.836  1.00  0.00    -0.237 OA
ATOM     57  O   UNL A   1      33.821  32.528  28.686  1.00  0.00    -0.237 OA
ATOM     58  O   UNL A   1      33.496  34.203  30.466  1.00  0.00    -0.744 OA
ENDBRANCH  51  55
ENDBRANCH  24  48
BRANCH  36  59
ATOM     59  C   UNL A   1      43.710  34.931  29.755  1.00  0.00     0.023 A 
ATOM     60  C   UNL A   1      43.568  35.875  28.723  1.00  0.00     0.031 A 
ATOM     61  C   UNL A   1      44.247  35.360  30.980  1.00  0.00     0.131 A 
ATOM     62  C   UNL A   1      44.021  37.188  28.914  1.00  0.00     0.055 A 
ATOM     63  C   UNL A   1      44.637  36.684  31.186  1.00  0.00     0.041 A 
ATOM     64  F   UNL A   1      44.403  34.498  31.997  1.00  0.00    -0.206 F 
ATOM     65  C   UNL A   1      44.539  37.602  30.144  1.00  0.00     0.022 A 
BRANCH  62  66
ATOM     66  S   UNL A   1      44.022  38.319  27.497  1.00  0.00     0.124 S 
ATOM     67  O   UNL A   1      45.305  38.021  26.870  1.00  0.00    -0.237 OA
ATOM     68  O   UNL A   1      42.837  37.895  26.758  1.00  0.00    -0.237 OA
ATOM     69  O   UNL A   1      43.926  39.641  28.115  1.00  0.00    -0.744 OA
ENDBRANCH  62  66
ENDBRANCH  36  59
ENDBRANCH  10  11
ENDBRANCH   3   5
ENDBRANCH   2   3
ENDBRANCH   1   2
BRANCH   1  70
ATOM     70  C   UNL A   1      36.911  22.468  24.500  1.00  0.00     0.275 C 
BRANCH  70  71
ATOM     71  O   UNL A   1      35.559  22.041  24.316  1.00  0.00    -0.458 OA
BRANCH  71  72
ATOM     72  C   UNL A   1      35.035  21.266  25.300  1.00  0.00     0.338 C 
ATOM     73  O   UNL A   1      35.146  21.454  26.502  1.00  0.00    -0.246 OA
BRANCH  72  74
ATOM     74  C   UNL A   1      34.211  20.176  24.724  1.00  0.00     0.067 A 
ATOM     75  C   UNL A   1      34.836  18.920  24.625  1.00  0.00     0.016 A 
ATOM     76  C   UNL A   1      32.873  20.331  24.321  1.00  0.00    -0.010 A 
ATOM     77  C   UNL A   1      34.128  17.815  24.154  1.00  0.00     0.001 A 
ATOM     78  C   UNL A   1      32.191  19.216  23.805  1.00  0.00     0.009 A 
ATOM     79  C   UNL A   1      32.810  17.964  23.735  1.00  0.00     0.001 A 
BRANCH  76  80
ATOM     80  C   UNL A   1      32.085  21.543  24.580  1.00  0.00     0.030 C 
ATOM     81  C   UNL A   1      32.083  22.714  23.938  1.00  0.00     0.081 C 
ATOM     82  S   UNL A   1      32.876  23.181  22.500  1.00  0.00    -0.054 SA
ATOM     83  C   UNL A   1      31.418  23.878  24.572  1.00  0.00     0.266 C 
ATOM     84  C   UNL A   1      32.377  24.866  22.678  1.00  0.00     0.148 C 
ATOM     85  N   UNL A   1      31.577  25.004  23.791  1.00  0.00    -0.288 N 
ATOM     86  O   UNL A   1      30.901  23.836  25.681  1.00  0.00    -0.268 OA
ATOM     87  S   UNL A   1      32.891  26.049  21.619  1.00  0.00    -0.052 S 
BRANCH  85  88
ATOM     88  C   UNL A   1      30.901  26.226  24.217  1.00  0.00     0.163 C 
BRANCH  88  89
ATOM     89  C   UNL A   1      31.692  26.923  25.302  1.00  0.00    -0.028 A 
ATOM     90  C   UNL A   1      33.034  27.270  25.098  1.00  0.00     0.005 A 
ATOM     91  C   UNL A   1      31.070  27.300  26.503  1.00  0.00     0.005 A 
ATOM     92  C   UNL A   1      33.733  27.988  26.071  1.00  0.00     0.000 A 
ATOM     93  C   UNL A   1      31.767  28.024  27.470  1.00  0.00     0.000 A 
ATOM     94  C   UNL A   1      33.098  28.369  27.251  1.00  0.00     0.000 A 
ENDBRANCH  88  89
ENDBRANCH  85  88
ENDBRANCH  76  80
ENDBRANCH  72  74
ENDBRANCH  71  72
ENDBRANCH  70  71
ENDBRANCH   1  70
TORSDOF 17
ENDMDL
MODEL 3
REMARK VINA RESULT:     -12.5      1.655      2.148
REMARK SMILES O=C(OCCOC(=O)c1ccccc1/C=C1\SC(=S)N(Cc2ccccc2)C1=O)c1ccc(-c2c3nc(c(-c4cc(S(=O)(=O)[O-])ccc4F)c4ccc([nH]4)c(-c4cc(S(=O)(=O)[O-])ccc4F)c4nc(c(-c5cc(S(=O)(=O)[O-])ccc5F)c5ccc2[nH]5)C=C4)C=C3)cc1
REMARK SMILES IDX 4 1 3 2 2 3 1 4 30 5 31 6 92 7 32 8 91 9 33 10 34 11 35 12
REMARK SMILES IDX 85 13 36 14 90 15 84 16 86 17 37 18 89 19 83 20 82 21 38 23
REMARK SMILES IDX 70 24 50 25 69 26 51 27 54 28 68 29 87 30 52 31 53 32 67 34
REMARK SMILES IDX 88 35 55 36 39 37 40 38 48 39 41 40 47 41 49 42 46 43 42 44
REMARK SMILES IDX 43 45 44 46 45 47 71 48 72 49 80 50 73 51 79 52 81 53 78 54
REMARK SMILES IDX 74 55 75 56 76 57 77 58 56 59 57 60 65 61 58 62 64 63 66 64
REMARK SMILES IDX 63 65 59 66 60 67 61 68 62 69 5 70 6 71 7 72 8 73 9 74 10 75
REMARK SMILES IDX 14 76 11 77 13 78 12 79 15 80 16 81 17 82 28 83 18 84 20 85
REMARK SMILES IDX 29 86 19 87 21 88 22 89 23 90 27 91 24 92 26 93 25 94
REMARK H PARENT 86 22 54 33
REMARK Flexibility Score: inf
ROOT
ATOM      1  C   UNL A   1      32.370  29.932  27.235  1.00  0.00     0.275 C 
ENDROOT
BRANCH   1   2
ATOM      2  O   UNL A   1      33.156  31.126  27.061  1.00  0.00    -0.458 OA
BRANCH   2   3
ATOM      3  C   UNL A   1      34.094  31.702  27.849  1.00  0.00     0.338 C 
ATOM      4  O   UNL A   1      33.840  32.811  28.321  1.00  0.00    -0.246 OA
BRANCH   3   5
ATOM      5  C   UNL A   1      35.447  31.122  28.151  1.00  0.00     0.060 A 
ATOM      6  C   UNL A   1      35.767  29.764  28.210  1.00  0.00     0.016 A 
ATOM      7  C   UNL A   1      36.474  32.045  28.446  1.00  0.00     0.016 A 
ATOM      8  C   UNL A   1      37.058  29.339  28.536  1.00  0.00     0.010 A 
ATOM      9  C   UNL A   1      37.769  31.626  28.782  1.00  0.00     0.010 A 
ATOM     10  C   UNL A   1      38.058  30.263  28.855  1.00  0.00    -0.014 A 
BRANCH  10  11
ATOM     11  C   UNL A   1      39.318  29.753  29.445  1.00  0.00     0.031 A 
ATOM     12  C   UNL A   1      39.690  30.217  30.818  1.00  0.00     0.074 A 
ATOM     13  C   UNL A   1      40.034  28.800  28.822  1.00  0.00     0.049 A 
ATOM     14  N   UNL A   1      40.639  29.791  31.605  1.00  0.00    -0.248 NA
ATOM     15  C   UNL A   1      38.878  31.308  31.377  1.00  0.00     0.031 C 
ATOM     16  C   UNL A   1      39.729  28.290  27.495  1.00  0.00     0.029 A 
ATOM     17  N   UNL A   1      41.123  28.067  29.211  1.00  0.00    -0.354 N 
ATOM     18  C   UNL A   1      40.533  30.551  32.761  1.00  0.00     0.074 A 
ATOM     19  C   UNL A   1      39.454  31.493  32.553  1.00  0.00     0.031 C 
ATOM     20  C   UNL A   1      40.561  27.282  27.193  1.00  0.00     0.029 A 
ATOM     21  C   UNL A   1      41.497  27.106  28.296  1.00  0.00     0.049 A 
ATOM     22  H   UNL A   1      41.593  28.213  30.064  1.00  0.00     0.167 HD
ATOM     23  C   UNL A   1      41.271  30.462  33.895  1.00  0.00     0.034 A 
ATOM     24  C   UNL A   1      42.485  26.190  28.351  1.00  0.00     0.034 A 
ATOM     25  C   UNL A   1      42.374  29.546  34.046  1.00  0.00     0.049 A 
ATOM     26  C   UNL A   1      43.326  26.150  29.600  1.00  0.00     0.074 A 
ATOM     27  C   UNL A   1      43.242  29.403  35.111  1.00  0.00     0.029 A 
ATOM     28  N   UNL A   1      42.770  28.624  33.082  1.00  0.00    -0.354 N 
ATOM     29  N   UNL A   1      43.216  26.875  30.692  1.00  0.00    -0.248 NA
ATOM     30  C   UNL A   1      44.417  25.171  29.633  1.00  0.00     0.031 C 
ATOM     31  C   UNL A   1      44.198  28.438  34.767  1.00  0.00     0.029 A 
ATOM     32  C   UNL A   1      43.884  27.925  33.518  1.00  0.00     0.049 A 
ATOM     33  H   UNL A   1      42.323  28.488  32.215  1.00  0.00     0.167 HD
ATOM     34  C   UNL A   1      44.214  26.427  31.549  1.00  0.00     0.074 A 
ATOM     35  C   UNL A   1      44.895  25.349  30.856  1.00  0.00     0.031 C 
ATOM     36  C   UNL A   1      44.546  26.864  32.791  1.00  0.00     0.034 A 
BRANCH  23  37
ATOM     37  C   UNL A   1      40.939  31.447  34.988  1.00  0.00     0.023 A 
ATOM     38  C   UNL A   1      39.886  31.215  35.893  1.00  0.00     0.031 A 
ATOM     39  C   UNL A   1      41.600  32.686  35.049  1.00  0.00     0.131 A 
ATOM     40  C   UNL A   1      39.463  32.242  36.751  1.00  0.00     0.055 A 
ATOM     41  C   UNL A   1      41.228  33.673  35.964  1.00  0.00     0.041 A 
ATOM     42  F   UNL A   1      42.589  32.975  34.191  1.00  0.00    -0.206 F 
ATOM     43  C   UNL A   1      40.141  33.463  36.808  1.00  0.00     0.022 A 
BRANCH  40  44
ATOM     44  S   UNL A   1      37.906  32.027  37.660  1.00  0.00     0.124 S 
ATOM     45  O   UNL A   1      38.329  32.288  39.034  1.00  0.00    -0.237 OA
ATOM     46  O   UNL A   1      37.044  33.036  37.054  1.00  0.00    -0.237 OA
ATOM     47  O   UNL A   1      37.534  30.641  37.382  1.00  0.00    -0.744 OA
ENDBRANCH  40  44
ENDBRANCH  23  37
BRANCH  24  48
ATOM     48  C   UNL A   1      42.744  25.265  27.206  1.00  0.00     0.023 A 
ATOM     49  C   UNL A   1      42.251  23.949  27.199  1.00  0.00     0.031 A 
ATOM     50  C   UNL A   1      43.531  25.673  26.113  1.00  0.00     0.131 A 
ATOM     51  C   UNL A   1      42.581  23.079  26.145  1.00  0.00     0.055 A 
ATOM     52  C   UNL A   1      43.818  24.819  25.045  1.00  0.00     0.041 A 
ATOM     53  F   UNL A   1      44.026  26.920  26.060  1.00  0.00    -0.206 F 
ATOM     54  C   UNL A   1      43.354  23.510  25.064  1.00  0.00     0.022 A 
BRANCH  51  55
ATOM     55  S   UNL A   1      42.051  21.346  26.241  1.00  0.00     0.124 S 
ATOM     56  O   UNL A   1      40.668  21.430  25.788  1.00  0.00    -0.237 OA
ATOM     57  O   UNL A   1      42.990  20.695  25.333  1.00  0.00    -0.237 OA
ATOM     58  O   UNL A   1      42.225  21.016  27.655  1.00  0.00    -0.744 OA
ENDBRANCH  51  55
ENDBRANCH  24  48
BRANCH  36  59
ATOM     59  C   UNL A   1      45.676  26.140  33.475  1.00  0.00     0.023 A 
ATOM     60  C   UNL A   1      45.466  24.936  34.169  1.00  0.00     0.031 A 
ATOM     61  C   UNL A   1      46.974  26.678  33.454  1.00  0.00     0.131 A 
ATOM     62  C   UNL A   1      46.525  24.342  34.869  1.00  0.00     0.055 A 
ATOM     63  C   UNL A   1      48.039  26.048  34.098  1.00  0.00     0.041 A 
ATOM     64  F   UNL A   1      47.227  27.826  32.806  1.00  0.00    -0.206 F 
ATOM     65  C   UNL A   1      47.813  24.881  34.824  1.00  0.00     0.022 A 
BRANCH  62  66
ATOM     66  S   UNL A   1      46.172  22.911  35.926  1.00  0.00     0.124 S 
ATOM     67  O   UNL A   1      44.985  23.354  36.650  1.00  0.00    -0.237 OA
ATOM     68  O   UNL A   1      45.963  21.846  34.950  1.00  0.00    -0.237 OA
ATOM     69  O   UNL A   1      47.380  22.780  36.738  1.00  0.00    -0.744 OA
ENDBRANCH  62  66
ENDBRANCH  36  59
ENDBRANCH  10  11
ENDBRANCH   3   5
ENDBRANCH   2   3
ENDBRANCH   1   2
BRANCH   1  70
ATOM     70  C   UNL A   1      32.149  29.138  25.952  1.00  0.00     0.275 C 
BRANCH  70  71
ATOM     71  O   UNL A   1      31.907  29.987  24.827  1.00  0.00    -0.458 OA
BRANCH  71  72
ATOM     72  C   UNL A   1      31.629  29.363  23.654  1.00  0.00     0.338 C 
ATOM     73  O   UNL A   1      32.446  28.909  22.867  1.00  0.00    -0.246 OA
BRANCH  72  74
ATOM     74  C   UNL A   1      30.164  29.216  23.475  1.00  0.00     0.067 A 
ATOM     75  C   UNL A   1      29.416  30.404  23.529  1.00  0.00     0.016 A 
ATOM     76  C   UNL A   1      29.523  27.988  23.228  1.00  0.00    -0.010 A 
ATOM     77  C   UNL A   1      28.038  30.381  23.312  1.00  0.00     0.001 A 
ATOM     78  C   UNL A   1      28.127  27.980  23.059  1.00  0.00     0.009 A 
ATOM     79  C   UNL A   1      27.393  29.169  23.086  1.00  0.00     0.001 A 
BRANCH  76  80
ATOM     80  C   UNL A   1      30.243  26.740  22.951  1.00  0.00     0.030 C 
ATOM     81  C   UNL A   1      30.557  25.734  23.771  1.00  0.00     0.081 C 
ATOM     82  S   UNL A   1      30.109  25.460  25.396  1.00  0.00    -0.054 SA
ATOM     83  C   UNL A   1      31.546  24.724  23.322  1.00  0.00     0.266 C 
ATOM     84  C   UNL A   1      31.171  24.055  25.535  1.00  0.00     0.148 C 
ATOM     85  N   UNL A   1      31.784  23.809  24.326  1.00  0.00    -0.288 N 
ATOM     86  O   UNL A   1      32.127  24.783  22.246  1.00  0.00    -0.268 OA
ATOM     87  S   UNL A   1      31.364  23.242  26.979  1.00  0.00    -0.052 S 
BRANCH  85  88
ATOM     88  C   UNL A   1      32.662  22.682  24.022  1.00  0.00     0.163 C 
BRANCH  88  89
ATOM     89  C   UNL A   1      34.112  23.073  24.204  1.00  0.00    -0.028 A 
ATOM     90  C   UNL A   1      34.540  23.717  25.372  1.00  0.00     0.005 A 
ATOM     91  C   UNL A   1      35.067  22.726  23.233  1.00  0.00     0.005 A 
ATOM     92  C   UNL A   1      35.893  23.997  25.569  1.00  0.00     0.000 A 
ATOM     93  C   UNL A   1      36.420  23.001  23.435  1.00  0.00     0.000 A 
ATOM     94  C   UNL A   1      36.831  23.634  24.605  1.00  0.00     0.000 A 
ENDBRANCH  88  89
ENDBRANCH  85  88
ENDBRANCH  76  80
ENDBRANCH  72  74
ENDBRANCH  71  72
ENDBRANCH  70  71
ENDBRANCH   1  70
TORSDOF 17
ENDMDL
