MODEL 1
REMARK VINA RESULT:     -11.9      0.000      0.000
REMARK SMILES Cc1cc(C)cc(CSc2cc(C(=O)OCCOC(=O)c3ccc(-c4c5nc(c(-c6cc(S(=O)(=O)[O-])ccc6F)c6ccc([nH]6)c(-c6cc(S(=O)(=O)[O-])ccc6F)c6nc(c(-c7cc(S(=O)(=O)[O-])ccc7F)c7ccc4[nH]7)C=C6)C=C5)cc3)cc(Cl)n2)c1
REMARK SMILES IDX 16 1 15 2 13 3 14 4 12 5 10 6 11 7 87 8 85 9 84 10 86 11
REMARK SMILES IDX 9 12 8 13 7 14 1 15 2 16 3 17 88 18 4 19 5 20 6 21 17 22
REMARK SMILES IDX 18 23 19 24 20 25 21 26 22 27 83 28 23 29 82 30 24 31 25 32
REMARK SMILES IDX 26 33 76 34 27 35 81 36 75 37 77 38 28 39 80 40 74 41 73 42
REMARK SMILES IDX 29 44 61 45 41 46 60 47 42 48 45 49 59 50 78 51 43 52 44 53
REMARK SMILES IDX 58 55 79 56 46 57 30 58 31 59 39 60 32 61 38 62 40 63 37 64
REMARK SMILES IDX 33 65 34 66 35 67 36 68 62 69 63 70 71 71 64 72 70 73 72 74
REMARK SMILES IDX 69 75 65 76 66 77 67 78 68 79 47 80 48 81 56 82 49 83 55 84
REMARK SMILES IDX 57 85 54 86 50 87 51 88 52 89 53 90
REMARK H PARENT 77 43 45 54
REMARK Flexibility Score: inf
ROOT
ATOM      1  C   UNL A   1      31.748  28.363  27.565  1.00  0.00     0.275 C 
ENDROOT
BRANCH   1   2
ATOM      2  O   UNL A   1      32.632  27.425  26.918  1.00  0.00    -0.458 OA
BRANCH   2   3
ATOM      3  C   UNL A   1      32.037  26.418  26.233  1.00  0.00     0.338 C 
ATOM      4  O   UNL A   1      31.080  25.756  26.588  1.00  0.00    -0.246 OA
BRANCH   3   5
ATOM      5  C   UNL A   1      32.645  26.294  24.891  1.00  0.00     0.065 A 
ATOM      6  C   UNL A   1      33.148  24.909  23.013  1.00  0.00     0.099 A 
ATOM      7  C   UNL A   1      32.717  25.024  24.320  1.00  0.00     0.051 A 
ATOM      8  N   UNL A   1      33.606  25.959  22.306  1.00  0.00    -0.230 NA
ATOM      9  C   UNL A   1      33.603  27.158  22.921  1.00  0.00     0.131 A 
ATOM     10  C   UNL A   1      33.113  27.395  24.189  1.00  0.00     0.056 A 
ATOM     11  Cl  UNL A   1      34.280  28.435  21.995  1.00  0.00    -0.062 Cl
BRANCH   6  12
ATOM     12  S   UNL A   1      32.938  23.355  22.173  1.00  0.00    -0.102 SA
BRANCH  12  13
ATOM     13  C   UNL A   1      32.162  22.372  23.495  1.00  0.00     0.112 C 
BRANCH  13  14
ATOM     14  C   UNL A   1      33.038  21.252  23.993  1.00  0.00    -0.037 A 
ATOM     15  C   UNL A   1      36.601  20.731  25.239  1.00  0.00     0.044 C 
ATOM     16  C   UNL A   1      35.187  20.463  24.821  1.00  0.00    -0.051 A 
ATOM     17  C   UNL A   1      34.704  19.147  24.788  1.00  0.00     0.006 A 
ATOM     18  C   UNL A   1      34.348  21.509  24.418  1.00  0.00     0.008 A 
ATOM     19  C   UNL A   1      33.393  18.872  24.381  1.00  0.00    -0.051 A 
ATOM     20  C   UNL A   1      32.902  17.459  24.301  1.00  0.00     0.044 C 
ATOM     21  C   UNL A   1      32.563  19.932  24.004  1.00  0.00     0.008 A 
ENDBRANCH  13  14
ENDBRANCH  12  13
ENDBRANCH   6  12
ENDBRANCH   3   5
ENDBRANCH   2   3
ENDBRANCH   1   2
BRANCH   1  22
ATOM     22  C   UNL A   1      31.733  29.706  26.834  1.00  0.00     0.275 C 
BRANCH  22  23
ATOM     23  O   UNL A   1      33.072  30.129  26.519  1.00  0.00    -0.458 OA
BRANCH  23  24
ATOM     24  C   UNL A   1      33.523  31.189  27.228  1.00  0.00     0.338 C 
ATOM     25  O   UNL A   1      32.906  32.199  27.520  1.00  0.00    -0.246 OA
BRANCH  24  26
ATOM     26  C   UNL A   1      34.896  30.927  27.681  1.00  0.00     0.060 A 
ATOM     27  C   UNL A   1      35.243  29.623  28.019  1.00  0.00     0.016 A 
ATOM     28  C   UNL A   1      35.790  31.971  27.904  1.00  0.00     0.016 A 
ATOM     29  C   UNL A   1      36.437  29.362  28.685  1.00  0.00     0.010 A 
ATOM     30  C   UNL A   1      37.040  31.689  28.470  1.00  0.00     0.010 A 
ATOM     31  C   UNL A   1      37.366  30.387  28.900  1.00  0.00    -0.014 A 
BRANCH  31  32
ATOM     32  C   UNL A   1      38.665  30.123  29.587  1.00  0.00     0.031 A 
ATOM     33  C   UNL A   1      39.651  29.164  28.973  1.00  0.00     0.074 A 
ATOM     34  C   UNL A   1      38.958  30.714  30.765  1.00  0.00     0.049 A 
ATOM     35  N   UNL A   1      40.680  28.567  29.517  1.00  0.00    -0.248 NA
ATOM     36  C   UNL A   1      39.430  28.815  27.562  1.00  0.00     0.031 C 
ATOM     37  C   UNL A   1      38.139  31.724  31.438  1.00  0.00     0.029 A 
ATOM     38  N   UNL A   1      40.025  30.538  31.614  1.00  0.00    -0.354 N 
ATOM     39  C   UNL A   1      41.192  27.723  28.537  1.00  0.00     0.074 A 
ATOM     40  C   UNL A   1      40.355  27.886  27.366  1.00  0.00     0.031 C 
ATOM     41  C   UNL A   1      38.738  32.088  32.582  1.00  0.00     0.029 A 
ATOM     42  C   UNL A   1      39.921  31.261  32.782  1.00  0.00     0.049 A 
ATOM     43  H   UNL A   1      40.790  29.954  31.407  1.00  0.00     0.167 HD
ATOM     44  C   UNL A   1      42.257  26.885  28.616  1.00  0.00     0.034 A 
ATOM     45  C   UNL A   1      40.646  31.214  33.918  1.00  0.00     0.034 A 
ATOM     46  C   UNL A   1      43.103  26.775  29.781  1.00  0.00     0.049 A 
ATOM     47  C   UNL A   1      41.784  30.231  34.013  1.00  0.00     0.074 A 
ATOM     48  C   UNL A   1      44.208  25.964  29.974  1.00  0.00     0.029 A 
ATOM     49  N   UNL A   1      42.944  27.510  30.949  1.00  0.00    -0.354 N 
ATOM     50  N   UNL A   1      42.204  29.368  33.118  1.00  0.00    -0.248 NA
ATOM     51  C   UNL A   1      42.535  30.203  35.276  1.00  0.00     0.031 C 
ATOM     52  C   UNL A   1      44.680  26.166  31.275  1.00  0.00     0.029 A 
ATOM     53  C   UNL A   1      43.917  27.157  31.870  1.00  0.00     0.049 A 
ATOM     54  H   UNL A   1      42.241  28.182  31.101  1.00  0.00     0.167 HD
ATOM     55  C   UNL A   1      43.287  28.715  33.698  1.00  0.00     0.074 A 
ATOM     56  C   UNL A   1      43.456  29.284  35.019  1.00  0.00     0.031 C 
ATOM     57  C   UNL A   1      44.074  27.740  33.181  1.00  0.00     0.034 A 
BRANCH  44  58
ATOM     58  C   UNL A   1      42.518  25.971  27.440  1.00  0.00     0.023 A 
ATOM     59  C   UNL A   1      42.002  24.666  27.372  1.00  0.00     0.031 A 
ATOM     60  C   UNL A   1      43.327  26.413  26.375  1.00  0.00     0.131 A 
ATOM     61  C   UNL A   1      42.357  23.828  26.303  1.00  0.00     0.055 A 
ATOM     62  C   UNL A   1      43.610  25.602  25.276  1.00  0.00     0.041 A 
ATOM     63  F   UNL A   1      43.867  27.642  26.393  1.00  0.00    -0.206 F 
ATOM     64  C   UNL A   1      43.137  24.295  25.242  1.00  0.00     0.022 A 
BRANCH  61  65
ATOM     65  S   UNL A   1      41.903  22.074  26.386  1.00  0.00     0.124 S 
ATOM     66  O   UNL A   1      40.470  22.128  26.109  1.00  0.00    -0.237 OA
ATOM     67  O   UNL A   1      42.734  21.484  25.343  1.00  0.00    -0.237 OA
ATOM     68  O   UNL A   1      42.253  21.693  27.753  1.00  0.00    -0.744 OA
ENDBRANCH  61  65
ENDBRANCH  44  58
BRANCH  45  69
ATOM     69  C   UNL A   1      40.269  32.063  35.085  1.00  0.00     0.023 A 
ATOM     70  C   UNL A   1      39.326  31.625  36.027  1.00  0.00     0.031 A 
ATOM     71  C   UNL A   1      40.833  33.342  35.261  1.00  0.00     0.131 A 
ATOM     72  C   UNL A   1      38.954  32.469  37.087  1.00  0.00     0.055 A 
ATOM     73  C   UNL A   1      40.501  34.153  36.347  1.00  0.00     0.041 A 
ATOM     74  F   UNL A   1      41.736  33.812  34.387  1.00  0.00    -0.206 F 
ATOM     75  C   UNL A   1      39.548  33.721  37.262  1.00  0.00     0.022 A 
BRANCH  72  76
ATOM     76  S   UNL A   1      37.623  31.935  38.196  1.00  0.00     0.124 S 
ATOM     77  O   UNL A   1      38.274  32.013  39.499  1.00  0.00    -0.237 OA
ATOM     78  O   UNL A   1      36.591  32.934  37.933  1.00  0.00    -0.237 OA
ATOM     79  O   UNL A   1      37.314  30.585  37.732  1.00  0.00    -0.744 OA
ENDBRANCH  72  76
ENDBRANCH  45  69
BRANCH  57  80
ATOM     80  C   UNL A   1      45.240  27.282  34.019  1.00  0.00     0.023 A 
ATOM     81  C   UNL A   1      45.136  26.202  34.912  1.00  0.00     0.031 A 
ATOM     82  C   UNL A   1      46.480  27.934  33.901  1.00  0.00     0.131 A 
ATOM     83  C   UNL A   1      46.250  25.825  35.679  1.00  0.00     0.055 A 
ATOM     84  C   UNL A   1      47.596  27.526  34.631  1.00  0.00     0.041 A 
ATOM     85  F   UNL A   1      46.627  28.972  33.062  1.00  0.00    -0.206 F 
ATOM     86  C   UNL A   1      47.482  26.471  35.531  1.00  0.00     0.022 A 
BRANCH  83  87
ATOM     87  S   UNL A   1      46.060  24.507  36.910  1.00  0.00     0.124 S 
ATOM     88  O   UNL A   1      44.620  24.274  36.882  1.00  0.00    -0.237 OA
ATOM     89  O   UNL A   1      46.891  23.442  36.360  1.00  0.00    -0.237 OA
ATOM     90  O   UNL A   1      46.567  25.111  38.141  1.00  0.00    -0.744 OA
ENDBRANCH  83  87
ENDBRANCH  57  80
ENDBRANCH  31  32
ENDBRANCH  24  26
ENDBRANCH  23  24
ENDBRANCH  22  23
ENDBRANCH   1  22
TORSDOF 17
ENDMDL
MODEL 2
REMARK VINA RESULT:     -11.8      5.263     10.283
REMARK SMILES Cc1cc(C)cc(CSc2cc(C(=O)OCCOC(=O)c3ccc(-c4c5nc(c(-c6cc(S(=O)(=O)[O-])ccc6F)c6ccc([nH]6)c(-c6cc(S(=O)(=O)[O-])ccc6F)c6nc(c(-c7cc(S(=O)(=O)[O-])ccc7F)c7ccc4[nH]7)C=C6)C=C5)cc3)cc(Cl)n2)c1
REMARK SMILES IDX 16 1 15 2 13 3 14 4 12 5 10 6 11 7 87 8 85 9 84 10 86 11
REMARK SMILES IDX 9 12 8 13 7 14 1 15 2 16 3 17 88 18 4 19 5 20 6 21 17 22
REMARK SMILES IDX 18 23 19 24 20 25 21 26 22 27 83 28 23 29 82 30 24 31 25 32
REMARK SMILES IDX 26 33 76 34 27 35 81 36 75 37 77 38 28 39 80 40 74 41 73 42
REMARK SMILES IDX 29 44 61 45 41 46 60 47 42 48 45 49 59 50 78 51 43 52 44 53
REMARK SMILES IDX 58 55 79 56 46 57 30 58 31 59 39 60 32 61 38 62 40 63 37 64
REMARK SMILES IDX 33 65 34 66 35 67 36 68 62 69 63 70 71 71 64 72 70 73 72 74
REMARK SMILES IDX 69 75 65 76 66 77 67 78 68 79 47 80 48 81 56 82 49 83 55 84
REMARK SMILES IDX 57 85 54 86 50 87 51 88 52 89 53 90
REMARK H PARENT 77 43 45 54
REMARK Flexibility Score: inf
ROOT
ATOM      1  C   UNL A   1      35.169  21.889  25.415  1.00  0.00     0.275 C 
ENDROOT
BRANCH   1   2
ATOM      2  O   UNL A   1      35.543  23.258  25.159  1.00  0.00    -0.458 OA
BRANCH   2   3
ATOM      3  C   UNL A   1      35.148  23.773  23.969  1.00  0.00     0.338 C 
ATOM      4  O   UNL A   1      35.330  23.292  22.866  1.00  0.00    -0.246 OA
BRANCH   3   5
ATOM      5  C   UNL A   1      34.328  24.983  24.192  1.00  0.00     0.065 A 
ATOM      6  C   UNL A   1      32.588  26.424  23.421  1.00  0.00     0.099 A 
ATOM      7  C   UNL A   1      33.463  25.384  23.175  1.00  0.00     0.051 A 
ATOM      8  N   UNL A   1      32.613  27.137  24.563  1.00  0.00    -0.230 NA
ATOM      9  C   UNL A   1      33.521  26.775  25.490  1.00  0.00     0.131 A 
ATOM     10  C   UNL A   1      34.379  25.700  25.379  1.00  0.00     0.056 A 
ATOM     11  Cl  UNL A   1      33.557  27.778  26.882  1.00  0.00    -0.062 Cl
BRANCH   6  12
ATOM     12  S   UNL A   1      31.271  26.730  22.265  1.00  0.00    -0.102 SA
BRANCH  12  13
ATOM     13  C   UNL A   1      31.306  28.550  22.205  1.00  0.00     0.112 C 
BRANCH  13  14
ATOM     14  C   UNL A   1      29.973  29.178  22.522  1.00  0.00    -0.037 A 
ATOM     15  C   UNL A   1      26.484  28.111  23.617  1.00  0.00     0.044 C 
ATOM     16  C   UNL A   1      27.643  28.960  23.190  1.00  0.00    -0.051 A 
ATOM     17  C   UNL A   1      27.464  30.333  22.978  1.00  0.00     0.006 A 
ATOM     18  C   UNL A   1      28.900  28.389  22.956  1.00  0.00     0.008 A 
ATOM     19  C   UNL A   1      28.528  31.140  22.559  1.00  0.00    -0.051 A 
ATOM     20  C   UNL A   1      28.316  32.599  22.287  1.00  0.00     0.044 C 
ATOM     21  C   UNL A   1      29.782  30.558  22.353  1.00  0.00     0.008 A 
ENDBRANCH  13  14
ENDBRANCH  12  13
ENDBRANCH   6  12
ENDBRANCH   3   5
ENDBRANCH   2   3
ENDBRANCH   1   2
BRANCH   1  22
ATOM     22  C   UNL A   1      36.380  20.958  25.337  1.00  0.00     0.275 C 
BRANCH  22  23
ATOM     23  O   UNL A   1      37.579  21.705  25.062  1.00  0.00    -0.458 OA
BRANCH  23  24
ATOM     24  C   UNL A   1      38.680  21.295  25.732  1.00  0.00     0.338 C 
ATOM     25  O   UNL A   1      39.165  20.176  25.742  1.00  0.00    -0.246 OA
BRANCH  24  26
ATOM     26  C   UNL A   1      39.288  22.440  26.424  1.00  0.00     0.060 A 
ATOM     27  C   UNL A   1      38.869  23.720  26.077  1.00  0.00     0.016 A 
ATOM     28  C   UNL A   1      40.355  22.264  27.301  1.00  0.00     0.016 A 
ATOM     29  C   UNL A   1      39.579  24.836  26.513  1.00  0.00     0.010 A 
ATOM     30  C   UNL A   1      40.995  23.392  27.831  1.00  0.00     0.010 A 
ATOM     31  C   UNL A   1      40.638  24.691  27.416  1.00  0.00    -0.014 A 
BRANCH  31  32
ATOM     32  C   UNL A   1      41.395  25.876  27.917  1.00  0.00     0.031 A 
ATOM     33  C   UNL A   1      40.685  26.920  28.740  1.00  0.00     0.074 A 
ATOM     34  C   UNL A   1      42.703  26.038  27.625  1.00  0.00     0.049 A 
ATOM     35  N   UNL A   1      41.048  28.144  29.023  1.00  0.00    -0.248 NA
ATOM     36  C   UNL A   1      39.380  26.536  29.296  1.00  0.00     0.031 C 
ATOM     37  C   UNL A   1      43.541  25.074  26.909  1.00  0.00     0.029 A 
ATOM     38  N   UNL A   1      43.556  27.086  27.882  1.00  0.00    -0.354 N 
ATOM     39  C   UNL A   1      39.989  28.700  29.735  1.00  0.00     0.074 A 
ATOM     40  C   UNL A   1      38.970  27.675  29.836  1.00  0.00     0.031 C 
ATOM     41  C   UNL A   1      44.785  25.565  26.799  1.00  0.00     0.029 A 
ATOM     42  C   UNL A   1      44.808  26.922  27.332  1.00  0.00     0.049 A 
ATOM     43  H   UNL A   1      43.297  27.876  28.409  1.00  0.00     0.167 HD
ATOM     44  C   UNL A   1      39.880  29.952  30.246  1.00  0.00     0.034 A 
ATOM     45  C   UNL A   1      45.836  27.784  27.202  1.00  0.00     0.034 A 
ATOM     46  C   UNL A   1      40.930  30.940  30.172  1.00  0.00     0.049 A 
ATOM     47  C   UNL A   1      45.674  29.190  27.717  1.00  0.00     0.074 A 
ATOM     48  C   UNL A   1      40.933  32.238  30.655  1.00  0.00     0.029 A 
ATOM     49  N   UNL A   1      42.172  30.736  29.585  1.00  0.00    -0.354 N 
ATOM     50  N   UNL A   1      44.635  29.738  28.303  1.00  0.00    -0.248 NA
ATOM     51  C   UNL A   1      46.813  30.100  27.537  1.00  0.00     0.031 C 
ATOM     52  C   UNL A   1      42.151  32.833  30.310  1.00  0.00     0.029 A 
ATOM     53  C   UNL A   1      42.939  31.886  29.676  1.00  0.00     0.049 A 
ATOM     54  H   UNL A   1      42.465  29.896  29.162  1.00  0.00     0.167 HD
ATOM     55  C   UNL A   1      45.008  31.047  28.590  1.00  0.00     0.074 A 
ATOM     56  C   UNL A   1      46.366  31.208  28.112  1.00  0.00     0.031 C 
ATOM     57  C   UNL A   1      44.294  32.025  29.200  1.00  0.00     0.034 A 
BRANCH  44  58
ATOM     58  C   UNL A   1      38.556  30.344  30.863  1.00  0.00     0.023 A 
ATOM     59  C   UNL A   1      37.546  30.988  30.129  1.00  0.00     0.031 A 
ATOM     60  C   UNL A   1      38.316  30.088  32.227  1.00  0.00     0.131 A 
ATOM     61  C   UNL A   1      36.376  31.416  30.776  1.00  0.00     0.055 A 
ATOM     62  C   UNL A   1      37.116  30.445  32.845  1.00  0.00     0.041 A 
ATOM     63  F   UNL A   1      39.251  29.495  32.986  1.00  0.00    -0.206 F 
ATOM     64  C   UNL A   1      36.144  31.127  32.124  1.00  0.00     0.022 A 
BRANCH  61  65
ATOM     65  S   UNL A   1      35.222  32.482  29.870  1.00  0.00     0.124 S 
ATOM     66  O   UNL A   1      36.103  33.557  29.423  1.00  0.00    -0.237 OA
ATOM     67  O   UNL A   1      34.722  31.590  28.829  1.00  0.00    -0.237 OA
ATOM     68  O   UNL A   1      34.242  32.868  30.883  1.00  0.00    -0.744 OA
ENDBRANCH  61  65
ENDBRANCH  44  58
BRANCH  45  69
ATOM     69  C   UNL A   1      47.076  27.370  26.484  1.00  0.00     0.023 A 
ATOM     70  C   UNL A   1      47.266  27.673  25.127  1.00  0.00     0.031 A 
ATOM     71  C   UNL A   1      48.085  26.641  27.144  1.00  0.00     0.131 A 
ATOM     72  C   UNL A   1      48.422  27.225  24.466  1.00  0.00     0.055 A 
ATOM     73  C   UNL A   1      49.257  26.247  26.497  1.00  0.00     0.041 A 
ATOM     74  F   UNL A   1      47.953  26.321  28.441  1.00  0.00    -0.206 F 
ATOM     75  C   UNL A   1      49.424  26.530  25.146  1.00  0.00     0.022 A 
BRANCH  72  76
ATOM     76  S   UNL A   1      48.563  27.499  22.679  1.00  0.00     0.124 S 
ATOM     77  O   UNL A   1      47.334  28.231  22.394  1.00  0.00    -0.237 OA
ATOM     78  O   UNL A   1      49.802  28.265  22.588  1.00  0.00    -0.237 OA
ATOM     79  O   UNL A   1      48.626  26.147  22.131  1.00  0.00    -0.744 OA
ENDBRANCH  72  76
ENDBRANCH  45  69
BRANCH  57  80
ATOM     80  C   UNL A   1      44.998  33.333  29.456  1.00  0.00     0.023 A 
ATOM     81  C   UNL A   1      44.998  34.375  28.514  1.00  0.00     0.031 A 
ATOM     82  C   UNL A   1      45.665  33.536  30.677  1.00  0.00     0.131 A 
ATOM     83  C   UNL A   1      45.681  35.568  28.798  1.00  0.00     0.055 A 
ATOM     84  C   UNL A   1      46.303  34.740  30.973  1.00  0.00     0.041 A 
ATOM     85  F   UNL A   1      45.694  32.569  31.608  1.00  0.00    -0.206 F 
ATOM     86  C   UNL A   1      46.320  35.762  30.027  1.00  0.00     0.022 A 
BRANCH  83  87
ATOM     87  S   UNL A   1      45.768  36.853  27.521  1.00  0.00     0.124 S 
ATOM     88  O   UNL A   1      45.357  38.042  28.261  1.00  0.00    -0.237 OA
ATOM     89  O   UNL A   1      47.169  36.803  27.119  1.00  0.00    -0.237 OA
ATOM     90  O   UNL A   1      44.819  36.395  26.508  1.00  0.00    -0.744 OA
ENDBRANCH  83  87
ENDBRANCH  57  80
ENDBRANCH  31  32
ENDBRANCH  24  26
ENDBRANCH  23  24
ENDBRANCH  22  23
ENDBRANCH   1  22
TORSDOF 17
ENDMDL
MODEL 3
REMARK VINA RESULT:     -11.6      5.053      8.165
REMARK SMILES Cc1cc(C)cc(CSc2cc(C(=O)OCCOC(=O)c3ccc(-c4c5nc(c(-c6cc(S(=O)(=O)[O-])ccc6F)c6ccc([nH]6)c(-c6cc(S(=O)(=O)[O-])ccc6F)c6nc(c(-c7cc(S(=O)(=O)[O-])ccc7F)c7ccc4[nH]7)C=C6)C=C5)cc3)cc(Cl)n2)c1
REMARK SMILES IDX 16 1 15 2 13 3 14 4 12 5 10 6 11 7 87 8 85 9 84 10 86 11
REMARK SMILES IDX 9 12 8 13 7 14 1 15 2 16 3 17 88 18 4 19 5 20 6 21 17 22
REMARK SMILES IDX 18 23 19 24 20 25 21 26 22 27 83 28 23 29 82 30 24 31 25 32
REMARK SMILES IDX 26 33 76 34 27 35 81 36 75 37 77 38 28 39 80 40 74 41 73 42
REMARK SMILES IDX 29 44 61 45 41 46 60 47 42 48 45 49 59 50 78 51 43 52 44 53
REMARK SMILES IDX 58 55 79 56 46 57 30 58 31 59 39 60 32 61 38 62 40 63 37 64
REMARK SMILES IDX 33 65 34 66 35 67 36 68 62 69 63 70 71 71 64 72 70 73 72 74
REMARK SMILES IDX 69 75 65 76 66 77 67 78 68 79 47 80 48 81 56 82 49 83 55 84
REMARK SMILES IDX 57 85 54 86 50 87 51 88 52 89 53 90
REMARK H PARENT 77 43 45 54
REMARK Flexibility Score: inf
ROOT
ATOM      1  C   UNL A   1      37.951  19.944  24.689  1.00  0.00     0.275 C 
ENDROOT
BRANCH   1   2
ATOM      2  O   UNL A   1      36.928  20.594  25.471  1.00  0.00    -0.458 OA
BRANCH   2   3
ATOM      3  C   UNL A   1      36.122  21.455  24.802  1.00  0.00     0.338 C 
ATOM      4  O   UNL A   1      36.468  22.390  24.104  1.00  0.00    -0.246 OA
BRANCH   3   5
ATOM      5  C   UNL A   1      34.712  21.031  24.932  1.00  0.00     0.065 A 
ATOM      6  C   UNL A   1      32.426  21.652  25.233  1.00  0.00     0.099 A 
ATOM      7  C   UNL A   1      33.763  22.002  25.248  1.00  0.00     0.051 A 
ATOM      8  N   UNL A   1      32.011  20.386  25.032  1.00  0.00    -0.230 NA
ATOM      9  C   UNL A   1      32.963  19.458  24.816  1.00  0.00     0.131 A 
ATOM     10  C   UNL A   1      34.315  19.717  24.725  1.00  0.00     0.056 A 
ATOM     11  Cl  UNL A   1      32.371  17.855  24.655  1.00  0.00    -0.062 Cl
BRANCH   6  12
ATOM     12  S   UNL A   1      31.201  22.938  25.311  1.00  0.00    -0.102 SA
BRANCH  12  13
ATOM     13  C   UNL A   1      32.101  24.187  26.284  1.00  0.00     0.112 C 
BRANCH  13  14
ATOM     14  C   UNL A   1      31.859  25.596  25.809  1.00  0.00    -0.037 A 
ATOM     15  C   UNL A   1      31.921  29.143  27.199  1.00  0.00     0.044 C 
ATOM     16  C   UNL A   1      31.760  27.986  26.260  1.00  0.00    -0.051 A 
ATOM     17  C   UNL A   1      31.277  28.201  24.962  1.00  0.00     0.006 A 
ATOM     18  C   UNL A   1      32.045  26.681  26.677  1.00  0.00     0.008 A 
ATOM     19  C   UNL A   1      31.100  27.132  24.076  1.00  0.00    -0.051 A 
ATOM     20  C   UNL A   1      30.536  27.364  22.707  1.00  0.00     0.044 C 
ATOM     21  C   UNL A   1      31.411  25.837  24.502  1.00  0.00     0.008 A 
ENDBRANCH  13  14
ENDBRANCH  12  13
ENDBRANCH   6  12
ENDBRANCH   3   5
ENDBRANCH   2   3
ENDBRANCH   1   2
BRANCH   1  22
ATOM     22  C   UNL A   1      39.021  19.321  25.587  1.00  0.00     0.275 C 
BRANCH  22  23
ATOM     23  O   UNL A   1      40.130  20.222  25.759  1.00  0.00    -0.458 OA
BRANCH  23  24
ATOM     24  C   UNL A   1      40.561  20.367  27.032  1.00  0.00     0.338 C 
ATOM     25  O   UNL A   1      40.814  19.484  27.833  1.00  0.00    -0.246 OA
BRANCH  24  26
ATOM     26  C   UNL A   1      40.764  21.794  27.321  1.00  0.00     0.060 A 
ATOM     27  C   UNL A   1      40.092  22.729  26.540  1.00  0.00     0.016 A 
ATOM     28  C   UNL A   1      41.708  22.210  28.256  1.00  0.00     0.016 A 
ATOM     29  C   UNL A   1      40.435  24.076  26.603  1.00  0.00     0.010 A 
ATOM     30  C   UNL A   1      41.969  23.579  28.399  1.00  0.00     0.010 A 
ATOM     31  C   UNL A   1      41.362  24.526  27.550  1.00  0.00    -0.014 A 
BRANCH  31  32
ATOM     32  C   UNL A   1      41.723  25.971  27.654  1.00  0.00     0.031 A 
ATOM     33  C   UNL A   1      43.025  26.457  27.070  1.00  0.00     0.074 A 
ATOM     34  C   UNL A   1      40.912  26.846  28.285  1.00  0.00     0.049 A 
ATOM     35  N   UNL A   1      43.672  27.571  27.291  1.00  0.00    -0.248 NA
ATOM     36  C   UNL A   1      43.695  25.550  26.126  1.00  0.00     0.031 C 
ATOM     37  C   UNL A   1      39.587  26.539  28.827  1.00  0.00     0.029 A 
ATOM     38  N   UNL A   1      41.091  28.175  28.589  1.00  0.00    -0.354 N 
ATOM     39  C   UNL A   1      44.857  27.475  26.567  1.00  0.00     0.074 A 
ATOM     40  C   UNL A   1      44.836  26.188  25.903  1.00  0.00     0.031 C 
ATOM     41  C   UNL A   1      39.069  27.645  29.382  1.00  0.00     0.029 A 
ATOM     42  C   UNL A   1      40.065  28.709  29.337  1.00  0.00     0.049 A 
ATOM     43  H   UNL A   1      41.875  28.695  28.301  1.00  0.00     0.167 HD
ATOM     44  C   UNL A   1      45.867  28.375  26.478  1.00  0.00     0.034 A 
ATOM     45  C   UNL A   1      39.960  29.890  29.979  1.00  0.00     0.034 A 
ATOM     46  C   UNL A   1      45.842  29.671  27.115  1.00  0.00     0.049 A 
ATOM     47  C   UNL A   1      41.119  30.851  29.924  1.00  0.00     0.074 A 
ATOM     48  C   UNL A   1      46.806  30.665  27.092  1.00  0.00     0.029 A 
ATOM     49  N   UNL A   1      44.792  30.158  27.881  1.00  0.00    -0.354 N 
ATOM     50  N   UNL A   1      42.275  30.713  29.317  1.00  0.00    -0.248 NA
ATOM     51  C   UNL A   1      40.968  32.117  30.653  1.00  0.00     0.031 C 
ATOM     52  C   UNL A   1      46.364  31.725  27.890  1.00  0.00     0.029 A 
ATOM     53  C   UNL A   1      45.092  31.427  28.351  1.00  0.00     0.049 A 
ATOM     54  H   UNL A   1      43.955  29.673  28.066  1.00  0.00     0.167 HD
ATOM     55  C   UNL A   1      42.976  31.889  29.566  1.00  0.00     0.074 A 
ATOM     56  C   UNL A   1      42.115  32.724  30.378  1.00  0.00     0.031 C 
ATOM     57  C   UNL A   1      44.217  32.247  29.154  1.00  0.00     0.034 A 
BRANCH  44  58
ATOM     58  C   UNL A   1      47.112  27.960  25.726  1.00  0.00     0.023 A 
ATOM     59  C   UNL A   1      47.256  28.159  24.343  1.00  0.00     0.031 A 
ATOM     60  C   UNL A   1      48.166  27.326  26.412  1.00  0.00     0.131 A 
ATOM     61  C   UNL A   1      48.391  27.666  23.680  1.00  0.00     0.055 A 
ATOM     62  C   UNL A   1      49.328  26.910  25.760  1.00  0.00     0.041 A 
ATOM     63  F   UNL A   1      48.078  27.088  27.730  1.00  0.00    -0.206 F 
ATOM     64  C   UNL A   1      49.439  27.065  24.383  1.00  0.00     0.022 A 
BRANCH  61  65
ATOM     65  S   UNL A   1      48.419  27.692  21.867  1.00  0.00     0.124 S 
ATOM     66  O   UNL A   1      47.098  28.235  21.560  1.00  0.00    -0.237 OA
ATOM     67  O   UNL A   1      49.552  28.566  21.581  1.00  0.00    -0.237 OA
ATOM     68  O   UNL A   1      48.607  26.289  21.505  1.00  0.00    -0.744 OA
ENDBRANCH  61  65
ENDBRANCH  44  58
BRANCH  45  69
ATOM     69  C   UNL A   1      38.751  30.195  30.797  1.00  0.00     0.023 A 
ATOM     70  C   UNL A   1      37.695  30.958  30.278  1.00  0.00     0.031 A 
ATOM     71  C   UNL A   1      38.645  29.743  32.127  1.00  0.00     0.131 A 
ATOM     72  C   UNL A   1      36.593  31.272  31.091  1.00  0.00     0.055 A 
ATOM     73  C   UNL A   1      37.523  30.010  32.912  1.00  0.00     0.041 A 
ATOM     74  F   UNL A   1      39.628  29.012  32.676  1.00  0.00    -0.206 F 
ATOM     75  C   UNL A   1      36.493  30.788  32.397  1.00  0.00     0.022 A 
BRANCH  72  76
ATOM     76  S   UNL A   1      35.321  32.388  30.438  1.00  0.00     0.124 S 
ATOM     77  O   UNL A   1      34.387  32.457  31.555  1.00  0.00    -0.237 OA
ATOM     78  O   UNL A   1      36.091  33.599  30.168  1.00  0.00    -0.237 OA
ATOM     79  O   UNL A   1      34.829  31.687  29.255  1.00  0.00    -0.744 OA
ENDBRANCH  72  76
ENDBRANCH  45  69
BRANCH  57  80
ATOM     80  C   UNL A   1      44.685  33.635  29.509  1.00  0.00     0.023 A 
ATOM     81  C   UNL A   1      44.353  34.755  28.729  1.00  0.00     0.031 A 
ATOM     82  C   UNL A   1      45.463  33.833  30.664  1.00  0.00     0.131 A 
ATOM     83  C   UNL A   1      44.827  36.024  29.098  1.00  0.00     0.055 A 
ATOM     84  C   UNL A   1      45.891  35.102  31.052  1.00  0.00     0.041 A 
ATOM     85  F   UNL A   1      45.806  32.793  31.441  1.00  0.00    -0.206 F 
ATOM     86  C   UNL A   1      45.580  36.205  30.262  1.00  0.00     0.022 A 
BRANCH  83  87
ATOM     87  S   UNL A   1      44.486  37.435  28.011  1.00  0.00     0.124 S 
ATOM     88  O   UNL A   1      45.811  38.030  27.865  1.00  0.00    -0.237 OA
ATOM     89  O   UNL A   1      43.941  36.792  26.821  1.00  0.00    -0.237 OA
ATOM     90  O   UNL A   1      43.529  38.234  28.775  1.00  0.00    -0.744 OA
ENDBRANCH  83  87
ENDBRANCH  57  80
ENDBRANCH  31  32
ENDBRANCH  24  26
ENDBRANCH  23  24
ENDBRANCH  22  23
ENDBRANCH   1  22
TORSDOF 17
ENDMDL
