MODEL 1
REMARK VINA RESULT:     -12.0      0.000      0.000
REMARK SMILES O=C(CCCN1C(=O)C(=O)/C(=C(\[O-])c2ccccc2)[C@H]1c1ccc([N+](=O)[O-])cc1)OCCOC(=O)c1ccc(-c2c3nc(c(-c4cc(S(=O)(=O)[O-])ccc4F)c4ccc([nH]4)c(-c4cc(S(=O)(=O)[O-])ccc4F)c4nc(c(-c5cc(S(=O)(=O)[O-])ccc5F)c5ccc2[nH]5)C=C4)C=C3)cc1
REMARK SMILES IDX 31 1 30 2 2 3 1 4 3 5 4 6 5 7 6 8 7 9 20 10 8 11 9 12 11 13
REMARK SMILES IDX 10 14 12 15 13 16 21 17 22 18 29 19 23 20 28 21 24 22 25 23
REMARK SMILES IDX 26 24 27 25 14 26 15 27 19 28 16 29 18 30 17 31 32 32 33 33
REMARK SMILES IDX 34 34 35 35 36 36 37 37 98 38 38 39 97 40 39 41 40 42 41 43
REMARK SMILES IDX 91 44 42 45 96 46 90 47 92 48 43 49 95 50 89 51 88 52 44 54
REMARK SMILES IDX 76 55 56 56 75 57 57 58 60 59 74 60 93 61 58 62 59 63 73 65
REMARK SMILES IDX 94 66 61 67 45 68 46 69 54 70 47 71 53 72 55 73 52 74 48 75
REMARK SMILES IDX 49 76 50 77 51 78 77 79 78 80 86 81 79 82 85 83 87 84 84 85
REMARK SMILES IDX 80 86 81 87 82 88 83 89 62 90 63 91 71 92 64 93 70 94 72 95
REMARK SMILES IDX 69 96 65 97 66 98 67 99 68 100
REMARK H PARENT 92 53 60 64
REMARK Flexibility Score: inf
ROOT
ATOM      1  C   UNL A   1      36.157  19.691  24.984  1.00  0.00     0.274 C 
ENDROOT
BRANCH   1   2
ATOM      2  O   UNL A   1      35.304  20.778  25.388  1.00  0.00    -0.462 OA
BRANCH   2   3
ATOM      3  C   UNL A   1      34.568  21.535  24.543  1.00  0.00     0.305 C 
ATOM      4  O   UNL A   1      33.402  21.234  24.297  1.00  0.00    -0.252 OA
BRANCH   3   5
ATOM      5  C   UNL A   1      35.194  22.752  23.903  1.00  0.00     0.124 C 
BRANCH   5   6
ATOM      6  C   UNL A   1      35.242  23.954  24.838  1.00  0.00     0.033 C 
BRANCH   6   7
ATOM      7  C   UNL A   1      34.569  23.740  26.191  1.00  0.00     0.121 C 
BRANCH   7   8
ATOM      8  N   UNL A   1      33.276  24.375  26.443  1.00  0.00    -0.325 N 
ATOM      9  C   UNL A   1      32.314  23.647  27.128  1.00  0.00     0.295 C 
ATOM     10  C   UNL A   1      32.693  25.432  25.614  1.00  0.00     0.150 C 
ATOM     11  O   UNL A   1      32.470  22.711  27.884  1.00  0.00    -0.265 OA
ATOM     12  C   UNL A   1      30.950  24.157  26.667  1.00  0.00     0.248 C 
ATOM     13  C   UNL A   1      31.197  25.176  25.632  1.00  0.00     0.025 C 
ATOM     14  O   UNL A   1      29.864  23.820  27.093  1.00  0.00    -0.283 OA
ATOM     15  C   UNL A   1      30.199  25.832  25.013  1.00  0.00    -0.092 C 
ATOM     16  O   UNL A   1      28.861  25.604  25.265  1.00  0.00    -0.872 OA
BRANCH  10  17
ATOM     17  C   UNL A   1      32.956  26.835  26.161  1.00  0.00    -0.020 A 
ATOM     18  C   UNL A   1      32.240  27.333  27.274  1.00  0.00     0.013 A 
ATOM     19  C   UNL A   1      33.767  27.719  25.431  1.00  0.00     0.013 A 
ATOM     20  C   UNL A   1      32.274  28.688  27.602  1.00  0.00     0.086 A 
ATOM     21  C   UNL A   1      33.785  29.079  25.738  1.00  0.00     0.086 A 
ATOM     22  C   UNL A   1      33.037  29.557  26.820  1.00  0.00     0.269 A 
BRANCH  22  23
ATOM     23  N   UNL A   1      33.082  30.977  27.166  1.00  0.00     0.062 N 
ATOM     24  O   UNL A   1      32.128  31.681  26.815  1.00  0.00    -0.258 OA
ATOM     25  O   UNL A   1      34.086  31.379  27.771  1.00  0.00    -0.258 OA
ENDBRANCH  22  23
ENDBRANCH  10  17
BRANCH  15  26
ATOM     26  C   UNL A   1      30.460  26.986  24.133  1.00  0.00    -0.033 A 
ATOM     27  C   UNL A   1      30.921  26.763  22.826  1.00  0.00     0.007 A 
ATOM     28  C   UNL A   1      30.147  28.294  24.527  1.00  0.00     0.007 A 
ATOM     29  C   UNL A   1      31.011  27.818  21.915  1.00  0.00     0.001 A 
ATOM     30  C   UNL A   1      30.235  29.348  23.613  1.00  0.00     0.001 A 
ATOM     31  C   UNL A   1      30.655  29.107  22.306  1.00  0.00     0.000 A 
ENDBRANCH  15  26
ENDBRANCH   7   8
ENDBRANCH   6   7
ENDBRANCH   5   6
ENDBRANCH   3   5
ENDBRANCH   2   3
ENDBRANCH   1   2
BRANCH   1  32
ATOM     32  C   UNL A   1      37.579  20.140  24.649  1.00  0.00     0.275 C 
BRANCH  32  33
ATOM     33  O   UNL A   1      38.010  21.218  25.492  1.00  0.00    -0.458 OA
BRANCH  33  34
ATOM     34  C   UNL A   1      39.207  21.050  26.121  1.00  0.00     0.338 C 
ATOM     35  O   UNL A   1      39.837  20.014  26.218  1.00  0.00    -0.246 OA
BRANCH  34  36
ATOM     36  C   UNL A   1      39.691  22.380  26.568  1.00  0.00     0.060 A 
ATOM     37  C   UNL A   1      39.093  23.552  26.099  1.00  0.00     0.016 A 
ATOM     38  C   UNL A   1      40.741  22.464  27.477  1.00  0.00     0.016 A 
ATOM     39  C   UNL A   1      39.569  24.800  26.534  1.00  0.00     0.010 A 
ATOM     40  C   UNL A   1      41.149  23.696  27.979  1.00  0.00     0.010 A 
ATOM     41  C   UNL A   1      40.610  24.885  27.475  1.00  0.00    -0.014 A 
BRANCH  41  42
ATOM     42  C   UNL A   1      41.237  26.182  27.865  1.00  0.00     0.031 A 
ATOM     43  C   UNL A   1      42.651  26.490  27.415  1.00  0.00     0.074 A 
ATOM     44  C   UNL A   1      40.602  27.035  28.693  1.00  0.00     0.049 A 
ATOM     45  N   UNL A   1      43.412  27.519  27.695  1.00  0.00    -0.248 NA
ATOM     46  C   UNL A   1      43.323  25.466  26.600  1.00  0.00     0.031 C 
ATOM     47  C   UNL A   1      39.288  26.811  29.301  1.00  0.00     0.029 A 
ATOM     48  N   UNL A   1      40.985  28.261  29.181  1.00  0.00    -0.354 N 
ATOM     49  C   UNL A   1      44.655  27.237  27.127  1.00  0.00     0.074 A 
ATOM     50  C   UNL A   1      44.573  25.898  26.594  1.00  0.00     0.031 C 
ATOM     51  C   UNL A   1      38.964  27.876  30.055  1.00  0.00     0.029 A 
ATOM     52  C   UNL A   1      40.046  28.854  29.995  1.00  0.00     0.049 A 
ATOM     53  H   UNL A   1      41.851  28.677  28.969  1.00  0.00     0.167 HD
ATOM     54  C   UNL A   1      45.745  28.037  27.007  1.00  0.00     0.034 A 
ATOM     55  C   UNL A   1      40.049  30.060  30.600  1.00  0.00     0.034 A 
ATOM     56  C   UNL A   1      45.780  29.397  27.483  1.00  0.00     0.049 A 
ATOM     57  C   UNL A   1      41.222  30.983  30.370  1.00  0.00     0.074 A 
ATOM     58  C   UNL A   1      46.770  30.348  27.318  1.00  0.00     0.029 A 
ATOM     59  N   UNL A   1      44.765  30.001  28.213  1.00  0.00    -0.354 N 
ATOM     60  N   UNL A   1      42.341  30.752  29.721  1.00  0.00    -0.248 NA
ATOM     61  C   UNL A   1      41.116  32.340  30.921  1.00  0.00     0.031 C 
ATOM     62  C   UNL A   1      46.376  31.510  27.992  1.00  0.00     0.029 A 
ATOM     63  C   UNL A   1      45.111  31.306  28.520  1.00  0.00     0.049 A 
ATOM     64  H   UNL A   1      43.922  29.565  28.476  1.00  0.00     0.167 HD
ATOM     65  C   UNL A   1      43.054  31.949  29.754  1.00  0.00     0.074 A 
ATOM     66  C   UNL A   1      42.230  32.899  30.474  1.00  0.00     0.031 C 
ATOM     67  C   UNL A   1      44.275  32.239  29.236  1.00  0.00     0.034 A 
BRANCH  54  68
ATOM     68  C   UNL A   1      46.966  27.462  26.319  1.00  0.00     0.023 A 
ATOM     69  C   UNL A   1      47.331  27.850  25.016  1.00  0.00     0.031 A 
ATOM     70  C   UNL A   1      47.759  26.485  26.949  1.00  0.00     0.131 A 
ATOM     71  C   UNL A   1      48.372  27.192  24.347  1.00  0.00     0.055 A 
ATOM     72  C   UNL A   1      48.860  25.905  26.313  1.00  0.00     0.041 A 
ATOM     73  F   UNL A   1      47.465  26.061  28.189  1.00  0.00    -0.206 F 
ATOM     74  C   UNL A   1      49.159  26.240  24.996  1.00  0.00     0.022 A 
BRANCH  71  75
ATOM     75  S   UNL A   1      48.573  27.483  22.567  1.00  0.00     0.124 S 
ATOM     76  O   UNL A   1      48.679  26.117  22.057  1.00  0.00    -0.237 OA
ATOM     77  O   UNL A   1      47.349  28.197  22.224  1.00  0.00    -0.237 OA
ATOM     78  O   UNL A   1      49.800  28.270  22.483  1.00  0.00    -0.744 OA
ENDBRANCH  71  75
ENDBRANCH  54  68
BRANCH  55  79
ATOM     79  C   UNL A   1      38.883  30.498  31.420  1.00  0.00     0.023 A 
ATOM     80  C   UNL A   1      37.911  31.359  30.885  1.00  0.00     0.031 A 
ATOM     81  C   UNL A   1      38.729  30.080  32.753  1.00  0.00     0.131 A 
ATOM     82  C   UNL A   1      36.854  31.813  31.689  1.00  0.00     0.055 A 
ATOM     83  C   UNL A   1      37.652  30.500  33.538  1.00  0.00     0.041 A 
ATOM     84  F   UNL A   1      39.620  29.244  33.310  1.00  0.00    -0.206 F 
ATOM     85  C   UNL A   1      36.712  31.382  33.009  1.00  0.00     0.022 A 
BRANCH  82  86
ATOM     86  S   UNL A   1      35.704  33.035  31.001  1.00  0.00     0.124 S 
ATOM     87  O   UNL A   1      36.168  33.140  29.623  1.00  0.00    -0.237 OA
ATOM     88  O   UNL A   1      34.416  32.379  31.197  1.00  0.00    -0.237 OA
ATOM     89  O   UNL A   1      35.931  34.218  31.829  1.00  0.00    -0.744 OA
ENDBRANCH  82  86
ENDBRANCH  55  79
BRANCH  67  90
ATOM     90  C   UNL A   1      44.768  33.654  29.392  1.00  0.00     0.023 A 
ATOM     91  C   UNL A   1      44.480  34.644  28.437  1.00  0.00     0.031 A 
ATOM     92  C   UNL A   1      45.536  34.016  30.512  1.00  0.00     0.131 A 
ATOM     93  C   UNL A   1      45.006  35.933  28.589  1.00  0.00     0.055 A 
ATOM     94  C   UNL A   1      46.006  35.318  30.689  1.00  0.00     0.041 A 
ATOM     95  F   UNL A   1      45.839  33.110  31.456  1.00  0.00    -0.206 F 
ATOM     96  C   UNL A   1      45.753  36.282  29.718  1.00  0.00     0.022 A 
BRANCH  93  97
ATOM     97  S   UNL A   1      44.777  37.128  27.245  1.00  0.00     0.124 S 
ATOM     98  O   UNL A   1      45.858  36.768  26.332  1.00  0.00    -0.237 OA
ATOM     99  O   UNL A   1      43.426  36.822  26.783  1.00  0.00    -0.237 OA
ATOM    100  O   UNL A   1      44.927  38.423  27.906  1.00  0.00    -0.744 OA
ENDBRANCH  93  97
ENDBRANCH  67  90
ENDBRANCH  41  42
ENDBRANCH  34  36
ENDBRANCH  33  34
ENDBRANCH  32  33
ENDBRANCH   1  32
TORSDOF 20
ENDMDL
MODEL 2
REMARK VINA RESULT:     -11.8      4.655     10.265
REMARK SMILES O=C(CCCN1C(=O)C(=O)/C(=C(\[O-])c2ccccc2)[C@H]1c1ccc([N+](=O)[O-])cc1)OCCOC(=O)c1ccc(-c2c3nc(c(-c4cc(S(=O)(=O)[O-])ccc4F)c4ccc([nH]4)c(-c4cc(S(=O)(=O)[O-])ccc4F)c4nc(c(-c5cc(S(=O)(=O)[O-])ccc5F)c5ccc2[nH]5)C=C4)C=C3)cc1
REMARK SMILES IDX 31 1 30 2 2 3 1 4 3 5 4 6 5 7 6 8 7 9 20 10 8 11 9 12 11 13
REMARK SMILES IDX 10 14 12 15 13 16 21 17 22 18 29 19 23 20 28 21 24 22 25 23
REMARK SMILES IDX 26 24 27 25 14 26 15 27 19 28 16 29 18 30 17 31 32 32 33 33
REMARK SMILES IDX 34 34 35 35 36 36 37 37 98 38 38 39 97 40 39 41 40 42 41 43
REMARK SMILES IDX 91 44 42 45 96 46 90 47 92 48 43 49 95 50 89 51 88 52 44 54
REMARK SMILES IDX 76 55 56 56 75 57 57 58 60 59 74 60 93 61 58 62 59 63 73 65
REMARK SMILES IDX 94 66 61 67 45 68 46 69 54 70 47 71 53 72 55 73 52 74 48 75
REMARK SMILES IDX 49 76 50 77 51 78 77 79 78 80 86 81 79 82 85 83 87 84 84 85
REMARK SMILES IDX 80 86 81 87 82 88 83 89 62 90 63 91 71 92 64 93 70 94 72 95
REMARK SMILES IDX 69 96 65 97 66 98 67 99 68 100
REMARK H PARENT 92 53 60 64
REMARK Flexibility Score: inf
ROOT
ATOM      1  C   UNL A   1      31.530  29.565  25.028  1.00  0.00     0.274 C 
ENDROOT
BRANCH   1   2
ATOM      2  O   UNL A   1      31.635  28.143  25.227  1.00  0.00    -0.462 OA
BRANCH   2   3
ATOM      3  C   UNL A   1      32.561  27.350  24.643  1.00  0.00     0.305 C 
ATOM      4  O   UNL A   1      33.666  27.203  25.160  1.00  0.00    -0.252 OA
BRANCH   3   5
ATOM      5  C   UNL A   1      32.223  26.647  23.348  1.00  0.00     0.124 C 
BRANCH   5   6
ATOM      6  C   UNL A   1      30.732  26.380  23.191  1.00  0.00     0.033 C 
BRANCH   6   7
ATOM      7  C   UNL A   1      30.309  24.935  23.445  1.00  0.00     0.121 C 
BRANCH   7   8
ATOM      8  N   UNL A   1      30.946  24.197  24.536  1.00  0.00    -0.325 N 
ATOM      9  C   UNL A   1      30.629  24.554  25.838  1.00  0.00     0.295 C 
ATOM     10  C   UNL A   1      32.245  23.528  24.440  1.00  0.00     0.150 C 
ATOM     11  O   UNL A   1      29.638  25.124  26.246  1.00  0.00    -0.265 OA
ATOM     12  C   UNL A   1      31.836  24.210  26.707  1.00  0.00     0.248 C 
ATOM     13  C   UNL A   1      32.881  23.692  25.808  1.00  0.00     0.025 C 
ATOM     14  O   UNL A   1      31.915  24.304  27.915  1.00  0.00    -0.283 OA
ATOM     15  C   UNL A   1      34.084  23.290  26.257  1.00  0.00    -0.092 C 
ATOM     16  O   UNL A   1      34.464  23.342  27.582  1.00  0.00    -0.872 OA
BRANCH  10  17
ATOM     17  C   UNL A   1      32.127  22.035  24.130  1.00  0.00    -0.020 A 
ATOM     18  C   UNL A   1      32.097  21.073  25.166  1.00  0.00     0.013 A 
ATOM     19  C   UNL A   1      32.258  21.594  22.804  1.00  0.00     0.013 A 
ATOM     20  C   UNL A   1      32.268  19.716  24.891  1.00  0.00     0.086 A 
ATOM     21  C   UNL A   1      32.455  20.242  22.525  1.00  0.00     0.086 A 
ATOM     22  C   UNL A   1      32.462  19.311  23.570  1.00  0.00     0.269 A 
BRANCH  22  23
ATOM     23  N   UNL A   1      32.633  17.888  23.276  1.00  0.00     0.062 N 
ATOM     24  O   UNL A   1      32.651  17.549  22.087  1.00  0.00    -0.258 OA
ATOM     25  O   UNL A   1      32.728  17.119  24.243  1.00  0.00    -0.258 OA
ENDBRANCH  22  23
ENDBRANCH  10  17
BRANCH  15  26
ATOM     26  C   UNL A   1      35.042  22.588  25.382  1.00  0.00    -0.033 A 
ATOM     27  C   UNL A   1      35.587  23.262  24.279  1.00  0.00     0.007 A 
ATOM     28  C   UNL A   1      35.512  21.305  25.692  1.00  0.00     0.007 A 
ATOM     29  C   UNL A   1      36.621  22.689  23.536  1.00  0.00     0.001 A 
ATOM     30  C   UNL A   1      36.550  20.734  24.949  1.00  0.00     0.001 A 
ATOM     31  C   UNL A   1      37.111  21.431  23.881  1.00  0.00     0.000 A 
ENDBRANCH  15  26
ENDBRANCH   7   8
ENDBRANCH   6   7
ENDBRANCH   5   6
ENDBRANCH   3   5
ENDBRANCH   2   3
ENDBRANCH   1   2
BRANCH   1  32
ATOM     32  C   UNL A   1      31.881  30.371  26.279  1.00  0.00     0.275 C 
BRANCH  32  33
ATOM     33  O   UNL A   1      33.299  30.473  26.467  1.00  0.00    -0.458 OA
BRANCH  33  34
ATOM     34  C   UNL A   1      33.736  31.539  27.195  1.00  0.00     0.338 C 
ATOM     35  O   UNL A   1      33.171  32.609  27.327  1.00  0.00    -0.246 OA
BRANCH  34  36
ATOM     36  C   UNL A   1      34.968  31.138  27.918  1.00  0.00     0.060 A 
ATOM     37  C   UNL A   1      35.985  32.063  28.163  1.00  0.00     0.016 A 
ATOM     38  C   UNL A   1      35.109  29.831  28.372  1.00  0.00     0.016 A 
ATOM     39  C   UNL A   1      37.144  31.661  28.847  1.00  0.00     0.010 A 
ATOM     40  C   UNL A   1      36.214  29.457  29.131  1.00  0.00     0.010 A 
ATOM     41  C   UNL A   1      37.275  30.349  29.332  1.00  0.00    -0.014 A 
BRANCH  41  42
ATOM     42  C   UNL A   1      38.537  29.839  29.945  1.00  0.00     0.031 A 
ATOM     43  C   UNL A   1      38.946  30.329  31.321  1.00  0.00     0.074 A 
ATOM     44  C   UNL A   1      39.365  29.032  29.253  1.00  0.00     0.049 A 
ATOM     45  N   UNL A   1      40.030  30.074  32.010  1.00  0.00    -0.248 NA
ATOM     46  C   UNL A   1      38.046  31.292  31.974  1.00  0.00     0.031 C 
ATOM     47  C   UNL A   1      39.157  28.580  27.876  1.00  0.00     0.029 A 
ATOM     48  N   UNL A   1      40.560  28.457  29.611  1.00  0.00    -0.354 N 
ATOM     49  C   UNL A   1      39.954  30.878  33.147  1.00  0.00     0.074 A 
ATOM     50  C   UNL A   1      38.781  31.706  32.991  1.00  0.00     0.031 C 
ATOM     51  C   UNL A   1      40.174  27.777  27.517  1.00  0.00     0.029 A 
ATOM     52  C   UNL A   1      41.111  27.662  28.631  1.00  0.00     0.049 A 
ATOM     53  H   UNL A   1      40.985  28.601  30.487  1.00  0.00     0.167 HD
ATOM     54  C   UNL A   1      40.750  30.888  34.247  1.00  0.00     0.034 A 
ATOM     55  C   UNL A   1      42.229  26.907  28.643  1.00  0.00     0.034 A 
ATOM     56  C   UNL A   1      41.874  30.002  34.413  1.00  0.00     0.049 A 
ATOM     57  C   UNL A   1      43.048  26.844  29.910  1.00  0.00     0.074 A 
ATOM     58  C   UNL A   1      42.683  29.825  35.520  1.00  0.00     0.029 A 
ATOM     59  N   UNL A   1      42.340  29.131  33.436  1.00  0.00    -0.354 N 
ATOM     60  N   UNL A   1      42.892  27.514  31.029  1.00  0.00    -0.248 NA
ATOM     61  C   UNL A   1      44.168  25.895  29.928  1.00  0.00     0.031 C 
ATOM     62  C   UNL A   1      43.669  28.885  35.196  1.00  0.00     0.029 A 
ATOM     63  C   UNL A   1      43.434  28.427  33.910  1.00  0.00     0.049 A 
ATOM     64  H   UNL A   1      41.950  29.029  32.538  1.00  0.00     0.167 HD
ATOM     65  C   UNL A   1      43.872  27.038  31.897  1.00  0.00     0.074 A 
ATOM     66  C   UNL A   1      44.602  26.016  31.174  1.00  0.00     0.031 C 
ATOM     67  C   UNL A   1      44.145  27.409  33.174  1.00  0.00     0.034 A 
BRANCH  54  68
ATOM     68  C   UNL A   1      40.413  31.871  35.349  1.00  0.00     0.023 A 
ATOM     69  C   UNL A   1      39.428  31.588  36.315  1.00  0.00     0.031 A 
ATOM     70  C   UNL A   1      41.050  33.123  35.423  1.00  0.00     0.131 A 
ATOM     71  C   UNL A   1      39.029  32.573  37.229  1.00  0.00     0.055 A 
ATOM     72  C   UNL A   1      40.719  34.064  36.402  1.00  0.00     0.041 A 
ATOM     73  F   UNL A   1      41.994  33.463  34.530  1.00  0.00    -0.206 F 
ATOM     74  C   UNL A   1      39.687  33.802  37.298  1.00  0.00     0.022 A 
BRANCH  71  75
ATOM     75  S   UNL A   1      37.531  32.283  38.210  1.00  0.00     0.124 S 
ATOM     76  O   UNL A   1      37.337  30.846  38.031  1.00  0.00    -0.237 OA
ATOM     77  O   UNL A   1      37.939  32.709  39.543  1.00  0.00    -0.237 OA
ATOM     78  O   UNL A   1      36.528  33.127  37.564  1.00  0.00    -0.744 OA
ENDBRANCH  71  75
ENDBRANCH  54  68
BRANCH  55  79
ATOM     79  C   UNL A   1      42.606  26.096  27.449  1.00  0.00     0.023 A 
ATOM     80  C   UNL A   1      42.187  24.761  27.326  1.00  0.00     0.031 A 
ATOM     81  C   UNL A   1      43.404  26.633  26.424  1.00  0.00     0.131 A 
ATOM     82  C   UNL A   1      42.603  23.992  26.228  1.00  0.00     0.055 A 
ATOM     83  C   UNL A   1      43.781  25.876  25.311  1.00  0.00     0.041 A 
ATOM     84  F   UNL A   1      43.819  27.908  26.483  1.00  0.00    -0.206 F 
ATOM     85  C   UNL A   1      43.389  24.543  25.215  1.00  0.00     0.022 A 
BRANCH  82  86
ATOM     86  S   UNL A   1      42.158  22.235  26.182  1.00  0.00     0.124 S 
ATOM     87  O   UNL A   1      42.802  21.795  24.950  1.00  0.00    -0.237 OA
ATOM     88  O   UNL A   1      42.744  21.743  27.424  1.00  0.00    -0.237 OA
ATOM     89  O   UNL A   1      40.696  22.256  26.150  1.00  0.00    -0.744 OA
ENDBRANCH  82  86
ENDBRANCH  55  79
BRANCH  67  90
ATOM     90  C   UNL A   1      45.251  26.669  33.882  1.00  0.00     0.023 A 
ATOM     91  C   UNL A   1      44.999  25.500  34.620  1.00  0.00     0.031 A 
ATOM     92  C   UNL A   1      46.573  27.140  33.816  1.00  0.00     0.131 A 
ATOM     93  C   UNL A   1      46.045  24.874  35.312  1.00  0.00     0.055 A 
ATOM     94  C   UNL A   1      47.621  26.478  34.457  1.00  0.00     0.041 A 
ATOM     95  F   UNL A   1      46.869  28.251  33.122  1.00  0.00    -0.206 F 
ATOM     96  C   UNL A   1      47.357  25.345  35.221  1.00  0.00     0.022 A 
BRANCH  93  97
ATOM     97  S   UNL A   1      45.650  23.484  36.408  1.00  0.00     0.124 S 
ATOM     98  O   UNL A   1      45.094  24.166  37.573  1.00  0.00    -0.237 OA
ATOM     99  O   UNL A   1      44.701  22.716  35.608  1.00  0.00    -0.237 OA
ATOM    100  O   UNL A   1      46.943  22.839  36.624  1.00  0.00    -0.744 OA
ENDBRANCH  93  97
ENDBRANCH  67  90
ENDBRANCH  41  42
ENDBRANCH  34  36
ENDBRANCH  33  34
ENDBRANCH  32  33
ENDBRANCH   1  32
TORSDOF 20
ENDMDL
MODEL 3
REMARK VINA RESULT:     -11.5      1.779      2.814
REMARK SMILES O=C(CCCN1C(=O)C(=O)/C(=C(\[O-])c2ccccc2)[C@H]1c1ccc([N+](=O)[O-])cc1)OCCOC(=O)c1ccc(-c2c3nc(c(-c4cc(S(=O)(=O)[O-])ccc4F)c4ccc([nH]4)c(-c4cc(S(=O)(=O)[O-])ccc4F)c4nc(c(-c5cc(S(=O)(=O)[O-])ccc5F)c5ccc2[nH]5)C=C4)C=C3)cc1
REMARK SMILES IDX 31 1 30 2 2 3 1 4 3 5 4 6 5 7 6 8 7 9 20 10 8 11 9 12 11 13
REMARK SMILES IDX 10 14 12 15 13 16 21 17 22 18 29 19 23 20 28 21 24 22 25 23
REMARK SMILES IDX 26 24 27 25 14 26 15 27 19 28 16 29 18 30 17 31 32 32 33 33
REMARK SMILES IDX 34 34 35 35 36 36 37 37 98 38 38 39 97 40 39 41 40 42 41 43
REMARK SMILES IDX 91 44 42 45 96 46 90 47 92 48 43 49 95 50 89 51 88 52 44 54
REMARK SMILES IDX 76 55 56 56 75 57 57 58 60 59 74 60 93 61 58 62 59 63 73 65
REMARK SMILES IDX 94 66 61 67 45 68 46 69 54 70 47 71 53 72 55 73 52 74 48 75
REMARK SMILES IDX 49 76 50 77 51 78 77 79 78 80 86 81 79 82 85 83 87 84 84 85
REMARK SMILES IDX 80 86 81 87 82 88 83 89 62 90 63 91 71 92 64 93 70 94 72 95
REMARK SMILES IDX 69 96 65 97 66 98 67 99 68 100
REMARK H PARENT 92 53 60 64
REMARK Flexibility Score: inf
ROOT
ATOM      1  C   UNL A   1      35.527  20.810  24.916  1.00  0.00     0.274 C 
ENDROOT
BRANCH   1   2
ATOM      2  O   UNL A   1      34.844  21.841  25.654  1.00  0.00    -0.462 OA
BRANCH   2   3
ATOM      3  C   UNL A   1      33.647  21.688  26.263  1.00  0.00     0.305 C 
ATOM      4  O   UNL A   1      33.556  21.782  27.486  1.00  0.00    -0.252 OA
BRANCH   3   5
ATOM      5  C   UNL A   1      32.422  21.397  25.427  1.00  0.00     0.124 C 
BRANCH   5   6
ATOM      6  C   UNL A   1      31.569  22.634  25.176  1.00  0.00     0.033 C 
BRANCH   6   7
ATOM      7  C   UNL A   1      31.417  23.019  23.706  1.00  0.00     0.121 C 
BRANCH   7   8
ATOM      8  N   UNL A   1      31.941  24.310  23.259  1.00  0.00    -0.325 N 
ATOM      9  C   UNL A   1      33.045  24.311  22.418  1.00  0.00     0.295 C 
ATOM     10  C   UNL A   1      31.801  25.566  23.999  1.00  0.00     0.150 C 
ATOM     11  O   UNL A   1      33.436  23.427  21.684  1.00  0.00    -0.265 OA
ATOM     12  C   UNL A   1      33.797  25.617  22.662  1.00  0.00     0.248 C 
ATOM     13  C   UNL A   1      33.086  26.330  23.737  1.00  0.00     0.025 C 
ATOM     14  O   UNL A   1      34.773  26.019  22.062  1.00  0.00    -0.283 OA
ATOM     15  C   UNL A   1      33.490  27.528  24.197  1.00  0.00    -0.092 C 
ATOM     16  O   UNL A   1      34.607  28.191  23.731  1.00  0.00    -0.872 OA
BRANCH  10  17
ATOM     17  C   UNL A   1      30.621  26.413  23.522  1.00  0.00    -0.020 A 
ATOM     18  C   UNL A   1      30.793  27.424  22.547  1.00  0.00     0.013 A 
ATOM     19  C   UNL A   1      29.395  26.333  24.201  1.00  0.00     0.013 A 
ATOM     20  C   UNL A   1      29.797  28.372  22.312  1.00  0.00     0.086 A 
ATOM     21  C   UNL A   1      28.406  27.294  23.989  1.00  0.00     0.086 A 
ATOM     22  C   UNL A   1      28.613  28.309  23.048  1.00  0.00     0.269 A 
BRANCH  22  23
ATOM     23  N   UNL A   1      27.563  29.295  22.799  1.00  0.00     0.062 N 
ATOM     24  O   UNL A   1      26.598  29.310  23.573  1.00  0.00    -0.258 OA
ATOM     25  O   UNL A   1      27.705  30.036  21.816  1.00  0.00    -0.258 OA
ENDBRANCH  22  23
ENDBRANCH  10  17
BRANCH  15  26
ATOM     26  C   UNL A   1      32.661  28.321  25.124  1.00  0.00    -0.033 A 
ATOM     27  C   UNL A   1      32.298  27.771  26.363  1.00  0.00     0.007 A 
ATOM     28  C   UNL A   1      32.325  29.654  24.851  1.00  0.00     0.007 A 
ATOM     29  C   UNL A   1      31.665  28.554  27.330  1.00  0.00     0.001 A 
ATOM     30  C   UNL A   1      31.694  30.437  25.821  1.00  0.00     0.001 A 
ATOM     31  C   UNL A   1      31.376  29.891  27.063  1.00  0.00     0.000 A 
ENDBRANCH  15  26
ENDBRANCH   7   8
ENDBRANCH   6   7
ENDBRANCH   5   6
ENDBRANCH   3   5
ENDBRANCH   2   3
ENDBRANCH   1   2
BRANCH   1  32
ATOM     32  C   UNL A   1      37.033  21.050  24.812  1.00  0.00     0.275 C 
BRANCH  32  33
ATOM     33  O   UNL A   1      37.579  21.554  26.038  1.00  0.00    -0.458 OA
BRANCH  33  34
ATOM     34  C   UNL A   1      38.936  21.522  26.153  1.00  0.00     0.338 C 
ATOM     35  O   UNL A   1      39.670  20.605  25.835  1.00  0.00    -0.246 OA
BRANCH  34  36
ATOM     36  C   UNL A   1      39.398  22.852  26.619  1.00  0.00     0.060 A 
ATOM     37  C   UNL A   1      38.769  24.020  26.183  1.00  0.00     0.016 A 
ATOM     38  C   UNL A   1      40.460  22.941  27.513  1.00  0.00     0.016 A 
ATOM     39  C   UNL A   1      39.225  25.269  26.635  1.00  0.00     0.010 A 
ATOM     40  C   UNL A   1      40.850  24.172  28.033  1.00  0.00     0.010 A 
ATOM     41  C   UNL A   1      40.278  25.359  27.561  1.00  0.00    -0.014 A 
BRANCH  41  42
ATOM     42  C   UNL A   1      40.883  26.661  27.968  1.00  0.00     0.031 A 
ATOM     43  C   UNL A   1      42.329  26.953  27.615  1.00  0.00     0.074 A 
ATOM     44  C   UNL A   1      40.195  27.536  28.728  1.00  0.00     0.049 A 
ATOM     45  N   UNL A   1      43.074  27.984  27.927  1.00  0.00    -0.248 NA
ATOM     46  C   UNL A   1      43.052  25.907  26.874  1.00  0.00     0.031 C 
ATOM     47  C   UNL A   1      38.839  27.332  29.243  1.00  0.00     0.029 A 
ATOM     48  N   UNL A   1      40.549  28.770  29.215  1.00  0.00    -0.354 N 
ATOM     49  C   UNL A   1      44.353  27.683  27.458  1.00  0.00     0.074 A 
ATOM     50  C   UNL A   1      44.301  26.332  26.951  1.00  0.00     0.031 C 
ATOM     51  C   UNL A   1      38.468  28.415  29.947  1.00  0.00     0.029 A 
ATOM     52  C   UNL A   1      39.557  29.387  29.945  1.00  0.00     0.049 A 
ATOM     53  H   UNL A   1      41.432  29.178  29.058  1.00  0.00     0.167 HD
ATOM     54  C   UNL A   1      45.454  28.474  27.400  1.00  0.00     0.034 A 
ATOM     55  C   UNL A   1      39.525  30.606  30.521  1.00  0.00     0.034 A 
ATOM     56  C   UNL A   1      45.463  29.844  27.848  1.00  0.00     0.049 A 
ATOM     57  C   UNL A   1      40.717  31.518  30.358  1.00  0.00     0.074 A 
ATOM     58  C   UNL A   1      46.468  30.787  27.734  1.00  0.00     0.029 A 
ATOM     59  N   UNL A   1      44.401  30.470  28.488  1.00  0.00    -0.354 N 
ATOM     60  N   UNL A   1      41.879  31.267  29.798  1.00  0.00    -0.248 NA
ATOM     61  C   UNL A   1      40.579  32.887  30.869  1.00  0.00     0.031 C 
ATOM     62  C   UNL A   1      46.034  31.966  28.351  1.00  0.00     0.029 A 
ATOM     63  C   UNL A   1      44.733  31.780  28.790  1.00  0.00     0.049 A 
ATOM     64  H   UNL A   1      43.539  30.044  28.698  1.00  0.00     0.167 HD
ATOM     65  C   UNL A   1      42.595  32.460  29.856  1.00  0.00     0.074 A 
ATOM     66  C   UNL A   1      41.727  33.431  30.492  1.00  0.00     0.031 C 
ATOM     67  C   UNL A   1      43.852  32.733  29.423  1.00  0.00     0.034 A 
BRANCH  54  68
ATOM     68  C   UNL A   1      46.718  27.878  26.816  1.00  0.00     0.023 A 
ATOM     69  C   UNL A   1      47.072  28.073  25.468  1.00  0.00     0.031 A 
ATOM     70  C   UNL A   1      47.566  27.072  27.598  1.00  0.00     0.131 A 
ATOM     71  C   UNL A   1      48.162  27.386  24.916  1.00  0.00     0.055 A 
ATOM     72  C   UNL A   1      48.711  26.471  27.066  1.00  0.00     0.041 A 
ATOM     73  F   UNL A   1      47.286  26.837  28.890  1.00  0.00    -0.206 F 
ATOM     74  C   UNL A   1      49.002  26.607  25.712  1.00  0.00     0.022 A 
BRANCH  71  75
ATOM     75  S   UNL A   1      48.364  27.396  23.113  1.00  0.00     0.124 S 
ATOM     76  O   UNL A   1      48.316  25.969  22.804  1.00  0.00    -0.237 OA
ATOM     77  O   UNL A   1      47.218  28.182  22.671  1.00  0.00    -0.237 OA
ATOM     78  O   UNL A   1      49.667  28.027  22.916  1.00  0.00    -0.744 OA
ENDBRANCH  71  75
ENDBRANCH  54  68
BRANCH  55  79
ATOM     79  C   UNL A   1      38.304  31.067  31.244  1.00  0.00     0.023 A 
ATOM     80  C   UNL A   1      37.265  31.717  30.558  1.00  0.00     0.031 A 
ATOM     81  C   UNL A   1      38.164  30.886  32.630  1.00  0.00     0.131 A 
ATOM     82  C   UNL A   1      36.153  32.203  31.262  1.00  0.00     0.055 A 
ATOM     83  C   UNL A   1      37.034  31.332  33.322  1.00  0.00     0.041 A 
ATOM     84  F   UNL A   1      39.119  30.256  33.334  1.00  0.00    -0.206 F 
ATOM     85  C   UNL A   1      36.025  32.006  32.638  1.00  0.00     0.022 A 
BRANCH  82  86
ATOM     86  S   UNL A   1      34.905  33.160  30.359  1.00  0.00     0.124 S 
ATOM     87  O   UNL A   1      34.325  32.147  29.485  1.00  0.00    -0.237 OA
ATOM     88  O   UNL A   1      34.052  33.639  31.442  1.00  0.00    -0.237 OA
ATOM     89  O   UNL A   1      35.691  34.192  29.685  1.00  0.00    -0.744 OA
ENDBRANCH  82  86
ENDBRANCH  55  79
BRANCH  67  90
ATOM     90  C   UNL A   1      44.342  34.149  29.583  1.00  0.00     0.023 A 
ATOM     91  C   UNL A   1      43.932  35.173  28.712  1.00  0.00     0.031 A 
ATOM     92  C   UNL A   1      45.231  34.477  30.621  1.00  0.00     0.131 A 
ATOM     93  C   UNL A   1      44.455  36.464  28.859  1.00  0.00     0.055 A 
ATOM     94  C   UNL A   1      45.702  35.778  30.800  1.00  0.00     0.041 A 
ATOM     95  F   UNL A   1      45.653  33.537  31.483  1.00  0.00    -0.206 F 
ATOM     96  C   UNL A   1      45.324  36.778  29.908  1.00  0.00     0.022 A 
BRANCH  93  97
ATOM     97  S   UNL A   1      44.056  37.711  27.605  1.00  0.00     0.124 S 
ATOM     98  O   UNL A   1      43.335  36.920  26.612  1.00  0.00    -0.237 OA
ATOM     99  O   UNL A   1      43.253  38.667  28.361  1.00  0.00    -0.237 OA
ATOM    100  O   UNL A   1      45.364  38.202  27.179  1.00  0.00    -0.744 OA
ENDBRANCH  93  97
ENDBRANCH  67  90
ENDBRANCH  41  42
ENDBRANCH  34  36
ENDBRANCH  33  34
ENDBRANCH  32  33
ENDBRANCH   1  32
TORSDOF 20
ENDMDL
