MODEL 1
REMARK VINA RESULT:     -13.6      0.000      0.000
REMARK SMILES Cc1cc(C(=O)OCCOC(=O)c2ccc(-c3c4nc(c(-c5cc(S(=O)(=O)[O-])ccc5F)c5ccc([nH]5)c(-c5cc(S(=O)(=O)[O-])ccc5F)c5nc(c(-c6cc(S(=O)(=O)[O-])ccc6F)c6ccc3[nH]6)C=C5)C=C4)cc2)cc(S(=O)(=O)NNC(=O)c2c[nH]c3ccccc23)c1C
REMARK SMILES IDX 8 1 7 2 5 3 6 4 4 5 1 6 2 7 3 8 94 9 77 10 95 11 76 12 78 13
REMARK SMILES IDX 79 14 80 15 81 16 82 18 83 19 84 21 85 22 86 23 93 24 87 25
REMARK SMILES IDX 88 26 92 27 89 29 91 30 90 31 9 32 10 33 11 34 12 35 13 36
REMARK SMILES IDX 14 37 75 38 15 39 74 40 16 41 17 42 18 43 68 44 19 45 73 46
REMARK SMILES IDX 67 47 69 48 20 49 72 50 66 51 65 52 21 54 53 55 33 56 52 57
REMARK SMILES IDX 34 58 37 59 51 60 70 61 35 62 36 63 50 65 71 66 38 67 22 68
REMARK SMILES IDX 23 69 31 70 24 71 30 72 32 73 29 74 25 75 26 76 27 77 28 78
REMARK SMILES IDX 54 79 55 80 63 81 56 82 62 83 64 84 61 85 57 86 58 87 59 88
REMARK SMILES IDX 60 89 39 90 40 91 48 92 41 93 47 94 49 95 46 96 42 97 43 98
REMARK SMILES IDX 44 99 45 100
REMARK H PARENT 81 17 82 20 87 28 69 53 37 64
REMARK Flexibility Score: inf
ROOT
ATOM      1  C   UNL A   1      33.807  31.487  27.594  1.00  0.00     0.275 C 
ENDROOT
BRANCH   1   2
ATOM      2  O   UNL A   1      33.008  30.275  27.568  1.00  0.00    -0.458 OA
BRANCH   2   3
ATOM      3  C   UNL A   1      33.495  29.194  26.891  1.00  0.00     0.338 C 
ATOM      4  O   UNL A   1      34.671  28.882  26.796  1.00  0.00    -0.246 OA
BRANCH   3   5
ATOM      5  C   UNL A   1      32.392  28.398  26.258  1.00  0.00     0.061 A 
ATOM      6  C   UNL A   1      30.223  29.150  23.269  1.00  0.00     0.044 C 
ATOM      7  C   UNL A   1      30.797  28.377  24.438  1.00  0.00    -0.046 A 
ATOM      8  C   UNL A   1      31.719  29.056  25.230  1.00  0.00     0.019 A 
ATOM      9  C   UNL A   1      30.502  27.004  24.726  1.00  0.00    -0.028 A 
ATOM     10  C   UNL A   1      31.131  26.319  25.843  1.00  0.00     0.088 A 
ATOM     11  C   UNL A   1      29.563  26.277  23.790  1.00  0.00     0.046 C 
ATOM     12  C   UNL A   1      32.108  27.022  26.562  1.00  0.00     0.037 A 
BRANCH  10  13
ATOM     13  S   UNL A   1      30.588  24.560  26.226  1.00  0.00     0.257 S 
ATOM     14  O   UNL A   1      29.306  24.746  26.880  1.00  0.00    -0.205 OA
ATOM     15  O   UNL A   1      30.685  23.871  24.954  1.00  0.00    -0.205 OA
BRANCH  13  16
ATOM     16  N   UNL A   1      31.566  23.508  27.399  1.00  0.00    -0.123 NA
ATOM     17  H   UNL A   1      31.084  22.618  27.529  1.00  0.00     0.167 HD
BRANCH  16  18
ATOM     18  N   UNL A   1      32.926  23.252  26.875  1.00  0.00    -0.273 N 
ATOM     19  C   UNL A   1      33.991  22.754  26.142  1.00  0.00     0.268 C 
ATOM     20  H   UNL A   1      33.425  23.870  27.457  1.00  0.00     0.186 HD
ATOM     21  O   UNL A   1      34.821  23.449  26.825  1.00  0.00    -0.268 OA
BRANCH  19  22
ATOM     22  C   UNL A   1      34.757  21.651  24.916  1.00  0.00     0.066 A 
ATOM     23  C   UNL A   1      33.518  22.479  23.791  1.00  0.00     0.097 A 
ATOM     24  C   UNL A   1      34.444  19.576  24.544  1.00  0.00     0.012 A 
ATOM     25  N   UNL A   1      32.315  21.213  23.115  1.00  0.00    -0.360 N 
ATOM     26  C   UNL A   1      32.894  19.452  23.478  1.00  0.00     0.046 A 
ATOM     27  C   UNL A   1      34.985  18.262  24.684  1.00  0.00     0.011 A 
ATOM     28  H   UNL A   1      31.487  21.437  22.632  1.00  0.00     0.166 HD
ATOM     29  C   UNL A   1      32.294  18.275  23.076  1.00  0.00     0.027 A 
ATOM     30  C   UNL A   1      34.305  17.153  24.037  1.00  0.00     0.001 A 
ATOM     31  C   UNL A   1      33.059  17.148  23.325  1.00  0.00     0.002 A 
ENDBRANCH  19  22
ENDBRANCH  16  18
ENDBRANCH  13  16
ENDBRANCH  10  13
ENDBRANCH   3   5
ENDBRANCH   2   3
ENDBRANCH   1   2
BRANCH   1  32
ATOM     32  C   UNL A   1      32.930  32.746  27.611  1.00  0.00     0.275 C 
BRANCH  32  33
ATOM     33  O   UNL A   1      33.732  33.895  27.896  1.00  0.00    -0.458 OA
BRANCH  33  34
ATOM     34  C   UNL A   1      33.596  34.345  29.159  1.00  0.00     0.338 C 
ATOM     35  O   UNL A   1      32.639  34.907  29.663  1.00  0.00    -0.246 OA
BRANCH  34  36
ATOM     36  C   UNL A   1      34.733  33.858  29.926  1.00  0.00     0.060 A 
ATOM     37  C   UNL A   1      35.986  34.223  29.464  1.00  0.00     0.016 A 
ATOM     38  C   UNL A   1      34.589  32.927  30.942  1.00  0.00     0.016 A 
ATOM     39  C   UNL A   1      37.091  33.502  29.831  1.00  0.00     0.010 A 
ATOM     40  C   UNL A   1      35.733  32.319  31.447  1.00  0.00     0.010 A 
ATOM     41  C   UNL A   1      36.970  32.534  30.821  1.00  0.00    -0.014 A 
BRANCH  41  42
ATOM     42  C   UNL A   1      38.074  31.580  30.983  1.00  0.00     0.031 A 
ATOM     43  C   UNL A   1      38.227  30.614  29.831  1.00  0.00     0.074 A 
ATOM     44  C   UNL A   1      39.055  31.778  31.929  1.00  0.00     0.049 A 
ATOM     45  N   UNL A   1      39.316  29.961  29.737  1.00  0.00    -0.248 NA
ATOM     46  C   UNL A   1      37.369  30.442  28.658  1.00  0.00     0.031 C 
ATOM     47  C   UNL A   1      39.076  32.936  32.842  1.00  0.00     0.029 A 
ATOM     48  N   UNL A   1      40.246  31.123  32.264  1.00  0.00    -0.354 N 
ATOM     49  C   UNL A   1      39.517  29.213  28.294  1.00  0.00     0.074 A 
ATOM     50  C   UNL A   1      38.052  29.672  27.786  1.00  0.00     0.031 C 
ATOM     51  C   UNL A   1      40.220  32.958  33.538  1.00  0.00     0.029 A 
ATOM     52  C   UNL A   1      40.960  31.725  33.303  1.00  0.00     0.049 A 
ATOM     53  H   UNL A   1      40.555  30.308  31.806  1.00  0.00     0.167 HD
ATOM     54  C   UNL A   1      40.997  27.997  27.921  1.00  0.00     0.034 A 
ATOM     55  C   UNL A   1      42.026  31.371  34.073  1.00  0.00     0.034 A 
ATOM     56  C   UNL A   1      42.376  27.555  28.900  1.00  0.00     0.049 A 
ATOM     57  C   UNL A   1      42.755  30.069  33.832  1.00  0.00     0.074 A 
ATOM     58  C   UNL A   1      43.252  26.481  28.708  1.00  0.00     0.029 A 
ATOM     59  N   UNL A   1      42.746  28.016  30.201  1.00  0.00    -0.354 N 
ATOM     60  N   UNL A   1      42.740  29.293  32.776  1.00  0.00    -0.248 NA
ATOM     61  C   UNL A   1      43.634  29.593  34.913  1.00  0.00     0.031 C 
ATOM     62  C   UNL A   1      43.763  26.076  29.961  1.00  0.00     0.029 A 
ATOM     63  C   UNL A   1      43.515  27.069  30.885  1.00  0.00     0.049 A 
ATOM     64  H   UNL A   1      42.491  28.893  30.570  1.00  0.00     0.167 HD
ATOM     65  C   UNL A   1      43.617  28.242  33.060  1.00  0.00     0.074 A 
ATOM     66  C   UNL A   1      44.158  28.501  34.379  1.00  0.00     0.031 C 
ATOM     67  C   UNL A   1      43.962  27.187  32.272  1.00  0.00     0.034 A 
BRANCH  54  68
ATOM     68  C   UNL A   1      41.252  26.741  26.657  1.00  0.00     0.023 A 
ATOM     69  C   UNL A   1      40.704  25.450  26.767  1.00  0.00     0.031 A 
ATOM     70  C   UNL A   1      42.320  26.905  25.730  1.00  0.00     0.131 A 
ATOM     71  C   UNL A   1      41.505  24.366  26.366  1.00  0.00     0.055 A 
ATOM     72  C   UNL A   1      42.980  25.814  25.161  1.00  0.00     0.041 A 
ATOM     73  F   UNL A   1      42.817  28.116  25.439  1.00  0.00    -0.206 F 
ATOM     74  C   UNL A   1      42.631  24.532  25.556  1.00  0.00     0.022 A 
BRANCH  71  75
ATOM     75  S   UNL A   1      41.379  22.867  27.398  1.00  0.00     0.124 S 
ATOM     76  O   UNL A   1      41.884  23.389  28.670  1.00  0.00    -0.237 OA
ATOM     77  O   UNL A   1      39.955  22.565  27.345  1.00  0.00    -0.237 OA
ATOM     78  O   UNL A   1      42.258  21.909  26.734  1.00  0.00    -0.744 OA
ENDBRANCH  71  75
ENDBRANCH  54  68
BRANCH  55  79
ATOM     79  C   UNL A   1      42.405  32.191  35.300  1.00  0.00     0.023 A 
ATOM     80  C   UNL A   1      41.659  32.173  36.498  1.00  0.00     0.031 A 
ATOM     81  C   UNL A   1      43.478  33.106  35.234  1.00  0.00     0.131 A 
ATOM     82  C   UNL A   1      41.994  33.050  37.554  1.00  0.00     0.055 A 
ATOM     83  C   UNL A   1      43.852  33.914  36.312  1.00  0.00     0.041 A 
ATOM     84  F   UNL A   1      44.195  33.235  34.106  1.00  0.00    -0.206 F 
ATOM     85  C   UNL A   1      43.103  33.895  37.478  1.00  0.00     0.022 A 
BRANCH  82  86
ATOM     86  S   UNL A   1      40.896  33.171  39.002  1.00  0.00     0.124 S 
ATOM     87  O   UNL A   1      40.597  34.597  39.028  1.00  0.00    -0.237 OA
ATOM     88  O   UNL A   1      39.797  32.287  38.625  1.00  0.00    -0.237 OA
ATOM     89  O   UNL A   1      41.727  32.689  40.103  1.00  0.00    -0.744 OA
ENDBRANCH  82  86
ENDBRANCH  55  79
BRANCH  67  90
ATOM     90  C   UNL A   1      44.956  26.170  32.849  1.00  0.00     0.023 A 
ATOM     91  C   UNL A   1      44.580  25.064  33.651  1.00  0.00     0.031 A 
ATOM     92  C   UNL A   1      46.335  26.346  32.628  1.00  0.00     0.131 A 
ATOM     93  C   UNL A   1      45.562  24.239  34.242  1.00  0.00     0.055 A 
ATOM     94  C   UNL A   1      47.299  25.473  33.143  1.00  0.00     0.041 A 
ATOM     95  F   UNL A   1      46.789  27.392  31.919  1.00  0.00    -0.206 F 
ATOM     96  C   UNL A   1      46.917  24.424  33.969  1.00  0.00     0.022 A 
BRANCH  93  97
ATOM     97  S   UNL A   1      45.074  23.002  35.487  1.00  0.00     0.124 S 
ATOM     98  O   UNL A   1      44.209  22.116  34.715  1.00  0.00    -0.237 OA
ATOM     99  O   UNL A   1      46.358  22.442  35.897  1.00  0.00    -0.237 OA
ATOM    100  O   UNL A   1      44.392  23.792  36.511  1.00  0.00    -0.744 OA
ENDBRANCH  93  97
ENDBRANCH  67  90
ENDBRANCH  41  42
ENDBRANCH  34  36
ENDBRANCH  33  34
ENDBRANCH  32  33
ENDBRANCH   1  32
TORSDOF 18
ENDMDL
MODEL 2
REMARK VINA RESULT:     -13.4      2.742      3.808
REMARK SMILES Cc1cc(C(=O)OCCOC(=O)c2ccc(-c3c4nc(c(-c5cc(S(=O)(=O)[O-])ccc5F)c5ccc([nH]5)c(-c5cc(S(=O)(=O)[O-])ccc5F)c5nc(c(-c6cc(S(=O)(=O)[O-])ccc6F)c6ccc3[nH]6)C=C5)C=C4)cc2)cc(S(=O)(=O)NNC(=O)c2c[nH]c3ccccc23)c1C
REMARK SMILES IDX 8 1 7 2 5 3 6 4 4 5 1 6 2 7 3 8 94 9 77 10 95 11 76 12 78 13
REMARK SMILES IDX 79 14 80 15 81 16 82 18 83 19 84 21 85 22 86 23 93 24 87 25
REMARK SMILES IDX 88 26 92 27 89 29 91 30 90 31 9 32 10 33 11 34 12 35 13 36
REMARK SMILES IDX 14 37 75 38 15 39 74 40 16 41 17 42 18 43 68 44 19 45 73 46
REMARK SMILES IDX 67 47 69 48 20 49 72 50 66 51 65 52 21 54 53 55 33 56 52 57
REMARK SMILES IDX 34 58 37 59 51 60 70 61 35 62 36 63 50 65 71 66 38 67 22 68
REMARK SMILES IDX 23 69 31 70 24 71 30 72 32 73 29 74 25 75 26 76 27 77 28 78
REMARK SMILES IDX 54 79 55 80 63 81 56 82 62 83 64 84 61 85 57 86 58 87 59 88
REMARK SMILES IDX 60 89 39 90 40 91 48 92 41 93 47 94 49 95 46 96 42 97 43 98
REMARK SMILES IDX 44 99 45 100
REMARK H PARENT 81 17 82 20 87 28 69 53 37 64
REMARK Flexibility Score: inf
ROOT
ATOM      1  C   UNL A   1      32.832  30.761  27.011  1.00  0.00     0.275 C 
ENDROOT
BRANCH   1   2
ATOM      2  O   UNL A   1      33.208  29.799  25.991  1.00  0.00    -0.458 OA
BRANCH   2   3
ATOM      3  C   UNL A   1      33.506  28.526  26.382  1.00  0.00     0.338 C 
ATOM      4  O   UNL A   1      34.235  28.216  27.309  1.00  0.00    -0.246 OA
BRANCH   3   5
ATOM      5  C   UNL A   1      32.811  27.509  25.523  1.00  0.00     0.061 A 
ATOM      6  C   UNL A   1      29.740  25.426  26.180  1.00  0.00     0.044 C 
ATOM      7  C   UNL A   1      30.922  26.000  25.427  1.00  0.00    -0.046 A 
ATOM      8  C   UNL A   1      31.764  26.838  26.153  1.00  0.00     0.019 A 
ATOM      9  C   UNL A   1      31.175  25.789  24.031  1.00  0.00    -0.028 A 
ATOM     10  C   UNL A   1      32.309  26.414  23.371  1.00  0.00     0.088 A 
ATOM     11  C   UNL A   1      30.187  24.944  23.259  1.00  0.00     0.046 C 
ATOM     12  C   UNL A   1      33.081  27.308  24.126  1.00  0.00     0.037 A 
BRANCH  10  13
ATOM     13  S   UNL A   1      32.640  25.978  21.572  1.00  0.00     0.257 S 
ATOM     14  O   UNL A   1      31.352  26.195  20.939  1.00  0.00    -0.205 OA
ATOM     15  O   UNL A   1      33.793  26.781  21.216  1.00  0.00    -0.205 OA
BRANCH  13  16
ATOM     16  N   UNL A   1      33.113  24.250  21.095  1.00  0.00    -0.123 NA
ATOM     17  H   UNL A   1      34.106  24.228  20.862  1.00  0.00     0.167 HD
BRANCH  16  18
ATOM     18  N   UNL A   1      32.855  23.303  22.204  1.00  0.00    -0.273 N 
ATOM     19  C   UNL A   1      32.998  22.524  23.339  1.00  0.00     0.268 C 
ATOM     20  H   UNL A   1      31.933  23.050  21.968  1.00  0.00     0.186 HD
ATOM     21  O   UNL A   1      31.829  22.028  23.180  1.00  0.00    -0.268 OA
BRANCH  19  22
ATOM     22  C   UNL A   1      33.933  21.821  24.733  1.00  0.00     0.066 A 
ATOM     23  C   UNL A   1      33.436  23.435  25.531  1.00  0.00     0.097 A 
ATOM     24  C   UNL A   1      36.034  21.732  25.076  1.00  0.00     0.012 A 
ATOM     25  N   UNL A   1      34.959  24.440  25.953  1.00  0.00    -0.360 N 
ATOM     26  C   UNL A   1      36.534  23.412  25.771  1.00  0.00     0.046 A 
ATOM     27  C   UNL A   1      37.188  20.891  25.093  1.00  0.00     0.011 A 
ATOM     28  H   UNL A   1      34.941  25.383  26.232  1.00  0.00     0.166 HD
ATOM     29  C   UNL A   1      37.827  23.805  26.058  1.00  0.00     0.027 A 
ATOM     30  C   UNL A   1      38.439  21.430  25.598  1.00  0.00     0.001 A 
ATOM     31  C   UNL A   1      38.744  22.769  26.014  1.00  0.00     0.002 A 
ENDBRANCH  19  22
ENDBRANCH  16  18
ENDBRANCH  13  16
ENDBRANCH  10  13
ENDBRANCH   3   5
ENDBRANCH   2   3
ENDBRANCH   1   2
BRANCH   1  32
ATOM     32  C   UNL A   1      33.963  31.757  27.299  1.00  0.00     0.275 C 
BRANCH  32  33
ATOM     33  O   UNL A   1      34.013  32.048  28.698  1.00  0.00    -0.458 OA
BRANCH  33  34
ATOM     34  C   UNL A   1      35.198  32.548  29.100  1.00  0.00     0.338 C 
ATOM     35  O   UNL A   1      35.427  33.622  29.628  1.00  0.00    -0.246 OA
BRANCH  34  36
ATOM     36  C   UNL A   1      36.186  31.483  28.991  1.00  0.00     0.060 A 
ATOM     37  C   UNL A   1      35.818  30.251  29.502  1.00  0.00     0.016 A 
ATOM     38  C   UNL A   1      37.485  31.728  28.578  1.00  0.00     0.016 A 
ATOM     39  C   UNL A   1      36.777  29.331  29.834  1.00  0.00     0.010 A 
ATOM     40  C   UNL A   1      38.432  30.723  28.748  1.00  0.00     0.010 A 
ATOM     41  C   UNL A   1      38.097  29.566  29.468  1.00  0.00    -0.014 A 
BRANCH  41  42
ATOM     42  C   UNL A   1      39.136  28.733  30.085  1.00  0.00     0.031 A 
ATOM     43  C   UNL A   1      39.512  27.515  29.273  1.00  0.00     0.074 A 
ATOM     44  C   UNL A   1      39.905  29.206  31.125  1.00  0.00     0.049 A 
ATOM     45  N   UNL A   1      40.591  26.908  29.569  1.00  0.00    -0.248 NA
ATOM     46  C   UNL A   1      38.909  27.015  28.037  1.00  0.00     0.031 C 
ATOM     47  C   UNL A   1      39.750  30.557  31.696  1.00  0.00     0.029 A 
ATOM     48  N   UNL A   1      40.998  28.709  31.847  1.00  0.00    -0.354 N 
ATOM     49  C   UNL A   1      41.075  25.829  28.436  1.00  0.00     0.074 A 
ATOM     50  C   UNL A   1      39.748  26.081  27.545  1.00  0.00     0.031 C 
ATOM     51  C   UNL A   1      40.729  30.804  32.576  1.00  0.00     0.029 A 
ATOM     52  C   UNL A   1      41.490  29.585  32.818  1.00  0.00     0.049 A 
ATOM     53  H   UNL A   1      41.386  27.820  31.683  1.00  0.00     0.167 HD
ATOM     54  C   UNL A   1      42.589  24.625  28.689  1.00  0.00     0.034 A 
ATOM     55  C   UNL A   1      42.374  29.484  33.849  1.00  0.00     0.034 A 
ATOM     56  C   UNL A   1      43.737  24.505  30.002  1.00  0.00     0.049 A 
ATOM     57  C   UNL A   1      43.125  28.196  34.099  1.00  0.00     0.074 A 
ATOM     58  C   UNL A   1      44.623  23.456  30.271  1.00  0.00     0.029 A 
ATOM     59  N   UNL A   1      43.838  25.295  31.189  1.00  0.00    -0.354 N 
ATOM     60  N   UNL A   1      43.318  27.179  33.296  1.00  0.00    -0.248 NA
ATOM     61  C   UNL A   1      43.761  28.048  35.419  1.00  0.00     0.031 C 
ATOM     62  C   UNL A   1      44.865  23.404  31.661  1.00  0.00     0.029 A 
ATOM     63  C   UNL A   1      44.442  24.586  32.231  1.00  0.00     0.049 A 
ATOM     64  H   UNL A   1      43.521  26.225  31.262  1.00  0.00     0.167 HD
ATOM     65  C   UNL A   1      44.110  26.274  34.009  1.00  0.00     0.074 A 
ATOM     66  C   UNL A   1      44.373  26.881  35.298  1.00  0.00     0.031 C 
ATOM     67  C   UNL A   1      44.599  25.070  33.603  1.00  0.00     0.034 A 
BRANCH  54  68
ATOM     68  C   UNL A   1      43.086  23.103  27.866  1.00  0.00     0.023 A 
ATOM     69  C   UNL A   1      44.244  23.027  27.072  1.00  0.00     0.031 A 
ATOM     70  C   UNL A   1      42.122  22.071  27.687  1.00  0.00     0.131 A 
ATOM     71  C   UNL A   1      44.170  22.286  25.879  1.00  0.00     0.055 A 
ATOM     72  C   UNL A   1      42.173  21.188  26.607  1.00  0.00     0.041 A 
ATOM     73  F   UNL A   1      41.053  21.962  28.491  1.00  0.00    -0.206 F 
ATOM     74  C   UNL A   1      43.153  21.358  25.641  1.00  0.00     0.022 A 
BRANCH  71  75
ATOM     75  S   UNL A   1      45.067  22.989  24.454  1.00  0.00     0.124 S 
ATOM     76  O   UNL A   1      46.415  22.481  24.726  1.00  0.00    -0.237 OA
ATOM     77  O   UNL A   1      44.372  22.397  23.319  1.00  0.00    -0.237 OA
ATOM     78  O   UNL A   1      44.909  24.430  24.617  1.00  0.00    -0.744 OA
ENDBRANCH  71  75
ENDBRANCH  54  68
BRANCH  55  79
ATOM     79  C   UNL A   1      42.502  30.603  34.875  1.00  0.00     0.023 A 
ATOM     80  C   UNL A   1      41.467  30.950  35.769  1.00  0.00     0.031 A 
ATOM     81  C   UNL A   1      43.651  31.425  34.884  1.00  0.00     0.131 A 
ATOM     82  C   UNL A   1      41.605  32.076  36.611  1.00  0.00     0.055 A 
ATOM     83  C   UNL A   1      43.812  32.490  35.775  1.00  0.00     0.041 A 
ATOM     84  F   UNL A   1      44.651  31.205  34.017  1.00  0.00    -0.206 F 
ATOM     85  C   UNL A   1      42.782  32.826  36.640  1.00  0.00     0.022 A 
BRANCH  82  86
ATOM     86  S   UNL A   1      40.182  32.638  37.598  1.00  0.00     0.124 S 
ATOM     87  O   UNL A   1      39.127  31.746  37.132  1.00  0.00    -0.237 OA
ATOM     88  O   UNL A   1      40.654  32.422  38.962  1.00  0.00    -0.237 OA
ATOM     89  O   UNL A   1      40.029  34.039  37.212  1.00  0.00    -0.744 OA
ENDBRANCH  82  86
ENDBRANCH  55  79
BRANCH  67  90
ATOM     90  C   UNL A   1      45.445  24.276  34.606  1.00  0.00     0.023 A 
ATOM     91  C   UNL A   1      46.861  24.309  34.648  1.00  0.00     0.031 A 
ATOM     92  C   UNL A   1      44.810  23.413  35.520  1.00  0.00     0.131 A 
ATOM     93  C   UNL A   1      47.574  23.460  35.523  1.00  0.00     0.055 A 
ATOM     94  C   UNL A   1      45.519  22.640  36.445  1.00  0.00     0.041 A 
ATOM     95  F   UNL A   1      43.475  23.279  35.523  1.00  0.00    -0.206 F 
ATOM     96  C   UNL A   1      46.908  22.647  36.438  1.00  0.00     0.022 A 
BRANCH  93  97
ATOM     97  S   UNL A   1      49.384  23.315  35.367  1.00  0.00     0.124 S 
ATOM     98  O   UNL A   1      49.845  23.866  36.637  1.00  0.00    -0.237 OA
ATOM     99  O   UNL A   1      49.570  21.878  35.189  1.00  0.00    -0.237 OA
ATOM    100  O   UNL A   1      49.696  24.127  34.192  1.00  0.00    -0.744 OA
ENDBRANCH  93  97
ENDBRANCH  67  90
ENDBRANCH  41  42
ENDBRANCH  34  36
ENDBRANCH  33  34
ENDBRANCH  32  33
ENDBRANCH   1  32
TORSDOF 18
ENDMDL
MODEL 3
REMARK VINA RESULT:     -13.2      4.952     10.464
REMARK SMILES Cc1cc(C(=O)OCCOC(=O)c2ccc(-c3c4nc(c(-c5cc(S(=O)(=O)[O-])ccc5F)c5ccc([nH]5)c(-c5cc(S(=O)(=O)[O-])ccc5F)c5nc(c(-c6cc(S(=O)(=O)[O-])ccc6F)c6ccc3[nH]6)C=C5)C=C4)cc2)cc(S(=O)(=O)NNC(=O)c2c[nH]c3ccccc23)c1C
REMARK SMILES IDX 8 1 7 2 5 3 6 4 4 5 1 6 2 7 3 8 94 9 77 10 95 11 76 12 78 13
REMARK SMILES IDX 79 14 80 15 81 16 82 18 83 19 84 21 85 22 86 23 93 24 87 25
REMARK SMILES IDX 88 26 92 27 89 29 91 30 90 31 9 32 10 33 11 34 12 35 13 36
REMARK SMILES IDX 14 37 75 38 15 39 74 40 16 41 17 42 18 43 68 44 19 45 73 46
REMARK SMILES IDX 67 47 69 48 20 49 72 50 66 51 65 52 21 54 53 55 33 56 52 57
REMARK SMILES IDX 34 58 37 59 51 60 70 61 35 62 36 63 50 65 71 66 38 67 22 68
REMARK SMILES IDX 23 69 31 70 24 71 30 72 32 73 29 74 25 75 26 76 27 77 28 78
REMARK SMILES IDX 54 79 55 80 63 81 56 82 62 83 64 84 61 85 57 86 58 87 59 88
REMARK SMILES IDX 60 89 39 90 40 91 48 92 41 93 47 94 49 95 46 96 42 97 43 98
REMARK SMILES IDX 44 99 45 100
REMARK H PARENT 81 17 82 20 87 28 69 53 37 64
REMARK Flexibility Score: inf
ROOT
ATOM      1  C   UNL A   1      36.942  20.536  24.717  1.00  0.00     0.275 C 
ENDROOT
BRANCH   1   2
ATOM      2  O   UNL A   1      36.439  21.634  25.521  1.00  0.00    -0.458 OA
BRANCH   2   3
ATOM      3  C   UNL A   1      36.320  22.862  24.937  1.00  0.00     0.338 C 
ATOM      4  O   UNL A   1      37.239  23.616  24.665  1.00  0.00    -0.246 OA
BRANCH   3   5
ATOM      5  C   UNL A   1      34.886  23.197  24.647  1.00  0.00     0.061 A 
ATOM      6  C   UNL A   1      32.871  22.841  21.482  1.00  0.00     0.044 C 
ATOM      7  C   UNL A   1      33.178  23.151  22.932  1.00  0.00    -0.046 A 
ATOM      8  C   UNL A   1      34.514  23.047  23.311  1.00  0.00     0.019 A 
ATOM      9  C   UNL A   1      32.191  23.469  23.921  1.00  0.00    -0.028 A 
ATOM     10  C   UNL A   1      32.565  23.710  25.305  1.00  0.00     0.088 A 
ATOM     11  C   UNL A   1      30.742  23.485  23.487  1.00  0.00     0.046 C 
ATOM     12  C   UNL A   1      33.909  23.519  25.652  1.00  0.00     0.037 A 
BRANCH  10  13
ATOM     13  S   UNL A   1      31.222  24.250  26.506  1.00  0.00     0.257 S 
ATOM     14  O   UNL A   1      31.012  23.065  27.318  1.00  0.00    -0.205 OA
ATOM     15  O   UNL A   1      31.735  25.474  27.088  1.00  0.00    -0.205 OA
BRANCH  13  16
ATOM     16  N   UNL A   1      29.533  24.702  25.887  1.00  0.00    -0.123 NA
ATOM     17  H   UNL A   1      28.923  24.881  26.685  1.00  0.00     0.167 HD
BRANCH  16  18
ATOM     18  N   UNL A   1      29.586  25.913  25.036  1.00  0.00    -0.273 N 
ATOM     19  C   UNL A   1      29.983  27.102  24.450  1.00  0.00     0.268 C 
ATOM     20  H   UNL A   1      28.749  25.774  24.535  1.00  0.00     0.186 HD
ATOM     21  O   UNL A   1      28.921  27.136  23.735  1.00  0.00    -0.268 OA
BRANCH  19  22
ATOM     22  C   UNL A   1      31.062  28.555  24.268  1.00  0.00     0.066 A 
ATOM     23  C   UNL A   1      32.301  27.241  23.790  1.00  0.00     0.097 A 
ATOM     24  C   UNL A   1      32.100  29.691  25.743  1.00  0.00     0.012 A 
ATOM     25  N   UNL A   1      33.728  27.230  25.003  1.00  0.00    -0.360 N 
ATOM     26  C   UNL A   1      33.681  28.742  26.135  1.00  0.00     0.046 A 
ATOM     27  C   UNL A   1      32.136  30.921  26.469  1.00  0.00     0.011 A 
ATOM     28  H   UNL A   1      34.414  26.526  25.045  1.00  0.00     0.166 HD
ATOM     29  C   UNL A   1      34.604  29.093  27.100  1.00  0.00     0.027 A 
ATOM     30  C   UNL A   1      33.285  31.200  27.312  1.00  0.00     0.001 A 
ATOM     31  C   UNL A   1      34.403  30.357  27.627  1.00  0.00     0.002 A 
ENDBRANCH  19  22
ENDBRANCH  16  18
ENDBRANCH  13  16
ENDBRANCH  10  13
ENDBRANCH   3   5
ENDBRANCH   2   3
ENDBRANCH   1   2
BRANCH   1  32
ATOM     32  C   UNL A   1      38.176  19.882  25.353  1.00  0.00     0.275 C 
BRANCH  32  33
ATOM     33  O   UNL A   1      39.263  20.811  25.376  1.00  0.00    -0.458 OA
BRANCH  33  34
ATOM     34  C   UNL A   1      40.131  20.595  26.384  1.00  0.00     0.338 C 
ATOM     35  O   UNL A   1      40.806  19.605  26.602  1.00  0.00    -0.246 OA
BRANCH  34  36
ATOM     36  C   UNL A   1      40.305  21.854  27.094  1.00  0.00     0.060 A 
ATOM     37  C   UNL A   1      39.466  22.890  26.720  1.00  0.00     0.016 A 
ATOM     38  C   UNL A   1      41.368  22.070  27.955  1.00  0.00     0.016 A 
ATOM     39  C   UNL A   1      39.808  24.186  26.999  1.00  0.00     0.010 A 
ATOM     40  C   UNL A   1      41.613  23.369  28.389  1.00  0.00     0.010 A 
ATOM     41  C   UNL A   1      40.894  24.437  27.829  1.00  0.00    -0.014 A 
BRANCH  41  42
ATOM     42  C   UNL A   1      41.422  25.806  27.870  1.00  0.00     0.031 A 
ATOM     43  C   UNL A   1      40.573  26.768  28.670  1.00  0.00     0.074 A 
ATOM     44  C   UNL A   1      42.717  26.084  27.496  1.00  0.00     0.049 A 
ATOM     45  N   UNL A   1      41.090  27.881  29.011  1.00  0.00    -0.248 NA
ATOM     46  C   UNL A   1      39.272  26.540  29.298  1.00  0.00     0.031 C 
ATOM     47  C   UNL A   1      43.662  25.052  27.029  1.00  0.00     0.029 A 
ATOM     48  N   UNL A   1      43.521  27.231  27.505  1.00  0.00    -0.354 N 
ATOM     49  C   UNL A   1      40.228  28.691  30.144  1.00  0.00     0.074 A 
ATOM     50  C   UNL A   1      39.049  27.584  30.122  1.00  0.00     0.031 C 
ATOM     51  C   UNL A   1      44.888  25.574  26.890  1.00  0.00     0.029 A 
ATOM     52  C   UNL A   1      44.826  27.021  27.053  1.00  0.00     0.049 A 
ATOM     53  H   UNL A   1      43.194  28.109  27.804  1.00  0.00     0.167 HD
ATOM     54  C   UNL A   1      40.673  30.497  30.731  1.00  0.00     0.034 A 
ATOM     55  C   UNL A   1      45.871  27.825  26.715  1.00  0.00     0.034 A 
ATOM     56  C   UNL A   1      42.023  31.526  30.314  1.00  0.00     0.049 A 
ATOM     57  C   UNL A   1      45.768  29.326  26.860  1.00  0.00     0.074 A 
ATOM     58  C   UNL A   1      42.153  32.901  30.537  1.00  0.00     0.029 A 
ATOM     59  N   UNL A   1      43.134  31.256  29.456  1.00  0.00    -0.354 N 
ATOM     60  N   UNL A   1      44.918  30.036  27.561  1.00  0.00    -0.248 NA
ATOM     61  C   UNL A   1      46.772  30.130  26.141  1.00  0.00     0.031 C 
ATOM     62  C   UNL A   1      42.987  33.452  29.540  1.00  0.00     0.029 A 
ATOM     63  C   UNL A   1      43.661  32.429  28.908  1.00  0.00     0.049 A 
ATOM     64  H   UNL A   1      43.485  30.354  29.273  1.00  0.00     0.167 HD
ATOM     65  C   UNL A   1      45.291  31.371  27.377  1.00  0.00     0.074 A 
ATOM     66  C   UNL A   1      46.457  31.360  26.517  1.00  0.00     0.031 C 
ATOM     67  C   UNL A   1      44.730  32.490  27.912  1.00  0.00     0.034 A 
BRANCH  54  68
ATOM     68  C   UNL A   1      39.728  31.767  31.590  1.00  0.00     0.023 A 
ATOM     69  C   UNL A   1      39.836  31.966  32.978  1.00  0.00     0.031 A 
ATOM     70  C   UNL A   1      38.583  32.321  30.952  1.00  0.00     0.131 A 
ATOM     71  C   UNL A   1      38.654  32.238  33.691  1.00  0.00     0.055 A 
ATOM     72  C   UNL A   1      37.488  32.794  31.677  1.00  0.00     0.041 A 
ATOM     73  F   UNL A   1      38.452  32.318  29.617  1.00  0.00    -0.206 F 
ATOM     74  C   UNL A   1      37.484  32.664  33.058  1.00  0.00     0.022 A 
BRANCH  71  75
ATOM     75  S   UNL A   1      38.529  31.463  35.337  1.00  0.00     0.124 S 
ATOM     76  O   UNL A   1      38.274  30.074  34.946  1.00  0.00    -0.237 OA
ATOM     77  O   UNL A   1      39.836  31.739  35.918  1.00  0.00    -0.237 OA
ATOM     78  O   UNL A   1      37.399  32.145  35.961  1.00  0.00    -0.744 OA
ENDBRANCH  71  75
ENDBRANCH  54  68
BRANCH  55  79
ATOM     79  C   UNL A   1      47.102  27.252  26.025  1.00  0.00     0.023 A 
ATOM     80  C   UNL A   1      48.230  26.780  26.730  1.00  0.00     0.031 A 
ATOM     81  C   UNL A   1      47.201  27.284  24.616  1.00  0.00     0.131 A 
ATOM     82  C   UNL A   1      49.387  26.375  26.027  1.00  0.00     0.055 A 
ATOM     83  C   UNL A   1      48.319  26.808  23.926  1.00  0.00     0.041 A 
ATOM     84  F   UNL A   1      46.200  27.783  23.875  1.00  0.00    -0.206 F 
ATOM     85  C   UNL A   1      49.425  26.358  24.631  1.00  0.00     0.022 A 
BRANCH  82  86
ATOM     86  S   UNL A   1      50.905  25.976  26.950  1.00  0.00     0.124 S 
ATOM     87  O   UNL A   1      50.378  25.707  28.283  1.00  0.00    -0.237 OA
ATOM     88  O   UNL A   1      51.416  24.826  26.213  1.00  0.00    -0.237 OA
ATOM     89  O   UNL A   1      51.707  27.193  26.832  1.00  0.00    -0.744 OA
ENDBRANCH  82  86
ENDBRANCH  55  79
BRANCH  67  90
ATOM     90  C   UNL A   1      45.348  33.842  27.530  1.00  0.00     0.023 A 
ATOM     91  C   UNL A   1      46.409  34.456  28.241  1.00  0.00     0.031 A 
ATOM     92  C   UNL A   1      44.819  34.565  26.444  1.00  0.00     0.131 A 
ATOM     93  C   UNL A   1      46.846  35.755  27.899  1.00  0.00     0.055 A 
ATOM     94  C   UNL A   1      45.315  35.813  26.056  1.00  0.00     0.041 A 
ATOM     95  F   UNL A   1      43.782  34.085  25.740  1.00  0.00    -0.206 F 
ATOM     96  C   UNL A   1      46.321  36.423  26.794  1.00  0.00     0.022 A 
BRANCH  93  97
ATOM     97  S   UNL A   1      48.009  36.634  28.992  1.00  0.00     0.124 S 
ATOM     98  O   UNL A   1      47.211  36.823  30.198  1.00  0.00    -0.237 OA
ATOM     99  O   UNL A   1      49.116  35.689  29.100  1.00  0.00    -0.237 OA
ATOM    100  O   UNL A   1      48.315  37.860  28.255  1.00  0.00    -0.744 OA
ENDBRANCH  93  97
ENDBRANCH  67  90
ENDBRANCH  41  42
ENDBRANCH  34  36
ENDBRANCH  33  34
ENDBRANCH  32  33
ENDBRANCH   1  32
TORSDOF 18
ENDMDL
