MODEL 1
REMARK VINA RESULT:     -10.6      0.000      0.000
REMARK SMILES C[C@H](O)C[C@@H](Cc1cccc(Br)c1)C(=O)OCCOC(=O)c1ccc(-c2c3nc(c(-c4cc(S(=O)(=O)[O-])ccc4F)c4ccc([nH]4)c(-c4cc(S(=O)(=O)[O-])ccc4F)c4nc(c(-c5cc(S(=O)(=O)[O-])ccc5F)c5ccc2[nH]5)C=C4)C=C3)cc1
REMARK SMILES IDX 17 1 16 2 14 3 15 4 5 5 4 6 2 7 1 8 3 9 6 11 7 12 8 13 13 14
REMARK SMILES IDX 9 15 11 16 10 17 12 18 18 19 19 20 20 21 21 22 22 23 23 24
REMARK SMILES IDX 84 25 24 26 83 27 25 28 26 29 27 30 77 31 28 32 82 33 76 34
REMARK SMILES IDX 78 35 29 36 81 37 75 38 74 39 30 41 62 42 42 43 61 44 43 45
REMARK SMILES IDX 46 46 60 47 79 48 44 49 45 50 59 52 80 53 47 54 31 55 32 56
REMARK SMILES IDX 40 57 33 58 39 59 41 60 38 61 34 62 35 63 36 64 37 65 63 66
REMARK SMILES IDX 64 67 72 68 65 69 71 70 73 71 70 72 66 73 67 74 68 75 69 76
REMARK SMILES IDX 48 77 49 78 57 79 50 80 56 81 58 82 55 83 51 84 52 85 53 86
REMARK SMILES IDX 54 87
REMARK H PARENT 3 10 78 40 46 51
REMARK Flexibility Score: inf
ROOT
ATOM      1  C   UNL A   1      35.797  21.011  25.131  1.00  0.00     0.274 C 
ENDROOT
BRANCH   1   2
ATOM      2  O   UNL A   1      35.897  22.447  25.058  1.00  0.00    -0.462 OA
BRANCH   2   3
ATOM      3  C   UNL A   1      35.437  23.026  23.918  1.00  0.00     0.309 C 
ATOM      4  O   UNL A   1      35.979  22.929  22.822  1.00  0.00    -0.252 OA
BRANCH   3   5
ATOM      5  C   UNL A   1      34.198  23.880  24.141  1.00  0.00     0.106 C 
BRANCH   5   6
ATOM      6  C   UNL A   1      32.911  23.060  24.376  1.00  0.00     0.047 C 
BRANCH   6   7
ATOM      7  C   UNL A   1      32.059  22.877  23.115  1.00  0.00     0.112 C 
ATOM      8  C   UNL A   1      32.105  21.447  22.595  1.00  0.00     0.038 C 
BRANCH   7   9
ATOM      9  O   UNL A   1      32.502  23.773  22.103  1.00  0.00    -0.393 OA
ATOM     10  H   UNL A   1      33.018  23.285  21.443  1.00  0.00     0.210 HD
ENDBRANCH   7   9
ENDBRANCH   6   7
ENDBRANCH   5   6
BRANCH   5  11
ATOM     11  C   UNL A   1      34.509  24.969  25.180  1.00  0.00     0.051 C 
BRANCH  11  12
ATOM     12  C   UNL A   1      33.967  26.349  24.877  1.00  0.00    -0.046 A 
ATOM     13  C   UNL A   1      33.765  26.779  23.558  1.00  0.00     0.004 A 
ATOM     14  C   UNL A   1      33.668  27.230  25.927  1.00  0.00     0.019 A 
ATOM     15  C   UNL A   1      33.247  28.047  23.292  1.00  0.00     0.001 A 
ATOM     16  C   UNL A   1      33.169  28.504  25.654  1.00  0.00     0.018 A 
ATOM     17  C   UNL A   1      32.950  28.914  24.341  1.00  0.00     0.016 A 
ATOM     18  Br  UNL A   1      32.795  29.689  27.078  1.00  0.00    -0.051 Br
ENDBRANCH  11  12
ENDBRANCH   5  11
ENDBRANCH   3   5
ENDBRANCH   2   3
ENDBRANCH   1   2
BRANCH   1  19
ATOM     19  C   UNL A   1      37.166  20.341  24.999  1.00  0.00     0.275 C 
BRANCH  19  20
ATOM     20  O   UNL A   1      38.233  21.305  25.058  1.00  0.00    -0.458 OA
BRANCH  20  21
ATOM     21  C   UNL A   1      39.206  21.003  25.948  1.00  0.00     0.338 C 
ATOM     22  O   UNL A   1      39.754  19.925  26.101  1.00  0.00    -0.246 OA
BRANCH  21  23
ATOM     23  C   UNL A   1      39.631  22.213  26.666  1.00  0.00     0.060 A 
ATOM     24  C   UNL A   1      39.037  23.424  26.305  1.00  0.00     0.016 A 
ATOM     25  C   UNL A   1      40.695  22.184  27.569  1.00  0.00     0.016 A 
ATOM     26  C   UNL A   1      39.537  24.623  26.800  1.00  0.00     0.010 A 
ATOM     27  C   UNL A   1      41.189  23.391  28.078  1.00  0.00     0.010 A 
ATOM     28  C   UNL A   1      40.638  24.618  27.664  1.00  0.00    -0.014 A 
BRANCH  28  29
ATOM     29  C   UNL A   1      41.277  25.910  28.016  1.00  0.00     0.031 A 
ATOM     30  C   UNL A   1      42.673  26.194  27.530  1.00  0.00     0.074 A 
ATOM     31  C   UNL A   1      40.588  26.845  28.693  1.00  0.00     0.049 A 
ATOM     32  N   UNL A   1      43.422  27.249  27.724  1.00  0.00    -0.248 NA
ATOM     33  C   UNL A   1      43.308  25.146  26.719  1.00  0.00     0.031 C 
ATOM     34  C   UNL A   1      39.210  26.700  29.166  1.00  0.00     0.029 A 
ATOM     35  N   UNL A   1      40.948  28.107  29.090  1.00  0.00    -0.354 N 
ATOM     36  C   UNL A   1      44.624  26.985  27.077  1.00  0.00     0.074 A 
ATOM     37  C   UNL A   1      44.512  25.658  26.510  1.00  0.00     0.031 C 
ATOM     38  C   UNL A   1      38.838  27.835  29.779  1.00  0.00     0.029 A 
ATOM     39  C   UNL A   1      39.959  28.770  29.779  1.00  0.00     0.049 A 
ATOM     40  H   UNL A   1      41.829  28.502  28.900  1.00  0.00     0.167 HD
ATOM     41  C   UNL A   1      45.719  27.779  26.962  1.00  0.00     0.034 A 
ATOM     42  C   UNL A   1      39.967  29.988  30.357  1.00  0.00     0.034 A 
ATOM     43  C   UNL A   1      45.811  29.103  27.529  1.00  0.00     0.049 A 
ATOM     44  C   UNL A   1      41.210  30.835  30.254  1.00  0.00     0.074 A 
ATOM     45  C   UNL A   1      46.871  29.993  27.482  1.00  0.00     0.029 A 
ATOM     46  N   UNL A   1      44.801  29.731  28.248  1.00  0.00    -0.354 N 
ATOM     47  N   UNL A   1      42.349  30.564  29.660  1.00  0.00    -0.248 NA
ATOM     48  C   UNL A   1      41.161  32.157  30.892  1.00  0.00     0.031 C 
ATOM     49  C   UNL A   1      46.522  31.133  28.217  1.00  0.00     0.029 A 
ATOM     50  C   UNL A   1      45.220  30.986  28.665  1.00  0.00     0.049 A 
ATOM     51  H   UNL A   1      43.916  29.342  28.434  1.00  0.00     0.167 HD
ATOM     52  C   UNL A   1      43.143  31.696  29.828  1.00  0.00     0.074 A 
ATOM     53  C   UNL A   1      42.345  32.654  30.565  1.00  0.00     0.031 C 
ATOM     54  C   UNL A   1      44.413  31.925  29.407  1.00  0.00     0.034 A 
BRANCH  41  55
ATOM     55  C   UNL A   1      46.917  27.199  26.252  1.00  0.00     0.023 A 
ATOM     56  C   UNL A   1      47.907  26.470  26.935  1.00  0.00     0.031 A 
ATOM     57  C   UNL A   1      47.100  27.425  24.876  1.00  0.00     0.131 A 
ATOM     58  C   UNL A   1      49.067  26.061  26.259  1.00  0.00     0.055 A 
ATOM     59  C   UNL A   1      48.220  26.948  24.192  1.00  0.00     0.041 A 
ATOM     60  F   UNL A   1      46.201  28.134  24.175  1.00  0.00    -0.206 F 
ATOM     61  C   UNL A   1      49.220  26.275  24.887  1.00  0.00     0.022 A 
BRANCH  58  62
ATOM     62  S   UNL A   1      50.443  25.382  27.228  1.00  0.00     0.124 S 
ATOM     63  O   UNL A   1      51.379  24.988  26.178  1.00  0.00    -0.237 OA
ATOM     64  O   UNL A   1      50.843  26.519  28.047  1.00  0.00    -0.237 OA
ATOM     65  O   UNL A   1      49.833  24.271  27.957  1.00  0.00    -0.744 OA
ENDBRANCH  58  62
ENDBRANCH  41  55
BRANCH  42  66
ATOM     66  C   UNL A   1      38.776  30.472  31.112  1.00  0.00     0.023 A 
ATOM     67  C   UNL A   1      37.715  31.118  30.459  1.00  0.00     0.031 A 
ATOM     68  C   UNL A   1      38.708  30.336  32.510  1.00  0.00     0.131 A 
ATOM     69  C   UNL A   1      36.651  31.643  31.209  1.00  0.00     0.055 A 
ATOM     70  C   UNL A   1      37.625  30.816  33.246  1.00  0.00     0.041 A 
ATOM     71  F   UNL A   1      39.698  29.725  33.181  1.00  0.00    -0.206 F 
ATOM     72  C   UNL A   1      36.593  31.486  32.597  1.00  0.00     0.022 A 
BRANCH  69  73
ATOM     73  S   UNL A   1      35.376  32.607  30.353  1.00  0.00     0.124 S 
ATOM     74  O   UNL A   1      34.375  32.775  31.400  1.00  0.00    -0.237 OA
ATOM     75  O   UNL A   1      36.110  33.809  29.970  1.00  0.00    -0.237 OA
ATOM     76  O   UNL A   1      34.980  31.741  29.244  1.00  0.00    -0.744 OA
ENDBRANCH  69  73
ENDBRANCH  42  66
BRANCH  54  77
ATOM     77  C   UNL A   1      44.988  33.291  29.696  1.00  0.00     0.023 A 
ATOM     78  C   UNL A   1      44.890  34.346  28.773  1.00  0.00     0.031 A 
ATOM     79  C   UNL A   1      45.671  33.526  30.903  1.00  0.00     0.131 A 
ATOM     80  C   UNL A   1      45.519  35.571  29.043  1.00  0.00     0.055 A 
ATOM     81  C   UNL A   1      46.248  34.764  31.190  1.00  0.00     0.041 A 
ATOM     82  F   UNL A   1      45.794  32.553  31.818  1.00  0.00    -0.206 F 
ATOM     83  C   UNL A   1      46.186  35.790  30.252  1.00  0.00     0.022 A 
BRANCH  80  84
ATOM     84  S   UNL A   1      45.544  36.842  27.749  1.00  0.00     0.124 S 
ATOM     85  O   UNL A   1      45.623  36.040  26.533  1.00  0.00    -0.237 OA
ATOM     86  O   UNL A   1      44.280  37.538  27.974  1.00  0.00    -0.237 OA
ATOM     87  O   UNL A   1      46.742  37.621  28.057  1.00  0.00    -0.744 OA
ENDBRANCH  80  84
ENDBRANCH  54  77
ENDBRANCH  28  29
ENDBRANCH  21  23
ENDBRANCH  20  21
ENDBRANCH  19  20
ENDBRANCH   1  19
TORSDOF 19
ENDMDL
MODEL 2
REMARK VINA RESULT:     -10.6      4.799     10.306
REMARK SMILES C[C@H](O)C[C@@H](Cc1cccc(Br)c1)C(=O)OCCOC(=O)c1ccc(-c2c3nc(c(-c4cc(S(=O)(=O)[O-])ccc4F)c4ccc([nH]4)c(-c4cc(S(=O)(=O)[O-])ccc4F)c4nc(c(-c5cc(S(=O)(=O)[O-])ccc5F)c5ccc2[nH]5)C=C4)C=C3)cc1
REMARK SMILES IDX 17 1 16 2 14 3 15 4 5 5 4 6 2 7 1 8 3 9 6 11 7 12 8 13 13 14
REMARK SMILES IDX 9 15 11 16 10 17 12 18 18 19 19 20 20 21 21 22 22 23 23 24
REMARK SMILES IDX 84 25 24 26 83 27 25 28 26 29 27 30 77 31 28 32 82 33 76 34
REMARK SMILES IDX 78 35 29 36 81 37 75 38 74 39 30 41 62 42 42 43 61 44 43 45
REMARK SMILES IDX 46 46 60 47 79 48 44 49 45 50 59 52 80 53 47 54 31 55 32 56
REMARK SMILES IDX 40 57 33 58 39 59 41 60 38 61 34 62 35 63 36 64 37 65 63 66
REMARK SMILES IDX 64 67 72 68 65 69 71 70 73 71 70 72 66 73 67 74 68 75 69 76
REMARK SMILES IDX 48 77 49 78 57 79 50 80 56 81 58 82 55 83 51 84 52 85 53 86
REMARK SMILES IDX 54 87
REMARK H PARENT 3 10 78 40 46 51
REMARK Flexibility Score: inf
ROOT
ATOM      1  C   UNL A   1      31.174  31.182  26.686  1.00  0.00     0.274 C 
ENDROOT
BRANCH   1   2
ATOM      2  O   UNL A   1      32.016  30.462  25.765  1.00  0.00    -0.462 OA
BRANCH   2   3
ATOM      3  C   UNL A   1      32.237  29.152  26.049  1.00  0.00     0.309 C 
ATOM      4  O   UNL A   1      32.410  28.704  27.177  1.00  0.00    -0.252 OA
BRANCH   3   5
ATOM      5  C   UNL A   1      32.318  28.278  24.806  1.00  0.00     0.106 C 
BRANCH   5   6
ATOM      6  C   UNL A   1      31.725  28.937  23.542  1.00  0.00     0.047 C 
BRANCH   6   7
ATOM      7  C   UNL A   1      30.497  28.207  22.986  1.00  0.00     0.112 C 
ATOM      8  C   UNL A   1      30.106  27.010  23.843  1.00  0.00     0.038 C 
BRANCH   7   9
ATOM      9  O   UNL A   1      30.755  27.782  21.653  1.00  0.00    -0.393 OA
ATOM     10  H   UNL A   1      29.920  27.726  21.164  1.00  0.00     0.210 HD
ENDBRANCH   7   9
ENDBRANCH   6   7
ENDBRANCH   5   6
BRANCH   5  11
ATOM     11  C   UNL A   1      33.741  27.712  24.672  1.00  0.00     0.051 C 
BRANCH  11  12
ATOM     12  C   UNL A   1      33.841  26.226  24.410  1.00  0.00    -0.046 A 
ATOM     13  C   UNL A   1      33.537  25.686  23.152  1.00  0.00     0.004 A 
ATOM     14  C   UNL A   1      34.232  25.357  25.440  1.00  0.00     0.019 A 
ATOM     15  C   UNL A   1      33.651  24.315  22.917  1.00  0.00     0.001 A 
ATOM     16  C   UNL A   1      34.325  23.985  25.203  1.00  0.00     0.018 A 
ATOM     17  C   UNL A   1      34.043  23.461  23.944  1.00  0.00     0.016 A 
ATOM     18  Br  UNL A   1      34.830  22.825  26.608  1.00  0.00    -0.051 Br
ENDBRANCH  11  12
ENDBRANCH   5  11
ENDBRANCH   3   5
ENDBRANCH   2   3
ENDBRANCH   1   2
BRANCH   1  19
ATOM     19  C   UNL A   1      31.390  32.694  26.587  1.00  0.00     0.275 C 
BRANCH  19  20
ATOM     20  O   UNL A   1      32.790  33.027  26.574  1.00  0.00    -0.458 OA
BRANCH  20  21
ATOM     21  C   UNL A   1      33.270  33.457  27.764  1.00  0.00     0.338 C 
ATOM     22  O   UNL A   1      32.714  34.197  28.558  1.00  0.00    -0.246 OA
BRANCH  21  23
ATOM     23  C   UNL A   1      34.553  32.803  28.060  1.00  0.00     0.060 A 
ATOM     24  C   UNL A   1      34.525  31.457  28.432  1.00  0.00     0.016 A 
ATOM     25  C   UNL A   1      35.742  33.532  28.116  1.00  0.00     0.016 A 
ATOM     26  C   UNL A   1      35.674  30.843  28.918  1.00  0.00     0.010 A 
ATOM     27  C   UNL A   1      36.901  32.908  28.592  1.00  0.00     0.010 A 
ATOM     28  C   UNL A   1      36.862  31.573  29.032  1.00  0.00    -0.014 A 
BRANCH  28  29
ATOM     29  C   UNL A   1      38.014  30.958  29.738  1.00  0.00     0.031 A 
ATOM     30  C   UNL A   1      38.260  31.304  31.182  1.00  0.00     0.074 A 
ATOM     31  C   UNL A   1      38.780  30.044  29.117  1.00  0.00     0.049 A 
ATOM     32  N   UNL A   1      39.205  30.893  31.987  1.00  0.00    -0.248 NA
ATOM     33  C   UNL A   1      37.312  32.244  31.798  1.00  0.00     0.031 C 
ATOM     34  C   UNL A   1      38.600  29.590  27.738  1.00  0.00     0.029 A 
ATOM     35  N   UNL A   1      39.855  29.322  29.570  1.00  0.00    -0.354 N 
ATOM     36  C   UNL A   1      38.980  31.536  33.198  1.00  0.00     0.074 A 
ATOM     37  C   UNL A   1      37.824  32.388  33.011  1.00  0.00     0.031 C 
ATOM     38  C   UNL A   1      39.526  28.658  27.460  1.00  0.00     0.029 A 
ATOM     39  C   UNL A   1      40.388  28.478  28.625  1.00  0.00     0.049 A 
ATOM     40  H   UNL A   1      40.210  29.401  30.485  1.00  0.00     0.167 HD
ATOM     41  C   UNL A   1      39.671  31.423  34.361  1.00  0.00     0.034 A 
ATOM     42  C   UNL A   1      41.461  27.664  28.691  1.00  0.00     0.034 A 
ATOM     43  C   UNL A   1      40.817  30.564  34.532  1.00  0.00     0.049 A 
ATOM     44  C   UNL A   1      42.240  27.588  29.980  1.00  0.00     0.074 A 
ATOM     45  C   UNL A   1      41.598  30.375  35.659  1.00  0.00     0.029 A 
ATOM     46  N   UNL A   1      41.350  29.745  33.543  1.00  0.00    -0.354 N 
ATOM     47  N   UNL A   1      42.030  28.220  31.112  1.00  0.00    -0.248 NA
ATOM     48  C   UNL A   1      43.392  26.678  30.001  1.00  0.00     0.031 C 
ATOM     49  C   UNL A   1      42.631  29.487  35.337  1.00  0.00     0.029 A 
ATOM     50  C   UNL A   1      42.457  29.066  34.028  1.00  0.00     0.049 A 
ATOM     51  H   UNL A   1      40.992  29.659  32.629  1.00  0.00     0.167 HD
ATOM     52  C   UNL A   1      43.010  27.761  31.988  1.00  0.00     0.074 A 
ATOM     53  C   UNL A   1      43.797  26.789  31.257  1.00  0.00     0.031 C 
ATOM     54  C   UNL A   1      43.236  28.107  33.282  1.00  0.00     0.034 A 
BRANCH  41  55
ATOM     55  C   UNL A   1      39.235  32.303  35.507  1.00  0.00     0.023 A 
ATOM     56  C   UNL A   1      39.704  33.621  35.656  1.00  0.00     0.031 A 
ATOM     57  C   UNL A   1      38.376  31.795  36.499  1.00  0.00     0.131 A 
ATOM     58  C   UNL A   1      39.374  34.356  36.805  1.00  0.00     0.055 A 
ATOM     59  C   UNL A   1      37.990  32.560  37.602  1.00  0.00     0.041 A 
ATOM     60  F   UNL A   1      37.915  30.537  36.425  1.00  0.00    -0.206 F 
ATOM     61  C   UNL A   1      38.502  33.843  37.768  1.00  0.00     0.022 A 
BRANCH  58  62
ATOM     62  S   UNL A   1      40.223  35.932  37.100  1.00  0.00     0.124 S 
ATOM     63  O   UNL A   1      41.625  35.522  37.078  1.00  0.00    -0.237 OA
ATOM     64  O   UNL A   1      39.777  36.746  35.975  1.00  0.00    -0.237 OA
ATOM     65  O   UNL A   1      39.725  36.350  38.409  1.00  0.00    -0.744 OA
ENDBRANCH  58  62
ENDBRANCH  41  55
BRANCH  42  66
ATOM     66  C   UNL A   1      41.886  26.880  27.497  1.00  0.00     0.023 A 
ATOM     67  C   UNL A   1      41.673  25.494  27.423  1.00  0.00     0.031 A 
ATOM     68  C   UNL A   1      42.559  27.502  26.431  1.00  0.00     0.131 A 
ATOM     69  C   UNL A   1      42.166  24.769  26.328  1.00  0.00     0.055 A 
ATOM     70  C   UNL A   1      43.004  26.786  25.320  1.00  0.00     0.041 A 
ATOM     71  F   UNL A   1      42.787  28.826  26.452  1.00  0.00    -0.206 F 
ATOM     72  C   UNL A   1      42.820  25.407  25.270  1.00  0.00     0.022 A 
BRANCH  69  73
ATOM     73  S   UNL A   1      42.011  22.962  26.339  1.00  0.00     0.124 S 
ATOM     74  O   UNL A   1      42.823  22.601  27.496  1.00  0.00    -0.237 OA
ATOM     75  O   UNL A   1      40.571  22.782  26.485  1.00  0.00    -0.237 OA
ATOM     76  O   UNL A   1      42.559  22.565  25.043  1.00  0.00    -0.744 OA
ENDBRANCH  69  73
ENDBRANCH  42  66
BRANCH  54  77
ATOM     77  C   UNL A   1      44.352  27.381  33.994  1.00  0.00     0.023 A 
ATOM     78  C   UNL A   1      44.156  26.125  34.591  1.00  0.00     0.031 A 
ATOM     79  C   UNL A   1      45.622  27.976  34.100  1.00  0.00     0.131 A 
ATOM     80  C   UNL A   1      45.196  25.529  35.322  1.00  0.00     0.055 A 
ATOM     81  C   UNL A   1      46.669  27.353  34.781  1.00  0.00     0.041 A 
ATOM     82  F   UNL A   1      45.863  29.175  33.548  1.00  0.00    -0.206 F 
ATOM     83  C   UNL A   1      46.454  26.130  35.410  1.00  0.00     0.022 A 
BRANCH  80  84
ATOM     84  S   UNL A   1      44.850  24.006  36.246  1.00  0.00     0.124 S 
ATOM     85  O   UNL A   1      44.451  24.524  37.550  1.00  0.00    -0.237 OA
ATOM     86  O   UNL A   1      43.790  23.394  35.450  1.00  0.00    -0.237 OA
ATOM     87  O   UNL A   1      46.128  23.296  36.225  1.00  0.00    -0.744 OA
ENDBRANCH  80  84
ENDBRANCH  54  77
ENDBRANCH  28  29
ENDBRANCH  21  23
ENDBRANCH  20  21
ENDBRANCH  19  20
ENDBRANCH   1  19
TORSDOF 19
ENDMDL
MODEL 3
REMARK VINA RESULT:     -10.6      2.107      2.633
REMARK SMILES C[C@H](O)C[C@@H](Cc1cccc(Br)c1)C(=O)OCCOC(=O)c1ccc(-c2c3nc(c(-c4cc(S(=O)(=O)[O-])ccc4F)c4ccc([nH]4)c(-c4cc(S(=O)(=O)[O-])ccc4F)c4nc(c(-c5cc(S(=O)(=O)[O-])ccc5F)c5ccc2[nH]5)C=C4)C=C3)cc1
REMARK SMILES IDX 17 1 16 2 14 3 15 4 5 5 4 6 2 7 1 8 3 9 6 11 7 12 8 13 13 14
REMARK SMILES IDX 9 15 11 16 10 17 12 18 18 19 19 20 20 21 21 22 22 23 23 24
REMARK SMILES IDX 84 25 24 26 83 27 25 28 26 29 27 30 77 31 28 32 82 33 76 34
REMARK SMILES IDX 78 35 29 36 81 37 75 38 74 39 30 41 62 42 42 43 61 44 43 45
REMARK SMILES IDX 46 46 60 47 79 48 44 49 45 50 59 52 80 53 47 54 31 55 32 56
REMARK SMILES IDX 40 57 33 58 39 59 41 60 38 61 34 62 35 63 36 64 37 65 63 66
REMARK SMILES IDX 64 67 72 68 65 69 71 70 73 71 70 72 66 73 67 74 68 75 69 76
REMARK SMILES IDX 48 77 49 78 57 79 50 80 56 81 58 82 55 83 51 84 52 85 53 86
REMARK SMILES IDX 54 87
REMARK H PARENT 3 10 78 40 46 51
REMARK Flexibility Score: inf
ROOT
ATOM      1  C   UNL A   1      36.439  21.116  25.235  1.00  0.00     0.274 C 
ENDROOT
BRANCH   1   2
ATOM      2  O   UNL A   1      35.341  20.217  24.983  1.00  0.00    -0.462 OA
BRANCH   2   3
ATOM      3  C   UNL A   1      34.126  20.603  25.453  1.00  0.00     0.309 C 
ATOM      4  O   UNL A   1      33.914  20.985  26.599  1.00  0.00    -0.252 OA
BRANCH   3   5
ATOM      5  C   UNL A   1      33.014  20.453  24.427  1.00  0.00     0.106 C 
BRANCH   5   6
ATOM      6  C   UNL A   1      32.585  18.990  24.183  1.00  0.00     0.047 C 
BRANCH   6   7
ATOM      7  C   UNL A   1      33.163  18.001  25.202  1.00  0.00     0.112 C 
ATOM      8  C   UNL A   1      33.026  16.556  24.738  1.00  0.00     0.038 C 
BRANCH   7   9
ATOM      9  O   UNL A   1      32.512  18.169  26.455  1.00  0.00    -0.393 OA
ATOM     10  H   UNL A   1      32.683  19.062  26.791  1.00  0.00     0.210 HD
ENDBRANCH   7   9
ENDBRANCH   6   7
ENDBRANCH   5   6
BRANCH   5  11
ATOM     11  C   UNL A   1      31.885  21.446  24.747  1.00  0.00     0.051 C 
BRANCH  11  12
ATOM     12  C   UNL A   1      31.897  22.739  23.962  1.00  0.00    -0.046 A 
ATOM     13  C   UNL A   1      32.843  22.971  22.955  1.00  0.00     0.004 A 
ATOM     14  C   UNL A   1      30.955  23.739  24.246  1.00  0.00     0.019 A 
ATOM     15  C   UNL A   1      32.832  24.161  22.225  1.00  0.00     0.001 A 
ATOM     16  C   UNL A   1      30.962  24.935  23.526  1.00  0.00     0.018 A 
ATOM     17  C   UNL A   1      31.891  25.147  22.511  1.00  0.00     0.016 A 
ATOM     18  Br  UNL A   1      29.702  26.283  23.937  1.00  0.00    -0.051 Br
ENDBRANCH  11  12
ENDBRANCH   5  11
ENDBRANCH   3   5
ENDBRANCH   2   3
ENDBRANCH   1   2
BRANCH   1  19
ATOM     19  C   UNL A   1      37.788  20.400  25.143  1.00  0.00     0.275 C 
BRANCH  19  20
ATOM     20  O   UNL A   1      38.884  21.328  25.234  1.00  0.00    -0.458 OA
BRANCH  20  21
ATOM     21  C   UNL A   1      39.708  21.114  26.286  1.00  0.00     0.338 C 
ATOM     22  O   UNL A   1      40.217  20.057  26.619  1.00  0.00    -0.246 OA
BRANCH  21  23
ATOM     23  C   UNL A   1      40.029  22.387  26.947  1.00  0.00     0.060 A 
ATOM     24  C   UNL A   1      39.382  23.537  26.489  1.00  0.00     0.016 A 
ATOM     25  C   UNL A   1      41.051  22.475  27.893  1.00  0.00     0.016 A 
ATOM     26  C   UNL A   1      39.789  24.791  26.931  1.00  0.00     0.010 A 
ATOM     27  C   UNL A   1      41.450  23.738  28.348  1.00  0.00     0.010 A 
ATOM     28  C   UNL A   1      40.848  24.902  27.839  1.00  0.00    -0.014 A 
BRANCH  28  29
ATOM     29  C   UNL A   1      41.394  26.249  28.138  1.00  0.00     0.031 A 
ATOM     30  C   UNL A   1      42.775  26.605  27.657  1.00  0.00     0.074 A 
ATOM     31  C   UNL A   1      40.635  27.165  28.764  1.00  0.00     0.049 A 
ATOM     32  N   UNL A   1      43.449  27.714  27.810  1.00  0.00    -0.248 NA
ATOM     33  C   UNL A   1      43.491  25.566  26.902  1.00  0.00     0.031 C 
ATOM     34  C   UNL A   1      39.263  26.949  29.226  1.00  0.00     0.029 A 
ATOM     35  N   UNL A   1      40.903  28.466  29.106  1.00  0.00    -0.354 N 
ATOM     36  C   UNL A   1      44.676  27.503  27.191  1.00  0.00     0.074 A 
ATOM     37  C   UNL A   1      44.661  26.147  26.684  1.00  0.00     0.031 C 
ATOM     38  C   UNL A   1      38.806  28.084  29.782  1.00  0.00     0.029 A 
ATOM     39  C   UNL A   1      39.863  29.091  29.752  1.00  0.00     0.049 A 
ATOM     40  H   UNL A   1      41.759  28.909  28.909  1.00  0.00     0.167 HD
ATOM     41  C   UNL A   1      45.717  28.363  27.053  1.00  0.00     0.034 A 
ATOM     42  C   UNL A   1      39.780  30.332  30.274  1.00  0.00     0.034 A 
ATOM     43  C   UNL A   1      45.712  29.715  27.559  1.00  0.00     0.049 A 
ATOM     44  C   UNL A   1      40.966  31.255  30.146  1.00  0.00     0.074 A 
ATOM     45  C   UNL A   1      46.711  30.670  27.483  1.00  0.00     0.029 A 
ATOM     46  N   UNL A   1      44.652  30.305  28.236  1.00  0.00    -0.354 N 
ATOM     47  N   UNL A   1      42.130  31.034  29.578  1.00  0.00    -0.248 NA
ATOM     48  C   UNL A   1      40.819  32.598  30.721  1.00  0.00     0.031 C 
ATOM     49  C   UNL A   1      46.276  31.817  28.161  1.00  0.00     0.029 A 
ATOM     50  C   UNL A   1      44.980  31.603  28.600  1.00  0.00     0.049 A 
ATOM     51  H   UNL A   1      43.792  29.866  28.429  1.00  0.00     0.167 HD
ATOM     52  C   UNL A   1      42.843  32.224  29.704  1.00  0.00     0.074 A 
ATOM     53  C   UNL A   1      41.972  33.158  30.386  1.00  0.00     0.031 C 
ATOM     54  C   UNL A   1      44.102  32.519  29.288  1.00  0.00     0.034 A 
BRANCH  41  55
ATOM     55  C   UNL A   1      46.962  27.833  26.384  1.00  0.00     0.023 A 
ATOM     56  C   UNL A   1      47.237  28.072  25.025  1.00  0.00     0.031 A 
ATOM     57  C   UNL A   1      47.862  27.029  27.106  1.00  0.00     0.131 A 
ATOM     58  C   UNL A   1      48.338  27.452  24.415  1.00  0.00     0.055 A 
ATOM     59  C   UNL A   1      48.999  26.478  26.511  1.00  0.00     0.041 A 
ATOM     60  F   UNL A   1      47.641  26.746  28.399  1.00  0.00    -0.206 F 
ATOM     61  C   UNL A   1      49.234  26.675  25.153  1.00  0.00     0.022 A 
BRANCH  58  62
ATOM     62  S   UNL A   1      48.498  27.548  22.610  1.00  0.00     0.124 S 
ATOM     63  O   UNL A   1      49.759  28.269  22.462  1.00  0.00    -0.237 OA
ATOM     64  O   UNL A   1      48.514  26.144  22.219  1.00  0.00    -0.237 OA
ATOM     65  O   UNL A   1      47.311  28.296  22.200  1.00  0.00    -0.744 OA
ENDBRANCH  58  62
ENDBRANCH  41  55
BRANCH  42  66
ATOM     66  C   UNL A   1      38.549  30.767  30.990  1.00  0.00     0.023 A 
ATOM     67  C   UNL A   1      37.565  31.534  30.347  1.00  0.00     0.031 A 
ATOM     68  C   UNL A   1      38.364  30.462  32.351  1.00  0.00     0.131 A 
ATOM     69  C   UNL A   1      36.462  32.007  31.074  1.00  0.00     0.055 A 
ATOM     70  C   UNL A   1      37.241  30.892  33.058  1.00  0.00     0.041 A 
ATOM     71  F   UNL A   1      39.276  29.731  33.013  1.00  0.00    -0.206 F 
ATOM     72  C   UNL A   1      36.287  31.681  32.422  1.00  0.00     0.022 A 
BRANCH  69  73
ATOM     73  S   UNL A   1      35.292  33.123  30.253  1.00  0.00     0.124 S 
ATOM     74  O   UNL A   1      34.476  32.188  29.487  1.00  0.00    -0.237 OA
ATOM     75  O   UNL A   1      34.637  33.764  31.388  1.00  0.00    -0.237 OA
ATOM     76  O   UNL A   1      36.153  33.996  29.459  1.00  0.00    -0.744 OA
ENDBRANCH  69  73
ENDBRANCH  42  66
BRANCH  54  77
ATOM     77  C   UNL A   1      44.579  33.931  29.520  1.00  0.00     0.023 A 
ATOM     78  C   UNL A   1      44.239  34.981  28.651  1.00  0.00     0.031 A 
ATOM     79  C   UNL A   1      45.416  34.220  30.614  1.00  0.00     0.131 A 
ATOM     80  C   UNL A   1      44.781  36.260  28.853  1.00  0.00     0.055 A 
ATOM     81  C   UNL A   1      45.908  35.506  30.841  1.00  0.00     0.041 A 
ATOM     82  F   UNL A   1      45.772  33.255  31.475  1.00  0.00    -0.206 F 
ATOM     83  C   UNL A   1      45.603  36.531  29.950  1.00  0.00     0.022 A 
BRANCH  80  84
ATOM     84  S   UNL A   1      44.482  37.540  27.603  1.00  0.00     0.124 S 
ATOM     85  O   UNL A   1      43.465  36.917  26.763  1.00  0.00    -0.237 OA
ATOM     86  O   UNL A   1      44.036  38.668  28.416  1.00  0.00    -0.237 OA
ATOM     87  O   UNL A   1      45.789  37.712  26.970  1.00  0.00    -0.744 OA
ENDBRANCH  80  84
ENDBRANCH  54  77
ENDBRANCH  28  29
ENDBRANCH  21  23
ENDBRANCH  20  21
ENDBRANCH  19  20
ENDBRANCH   1  19
TORSDOF 19
ENDMDL
