MODEL 1
REMARK VINA RESULT:     -12.0      0.000      0.000
REMARK SMILES Cc1nn(C(C)C)cc1-c1cnccc1C(=O)OCCOC(=O)c1ccc(-c2c3nc(c(-c4cc(S(=O)(=O)[O-])ccc4F)c4ccc([nH]4)c(-c4cc(S(=O)(=O)[O-])ccc4F)c4nc(c(-c5cc(S(=O)(=O)[O-])ccc5F)c5ccc2[nH]5)C=C4)C=C3)cc1
REMARK SMILES IDX 20 1 19 2 18 3 16 4 17 5 15 6 10 7 11 8 12 9 14 10 13 11
REMARK SMILES IDX 9 12 1 13 2 14 3 15 4 16 8 17 5 18 6 19 7 20 21 21 22 22
REMARK SMILES IDX 23 23 24 24 25 25 86 26 26 27 85 28 27 29 28 30 29 31 79 32
REMARK SMILES IDX 30 33 84 34 78 35 80 36 31 37 83 38 77 39 76 40 32 42 64 43
REMARK SMILES IDX 44 44 63 45 45 46 48 47 62 48 81 49 46 50 47 51 61 53 82 54
REMARK SMILES IDX 49 55 33 56 34 57 42 58 35 59 41 60 43 61 40 62 36 63 37 64
REMARK SMILES IDX 38 65 39 66 65 67 66 68 74 69 67 70 73 71 75 72 72 73 68 74
REMARK SMILES IDX 69 75 70 76 71 77 50 78 51 79 59 80 52 81 58 82 60 83 57 84
REMARK SMILES IDX 53 85 54 86 55 87 56 88
REMARK H PARENT 80 41 48 52
REMARK Flexibility Score: inf
ROOT
ATOM      1  C   UNL A   1      38.391  22.095  26.017  1.00  0.00     0.275 C 
ENDROOT
BRANCH   1   2
ATOM      2  C   UNL A   1      37.397  22.459  24.931  1.00  0.00     0.275 C 
BRANCH   2   3
ATOM      3  O   UNL A   1      36.129  22.766  25.525  1.00  0.00    -0.458 OA
BRANCH   3   4
ATOM      4  C   UNL A   1      35.086  23.053  24.720  1.00  0.00     0.338 C 
ATOM      5  O   UNL A   1      35.137  23.105  23.496  1.00  0.00    -0.246 OA
BRANCH   4   6
ATOM      6  C   UNL A   1      33.809  23.234  25.477  1.00  0.00     0.071 A 
ATOM      7  C   UNL A   1      32.797  22.273  25.645  1.00  0.00     0.018 A 
ATOM      8  C   UNL A   1      31.704  22.647  26.429  1.00  0.00     0.120 A 
ATOM      9  N   UNL A   1      31.531  23.863  27.002  1.00  0.00    -0.264 NA
ATOM     10  C   UNL A   1      33.625  24.516  26.025  1.00  0.00     0.036 A 
ATOM     11  C   UNL A   1      32.482  24.782  26.756  1.00  0.00     0.112 A 
BRANCH   7  12
ATOM     12  C   UNL A   1      32.757  20.968  25.012  1.00  0.00     0.025 A 
ATOM     13  C   UNL A   1      32.013  21.471  22.543  1.00  0.00     0.069 C 
ATOM     14  C   UNL A   1      32.452  20.605  23.669  1.00  0.00     0.067 A 
ATOM     15  N   UNL A   1      32.619  19.290  23.466  1.00  0.00    -0.177 NA
ATOM     16  N   UNL A   1      33.124  18.847  24.630  1.00  0.00    -0.269 N 
ATOM     17  C   UNL A   1      33.079  19.777  25.628  1.00  0.00     0.118 A 
BRANCH  16  18
ATOM     18  C   UNL A   1      33.672  17.500  24.730  1.00  0.00     0.101 C 
ATOM     19  C   UNL A   1      32.837  16.651  25.682  1.00  0.00     0.033 C 
ATOM     20  C   UNL A   1      33.817  16.831  23.359  1.00  0.00     0.033 C 
ENDBRANCH  16  18
ENDBRANCH   7  12
ENDBRANCH   4   6
ENDBRANCH   3   4
ENDBRANCH   2   3
ENDBRANCH   1   2
BRANCH   1  21
ATOM     21  O   UNL A   1      38.774  23.266  26.732  1.00  0.00    -0.458 OA
BRANCH  21  22
ATOM     22  C   UNL A   1      40.013  23.227  27.273  1.00  0.00     0.338 C 
ATOM     23  O   UNL A   1      40.594  22.264  27.739  1.00  0.00    -0.246 OA
BRANCH  22  24
ATOM     24  C   UNL A   1      40.496  24.599  27.423  1.00  0.00     0.060 A 
ATOM     25  C   UNL A   1      41.490  24.816  28.381  1.00  0.00     0.016 A 
ATOM     26  C   UNL A   1      39.762  25.648  26.852  1.00  0.00     0.016 A 
ATOM     27  C   UNL A   1      41.622  26.081  28.906  1.00  0.00     0.010 A 
ATOM     28  C   UNL A   1      39.881  26.902  27.390  1.00  0.00     0.010 A 
ATOM     29  C   UNL A   1      40.756  27.082  28.459  1.00  0.00    -0.014 A 
BRANCH  29  30
ATOM     30  C   UNL A   1      40.865  28.395  29.058  1.00  0.00     0.031 A 
ATOM     31  C   UNL A   1      41.997  29.174  28.502  1.00  0.00     0.074 A 
ATOM     32  C   UNL A   1      39.914  28.863  29.887  1.00  0.00     0.049 A 
ATOM     33  N   UNL A   1      43.020  29.665  29.117  1.00  0.00    -0.248 NA
ATOM     34  C   UNL A   1      42.094  29.256  27.031  1.00  0.00     0.031 C 
ATOM     35  C   UNL A   1      38.624  28.231  30.195  1.00  0.00     0.029 A 
ATOM     36  N   UNL A   1      39.824  30.064  30.514  1.00  0.00    -0.354 N 
ATOM     37  C   UNL A   1      43.754  30.327  28.138  1.00  0.00     0.074 A 
ATOM     38  C   UNL A   1      43.277  29.843  26.876  1.00  0.00     0.031 C 
ATOM     39  C   UNL A   1      37.796  29.155  30.732  1.00  0.00     0.029 A 
ATOM     40  C   UNL A   1      38.536  30.393  30.921  1.00  0.00     0.049 A 
ATOM     41  H   UNL A   1      40.601  30.650  30.667  1.00  0.00     0.167 HD
ATOM     42  C   UNL A   1      44.479  31.436  28.439  1.00  0.00     0.034 A 
ATOM     43  C   UNL A   1      38.082  31.624  31.278  1.00  0.00     0.034 A 
ATOM     44  C   UNL A   1      44.775  31.483  29.852  1.00  0.00     0.049 A 
ATOM     45  C   UNL A   1      39.278  32.444  31.602  1.00  0.00     0.074 A 
ATOM     46  C   UNL A   1      45.469  30.666  30.722  1.00  0.00     0.029 A 
ATOM     47  N   UNL A   1      43.993  32.301  30.636  1.00  0.00    -0.354 N 
ATOM     48  N   UNL A   1      40.095  32.181  32.588  1.00  0.00    -0.248 NA
ATOM     49  C   UNL A   1      39.828  33.299  30.560  1.00  0.00     0.031 C 
ATOM     50  C   UNL A   1      44.750  30.733  31.950  1.00  0.00     0.029 A 
ATOM     51  C   UNL A   1      43.693  31.635  31.797  1.00  0.00     0.049 A 
ATOM     52  H   UNL A   1      43.699  33.211  30.403  1.00  0.00     0.167 HD
ATOM     53  C   UNL A   1      41.360  32.478  32.100  1.00  0.00     0.074 A 
ATOM     54  C   UNL A   1      41.122  33.269  30.898  1.00  0.00     0.031 C 
ATOM     55  C   UNL A   1      42.467  31.820  32.558  1.00  0.00     0.034 A 
BRANCH  42  56
ATOM     56  C   UNL A   1      44.535  32.667  27.553  1.00  0.00     0.023 A 
ATOM     57  C   UNL A   1      43.857  33.809  28.017  1.00  0.00     0.031 A 
ATOM     58  C   UNL A   1      44.930  32.704  26.193  1.00  0.00     0.131 A 
ATOM     59  C   UNL A   1      43.493  34.843  27.136  1.00  0.00     0.055 A 
ATOM     60  C   UNL A   1      44.622  33.765  25.337  1.00  0.00     0.041 A 
ATOM     61  F   UNL A   1      45.557  31.695  25.581  1.00  0.00    -0.206 F 
ATOM     62  C   UNL A   1      43.867  34.827  25.796  1.00  0.00     0.022 A 
BRANCH  59  63
ATOM     63  S   UNL A   1      42.358  36.115  27.737  1.00  0.00     0.124 S 
ATOM     64  O   UNL A   1      41.132  35.349  27.923  1.00  0.00    -0.237 OA
ATOM     65  O   UNL A   1      43.031  36.565  28.950  1.00  0.00    -0.237 OA
ATOM     66  O   UNL A   1      42.329  37.085  26.644  1.00  0.00    -0.744 OA
ENDBRANCH  59  63
ENDBRANCH  42  56
BRANCH  43  67
ATOM     67  C   UNL A   1      36.746  32.190  30.930  1.00  0.00     0.023 A 
ATOM     68  C   UNL A   1      35.917  32.849  31.860  1.00  0.00     0.031 A 
ATOM     69  C   UNL A   1      36.352  32.260  29.572  1.00  0.00     0.131 A 
ATOM     70  C   UNL A   1      34.751  33.522  31.421  1.00  0.00     0.055 A 
ATOM     71  C   UNL A   1      35.194  32.914  29.147  1.00  0.00     0.041 A 
ATOM     72  F   UNL A   1      37.124  31.756  28.597  1.00  0.00    -0.206 F 
ATOM     73  C   UNL A   1      34.389  33.555  30.073  1.00  0.00     0.022 A 
BRANCH  70  74
ATOM     74  S   UNL A   1      33.705  34.430  32.608  1.00  0.00     0.124 S 
ATOM     75  O   UNL A   1      33.003  33.353  33.295  1.00  0.00    -0.237 OA
ATOM     76  O   UNL A   1      34.692  35.166  33.389  1.00  0.00    -0.237 OA
ATOM     77  O   UNL A   1      32.859  35.263  31.751  1.00  0.00    -0.744 OA
ENDBRANCH  70  74
ENDBRANCH  43  67
BRANCH  55  78
ATOM     78  C   UNL A   1      42.375  31.072  33.870  1.00  0.00     0.023 A 
ATOM     79  C   UNL A   1      42.049  29.704  34.017  1.00  0.00     0.031 A 
ATOM     80  C   UNL A   1      42.789  31.773  35.018  1.00  0.00     0.131 A 
ATOM     81  C   UNL A   1      42.153  29.093  35.285  1.00  0.00     0.055 A 
ATOM     82  C   UNL A   1      42.911  31.160  36.262  1.00  0.00     0.041 A 
ATOM     83  F   UNL A   1      43.135  33.069  34.933  1.00  0.00    -0.206 F 
ATOM     84  C   UNL A   1      42.592  29.816  36.401  1.00  0.00     0.022 A 
BRANCH  81  85
ATOM     85  S   UNL A   1      41.723  27.336  35.514  1.00  0.00     0.124 S 
ATOM     86  O   UNL A   1      41.183  27.295  36.868  1.00  0.00    -0.237 OA
ATOM     87  O   UNL A   1      40.770  27.097  34.435  1.00  0.00    -0.237 OA
ATOM     88  O   UNL A   1      43.006  26.647  35.352  1.00  0.00    -0.744 OA
ENDBRANCH  81  85
ENDBRANCH  55  78
ENDBRANCH  29  30
ENDBRANCH  22  24
ENDBRANCH  21  22
ENDBRANCH   1  21
TORSDOF 16
ENDMDL
MODEL 2
REMARK VINA RESULT:     -12.0      3.569      7.415
REMARK SMILES Cc1nn(C(C)C)cc1-c1cnccc1C(=O)OCCOC(=O)c1ccc(-c2c3nc(c(-c4cc(S(=O)(=O)[O-])ccc4F)c4ccc([nH]4)c(-c4cc(S(=O)(=O)[O-])ccc4F)c4nc(c(-c5cc(S(=O)(=O)[O-])ccc5F)c5ccc2[nH]5)C=C4)C=C3)cc1
REMARK SMILES IDX 20 1 19 2 18 3 16 4 17 5 15 6 10 7 11 8 12 9 14 10 13 11
REMARK SMILES IDX 9 12 1 13 2 14 3 15 4 16 8 17 5 18 6 19 7 20 21 21 22 22
REMARK SMILES IDX 23 23 24 24 25 25 86 26 26 27 85 28 27 29 28 30 29 31 79 32
REMARK SMILES IDX 30 33 84 34 78 35 80 36 31 37 83 38 77 39 76 40 32 42 64 43
REMARK SMILES IDX 44 44 63 45 45 46 48 47 62 48 81 49 46 50 47 51 61 53 82 54
REMARK SMILES IDX 49 55 33 56 34 57 42 58 35 59 41 60 43 61 40 62 36 63 37 64
REMARK SMILES IDX 38 65 39 66 65 67 66 68 74 69 67 70 73 71 75 72 72 73 68 74
REMARK SMILES IDX 69 75 70 76 71 77 50 78 51 79 59 80 52 81 58 82 60 83 57 84
REMARK SMILES IDX 53 85 54 86 55 87 56 88
REMARK H PARENT 80 41 48 52
REMARK Flexibility Score: inf
ROOT
ATOM      1  C   UNL A   1      38.302  20.280  25.110  1.00  0.00     0.275 C 
ENDROOT
BRANCH   1   2
ATOM      2  C   UNL A   1      37.482  21.555  25.136  1.00  0.00     0.275 C 
BRANCH   2   3
ATOM      3  O   UNL A   1      36.463  21.490  24.128  1.00  0.00    -0.458 OA
BRANCH   3   4
ATOM      4  C   UNL A   1      35.932  22.640  23.666  1.00  0.00     0.338 C 
ATOM      5  O   UNL A   1      36.228  23.173  22.603  1.00  0.00    -0.246 OA
BRANCH   4   6
ATOM      6  C   UNL A   1      34.864  23.179  24.564  1.00  0.00     0.071 A 
ATOM      7  C   UNL A   1      33.737  22.482  25.031  1.00  0.00     0.018 A 
ATOM      8  C   UNL A   1      32.887  23.173  25.896  1.00  0.00     0.120 A 
ATOM      9  N   UNL A   1      33.046  24.461  26.284  1.00  0.00    -0.264 NA
ATOM     10  C   UNL A   1      35.020  24.532  24.919  1.00  0.00     0.036 A 
ATOM     11  C   UNL A   1      34.092  25.122  25.757  1.00  0.00     0.112 A 
BRANCH   7  12
ATOM     12  C   UNL A   1      33.346  21.143  24.630  1.00  0.00     0.025 A 
ATOM     13  C   UNL A   1      31.983  21.506  22.413  1.00  0.00     0.069 C 
ATOM     14  C   UNL A   1      32.617  20.699  23.489  1.00  0.00     0.067 A 
ATOM     15  N   UNL A   1      32.547  19.361  23.442  1.00  0.00    -0.177 NA
ATOM     16  N   UNL A   1      33.309  18.963  24.474  1.00  0.00    -0.269 N 
ATOM     17  C   UNL A   1      33.679  19.984  25.300  1.00  0.00     0.118 A 
BRANCH  16  18
ATOM     18  C   UNL A   1      33.684  17.560  24.614  1.00  0.00     0.101 C 
ATOM     19  C   UNL A   1      32.606  16.791  25.369  1.00  0.00     0.033 C 
ATOM     20  C   UNL A   1      34.001  16.909  23.265  1.00  0.00     0.033 C 
ENDBRANCH  16  18
ENDBRANCH   7  12
ENDBRANCH   4   6
ENDBRANCH   3   4
ENDBRANCH   2   3
ENDBRANCH   1   2
BRANCH   1  21
ATOM     21  O   UNL A   1      39.105  20.199  26.284  1.00  0.00    -0.458 OA
BRANCH  21  22
ATOM     22  C   UNL A   1      40.401  19.873  26.071  1.00  0.00     0.338 C 
ATOM     23  O   UNL A   1      40.842  18.837  25.608  1.00  0.00    -0.246 OA
BRANCH  22  24
ATOM     24  C   UNL A   1      41.243  20.891  26.694  1.00  0.00     0.060 A 
ATOM     25  C   UNL A   1      41.195  20.984  28.088  1.00  0.00     0.016 A 
ATOM     26  C   UNL A   1      41.804  21.897  25.894  1.00  0.00     0.016 A 
ATOM     27  C   UNL A   1      41.545  22.179  28.673  1.00  0.00     0.010 A 
ATOM     28  C   UNL A   1      42.134  23.092  26.477  1.00  0.00     0.010 A 
ATOM     29  C   UNL A   1      41.929  23.238  27.847  1.00  0.00    -0.014 A 
BRANCH  29  30
ATOM     30  C   UNL A   1      42.241  24.508  28.467  1.00  0.00     0.031 A 
ATOM     31  C   UNL A   1      41.250  25.557  28.130  1.00  0.00     0.074 A 
ATOM     32  C   UNL A   1      43.229  24.615  29.376  1.00  0.00     0.049 A 
ATOM     33  N   UNL A   1      41.440  26.686  27.535  1.00  0.00    -0.248 NA
ATOM     34  C   UNL A   1      39.826  25.215  28.315  1.00  0.00     0.031 C 
ATOM     35  C   UNL A   1      44.011  23.518  29.962  1.00  0.00     0.029 A 
ATOM     36  N   UNL A   1      43.646  25.698  30.081  1.00  0.00    -0.354 N 
ATOM     37  C   UNL A   1      40.189  27.296  27.499  1.00  0.00     0.074 A 
ATOM     38  C   UNL A   1      39.228  26.267  27.764  1.00  0.00     0.031 C 
ATOM     39  C   UNL A   1      44.610  23.956  31.091  1.00  0.00     0.029 A 
ATOM     40  C   UNL A   1      44.360  25.382  31.231  1.00  0.00     0.049 A 
ATOM     41  H   UNL A   1      43.458  26.624  29.803  1.00  0.00     0.167 HD
ATOM     42  C   UNL A   1      40.070  28.649  27.557  1.00  0.00     0.034 A 
ATOM     43  C   UNL A   1      44.627  26.207  32.278  1.00  0.00     0.034 A 
ATOM     44  C   UNL A   1      41.301  29.285  27.149  1.00  0.00     0.049 A 
ATOM     45  C   UNL A   1      44.436  27.597  31.789  1.00  0.00     0.074 A 
ATOM     46  C   UNL A   1      42.045  29.296  25.987  1.00  0.00     0.029 A 
ATOM     47  N   UNL A   1      42.136  29.743  28.143  1.00  0.00    -0.354 N 
ATOM     48  N   UNL A   1      45.160  28.142  30.847  1.00  0.00    -0.248 NA
ATOM     49  C   UNL A   1      43.150  28.238  32.022  1.00  0.00     0.031 C 
ATOM     50  C   UNL A   1      43.404  29.340  26.414  1.00  0.00     0.029 A 
ATOM     51  C   UNL A   1      43.428  29.423  27.808  1.00  0.00     0.049 A 
ATOM     52  H   UNL A   1      41.855  30.221  28.956  1.00  0.00     0.167 HD
ATOM     53  C   UNL A   1      44.273  28.908  30.104  1.00  0.00     0.074 A 
ATOM     54  C   UNL A   1      43.084  29.021  30.941  1.00  0.00     0.031 C 
ATOM     55  C   UNL A   1      44.480  29.138  28.773  1.00  0.00     0.034 A 
BRANCH  42  56
ATOM     56  C   UNL A   1      39.017  29.363  28.383  1.00  0.00     0.023 A 
ATOM     57  C   UNL A   1      39.197  29.354  29.779  1.00  0.00     0.031 A 
ATOM     58  C   UNL A   1      37.736  29.771  27.938  1.00  0.00     0.131 A 
ATOM     59  C   UNL A   1      38.123  29.607  30.649  1.00  0.00     0.055 A 
ATOM     60  C   UNL A   1      36.689  30.085  28.809  1.00  0.00     0.041 A 
ATOM     61  F   UNL A   1      37.382  29.811  26.650  1.00  0.00    -0.206 F 
ATOM     62  C   UNL A   1      36.867  29.968  30.174  1.00  0.00     0.022 A 
BRANCH  59  63
ATOM     63  S   UNL A   1      38.354  29.268  32.410  1.00  0.00     0.124 S 
ATOM     64  O   UNL A   1      37.089  28.628  32.753  1.00  0.00    -0.237 OA
ATOM     65  O   UNL A   1      39.532  28.407  32.396  1.00  0.00    -0.237 OA
ATOM     66  O   UNL A   1      38.559  30.595  32.986  1.00  0.00    -0.744 OA
ENDBRANCH  59  63
ENDBRANCH  42  56
BRANCH  43  67
ATOM     67  C   UNL A   1      44.607  25.814  33.718  1.00  0.00     0.023 A 
ATOM     68  C   UNL A   1      43.540  26.117  34.588  1.00  0.00     0.031 A 
ATOM     69  C   UNL A   1      45.593  24.927  34.212  1.00  0.00     0.131 A 
ATOM     70  C   UNL A   1      43.502  25.555  35.888  1.00  0.00     0.055 A 
ATOM     71  C   UNL A   1      45.557  24.387  35.499  1.00  0.00     0.041 A 
ATOM     72  F   UNL A   1      46.593  24.494  33.429  1.00  0.00    -0.206 F 
ATOM     73  C   UNL A   1      44.504  24.695  36.343  1.00  0.00     0.022 A 
BRANCH  70  74
ATOM     74  S   UNL A   1      42.096  25.890  37.000  1.00  0.00     0.124 S 
ATOM     75  O   UNL A   1      42.760  26.287  38.235  1.00  0.00    -0.237 OA
ATOM     76  O   UNL A   1      41.377  26.937  36.281  1.00  0.00    -0.237 OA
ATOM     77  O   UNL A   1      41.397  24.605  37.066  1.00  0.00    -0.744 OA
ENDBRANCH  70  74
ENDBRANCH  43  67
BRANCH  55  78
ATOM     78  C   UNL A   1      45.865  28.914  28.204  1.00  0.00     0.023 A 
ATOM     79  C   UNL A   1      46.336  27.706  27.640  1.00  0.00     0.031 A 
ATOM     80  C   UNL A   1      46.690  30.049  28.108  1.00  0.00     0.131 A 
ATOM     81  C   UNL A   1      47.595  27.679  27.003  1.00  0.00     0.055 A 
ATOM     82  C   UNL A   1      47.922  30.021  27.459  1.00  0.00     0.041 A 
ATOM     83  F   UNL A   1      46.283  31.229  28.605  1.00  0.00    -0.206 F 
ATOM     84  C   UNL A   1      48.380  28.834  26.904  1.00  0.00     0.022 A 
BRANCH  81  85
ATOM     85  S   UNL A   1      48.243  26.135  26.279  1.00  0.00     0.124 S 
ATOM     86  O   UNL A   1      49.688  26.332  26.303  1.00  0.00    -0.237 OA
ATOM     87  O   UNL A   1      47.719  25.115  27.183  1.00  0.00    -0.237 OA
ATOM     88  O   UNL A   1      47.656  26.114  24.938  1.00  0.00    -0.744 OA
ENDBRANCH  81  85
ENDBRANCH  55  78
ENDBRANCH  29  30
ENDBRANCH  22  24
ENDBRANCH  21  22
ENDBRANCH   1  21
TORSDOF 16
ENDMDL
MODEL 3
REMARK VINA RESULT:     -12.0      4.340      9.842
REMARK SMILES Cc1nn(C(C)C)cc1-c1cnccc1C(=O)OCCOC(=O)c1ccc(-c2c3nc(c(-c4cc(S(=O)(=O)[O-])ccc4F)c4ccc([nH]4)c(-c4cc(S(=O)(=O)[O-])ccc4F)c4nc(c(-c5cc(S(=O)(=O)[O-])ccc5F)c5ccc2[nH]5)C=C4)C=C3)cc1
REMARK SMILES IDX 20 1 19 2 18 3 16 4 17 5 15 6 10 7 11 8 12 9 14 10 13 11
REMARK SMILES IDX 9 12 1 13 2 14 3 15 4 16 8 17 5 18 6 19 7 20 21 21 22 22
REMARK SMILES IDX 23 23 24 24 25 25 86 26 26 27 85 28 27 29 28 30 29 31 79 32
REMARK SMILES IDX 30 33 84 34 78 35 80 36 31 37 83 38 77 39 76 40 32 42 64 43
REMARK SMILES IDX 44 44 63 45 45 46 48 47 62 48 81 49 46 50 47 51 61 53 82 54
REMARK SMILES IDX 49 55 33 56 34 57 42 58 35 59 41 60 43 61 40 62 36 63 37 64
REMARK SMILES IDX 38 65 39 66 65 67 66 68 74 69 67 70 73 71 75 72 72 73 68 74
REMARK SMILES IDX 69 75 70 76 71 77 50 78 51 79 59 80 52 81 58 82 60 83 57 84
REMARK SMILES IDX 53 85 54 86 55 87 56 88
REMARK H PARENT 80 41 48 52
REMARK Flexibility Score: inf
ROOT
ATOM      1  C   UNL A   1      34.048  30.341  27.005  1.00  0.00     0.275 C 
ENDROOT
BRANCH   1   2
ATOM      2  C   UNL A   1      34.005  28.846  26.752  1.00  0.00     0.275 C 
BRANCH   2   3
ATOM      3  O   UNL A   1      33.613  28.601  25.394  1.00  0.00    -0.458 OA
BRANCH   3   4
ATOM      4  C   UNL A   1      32.480  27.908  25.161  1.00  0.00     0.338 C 
ATOM      5  O   UNL A   1      31.462  27.976  25.841  1.00  0.00    -0.246 OA
BRANCH   4   6
ATOM      6  C   UNL A   1      32.559  27.082  23.917  1.00  0.00     0.071 A 
ATOM      7  C   UNL A   1      31.687  27.146  22.817  1.00  0.00     0.018 A 
ATOM      8  C   UNL A   1      31.975  26.306  21.739  1.00  0.00     0.120 A 
ATOM      9  N   UNL A   1      32.999  25.419  21.691  1.00  0.00    -0.264 NA
ATOM     10  C   UNL A   1      33.599  26.134  23.903  1.00  0.00     0.036 A 
ATOM     11  C   UNL A   1      33.767  25.330  22.792  1.00  0.00     0.112 A 
BRANCH   7  12
ATOM     12  C   UNL A   1      30.479  27.947  22.742  1.00  0.00     0.025 A 
ATOM     13  C   UNL A   1      28.644  26.454  23.886  1.00  0.00     0.069 C 
ATOM     14  C   UNL A   1      29.165  27.679  23.224  1.00  0.00     0.067 A 
ATOM     15  N   UNL A   1      28.349  28.725  23.031  1.00  0.00    -0.177 NA
ATOM     16  N   UNL A   1      29.158  29.676  22.535  1.00  0.00    -0.269 N 
ATOM     17  C   UNL A   1      30.398  29.212  22.201  1.00  0.00     0.118 A 
BRANCH  16  18
ATOM     18  C   UNL A   1      28.692  31.053  22.419  1.00  0.00     0.101 C 
ATOM     19  C   UNL A   1      28.138  31.315  21.023  1.00  0.00     0.033 C 
ATOM     20  C   UNL A   1      27.674  31.412  23.505  1.00  0.00     0.033 C 
ENDBRANCH  16  18
ENDBRANCH   7  12
ENDBRANCH   4   6
ENDBRANCH   3   4
ENDBRANCH   2   3
ENDBRANCH   1   2
BRANCH   1  21
ATOM     21  O   UNL A   1      34.639  30.599  28.274  1.00  0.00    -0.458 OA
BRANCH  21  22
ATOM     22  C   UNL A   1      35.693  31.446  28.255  1.00  0.00     0.338 C 
ATOM     23  O   UNL A   1      35.828  32.454  27.585  1.00  0.00    -0.246 OA
BRANCH  22  24
ATOM     24  C   UNL A   1      36.784  30.846  29.020  1.00  0.00     0.060 A 
ATOM     25  C   UNL A   1      37.931  31.624  29.201  1.00  0.00     0.016 A 
ATOM     26  C   UNL A   1      36.766  29.466  29.267  1.00  0.00     0.016 A 
ATOM     27  C   UNL A   1      39.121  30.980  29.453  1.00  0.00     0.010 A 
ATOM     28  C   UNL A   1      37.955  28.826  29.500  1.00  0.00     0.010 A 
ATOM     29  C   UNL A   1      39.123  29.584  29.515  1.00  0.00    -0.014 A 
BRANCH  29  30
ATOM     30  C   UNL A   1      40.388  28.913  29.724  1.00  0.00     0.031 A 
ATOM     31  C   UNL A   1      40.754  28.839  31.159  1.00  0.00     0.074 A 
ATOM     32  C   UNL A   1      41.024  28.295  28.712  1.00  0.00     0.049 A 
ATOM     33  N   UNL A   1      41.796  29.315  31.753  1.00  0.00    -0.248 NA
ATOM     34  C   UNL A   1      39.725  28.325  32.085  1.00  0.00     0.031 C 
ATOM     35  C   UNL A   1      40.517  28.082  27.350  1.00  0.00     0.029 A 
ATOM     36  N   UNL A   1      42.188  27.595  28.718  1.00  0.00    -0.354 N 
ATOM     37  C   UNL A   1      41.662  28.938  33.086  1.00  0.00     0.074 A 
ATOM     38  C   UNL A   1      40.291  28.559  33.265  1.00  0.00     0.031 C 
ATOM     39  C   UNL A   1      41.240  27.108  26.756  1.00  0.00     0.029 A 
ATOM     40  C   UNL A   1      42.329  26.727  27.641  1.00  0.00     0.049 A 
ATOM     41  H   UNL A   1      42.871  27.693  29.421  1.00  0.00     0.167 HD
ATOM     42  C   UNL A   1      42.754  28.680  33.852  1.00  0.00     0.034 A 
ATOM     43  C   UNL A   1      43.206  25.693  27.536  1.00  0.00     0.034 A 
ATOM     44  C   UNL A   1      43.926  29.317  33.298  1.00  0.00     0.049 A 
ATOM     45  C   UNL A   1      44.275  25.934  28.539  1.00  0.00     0.074 A 
ATOM     46  C   UNL A   1      44.286  30.625  33.041  1.00  0.00     0.029 A 
ATOM     47  N   UNL A   1      44.785  28.532  32.562  1.00  0.00    -0.354 N 
ATOM     48  N   UNL A   1      45.087  26.957  28.506  1.00  0.00    -0.248 NA
ATOM     49  C   UNL A   1      44.157  25.287  29.838  1.00  0.00     0.031 C 
ATOM     50  C   UNL A   1      45.047  30.573  31.838  1.00  0.00     0.029 A 
ATOM     51  C   UNL A   1      45.175  29.236  31.451  1.00  0.00     0.049 A 
ATOM     52  H   UNL A   1      45.072  27.620  32.794  1.00  0.00     0.167 HD
ATOM     53  C   UNL A   1      45.252  27.334  29.831  1.00  0.00     0.074 A 
ATOM     54  C   UNL A   1      44.755  26.202  30.607  1.00  0.00     0.031 C 
ATOM     55  C   UNL A   1      45.513  28.632  30.171  1.00  0.00     0.034 A 
BRANCH  42  56
ATOM     56  C   UNL A   1      42.840  27.519  34.825  1.00  0.00     0.023 A 
ATOM     57  C   UNL A   1      43.634  26.425  34.434  1.00  0.00     0.031 A 
ATOM     58  C   UNL A   1      41.985  27.286  35.930  1.00  0.00     0.131 A 
ATOM     59  C   UNL A   1      43.471  25.162  35.030  1.00  0.00     0.055 A 
ATOM     60  C   UNL A   1      41.873  26.044  36.561  1.00  0.00     0.041 A 
ATOM     61  F   UNL A   1      41.143  28.203  36.416  1.00  0.00    -0.206 F 
ATOM     62  C   UNL A   1      42.592  24.962  36.089  1.00  0.00     0.022 A 
BRANCH  59  63
ATOM     63  S   UNL A   1      44.293  23.746  34.264  1.00  0.00     0.124 S 
ATOM     64  O   UNL A   1      43.173  23.071  33.619  1.00  0.00    -0.237 OA
ATOM     65  O   UNL A   1      45.251  24.400  33.380  1.00  0.00    -0.237 OA
ATOM     66  O   UNL A   1      44.877  23.039  35.402  1.00  0.00    -0.744 OA
ENDBRANCH  59  63
ENDBRANCH  42  56
BRANCH  43  67
ATOM     67  C   UNL A   1      42.908  24.362  26.930  1.00  0.00     0.023 A 
ATOM     68  C   UNL A   1      43.788  23.694  26.055  1.00  0.00     0.031 A 
ATOM     69  C   UNL A   1      41.793  23.622  27.390  1.00  0.00     0.131 A 
ATOM     70  C   UNL A   1      43.527  22.357  25.668  1.00  0.00     0.055 A 
ATOM     71  C   UNL A   1      41.533  22.308  26.994  1.00  0.00     0.041 A 
ATOM     72  F   UNL A   1      40.951  24.128  28.305  1.00  0.00    -0.206 F 
ATOM     73  C   UNL A   1      42.405  21.666  26.132  1.00  0.00     0.022 A 
BRANCH  70  74
ATOM     74  S   UNL A   1      44.692  21.463  24.585  1.00  0.00     0.124 S 
ATOM     75  O   UNL A   1      44.140  20.115  24.577  1.00  0.00    -0.237 OA
ATOM     76  O   UNL A   1      44.594  22.216  23.340  1.00  0.00    -0.237 OA
ATOM     77  O   UNL A   1      45.974  21.595  25.280  1.00  0.00    -0.744 OA
ENDBRANCH  70  74
ENDBRANCH  43  67
BRANCH  55  78
ATOM     78  C   UNL A   1      46.026  29.572  29.102  1.00  0.00     0.023 A 
ATOM     79  C   UNL A   1      45.238  30.482  28.360  1.00  0.00     0.031 A 
ATOM     80  C   UNL A   1      47.423  29.635  28.945  1.00  0.00     0.131 A 
ATOM     81  C   UNL A   1      45.866  31.413  27.505  1.00  0.00     0.055 A 
ATOM     82  C   UNL A   1      48.038  30.570  28.117  1.00  0.00     0.041 A 
ATOM     83  F   UNL A   1      48.222  28.811  29.644  1.00  0.00    -0.206 F 
ATOM     84  C   UNL A   1      47.261  31.463  27.392  1.00  0.00     0.022 A 
BRANCH  81  85
ATOM     85  S   UNL A   1      44.882  32.590  26.520  1.00  0.00     0.124 S 
ATOM     86  O   UNL A   1      43.951  31.730  25.798  1.00  0.00    -0.237 OA
ATOM     87  O   UNL A   1      44.298  33.452  27.543  1.00  0.00    -0.237 OA
ATOM     88  O   UNL A   1      45.881  33.247  25.674  1.00  0.00    -0.744 OA
ENDBRANCH  81  85
ENDBRANCH  55  78
ENDBRANCH  29  30
ENDBRANCH  22  24
ENDBRANCH  21  22
ENDBRANCH   1  21
TORSDOF 16
ENDMDL
