MODEL 1
REMARK VINA RESULT:     -12.5      0.000      0.000
REMARK SMILES O=C(C[C@H]1C(=O)N[NH+]=C2c3ccc(F)cc3N=CN21)OCCOC(=O)c1ccc(-c2c3nc(c(-c4cc(S(=O)(=O)[O-])ccc4F)c4ccc([nH]4)c(-c4cc(S(=O)(=O)[O-])ccc4F)c4nc(c(-c5cc(S(=O)(=O)[O-])ccc5F)c5ccc2[nH]5)C=C4)C=C3)cc1
REMARK SMILES IDX 22 1 21 2 20 3 2 4 1 5 3 6 4 7 5 8 19 9 6 10 7 11 9 12 18 13
REMARK SMILES IDX 8 14 10 16 17 17 11 19 16 20 12 21 15 22 13 23 14 24 23 25
REMARK SMILES IDX 24 26 25 27 26 28 27 29 88 30 28 31 87 32 29 33 30 34 31 35
REMARK SMILES IDX 81 36 32 37 86 38 80 39 82 40 33 41 85 42 79 43 78 44 34 46
REMARK SMILES IDX 66 47 46 48 65 49 47 50 50 51 64 52 83 53 48 54 49 55 63 57
REMARK SMILES IDX 84 58 51 59 35 60 36 61 44 62 37 63 43 64 45 65 42 66 38 67
REMARK SMILES IDX 39 68 40 69 41 70 67 71 68 72 76 73 69 74 75 75 77 76 74 77
REMARK SMILES IDX 70 78 71 79 72 80 73 81 52 82 53 83 61 84 54 85 60 86 62 87
REMARK SMILES IDX 59 88 55 89 56 90 57 91 58 92
REMARK H PARENT 7 15 8 18 82 45 50 56
REMARK Flexibility Score: inf
ROOT
ATOM      1  C   UNL A   1      37.150  21.361  24.469  1.00  0.00     0.275 C 
ENDROOT
BRANCH   1   2
ATOM      2  C   UNL A   1      36.676  22.521  23.587  1.00  0.00     0.274 C 
BRANCH   2   3
ATOM      3  O   UNL A   1      35.944  23.521  24.327  1.00  0.00    -0.462 OA
BRANCH   3   4
ATOM      4  C   UNL A   1      34.761  24.057  23.938  1.00  0.00     0.310 C 
ATOM      5  O   UNL A   1      34.532  24.278  22.753  1.00  0.00    -0.252 OA
BRANCH   4   6
ATOM      6  C   UNL A   1      33.803  24.511  25.004  1.00  0.00     0.183 C 
BRANCH   6   7
ATOM      7  C   UNL A   1      32.484  23.745  25.029  1.00  0.00     0.286 C 
ATOM      8  C   UNL A   1      31.578  24.309  23.939  1.00  0.00     0.300 C 
ATOM      9  N   UNL A   1      32.778  22.310  24.825  1.00  0.00    -0.202 N 
ATOM     10  O   UNL A   1      31.081  25.433  23.997  1.00  0.00    -0.267 OA
ATOM     11  N   UNL A   1      31.404  23.558  22.810  1.00  0.00    -0.193 N 
ATOM     12  C   UNL A   1      32.381  21.695  23.649  1.00  0.00     0.309 C 
ATOM     13  C   UNL A   1      33.527  21.630  25.761  1.00  0.00     0.317 C 
ATOM     14  N   UNL A   1      31.766  22.265  22.656  1.00  0.00    -0.169 N 
ATOM     15  H   UNL A   1      30.977  23.999  22.040  1.00  0.00     0.216 HD
ATOM     16  C   UNL A   1      32.691  20.237  23.547  1.00  0.00     0.092 A 
ATOM     17  N   UNL A   1      33.921  20.402  25.686  1.00  0.00    -0.216 NA
ATOM     18  H   UNL A   1      31.570  21.774  21.826  1.00  0.00     0.340 HD
ATOM     19  C   UNL A   1      32.167  19.453  22.513  1.00  0.00     0.022 A 
ATOM     20  C   UNL A   1      33.453  19.662  24.582  1.00  0.00     0.085 A 
ATOM     21  C   UNL A   1      32.396  18.079  22.516  1.00  0.00     0.040 A 
ATOM     22  C   UNL A   1      33.702  18.289  24.552  1.00  0.00     0.068 A 
ATOM     23  C   UNL A   1      33.164  17.511  23.530  1.00  0.00     0.125 A 
ATOM     24  F   UNL A   1      33.368  16.188  23.527  1.00  0.00    -0.207 F 
ENDBRANCH   6   7
ENDBRANCH   4   6
ENDBRANCH   3   4
ENDBRANCH   2   3
ENDBRANCH   1   2
BRANCH   1  25
ATOM     25  O   UNL A   1      37.553  21.810  25.777  1.00  0.00    -0.458 OA
BRANCH  25  26
ATOM     26  C   UNL A   1      38.851  21.578  26.118  1.00  0.00     0.338 C 
ATOM     27  O   UNL A   1      39.468  20.543  25.926  1.00  0.00    -0.246 OA
BRANCH  26  28
ATOM     28  C   UNL A   1      39.475  22.837  26.601  1.00  0.00     0.060 A 
ATOM     29  C   UNL A   1      40.466  22.843  27.586  1.00  0.00     0.016 A 
ATOM     30  C   UNL A   1      38.990  24.054  26.099  1.00  0.00     0.016 A 
ATOM     31  C   UNL A   1      40.954  24.061  28.073  1.00  0.00     0.010 A 
ATOM     32  C   UNL A   1      39.492  25.272  26.581  1.00  0.00     0.010 A 
ATOM     33  C   UNL A   1      40.476  25.290  27.578  1.00  0.00    -0.014 A 
BRANCH  33  34
ATOM     34  C   UNL A   1      41.111  26.565  28.019  1.00  0.00     0.031 A 
ATOM     35  C   UNL A   1      42.557  26.888  27.768  1.00  0.00     0.074 A 
ATOM     36  C   UNL A   1      40.344  27.461  28.670  1.00  0.00     0.049 A 
ATOM     37  N   UNL A   1      43.188  28.022  27.948  1.00  0.00    -0.248 NA
ATOM     38  C   UNL A   1      43.410  25.806  27.262  1.00  0.00     0.031 C 
ATOM     39  C   UNL A   1      38.946  27.246  29.035  1.00  0.00     0.029 A 
ATOM     40  N   UNL A   1      40.625  28.722  29.135  1.00  0.00    -0.354 N 
ATOM     41  C   UNL A   1      44.496  27.810  27.526  1.00  0.00     0.074 A 
ATOM     42  C   UNL A   1      44.582  26.417  27.136  1.00  0.00     0.031 C 
ATOM     43  C   UNL A   1      38.481  28.345  29.642  1.00  0.00     0.029 A 
ATOM     44  C   UNL A   1      39.553  29.335  29.738  1.00  0.00     0.049 A 
ATOM     45  H   UNL A   1      41.509  29.147  29.044  1.00  0.00     0.167 HD
ATOM     46  C   UNL A   1      45.523  28.693  27.459  1.00  0.00     0.034 A 
ATOM     47  C   UNL A   1      39.433  30.553  30.304  1.00  0.00     0.034 A 
ATOM     48  C   UNL A   1      45.450  30.059  27.919  1.00  0.00     0.049 A 
ATOM     49  C   UNL A   1      40.595  31.509  30.256  1.00  0.00     0.074 A 
ATOM     50  C   UNL A   1      46.430  31.037  27.858  1.00  0.00     0.029 A 
ATOM     51  N   UNL A   1      44.358  30.638  28.551  1.00  0.00    -0.354 N 
ATOM     52  N   UNL A   1      41.783  31.336  29.726  1.00  0.00    -0.248 NA
ATOM     53  C   UNL A   1      40.398  32.832  30.863  1.00  0.00     0.031 C 
ATOM     54  C   UNL A   1      45.960  32.176  28.516  1.00  0.00     0.029 A 
ATOM     55  C   UNL A   1      44.656  31.942  28.921  1.00  0.00     0.049 A 
ATOM     56  H   UNL A   1      43.497  30.189  28.712  1.00  0.00     0.167 HD
ATOM     57  C   UNL A   1      42.473  32.527  29.933  1.00  0.00     0.074 A 
ATOM     58  C   UNL A   1      41.553  33.429  30.596  1.00  0.00     0.031 C 
ATOM     59  C   UNL A   1      43.755  32.839  29.608  1.00  0.00     0.034 A 
BRANCH  46  60
ATOM     60  C   UNL A   1      46.827  28.236  26.844  1.00  0.00     0.023 A 
ATOM     61  C   UNL A   1      46.994  28.214  25.446  1.00  0.00     0.031 A 
ATOM     62  C   UNL A   1      47.848  27.684  27.641  1.00  0.00     0.131 A 
ATOM     63  C   UNL A   1      48.135  27.621  24.888  1.00  0.00     0.055 A 
ATOM     64  C   UNL A   1      49.000  27.128  27.082  1.00  0.00     0.041 A 
ATOM     65  F   UNL A   1      47.736  27.674  28.980  1.00  0.00    -0.206 F 
ATOM     66  C   UNL A   1      49.140  27.083  25.699  1.00  0.00     0.022 A 
BRANCH  63  67
ATOM     67  S   UNL A   1      48.331  27.454  23.092  1.00  0.00     0.124 S 
ATOM     68  O   UNL A   1      48.309  26.002  22.924  1.00  0.00    -0.237 OA
ATOM     69  O   UNL A   1      47.153  28.156  22.589  1.00  0.00    -0.237 OA
ATOM     70  O   UNL A   1      49.612  28.092  22.818  1.00  0.00    -0.744 OA
ENDBRANCH  63  67
ENDBRANCH  46  60
BRANCH  47  71
ATOM     71  C   UNL A   1      38.117  30.931  30.895  1.00  0.00     0.023 A 
ATOM     72  C   UNL A   1      37.145  31.582  30.113  1.00  0.00     0.031 A 
ATOM     73  C   UNL A   1      37.879  30.791  32.271  1.00  0.00     0.131 A 
ATOM     74  C   UNL A   1      36.024  32.150  30.731  1.00  0.00     0.055 A 
ATOM     75  C   UNL A   1      36.721  31.289  32.870  1.00  0.00     0.041 A 
ATOM     76  F   UNL A   1      38.787  30.192  33.057  1.00  0.00    -0.206 F 
ATOM     77  C   UNL A   1      35.798  31.993  32.102  1.00  0.00     0.022 A 
BRANCH  74  78
ATOM     78  S   UNL A   1      34.917  33.252  29.807  1.00  0.00     0.124 S 
ATOM     79  O   UNL A   1      35.854  34.206  29.224  1.00  0.00    -0.237 OA
ATOM     80  O   UNL A   1      34.293  32.322  28.868  1.00  0.00    -0.237 OA
ATOM     81  O   UNL A   1      34.028  33.786  30.833  1.00  0.00    -0.744 OA
ENDBRANCH  74  78
ENDBRANCH  47  71
BRANCH  59  82
ATOM     82  C   UNL A   1      44.284  34.203  30.000  1.00  0.00     0.023 A 
ATOM     83  C   UNL A   1      44.160  35.299  29.124  1.00  0.00     0.031 A 
ATOM     84  C   UNL A   1      45.011  34.387  31.190  1.00  0.00     0.131 A 
ATOM     85  C   UNL A   1      44.774  36.520  29.441  1.00  0.00     0.055 A 
ATOM     86  C   UNL A   1      45.580  35.618  31.523  1.00  0.00     0.041 A 
ATOM     87  F   UNL A   1      45.171  33.373  32.055  1.00  0.00    -0.206 F 
ATOM     88  C   UNL A   1      45.473  36.688  30.640  1.00  0.00     0.022 A 
BRANCH  85  89
ATOM     89  S   UNL A   1      44.757  37.912  28.276  1.00  0.00     0.124 S 
ATOM     90  O   UNL A   1      44.322  37.264  27.040  1.00  0.00    -0.237 OA
ATOM     91  O   UNL A   1      43.780  38.812  28.884  1.00  0.00    -0.237 OA
ATOM     92  O   UNL A   1      46.135  38.389  28.277  1.00  0.00    -0.744 OA
ENDBRANCH  85  89
ENDBRANCH  59  82
ENDBRANCH  33  34
ENDBRANCH  26  28
ENDBRANCH  25  26
ENDBRANCH   1  25
TORSDOF 15
ENDMDL
MODEL 2
REMARK VINA RESULT:     -12.3      5.408     10.247
REMARK SMILES O=C(C[C@H]1C(=O)N[NH+]=C2c3ccc(F)cc3N=CN21)OCCOC(=O)c1ccc(-c2c3nc(c(-c4cc(S(=O)(=O)[O-])ccc4F)c4ccc([nH]4)c(-c4cc(S(=O)(=O)[O-])ccc4F)c4nc(c(-c5cc(S(=O)(=O)[O-])ccc5F)c5ccc2[nH]5)C=C4)C=C3)cc1
REMARK SMILES IDX 22 1 21 2 20 3 2 4 1 5 3 6 4 7 5 8 19 9 6 10 7 11 9 12 18 13
REMARK SMILES IDX 8 14 10 16 17 17 11 19 16 20 12 21 15 22 13 23 14 24 23 25
REMARK SMILES IDX 24 26 25 27 26 28 27 29 88 30 28 31 87 32 29 33 30 34 31 35
REMARK SMILES IDX 81 36 32 37 86 38 80 39 82 40 33 41 85 42 79 43 78 44 34 46
REMARK SMILES IDX 66 47 46 48 65 49 47 50 50 51 64 52 83 53 48 54 49 55 63 57
REMARK SMILES IDX 84 58 51 59 35 60 36 61 44 62 37 63 43 64 45 65 42 66 38 67
REMARK SMILES IDX 39 68 40 69 41 70 67 71 68 72 76 73 69 74 75 75 77 76 74 77
REMARK SMILES IDX 70 78 71 79 72 80 73 81 52 82 53 83 61 84 54 85 60 86 62 87
REMARK SMILES IDX 59 88 55 89 56 90 57 91 58 92
REMARK H PARENT 7 15 8 18 82 45 50 56
REMARK Flexibility Score: inf
ROOT
ATOM      1  C   UNL A   1      31.947  30.082  26.477  1.00  0.00     0.275 C 
ENDROOT
BRANCH   1   2
ATOM      2  C   UNL A   1      31.812  28.761  27.242  1.00  0.00     0.274 C 
BRANCH   2   3
ATOM      3  O   UNL A   1      32.729  27.750  26.775  1.00  0.00    -0.462 OA
BRANCH   3   4
ATOM      4  C   UNL A   1      32.371  26.500  26.392  1.00  0.00     0.310 C 
ATOM      5  O   UNL A   1      31.516  25.875  27.012  1.00  0.00    -0.252 OA
BRANCH   4   6
ATOM      6  C   UNL A   1      33.150  25.845  25.285  1.00  0.00     0.183 C 
BRANCH   6   7
ATOM      7  C   UNL A   1      32.319  25.501  24.053  1.00  0.00     0.286 C 
ATOM      8  C   UNL A   1      31.425  24.312  24.391  1.00  0.00     0.300 C 
ATOM      9  N   UNL A   1      31.540  26.698  23.671  1.00  0.00    -0.202 N 
ATOM     10  O   UNL A   1      31.862  23.178  24.580  1.00  0.00    -0.267 OA
ATOM     11  N   UNL A   1      30.095  24.559  24.589  1.00  0.00    -0.193 N 
ATOM     12  C   UNL A   1      30.162  26.687  23.818  1.00  0.00     0.309 C 
ATOM     13  C   UNL A   1      32.199  27.838  23.267  1.00  0.00     0.317 C 
ATOM     14  N   UNL A   1      29.449  25.707  24.288  1.00  0.00    -0.169 N 
ATOM     15  H   UNL A   1      29.560  23.833  24.985  1.00  0.00     0.216 HD
ATOM     16  C   UNL A   1      29.456  27.927  23.374  1.00  0.00     0.092 A 
ATOM     17  N   UNL A   1      31.660  28.975  22.971  1.00  0.00    -0.216 NA
ATOM     18  H   UNL A   1      28.478  25.798  24.419  1.00  0.00     0.340 HD
ATOM     19  C   UNL A   1      28.061  27.973  23.274  1.00  0.00     0.022 A 
ATOM     20  C   UNL A   1      30.252  29.017  22.970  1.00  0.00     0.085 A 
ATOM     21  C   UNL A   1      27.453  29.114  22.756  1.00  0.00     0.040 A 
ATOM     22  C   UNL A   1      29.623  30.165  22.485  1.00  0.00     0.068 A 
ATOM     23  C   UNL A   1      28.237  30.199  22.372  1.00  0.00     0.125 A 
ATOM     24  F   UNL A   1      27.640  31.285  21.866  1.00  0.00    -0.207 F 
ENDBRANCH   6   7
ENDBRANCH   4   6
ENDBRANCH   3   4
ENDBRANCH   2   3
ENDBRANCH   1   2
BRANCH   1  25
ATOM     25  O   UNL A   1      33.318  30.518  26.395  1.00  0.00    -0.458 OA
BRANCH  25  26
ATOM     26  C   UNL A   1      33.693  31.490  27.271  1.00  0.00     0.338 C 
ATOM     27  O   UNL A   1      33.014  32.444  27.616  1.00  0.00    -0.246 OA
BRANCH  26  28
ATOM     28  C   UNL A   1      34.992  31.127  27.895  1.00  0.00     0.060 A 
ATOM     29  C   UNL A   1      36.037  32.046  28.018  1.00  0.00     0.016 A 
ATOM     30  C   UNL A   1      35.187  29.798  28.300  1.00  0.00     0.016 A 
ATOM     31  C   UNL A   1      37.273  31.630  28.528  1.00  0.00     0.010 A 
ATOM     32  C   UNL A   1      36.423  29.389  28.822  1.00  0.00     0.010 A 
ATOM     33  C   UNL A   1      37.483  30.299  28.936  1.00  0.00    -0.014 A 
BRANCH  33  34
ATOM     34  C   UNL A   1      38.763  29.919  29.599  1.00  0.00     0.031 A 
ATOM     35  C   UNL A   1      39.192  30.475  30.929  1.00  0.00     0.074 A 
ATOM     36  C   UNL A   1      39.563  29.037  28.970  1.00  0.00     0.049 A 
ATOM     37  N   UNL A   1      40.192  30.104  31.689  1.00  0.00    -0.248 NA
ATOM     38  C   UNL A   1      38.412  31.592  31.474  1.00  0.00     0.031 C 
ATOM     39  C   UNL A   1      39.298  28.473  27.649  1.00  0.00     0.029 A 
ATOM     40  N   UNL A   1      40.750  28.462  29.352  1.00  0.00    -0.354 N 
ATOM     41  C   UNL A   1      40.132  30.901  32.826  1.00  0.00     0.074 A 
ATOM     42  C   UNL A   1      39.028  31.818  32.628  1.00  0.00     0.031 C 
ATOM     43  C   UNL A   1      40.276  27.612  27.339  1.00  0.00     0.029 A 
ATOM     44  C   UNL A   1      41.256  27.583  28.425  1.00  0.00     0.049 A 
ATOM     45  H   UNL A   1      41.196  28.660  30.208  1.00  0.00     0.167 HD
ATOM     46  C   UNL A   1      40.913  30.865  33.935  1.00  0.00     0.034 A 
ATOM     47  C   UNL A   1      42.375  26.831  28.436  1.00  0.00     0.034 A 
ATOM     48  C   UNL A   1      42.057  29.998  34.093  1.00  0.00     0.049 A 
ATOM     49  C   UNL A   1      43.254  26.830  29.659  1.00  0.00     0.074 A 
ATOM     50  C   UNL A   1      42.885  29.867  35.196  1.00  0.00     0.029 A 
ATOM     51  N   UNL A   1      42.557  29.140  33.123  1.00  0.00    -0.354 N 
ATOM     52  N   UNL A   1      43.101  27.489  30.783  1.00  0.00    -0.248 NA
ATOM     53  C   UNL A   1      44.445  25.970  29.626  1.00  0.00     0.031 C 
ATOM     54  C   UNL A   1      43.924  28.993  34.867  1.00  0.00     0.029 A 
ATOM     55  C   UNL A   1      43.705  28.512  33.586  1.00  0.00     0.049 A 
ATOM     56  H   UNL A   1      42.155  28.998  32.236  1.00  0.00     0.167 HD
ATOM     57  C   UNL A   1      44.173  27.122  31.592  1.00  0.00     0.074 A 
ATOM     58  C   UNL A   1      44.942  26.148  30.844  1.00  0.00     0.031 C 
ATOM     59  C   UNL A   1      44.493  27.561  32.837  1.00  0.00     0.034 A 
BRANCH  46  60
ATOM     60  C   UNL A   1      40.560  31.768  35.095  1.00  0.00     0.023 A 
ATOM     61  C   UNL A   1      39.539  31.413  35.998  1.00  0.00     0.031 A 
ATOM     62  C   UNL A   1      41.136  33.046  35.216  1.00  0.00     0.131 A 
ATOM     63  C   UNL A   1      39.102  32.339  36.955  1.00  0.00     0.055 A 
ATOM     64  C   UNL A   1      40.724  33.951  36.196  1.00  0.00     0.041 A 
ATOM     65  F   UNL A   1      42.110  33.437  34.377  1.00  0.00    -0.206 F 
ATOM     66  C   UNL A   1      39.693  33.603  37.062  1.00  0.00     0.022 A 
BRANCH  63  67
ATOM     67  S   UNL A   1      37.703  31.974  38.052  1.00  0.00     0.124 S 
ATOM     68  O   UNL A   1      36.732  32.988  37.643  1.00  0.00    -0.237 OA
ATOM     69  O   UNL A   1      37.369  30.604  37.676  1.00  0.00    -0.237 OA
ATOM     70  O   UNL A   1      38.253  32.145  39.391  1.00  0.00    -0.744 OA
ENDBRANCH  63  67
ENDBRANCH  46  60
BRANCH  47  71
ATOM     71  C   UNL A   1      42.659  25.968  27.254  1.00  0.00     0.023 A 
ATOM     72  C   UNL A   1      42.150  24.658  27.187  1.00  0.00     0.031 A 
ATOM     73  C   UNL A   1      43.563  26.381  26.262  1.00  0.00     0.131 A 
ATOM     74  C   UNL A   1      42.621  23.779  26.204  1.00  0.00     0.055 A 
ATOM     75  C   UNL A   1      43.967  25.525  25.236  1.00  0.00     0.041 A 
ATOM     76  F   UNL A   1      44.086  27.616  26.295  1.00  0.00    -0.206 F 
ATOM     77  C   UNL A   1      43.513  24.210  25.218  1.00  0.00     0.022 A 
BRANCH  74  78
ATOM     78  S   UNL A   1      42.222  22.010  26.276  1.00  0.00     0.124 S 
ATOM     79  O   UNL A   1      42.636  21.660  27.630  1.00  0.00    -0.237 OA
ATOM     80  O   UNL A   1      40.780  22.023  26.038  1.00  0.00    -0.237 OA
ATOM     81  O   UNL A   1      43.022  21.433  25.202  1.00  0.00    -0.744 OA
ENDBRANCH  74  78
ENDBRANCH  47  71
BRANCH  59  82
ATOM     82  C   UNL A   1      45.760  27.036  33.480  1.00  0.00     0.023 A 
ATOM     83  C   UNL A   1      45.710  25.966  34.395  1.00  0.00     0.031 A 
ATOM     84  C   UNL A   1      46.998  27.672  33.274  1.00  0.00     0.131 A 
ATOM     85  C   UNL A   1      46.869  25.582  35.085  1.00  0.00     0.055 A 
ATOM     86  C   UNL A   1      48.159  27.254  33.928  1.00  0.00     0.041 A 
ATOM     87  F   UNL A   1      47.100  28.705  32.422  1.00  0.00    -0.206 F 
ATOM     88  C   UNL A   1      48.094  26.213  34.848  1.00  0.00     0.022 A 
BRANCH  85  89
ATOM     89  S   UNL A   1      46.817  24.304  36.373  1.00  0.00     0.124 S 
ATOM     90  O   UNL A   1      45.381  24.176  36.612  1.00  0.00    -0.237 OA
ATOM     91  O   UNL A   1      47.441  23.165  35.703  1.00  0.00    -0.237 OA
ATOM     92  O   UNL A   1      47.583  24.880  37.472  1.00  0.00    -0.744 OA
ENDBRANCH  85  89
ENDBRANCH  59  82
ENDBRANCH  33  34
ENDBRANCH  26  28
ENDBRANCH  25  26
ENDBRANCH   1  25
TORSDOF 15
ENDMDL
MODEL 3
REMARK VINA RESULT:     -12.2      6.134     10.480
REMARK SMILES O=C(C[C@H]1C(=O)N[NH+]=C2c3ccc(F)cc3N=CN21)OCCOC(=O)c1ccc(-c2c3nc(c(-c4cc(S(=O)(=O)[O-])ccc4F)c4ccc([nH]4)c(-c4cc(S(=O)(=O)[O-])ccc4F)c4nc(c(-c5cc(S(=O)(=O)[O-])ccc5F)c5ccc2[nH]5)C=C4)C=C3)cc1
REMARK SMILES IDX 22 1 21 2 20 3 2 4 1 5 3 6 4 7 5 8 19 9 6 10 7 11 9 12 18 13
REMARK SMILES IDX 8 14 10 16 17 17 11 19 16 20 12 21 15 22 13 23 14 24 23 25
REMARK SMILES IDX 24 26 25 27 26 28 27 29 88 30 28 31 87 32 29 33 30 34 31 35
REMARK SMILES IDX 81 36 32 37 86 38 80 39 82 40 33 41 85 42 79 43 78 44 34 46
REMARK SMILES IDX 66 47 46 48 65 49 47 50 50 51 64 52 83 53 48 54 49 55 63 57
REMARK SMILES IDX 84 58 51 59 35 60 36 61 44 62 37 63 43 64 45 65 42 66 38 67
REMARK SMILES IDX 39 68 40 69 41 70 67 71 68 72 76 73 69 74 75 75 77 76 74 77
REMARK SMILES IDX 70 78 71 79 72 80 73 81 52 82 53 83 61 84 54 85 60 86 62 87
REMARK SMILES IDX 59 88 55 89 56 90 57 91 58 92
REMARK H PARENT 7 15 8 18 82 45 50 56
REMARK Flexibility Score: inf
ROOT
ATOM      1  C   UNL A   1      33.660  32.703  27.790  1.00  0.00     0.275 C 
ENDROOT
BRANCH   1   2
ATOM      2  C   UNL A   1      33.889  34.200  28.022  1.00  0.00     0.274 C 
BRANCH   2   3
ATOM      3  O   UNL A   1      32.724  34.866  28.555  1.00  0.00    -0.462 OA
BRANCH   3   4
ATOM      4  C   UNL A   1      32.758  35.873  29.461  1.00  0.00     0.310 C 
ATOM      5  O   UNL A   1      32.792  37.045  29.096  1.00  0.00    -0.252 OA
BRANCH   4   6
ATOM      6  C   UNL A   1      32.905  35.516  30.914  1.00  0.00     0.183 C 
BRANCH   6   7
ATOM      7  C   UNL A   1      34.146  36.100  31.580  1.00  0.00     0.286 C 
ATOM      8  C   UNL A   1      33.699  37.019  32.713  1.00  0.00     0.300 C 
ATOM      9  N   UNL A   1      34.982  34.981  32.064  1.00  0.00    -0.202 N 
ATOM     10  O   UNL A   1      33.132  38.093  32.520  1.00  0.00    -0.267 OA
ATOM     11  N   UNL A   1      33.851  36.563  33.993  1.00  0.00    -0.193 N 
ATOM     12  C   UNL A   1      35.124  34.778  33.427  1.00  0.00     0.309 C 
ATOM     13  C   UNL A   1      35.528  34.099  31.157  1.00  0.00     0.317 C 
ATOM     14  N   UNL A   1      34.570  35.482  34.368  1.00  0.00    -0.169 N 
ATOM     15  H   UNL A   1      33.397  37.069  34.706  1.00  0.00     0.216 HD
ATOM     16  C   UNL A   1      36.015  33.644  33.821  1.00  0.00     0.092 A 
ATOM     17  N   UNL A   1      36.217  33.041  31.431  1.00  0.00    -0.216 NA
ATOM     18  H   UNL A   1      34.671  35.237  35.316  1.00  0.00     0.340 HD
ATOM     19  C   UNL A   1      36.409  33.458  35.150  1.00  0.00     0.022 A 
ATOM     20  C   UNL A   1      36.519  32.827  32.790  1.00  0.00     0.085 A 
ATOM     21  C   UNL A   1      37.323  32.452  35.456  1.00  0.00     0.040 A 
ATOM     22  C   UNL A   1      37.408  31.802  33.119  1.00  0.00     0.068 A 
ATOM     23  C   UNL A   1      37.810  31.632  34.440  1.00  0.00     0.125 A 
ATOM     24  F   UNL A   1      38.695  30.676  34.746  1.00  0.00    -0.207 F 
ENDBRANCH   6   7
ENDBRANCH   4   6
ENDBRANCH   3   4
ENDBRANCH   2   3
ENDBRANCH   1   2
BRANCH   1  25
ATOM     25  O   UNL A   1      34.605  31.896  28.520  1.00  0.00    -0.458 OA
BRANCH  25  26
ATOM     26  C   UNL A   1      34.752  30.611  28.093  1.00  0.00     0.338 C 
ATOM     27  O   UNL A   1      33.952  29.983  27.420  1.00  0.00    -0.246 OA
BRANCH  26  28
ATOM     28  C   UNL A   1      36.123  30.132  28.413  1.00  0.00     0.060 A 
ATOM     29  C   UNL A   1      37.170  30.213  27.491  1.00  0.00     0.016 A 
ATOM     30  C   UNL A   1      36.338  29.514  29.654  1.00  0.00     0.016 A 
ATOM     31  C   UNL A   1      38.418  29.663  27.807  1.00  0.00     0.010 A 
ATOM     32  C   UNL A   1      37.594  28.976  29.971  1.00  0.00     0.010 A 
ATOM     33  C   UNL A   1      38.648  29.038  29.048  1.00  0.00    -0.014 A 
BRANCH  33  34
ATOM     34  C   UNL A   1      40.021  28.584  29.407  1.00  0.00     0.031 A 
ATOM     35  C   UNL A   1      40.692  27.409  28.751  1.00  0.00     0.074 A 
ATOM     36  C   UNL A   1      40.682  29.263  30.364  1.00  0.00     0.049 A 
ATOM     37  N   UNL A   1      41.937  27.015  28.850  1.00  0.00    -0.248 NA
ATOM     38  C   UNL A   1      39.866  26.563  27.882  1.00  0.00     0.031 C 
ATOM     39  C   UNL A   1      40.123  30.378  31.126  1.00  0.00     0.029 A 
ATOM     40  N   UNL A   1      41.956  29.122  30.857  1.00  0.00    -0.354 N 
ATOM     41  C   UNL A   1      42.061  25.910  28.015  1.00  0.00     0.074 A 
ATOM     42  C   UNL A   1      40.745  25.661  27.462  1.00  0.00     0.031 C 
ATOM     43  C   UNL A   1      41.056  30.839  31.969  1.00  0.00     0.029 A 
ATOM     44  C   UNL A   1      42.270  30.036  31.833  1.00  0.00     0.049 A 
ATOM     45  H   UNL A   1      42.584  28.432  30.540  1.00  0.00     0.167 HD
ATOM     46  C   UNL A   1      43.168  25.179  27.727  1.00  0.00     0.034 A 
ATOM     47  C   UNL A   1      43.402  30.220  32.542  1.00  0.00     0.034 A 
ATOM     48  C   UNL A   1      44.459  25.388  28.339  1.00  0.00     0.049 A 
ATOM     49  C   UNL A   1      44.611  29.376  32.239  1.00  0.00     0.074 A 
ATOM     50  C   UNL A   1      45.645  24.719  28.083  1.00  0.00     0.029 A 
ATOM     51  N   UNL A   1      44.734  26.304  29.345  1.00  0.00    -0.354 N 
ATOM     52  N   UNL A   1      44.749  28.426  31.344  1.00  0.00    -0.248 NA
ATOM     53  C   UNL A   1      45.825  29.640  33.023  1.00  0.00     0.031 C 
ATOM     54  C   UNL A   1      46.613  25.177  28.981  1.00  0.00     0.029 A 
ATOM     55  C   UNL A   1      46.058  26.188  29.748  1.00  0.00     0.049 A 
ATOM     56  H   UNL A   1      44.086  26.944  29.717  1.00  0.00     0.167 HD
ATOM     57  C   UNL A   1      46.063  27.980  31.456  1.00  0.00     0.074 A 
ATOM     58  C   UNL A   1      46.692  28.797  32.474  1.00  0.00     0.031 C 
ATOM     59  C   UNL A   1      46.686  26.979  30.781  1.00  0.00     0.034 A 
BRANCH  46  60
ATOM     60  C   UNL A   1      43.061  24.090  26.685  1.00  0.00     0.023 A 
ATOM     61  C   UNL A   1      42.434  22.865  26.986  1.00  0.00     0.031 A 
ATOM     62  C   UNL A   1      43.712  24.212  25.443  1.00  0.00     0.131 A 
ATOM     63  C   UNL A   1      42.503  21.803  26.073  1.00  0.00     0.055 A 
ATOM     64  C   UNL A   1      43.746  23.164  24.521  1.00  0.00     0.041 A 
ATOM     65  F   UNL A   1      44.331  25.357  25.108  1.00  0.00    -0.206 F 
ATOM     66  C   UNL A   1      43.151  21.949  24.841  1.00  0.00     0.022 A 
BRANCH  63  67
ATOM     67  S   UNL A   1      41.824  20.169  26.473  1.00  0.00     0.124 S 
ATOM     68  O   UNL A   1      40.388  20.444  26.511  1.00  0.00    -0.237 OA
ATOM     69  O   UNL A   1      42.273  19.365  25.340  1.00  0.00    -0.237 OA
ATOM     70  O   UNL A   1      42.429  19.842  27.759  1.00  0.00    -0.744 OA
ENDBRANCH  63  67
ENDBRANCH  46  60
BRANCH  47  71
ATOM     71  C   UNL A   1      43.431  31.312  33.557  1.00  0.00     0.023 A 
ATOM     72  C   UNL A   1      43.001  31.072  34.875  1.00  0.00     0.031 A 
ATOM     73  C   UNL A   1      43.734  32.632  33.187  1.00  0.00     0.131 A 
ATOM     74  C   UNL A   1      42.797  32.149  35.746  1.00  0.00     0.055 A 
ATOM     75  C   UNL A   1      43.607  33.693  34.085  1.00  0.00     0.041 A 
ATOM     76  F   UNL A   1      44.132  32.909  31.936  1.00  0.00    -0.206 F 
ATOM     77  C   UNL A   1      43.114  33.456  35.365  1.00  0.00     0.022 A 
BRANCH  74  78
ATOM     78  S   UNL A   1      41.958  31.907  37.337  1.00  0.00     0.124 S 
ATOM     79  O   UNL A   1      42.715  30.803  37.916  1.00  0.00    -0.237 OA
ATOM     80  O   UNL A   1      42.152  33.209  37.973  1.00  0.00    -0.237 OA
ATOM     81  O   UNL A   1      40.583  31.601  36.959  1.00  0.00    -0.744 OA
ENDBRANCH  74  78
ENDBRANCH  47  71
BRANCH  59  82
ATOM     82  C   UNL A   1      48.122  26.657  31.138  1.00  0.00     0.023 A 
ATOM     83  C   UNL A   1      49.187  27.226  30.413  1.00  0.00     0.031 A 
ATOM     84  C   UNL A   1      48.430  25.697  32.120  1.00  0.00     0.131 A 
ATOM     85  C   UNL A   1      50.503  26.814  30.664  1.00  0.00     0.055 A 
ATOM     86  C   UNL A   1      49.747  25.326  32.399  1.00  0.00     0.041 A 
ATOM     87  F   UNL A   1      47.453  25.114  32.833  1.00  0.00    -0.206 F 
ATOM     88  C   UNL A   1      50.789  25.876  31.660  1.00  0.00     0.022 A 
BRANCH  85  89
ATOM     89  S   UNL A   1      51.887  27.419  29.656  1.00  0.00     0.124 S 
ATOM     90  O   UNL A   1      52.778  26.261  29.645  1.00  0.00    -0.237 OA
ATOM     91  O   UNL A   1      51.236  27.715  28.383  1.00  0.00    -0.237 OA
ATOM     92  O   UNL A   1      52.379  28.577  30.393  1.00  0.00    -0.744 OA
ENDBRANCH  85  89
ENDBRANCH  59  82
ENDBRANCH  33  34
ENDBRANCH  26  28
ENDBRANCH  25  26
ENDBRANCH   1  25
TORSDOF 15
ENDMDL
