MODEL 1
REMARK VINA RESULT:     -12.8      0.000      0.000
REMARK SMILES Cc1ccccc1C(=O)Nc1cc(C(=O)OCCOC(=O)c2ccc(-c3c4nc(c(-c5cc(S(=O)(=O)[O-])ccc5F)c5ccc([nH]5)c(-c5cc(S(=O)(=O)[O-])ccc5F)c5nc(c(-c6cc(S(=O)(=O)[O-])ccc6F)c6ccc3[nH]6)C=C5)C=C4)cc2)ccc1N1CC[NH+](CC(=O)Nc2ccc(F)cc2)CC1
REMARK SMILES IDX 17 1 16 2 14 3 15 4 13 5 11 6 12 7 87 8 86 9 85 10 10 11
REMARK SMILES IDX 8 12 9 13 7 15 1 16 2 17 3 18 4 19 6 20 5 21 88 22 89 23
REMARK SMILES IDX 104 24 90 25 103 26 91 27 92 29 93 30 94 31 95 32 96 34
REMARK SMILES IDX 97 35 102 36 98 37 101 38 99 39 100 40 18 41 19 42 20 43
REMARK SMILES IDX 21 44 22 45 23 46 84 47 24 48 83 49 25 50 26 51 27 52 77 53
REMARK SMILES IDX 28 54 82 55 76 56 78 57 29 58 81 59 75 60 74 61 30 63 62 64
REMARK SMILES IDX 42 65 61 66 43 67 46 68 60 69 79 70 44 71 45 72 59 74 80 75
REMARK SMILES IDX 47 76 31 77 32 78 40 79 33 80 39 81 41 82 38 83 34 84 35 85
REMARK SMILES IDX 36 86 37 87 63 88 64 89 72 90 65 91 71 92 73 93 70 94 66 95
REMARK SMILES IDX 67 96 68 97 69 98 48 99 49 100 57 101 50 102 56 103 58 104
REMARK SMILES IDX 55 105 51 106 52 107 53 108 54 109
REMARK H PARENT 10 14 91 28 95 33 78 62 46 73
REMARK Flexibility Score: inf
ROOT
ATOM      1  C   UNL A   1      33.372  34.750  30.017  1.00  0.00     0.275 C 
ENDROOT
BRANCH   1   2
ATOM      2  O   UNL A   1      33.699  33.492  29.480  1.00  0.00    -0.458 OA
BRANCH   2   3
ATOM      3  C   UNL A   1      34.142  33.655  28.251  1.00  0.00     0.338 C 
ATOM      4  O   UNL A   1      34.249  34.726  27.661  1.00  0.00    -0.246 OA
BRANCH   3   5
ATOM      5  C   UNL A   1      34.566  32.328  27.649  1.00  0.00     0.062 A 
ATOM      6  C   UNL A   1      32.329  30.602  26.691  1.00  0.00     0.065 A 
ATOM      7  C   UNL A   1      32.933  32.092  27.013  1.00  0.00     0.044 A 
ATOM      8  C   UNL A   1      33.185  29.081  27.098  1.00  0.00     0.061 A 
ATOM      9  C   UNL A   1      34.865  29.055  27.741  1.00  0.00     0.029 A 
ATOM     10  C   UNL A   1      35.707  30.675  28.054  1.00  0.00     0.018 A 
BRANCH   6  11
ATOM     11  N   UNL A   1      31.157  30.669  25.817  1.00  0.00    -0.320 N 
ATOM     12  C   UNL A   1      30.896  30.189  24.461  1.00  0.00     0.255 C 
ATOM     13  O   UNL A   1      29.801  30.482  23.967  1.00  0.00    -0.269 OA
ATOM     14  H   UNL A   1      30.389  31.131  26.226  1.00  0.00     0.170 HD
BRANCH  12  15
ATOM     15  C   UNL A   1      31.779  29.229  23.615  1.00  0.00     0.043 A 
ATOM     16  C   UNL A   1      29.919  28.899  22.154  1.00  0.00     0.045 C 
ATOM     17  C   UNL A   1      31.185  28.423  22.692  1.00  0.00    -0.038 A 
ATOM     18  C   UNL A   1      31.742  27.181  22.387  1.00  0.00     0.004 A 
ATOM     19  C   UNL A   1      33.105  27.090  22.298  1.00  0.00     0.000 A 
ATOM     20  C   UNL A   1      33.163  29.246  23.420  1.00  0.00     0.014 A 
ATOM     21  C   UNL A   1      33.815  28.213  22.683  1.00  0.00     0.001 A 
ENDBRANCH  12  15
ENDBRANCH   6  11
BRANCH   8  22
ATOM     22  N   UNL A   1      32.447  27.912  26.780  1.00  0.00    -0.359 N 
ATOM     23  C   UNL A   1      31.078  27.451  27.138  1.00  0.00     0.178 C 
ATOM     24  C   UNL A   1      33.327  26.771  26.621  1.00  0.00     0.178 C 
ATOM     25  C   UNL A   1      30.602  26.294  26.144  1.00  0.00     0.284 C 
ATOM     26  C   UNL A   1      32.780  25.847  25.471  1.00  0.00     0.284 C 
ATOM     27  N   UNL A   1      31.538  25.209  25.813  1.00  0.00    -0.324 N 
ATOM     28  H   UNL A   1      31.007  24.716  25.093  1.00  0.00     0.348 HD
BRANCH  27  29
ATOM     29  C   UNL A   1      31.813  24.024  26.664  1.00  0.00     0.364 C 
BRANCH  29  30
ATOM     30  C   UNL A   1      31.724  22.602  26.055  1.00  0.00     0.279 C 
ATOM     31  O   UNL A   1      30.590  22.089  26.022  1.00  0.00    -0.268 OA
ATOM     32  N   UNL A   1      32.718  21.836  25.466  1.00  0.00    -0.321 N 
ATOM     33  H   UNL A   1      32.285  21.089  24.992  1.00  0.00     0.170 HD
BRANCH  32  34
ATOM     34  C   UNL A   1      34.142  21.715  25.281  1.00  0.00     0.041 A 
ATOM     35  C   UNL A   1      34.644  20.415  25.135  1.00  0.00     0.029 A 
ATOM     36  C   UNL A   1      35.159  22.676  25.355  1.00  0.00     0.029 A 
ATOM     37  C   UNL A   1      36.021  20.163  24.924  1.00  0.00     0.041 A 
ATOM     38  C   UNL A   1      36.514  22.473  25.087  1.00  0.00     0.041 A 
ATOM     39  C   UNL A   1      36.937  21.202  24.848  1.00  0.00     0.123 A 
ATOM     40  F   UNL A   1      38.233  20.977  24.620  1.00  0.00    -0.207 F 
ENDBRANCH  32  34
ENDBRANCH  29  30
ENDBRANCH  27  29
ENDBRANCH   8  22
ENDBRANCH   3   5
ENDBRANCH   2   3
ENDBRANCH   1   2
BRANCH   1  41
ATOM     41  C   UNL A   1      33.594  35.064  31.561  1.00  0.00     0.275 C 
BRANCH  41  42
ATOM     42  O   UNL A   1      34.577  34.483  32.546  1.00  0.00    -0.458 OA
BRANCH  42  43
ATOM     43  C   UNL A   1      35.968  34.410  32.640  1.00  0.00     0.338 C 
ATOM     44  O   UNL A   1      36.642  35.112  33.379  1.00  0.00    -0.246 OA
BRANCH  43  45
ATOM     45  C   UNL A   1      36.592  33.750  31.475  1.00  0.00     0.060 A 
ATOM     46  C   UNL A   1      37.108  34.288  29.786  1.00  0.00     0.016 A 
ATOM     47  C   UNL A   1      37.364  32.374  32.181  1.00  0.00     0.016 A 
ATOM     48  C   UNL A   1      38.564  33.119  28.932  1.00  0.00     0.010 A 
ATOM     49  C   UNL A   1      38.631  31.594  31.488  1.00  0.00     0.010 A 
ATOM     50  C   UNL A   1      39.295  31.756  29.929  1.00  0.00    -0.014 A 
BRANCH  50  51
ATOM     51  C   UNL A   1      40.542  30.655  30.064  1.00  0.00     0.031 A 
ATOM     52  C   UNL A   1      40.360  29.155  29.804  1.00  0.00     0.074 A 
ATOM     53  C   UNL A   1      41.869  31.147  29.976  1.00  0.00     0.049 A 
ATOM     54  N   UNL A   1      40.842  28.551  28.747  1.00  0.00    -0.248 NA
ATOM     55  C   UNL A   1      39.500  28.239  30.595  1.00  0.00     0.031 C 
ATOM     56  C   UNL A   1      43.193  30.587  29.569  1.00  0.00     0.029 A 
ATOM     57  N   UNL A   1      42.333  32.453  30.315  1.00  0.00    -0.354 N 
ATOM     58  C   UNL A   1      40.359  27.230  28.708  1.00  0.00     0.074 A 
ATOM     59  C   UNL A   1      39.352  27.191  29.759  1.00  0.00     0.031 C 
ATOM     60  C   UNL A   1      44.214  31.312  30.102  1.00  0.00     0.029 A 
ATOM     61  C   UNL A   1      43.634  32.409  30.840  1.00  0.00     0.049 A 
ATOM     62  H   UNL A   1      41.809  33.279  30.196  1.00  0.00     0.167 HD
ATOM     63  C   UNL A   1      41.228  26.181  28.652  1.00  0.00     0.034 A 
ATOM     64  C   UNL A   1      43.777  32.734  32.153  1.00  0.00     0.034 A 
ATOM     65  C   UNL A   1      42.464  26.564  29.285  1.00  0.00     0.049 A 
ATOM     66  C   UNL A   1      43.733  31.372  32.855  1.00  0.00     0.074 A 
ATOM     67  C   UNL A   1      43.644  27.105  28.835  1.00  0.00     0.029 A 
ATOM     68  N   UNL A   1      42.421  26.763  30.652  1.00  0.00    -0.354 N 
ATOM     69  N   UNL A   1      43.231  30.283  32.314  1.00  0.00    -0.248 NA
ATOM     70  C   UNL A   1      44.454  31.094  34.087  1.00  0.00     0.031 C 
ATOM     71  C   UNL A   1      44.255  27.738  29.965  1.00  0.00     0.029 A 
ATOM     72  C   UNL A   1      43.444  27.575  31.088  1.00  0.00     0.049 A 
ATOM     73  H   UNL A   1      41.738  26.371  31.244  1.00  0.00     0.167 HD
ATOM     74  C   UNL A   1      43.723  29.182  32.942  1.00  0.00     0.074 A 
ATOM     75  C   UNL A   1      44.454  29.751  34.073  1.00  0.00     0.031 C 
ATOM     76  C   UNL A   1      43.553  27.886  32.517  1.00  0.00     0.034 A 
BRANCH  63  77
ATOM     77  C   UNL A   1      40.989  24.891  27.899  1.00  0.00     0.023 A 
ATOM     78  C   UNL A   1      42.100  24.306  27.267  1.00  0.00     0.031 A 
ATOM     79  C   UNL A   1      39.752  24.250  27.663  1.00  0.00     0.131 A 
ATOM     80  C   UNL A   1      41.978  23.209  26.397  1.00  0.00     0.055 A 
ATOM     81  C   UNL A   1      39.627  23.138  26.798  1.00  0.00     0.041 A 
ATOM     82  F   UNL A   1      38.625  24.679  28.251  1.00  0.00    -0.206 F 
ATOM     83  C   UNL A   1      40.744  22.622  26.144  1.00  0.00     0.022 A 
BRANCH  80  84
ATOM     84  S   UNL A   1      43.485  22.624  25.577  1.00  0.00     0.124 S 
ATOM     85  O   UNL A   1      44.451  22.641  26.671  1.00  0.00    -0.237 OA
ATOM     86  O   UNL A   1      43.078  21.307  25.097  1.00  0.00    -0.237 OA
ATOM     87  O   UNL A   1      43.718  23.619  24.531  1.00  0.00    -0.744 OA
ENDBRANCH  80  84
ENDBRANCH  63  77
BRANCH  64  88
ATOM     88  C   UNL A   1      42.926  33.969  32.393  1.00  0.00     0.023 A 
ATOM     89  C   UNL A   1      41.763  33.851  33.241  1.00  0.00     0.031 A 
ATOM     90  C   UNL A   1      43.566  35.208  32.338  1.00  0.00     0.131 A 
ATOM     91  C   UNL A   1      41.423  34.886  34.137  1.00  0.00     0.055 A 
ATOM     92  C   UNL A   1      43.190  36.236  33.198  1.00  0.00     0.041 A 
ATOM     93  F   UNL A   1      44.702  35.365  31.644  1.00  0.00    -0.206 F 
ATOM     94  C   UNL A   1      42.146  36.072  34.119  1.00  0.00     0.022 A 
BRANCH  91  95
ATOM     95  S   UNL A   1      40.275  34.591  35.545  1.00  0.00     0.124 S 
ATOM     96  O   UNL A   1      41.155  34.722  36.699  1.00  0.00    -0.237 OA
ATOM     97  O   UNL A   1      39.280  35.644  35.366  1.00  0.00    -0.237 OA
ATOM     98  O   UNL A   1      39.768  33.242  35.300  1.00  0.00    -0.744 OA
ENDBRANCH  91  95
ENDBRANCH  64  88
BRANCH  76  99
ATOM     99  C   UNL A   1      43.539  26.759  33.523  1.00  0.00     0.023 A 
ATOM    100  C   UNL A   1      42.594  26.753  34.549  1.00  0.00     0.031 A 
ATOM    101  C   UNL A   1      44.369  25.618  33.467  1.00  0.00     0.131 A 
ATOM    102  C   UNL A   1      42.658  25.839  35.594  1.00  0.00     0.055 A 
ATOM    103  C   UNL A   1      44.311  24.598  34.419  1.00  0.00     0.041 A 
ATOM    104  F   UNL A   1      45.249  25.412  32.479  1.00  0.00    -0.206 F 
ATOM    105  C   UNL A   1      43.495  24.735  35.530  1.00  0.00     0.022 A 
BRANCH 102 106
ATOM    106  S   UNL A   1      41.715  26.256  37.071  1.00  0.00     0.124 S 
ATOM    107  O   UNL A   1      42.781  26.540  38.029  1.00  0.00    -0.237 OA
ATOM    108  O   UNL A   1      40.942  27.413  36.630  1.00  0.00    -0.237 OA
ATOM    109  O   UNL A   1      40.943  25.045  37.332  1.00  0.00    -0.744 OA
ENDBRANCH 102 106
ENDBRANCH  76  99
ENDBRANCH  50  51
ENDBRANCH  43  45
ENDBRANCH  42  43
ENDBRANCH  41  42
ENDBRANCH   1  41
TORSDOF 20
ENDMDL
MODEL 2
REMARK VINA RESULT:     -12.6      8.052     14.001
REMARK SMILES Cc1ccccc1C(=O)Nc1cc(C(=O)OCCOC(=O)c2ccc(-c3c4nc(c(-c5cc(S(=O)(=O)[O-])ccc5F)c5ccc([nH]5)c(-c5cc(S(=O)(=O)[O-])ccc5F)c5nc(c(-c6cc(S(=O)(=O)[O-])ccc6F)c6ccc3[nH]6)C=C5)C=C4)cc2)ccc1N1CC[NH+](CC(=O)Nc2ccc(F)cc2)CC1
REMARK SMILES IDX 17 1 16 2 14 3 15 4 13 5 11 6 12 7 87 8 86 9 85 10 10 11
REMARK SMILES IDX 8 12 9 13 7 15 1 16 2 17 3 18 4 19 6 20 5 21 88 22 89 23
REMARK SMILES IDX 104 24 90 25 103 26 91 27 92 29 93 30 94 31 95 32 96 34
REMARK SMILES IDX 97 35 102 36 98 37 101 38 99 39 100 40 18 41 19 42 20 43
REMARK SMILES IDX 21 44 22 45 23 46 84 47 24 48 83 49 25 50 26 51 27 52 77 53
REMARK SMILES IDX 28 54 82 55 76 56 78 57 29 58 81 59 75 60 74 61 30 63 62 64
REMARK SMILES IDX 42 65 61 66 43 67 46 68 60 69 79 70 44 71 45 72 59 74 80 75
REMARK SMILES IDX 47 76 31 77 32 78 40 79 33 80 39 81 41 82 38 83 34 84 35 85
REMARK SMILES IDX 36 86 37 87 63 88 64 89 72 90 65 91 71 92 73 93 70 94 66 95
REMARK SMILES IDX 67 96 68 97 69 98 48 99 49 100 57 101 50 102 56 103 58 104
REMARK SMILES IDX 55 105 51 106 52 107 53 108 54 109
REMARK H PARENT 10 14 91 28 95 33 78 62 46 73
REMARK Flexibility Score: inf
ROOT
ATOM      1  C   UNL A   1      43.882  40.196  31.465  1.00  0.00     0.275 C 
ENDROOT
BRANCH   1   2
ATOM      2  O   UNL A   1      43.455  39.761  30.198  1.00  0.00    -0.458 OA
BRANCH   2   3
ATOM      3  C   UNL A   1      42.883  40.770  29.572  1.00  0.00     0.338 C 
ATOM      4  O   UNL A   1      42.472  41.801  30.097  1.00  0.00    -0.246 OA
BRANCH   3   5
ATOM      5  C   UNL A   1      42.838  40.521  28.076  1.00  0.00     0.062 A 
ATOM      6  C   UNL A   1      44.506  42.370  26.435  1.00  0.00     0.065 A 
ATOM      7  C   UNL A   1      44.223  41.596  27.852  1.00  0.00     0.044 A 
ATOM      8  C   UNL A   1      43.372  42.334  25.047  1.00  0.00     0.061 A 
ATOM      9  C   UNL A   1      41.900  41.301  25.024  1.00  0.00     0.029 A 
ATOM     10  C   UNL A   1      41.515  40.291  26.529  1.00  0.00     0.018 A 
BRANCH   6  11
ATOM     11  N   UNL A   1      45.881  42.861  26.350  1.00  0.00    -0.320 N 
ATOM     12  C   UNL A   1      47.181  42.235  26.591  1.00  0.00     0.255 C 
ATOM     13  O   UNL A   1      48.176  42.965  26.505  1.00  0.00    -0.269 OA
ATOM     14  H   UNL A   1      45.945  43.805  26.075  1.00  0.00     0.170 HD
BRANCH  12  15
ATOM     15  C   UNL A   1      47.473  40.724  26.806  1.00  0.00     0.043 A 
ATOM     16  C   UNL A   1      46.973  40.359  24.500  1.00  0.00     0.045 C 
ATOM     17  C   UNL A   1      47.087  39.832  25.852  1.00  0.00    -0.038 A 
ATOM     18  C   UNL A   1      46.736  38.532  26.212  1.00  0.00     0.004 A 
ATOM     19  C   UNL A   1      47.477  37.908  27.179  1.00  0.00     0.000 A 
ATOM     20  C   UNL A   1      48.351  40.115  27.707  1.00  0.00     0.014 A 
ATOM     21  C   UNL A   1      48.411  38.694  27.830  1.00  0.00     0.001 A 
ENDBRANCH  12  15
ENDBRANCH   6  11
BRANCH   8  22
ATOM     22  N   UNL A   1      43.797  43.122  23.946  1.00  0.00    -0.359 N 
ATOM     23  C   UNL A   1      43.200  44.295  23.251  1.00  0.00     0.178 C 
ATOM     24  C   UNL A   1      44.564  42.328  23.007  1.00  0.00     0.178 C 
ATOM     25  C   UNL A   1      44.310  45.054  22.388  1.00  0.00     0.284 C 
ATOM     26  C   UNL A   1      45.719  43.208  22.402  1.00  0.00     0.284 C 
ATOM     27  N   UNL A   1      45.232  44.265  21.558  1.00  0.00    -0.324 N 
ATOM     28  H   UNL A   1      45.872  44.994  21.241  1.00  0.00     0.348 HD
BRANCH  27  29
ATOM     29  C   UNL A   1      44.919  43.714  20.215  1.00  0.00     0.364 C 
BRANCH  29  30
ATOM     30  C   UNL A   1      43.448  43.658  19.731  1.00  0.00     0.279 C 
ATOM     31  O   UNL A   1      42.793  42.660  20.082  1.00  0.00    -0.268 OA
ATOM     32  N   UNL A   1      42.723  44.600  19.019  1.00  0.00    -0.321 N 
ATOM     33  H   UNL A   1      41.772  44.353  19.069  1.00  0.00     0.170 HD
BRANCH  32  34
ATOM     34  C   UNL A   1      42.828  45.805  18.234  1.00  0.00     0.041 A 
ATOM     35  C   UNL A   1      41.885  45.967  17.211  1.00  0.00     0.029 A 
ATOM     36  C   UNL A   1      43.809  46.805  18.221  1.00  0.00     0.029 A 
ATOM     37  C   UNL A   1      41.867  47.116  16.384  1.00  0.00     0.041 A 
ATOM     38  C   UNL A   1      43.786  47.981  17.469  1.00  0.00     0.041 A 
ATOM     39  C   UNL A   1      42.787  48.140  16.559  1.00  0.00     0.123 A 
ATOM     40  F   UNL A   1      42.761  49.241  15.804  1.00  0.00    -0.207 F 
ENDBRANCH  32  34
ENDBRANCH  29  30
ENDBRANCH  27  29
ENDBRANCH   8  22
ENDBRANCH   3   5
ENDBRANCH   2   3
ENDBRANCH   1   2
BRANCH   1  41
ATOM     41  C   UNL A   1      43.507  39.380  32.780  1.00  0.00     0.275 C 
BRANCH  41  42
ATOM     42  O   UNL A   1      44.145  38.154  33.385  1.00  0.00    -0.458 OA
BRANCH  42  43
ATOM     43  C   UNL A   1      43.961  37.409  34.551  1.00  0.00     0.338 C 
ATOM     44  O   UNL A   1      44.128  37.847  35.679  1.00  0.00    -0.246 OA
BRANCH  43  45
ATOM     45  C   UNL A   1      43.987  35.951  34.314  1.00  0.00     0.060 A 
ATOM     46  C   UNL A   1      44.752  34.500  35.161  1.00  0.00     0.016 A 
ATOM     47  C   UNL A   1      42.590  35.696  33.329  1.00  0.00     0.016 A 
ATOM     48  C   UNL A   1      43.821  32.709  34.783  1.00  0.00     0.010 A 
ATOM     49  C   UNL A   1      41.819  34.251  33.210  1.00  0.00     0.010 A 
ATOM     50  C   UNL A   1      42.286  32.713  33.768  1.00  0.00    -0.014 A 
BRANCH  50  51
ATOM     51  C   UNL A   1      40.947  31.844  33.279  1.00  0.00     0.031 A 
ATOM     52  C   UNL A   1      40.885  31.091  31.945  1.00  0.00     0.074 A 
ATOM     53  C   UNL A   1      40.036  31.418  34.278  1.00  0.00     0.049 A 
ATOM     54  N   UNL A   1      40.925  29.785  31.861  1.00  0.00    -0.248 NA
ATOM     55  C   UNL A   1      40.942  31.713  30.598  1.00  0.00     0.031 C 
ATOM     56  C   UNL A   1      39.054  30.303  34.425  1.00  0.00     0.029 A 
ATOM     57  N   UNL A   1      39.781  32.038  35.539  1.00  0.00    -0.354 N 
ATOM     58  C   UNL A   1      41.030  29.411  30.509  1.00  0.00     0.074 A 
ATOM     59  C   UNL A   1      41.269  30.667  29.812  1.00  0.00     0.031 C 
ATOM     60  C   UNL A   1      38.108  30.605  35.358  1.00  0.00     0.029 A 
ATOM     61  C   UNL A   1      38.435  31.898  35.911  1.00  0.00     0.049 A 
ATOM     62  H   UNL A   1      40.462  32.503  36.079  1.00  0.00     0.167 HD
ATOM     63  C   UNL A   1      40.112  28.568  29.955  1.00  0.00     0.034 A 
ATOM     64  C   UNL A   1      37.687  33.032  35.945  1.00  0.00     0.034 A 
ATOM     65  C   UNL A   1      38.860  28.719  30.651  1.00  0.00     0.049 A 
ATOM     66  C   UNL A   1      37.026  33.056  34.562  1.00  0.00     0.074 A 
ATOM     67  C   UNL A   1      38.274  28.082  31.718  1.00  0.00     0.029 A 
ATOM     68  N   UNL A   1      38.204  29.923  30.485  1.00  0.00    -0.354 N 
ATOM     69  N   UNL A   1      37.472  32.380  33.525  1.00  0.00    -0.248 NA
ATOM     70  C   UNL A   1      35.715  33.635  34.322  1.00  0.00     0.031 C 
ATOM     71  C   UNL A   1      37.317  29.001  32.259  1.00  0.00     0.029 A 
ATOM     72  C   UNL A   1      37.329  30.181  31.517  1.00  0.00     0.049 A 
ATOM     73  H   UNL A   1      38.346  30.527  29.719  1.00  0.00     0.167 HD
ATOM     74  C   UNL A   1      36.478  32.226  32.609  1.00  0.00     0.074 A 
ATOM     75  C   UNL A   1      35.409  33.069  33.143  1.00  0.00     0.031 C 
ATOM     76  C   UNL A   1      36.543  31.420  31.498  1.00  0.00     0.034 A 
BRANCH  63  77
ATOM     77  C   UNL A   1      40.411  27.527  28.899  1.00  0.00     0.023 A 
ATOM     78  C   UNL A   1      41.346  27.875  27.908  1.00  0.00     0.031 A 
ATOM     79  C   UNL A   1      39.783  26.274  28.725  1.00  0.00     0.131 A 
ATOM     80  C   UNL A   1      41.581  27.069  26.780  1.00  0.00     0.055 A 
ATOM     81  C   UNL A   1      40.025  25.454  27.597  1.00  0.00     0.041 A 
ATOM     82  F   UNL A   1      38.910  25.804  29.629  1.00  0.00    -0.206 F 
ATOM     83  C   UNL A   1      40.917  25.860  26.607  1.00  0.00     0.022 A 
BRANCH  80  84
ATOM     84  S   UNL A   1      42.742  27.692  25.537  1.00  0.00     0.124 S 
ATOM     85  O   UNL A   1      43.915  28.003  26.347  1.00  0.00    -0.237 OA
ATOM     86  O   UNL A   1      42.865  26.551  24.636  1.00  0.00    -0.237 OA
ATOM     87  O   UNL A   1      42.054  28.854  24.974  1.00  0.00    -0.744 OA
ENDBRANCH  80  84
ENDBRANCH  63  77
BRANCH  64  88
ATOM     88  C   UNL A   1      38.534  34.094  36.626  1.00  0.00     0.023 A 
ATOM     89  C   UNL A   1      39.071  33.812  37.936  1.00  0.00     0.031 A 
ATOM     90  C   UNL A   1      39.251  34.965  35.804  1.00  0.00     0.131 A 
ATOM     91  C   UNL A   1      40.373  34.233  38.281  1.00  0.00     0.055 A 
ATOM     92  C   UNL A   1      40.516  35.409  36.178  1.00  0.00     0.041 A 
ATOM     93  F   UNL A   1      38.859  35.201  34.543  1.00  0.00    -0.206 F 
ATOM     94  C   UNL A   1      41.096  35.021  37.394  1.00  0.00     0.022 A 
BRANCH  91  95
ATOM     95  S   UNL A   1      41.264  33.499  39.714  1.00  0.00     0.124 S 
ATOM     96  O   UNL A   1      42.510  34.256  39.729  1.00  0.00    -0.237 OA
ATOM     97  O   UNL A   1      40.343  33.748  40.820  1.00  0.00    -0.237 OA
ATOM     98  O   UNL A   1      41.397  32.089  39.354  1.00  0.00    -0.744 OA
ENDBRANCH  91  95
ENDBRANCH  64  88
BRANCH  76  99
ATOM     99  C   UNL A   1      35.749  31.773  30.262  1.00  0.00     0.023 A 
ATOM    100  C   UNL A   1      35.387  33.098  30.024  1.00  0.00     0.031 A 
ATOM    101  C   UNL A   1      35.403  30.863  29.240  1.00  0.00     0.131 A 
ATOM    102  C   UNL A   1      34.509  33.441  29.001  1.00  0.00     0.055 A 
ATOM    103  C   UNL A   1      34.673  31.242  28.110  1.00  0.00     0.041 A 
ATOM    104  F   UNL A   1      35.777  29.577  29.257  1.00  0.00    -0.206 F 
ATOM    105  C   UNL A   1      34.165  32.528  28.016  1.00  0.00     0.022 A 
BRANCH 102 106
ATOM    106  S   UNL A   1      33.747  35.069  29.124  1.00  0.00     0.124 S 
ATOM    107  O   UNL A   1      33.805  35.311  30.564  1.00  0.00    -0.237 OA
ATOM    108  O   UNL A   1      34.638  35.892  28.313  1.00  0.00    -0.237 OA
ATOM    109  O   UNL A   1      32.411  34.858  28.576  1.00  0.00    -0.744 OA
ENDBRANCH 102 106
ENDBRANCH  76  99
ENDBRANCH  50  51
ENDBRANCH  43  45
ENDBRANCH  42  43
ENDBRANCH  41  42
ENDBRANCH   1  41
TORSDOF 20
ENDMDL
MODEL 3
REMARK VINA RESULT:     -11.7      7.856     14.431
REMARK SMILES Cc1ccccc1C(=O)Nc1cc(C(=O)OCCOC(=O)c2ccc(-c3c4nc(c(-c5cc(S(=O)(=O)[O-])ccc5F)c5ccc([nH]5)c(-c5cc(S(=O)(=O)[O-])ccc5F)c5nc(c(-c6cc(S(=O)(=O)[O-])ccc6F)c6ccc3[nH]6)C=C5)C=C4)cc2)ccc1N1CC[NH+](CC(=O)Nc2ccc(F)cc2)CC1
REMARK SMILES IDX 17 1 16 2 14 3 15 4 13 5 11 6 12 7 87 8 86 9 85 10 10 11
REMARK SMILES IDX 8 12 9 13 7 15 1 16 2 17 3 18 4 19 6 20 5 21 88 22 89 23
REMARK SMILES IDX 104 24 90 25 103 26 91 27 92 29 93 30 94 31 95 32 96 34
REMARK SMILES IDX 97 35 102 36 98 37 101 38 99 39 100 40 18 41 19 42 20 43
REMARK SMILES IDX 21 44 22 45 23 46 84 47 24 48 83 49 25 50 26 51 27 52 77 53
REMARK SMILES IDX 28 54 82 55 76 56 78 57 29 58 81 59 75 60 74 61 30 63 62 64
REMARK SMILES IDX 42 65 61 66 43 67 46 68 60 69 79 70 44 71 45 72 59 74 80 75
REMARK SMILES IDX 47 76 31 77 32 78 40 79 33 80 39 81 41 82 38 83 34 84 35 85
REMARK SMILES IDX 36 86 37 87 63 88 64 89 72 90 65 91 71 92 73 93 70 94 66 95
REMARK SMILES IDX 67 96 68 97 69 98 48 99 49 100 57 101 50 102 56 103 58 104
REMARK SMILES IDX 55 105 51 106 52 107 53 108 54 109
REMARK H PARENT 10 14 91 28 95 33 78 62 46 73
REMARK Flexibility Score: inf
ROOT
ATOM      1  C   UNL A   1      45.163  37.709  30.554  1.00  0.00     0.275 C 
ENDROOT
BRANCH   1   2
ATOM      2  O   UNL A   1      46.122  38.104  29.604  1.00  0.00    -0.458 OA
BRANCH   2   3
ATOM      3  C   UNL A   1      45.596  38.002  28.401  1.00  0.00     0.338 C 
ATOM      4  O   UNL A   1      44.592  37.359  28.107  1.00  0.00    -0.246 OA
BRANCH   3   5
ATOM      5  C   UNL A   1      46.371  38.839  27.401  1.00  0.00     0.062 A 
ATOM      6  C   UNL A   1      45.167  41.494  26.769  1.00  0.00     0.065 A 
ATOM      7  C   UNL A   1      45.387  40.249  27.813  1.00  0.00     0.044 A 
ATOM      8  C   UNL A   1      45.756  41.479  25.077  1.00  0.00     0.061 A 
ATOM      9  C   UNL A   1      46.793  40.164  24.422  1.00  0.00     0.029 A 
ATOM     10  C   UNL A   1      47.207  38.740  25.533  1.00  0.00     0.018 A 
BRANCH   6  11
ATOM     11  N   UNL A   1      44.676  42.692  27.451  1.00  0.00    -0.320 N 
ATOM     12  C   UNL A   1      45.110  43.406  28.651  1.00  0.00     0.255 C 
ATOM     13  O   UNL A   1      44.416  44.364  29.012  1.00  0.00    -0.269 OA
ATOM     14  H   UNL A   1      43.894  43.101  27.011  1.00  0.00     0.170 HD
BRANCH  12  15
ATOM     15  C   UNL A   1      46.425  43.190  29.451  1.00  0.00     0.043 A 
ATOM     16  C   UNL A   1      45.221  41.751  30.929  1.00  0.00     0.045 C 
ATOM     17  C   UNL A   1      46.362  42.620  30.687  1.00  0.00    -0.038 A 
ATOM     18  C   UNL A   1      47.302  42.958  31.660  1.00  0.00     0.004 A 
ATOM     19  C   UNL A   1      48.605  43.119  31.271  1.00  0.00     0.000 A 
ATOM     20  C   UNL A   1      47.747  43.212  28.998  1.00  0.00     0.014 A 
ATOM     21  C   UNL A   1      48.839  43.089  29.908  1.00  0.00     0.001 A 
ENDBRANCH  12  15
ENDBRANCH   6  11
BRANCH   8  22
ATOM     22  N   UNL A   1      45.400  42.640  24.342  1.00  0.00    -0.359 N 
ATOM     23  C   UNL A   1      44.349  42.911  23.324  1.00  0.00     0.178 C 
ATOM     24  C   UNL A   1      46.564  43.465  24.083  1.00  0.00     0.178 C 
ATOM     25  C   UNL A   1      44.111  44.484  23.175  1.00  0.00     0.284 C 
ATOM     26  C   UNL A   1      46.155  44.981  24.159  1.00  0.00     0.284 C 
ATOM     27  N   UNL A   1      45.277  45.377  23.092  1.00  0.00    -0.324 N 
ATOM     28  H   UNL A   1      44.818  46.288  23.126  1.00  0.00     0.348 HD
BRANCH  27  29
ATOM     29  C   UNL A   1      46.077  45.631  21.868  1.00  0.00     0.364 C 
BRANCH  29  30
ATOM     30  C   UNL A   1      45.978  44.656  20.668  1.00  0.00     0.279 C 
ATOM     31  O   UNL A   1      46.778  43.702  20.668  1.00  0.00    -0.268 OA
ATOM     32  N   UNL A   1      45.071  44.645  19.620  1.00  0.00    -0.321 N 
ATOM     33  H   UNL A   1      45.148  43.777  19.161  1.00  0.00     0.170 HD
BRANCH  32  34
ATOM     34  C   UNL A   1      44.058  45.416  18.944  1.00  0.00     0.041 A 
ATOM     35  C   UNL A   1      44.372  46.753  18.669  1.00  0.00     0.029 A 
ATOM     36  C   UNL A   1      42.731  45.101  18.624  1.00  0.00     0.029 A 
ATOM     37  C   UNL A   1      43.471  47.609  17.990  1.00  0.00     0.041 A 
ATOM     38  C   UNL A   1      41.841  45.895  17.898  1.00  0.00     0.041 A 
ATOM     39  C   UNL A   1      42.233  47.154  17.562  1.00  0.00     0.123 A 
ATOM     40  F   UNL A   1      41.388  47.944  16.895  1.00  0.00    -0.207 F 
ENDBRANCH  32  34
ENDBRANCH  29  30
ENDBRANCH  27  29
ENDBRANCH   8  22
ENDBRANCH   3   5
ENDBRANCH   2   3
ENDBRANCH   1   2
BRANCH   1  41
ATOM     41  C   UNL A   1      45.366  38.022  32.102  1.00  0.00     0.275 C 
BRANCH  41  42
ATOM     42  O   UNL A   1      44.354  38.303  33.184  1.00  0.00    -0.458 OA
BRANCH  42  43
ATOM     43  C   UNL A   1      43.886  37.625  34.311  1.00  0.00     0.338 C 
ATOM     44  O   UNL A   1      43.792  38.126  35.422  1.00  0.00    -0.246 OA
BRANCH  43  45
ATOM     45  C   UNL A   1      43.940  36.156  34.166  1.00  0.00     0.060 A 
ATOM     46  C   UNL A   1      44.684  34.770  35.132  1.00  0.00     0.016 A 
ATOM     47  C   UNL A   1      42.589  35.822  33.139  1.00  0.00     0.016 A 
ATOM     48  C   UNL A   1      43.791  32.947  34.825  1.00  0.00     0.010 A 
ATOM     49  C   UNL A   1      41.841  34.362  33.076  1.00  0.00     0.010 A 
ATOM     50  C   UNL A   1      42.302  32.868  33.746  1.00  0.00    -0.014 A 
BRANCH  50  51
ATOM     51  C   UNL A   1      40.996  31.951  33.255  1.00  0.00     0.031 A 
ATOM     52  C   UNL A   1      40.968  31.188  31.926  1.00  0.00     0.074 A 
ATOM     53  C   UNL A   1      40.092  31.503  34.251  1.00  0.00     0.049 A 
ATOM     54  N   UNL A   1      41.052  29.883  31.852  1.00  0.00    -0.248 NA
ATOM     55  C   UNL A   1      41.014  31.801  30.575  1.00  0.00     0.031 C 
ATOM     56  C   UNL A   1      39.146  30.357  34.399  1.00  0.00     0.029 A 
ATOM     57  N   UNL A   1      39.808  32.122  35.505  1.00  0.00    -0.354 N 
ATOM     58  C   UNL A   1      41.178  29.503  30.503  1.00  0.00     0.074 A 
ATOM     59  C   UNL A   1      41.380  30.761  29.799  1.00  0.00     0.031 C 
ATOM     60  C   UNL A   1      38.185  30.634  35.323  1.00  0.00     0.029 A 
ATOM     61  C   UNL A   1      38.465  31.941  35.869  1.00  0.00     0.049 A 
ATOM     62  H   UNL A   1      40.470  32.613  36.046  1.00  0.00     0.167 HD
ATOM     63  C   UNL A   1      40.293  28.626  29.949  1.00  0.00     0.034 A 
ATOM     64  C   UNL A   1      37.680  33.050  35.890  1.00  0.00     0.034 A 
ATOM     65  C   UNL A   1      39.031  28.740  30.635  1.00  0.00     0.049 A 
ATOM     66  C   UNL A   1      37.028  33.042  34.502  1.00  0.00     0.074 A 
ATOM     67  C   UNL A   1      38.459  28.092  31.704  1.00  0.00     0.029 A 
ATOM     68  N   UNL A   1      38.337  29.921  30.456  1.00  0.00    -0.354 N 
ATOM     69  N   UNL A   1      37.503  32.374  33.473  1.00  0.00    -0.248 NA
ATOM     70  C   UNL A   1      35.700  33.576  34.249  1.00  0.00     0.031 C 
ATOM     71  C   UNL A   1      37.468  28.983  32.231  1.00  0.00     0.029 A 
ATOM     72  C   UNL A   1      37.447  30.158  31.481  1.00  0.00     0.049 A 
ATOM     73  H   UNL A   1      38.464  30.524  29.687  1.00  0.00     0.167 HD
ATOM     74  C   UNL A   1      36.521  32.181  32.552  1.00  0.00     0.074 A 
ATOM     75  C   UNL A   1      35.421  32.992  33.072  1.00  0.00     0.031 C 
ATOM     76  C   UNL A   1      36.621  31.369  31.447  1.00  0.00     0.034 A 
BRANCH  63  77
ATOM     77  C   UNL A   1      40.633  27.588  28.903  1.00  0.00     0.023 A 
ATOM     78  C   UNL A   1      41.638  27.922  27.977  1.00  0.00     0.031 A 
ATOM     79  C   UNL A   1      39.988  26.353  28.675  1.00  0.00     0.131 A 
ATOM     80  C   UNL A   1      41.924  27.121  26.857  1.00  0.00     0.055 A 
ATOM     81  C   UNL A   1      40.281  25.538  27.556  1.00  0.00     0.041 A 
ATOM     82  F   UNL A   1      39.048  25.895  29.517  1.00  0.00    -0.206 F 
ATOM     83  C   UNL A   1      41.244  25.931  26.629  1.00  0.00     0.022 A 
BRANCH  80  84
ATOM     84  S   UNL A   1      43.176  27.728  25.697  1.00  0.00     0.124 S 
ATOM     85  O   UNL A   1      43.994  26.538  25.484  1.00  0.00    -0.237 OA
ATOM     86  O   UNL A   1      42.360  28.160  24.567  1.00  0.00    -0.237 OA
ATOM     87  O   UNL A   1      43.835  28.807  26.433  1.00  0.00    -0.744 OA
ENDBRANCH  80  84
ENDBRANCH  63  77
BRANCH  64  88
ATOM     88  C   UNL A   1      38.486  34.144  36.568  1.00  0.00     0.023 A 
ATOM     89  C   UNL A   1      38.950  33.923  37.918  1.00  0.00     0.031 A 
ATOM     90  C   UNL A   1      39.247  34.981  35.749  1.00  0.00     0.131 A 
ATOM     91  C   UNL A   1      40.230  34.363  38.315  1.00  0.00     0.055 A 
ATOM     92  C   UNL A   1      40.489  35.445  36.173  1.00  0.00     0.041 A 
ATOM     93  F   UNL A   1      38.926  35.159  34.460  1.00  0.00    -0.206 F 
ATOM     94  C   UNL A   1      41.000  35.114  37.436  1.00  0.00     0.022 A 
BRANCH  91  95
ATOM     95  S   UNL A   1      41.041  33.697  39.827  1.00  0.00     0.124 S 
ATOM     96  O   UNL A   1      40.523  34.572  40.871  1.00  0.00    -0.237 OA
ATOM     97  O   UNL A   1      40.575  32.313  39.851  1.00  0.00    -0.237 OA
ATOM     98  O   UNL A   1      42.468  33.841  39.546  1.00  0.00    -0.744 OA
ENDBRANCH  91  95
ENDBRANCH  64  88
BRANCH  76  99
ATOM     99  C   UNL A   1      35.825  31.687  30.203  1.00  0.00     0.023 A 
ATOM    100  C   UNL A   1      35.443  33.002  29.939  1.00  0.00     0.031 A 
ATOM    101  C   UNL A   1      35.495  30.754  29.197  1.00  0.00     0.131 A 
ATOM    102  C   UNL A   1      34.562  33.313  28.909  1.00  0.00     0.055 A 
ATOM    103  C   UNL A   1      34.761  31.101  28.059  1.00  0.00     0.041 A 
ATOM    104  F   UNL A   1      35.888  29.474  29.240  1.00  0.00    -0.206 F 
ATOM    105  C   UNL A   1      34.234  32.376  27.941  1.00  0.00     0.022 A 
BRANCH 102 106
ATOM    106  S   UNL A   1      33.775  34.931  29.000  1.00  0.00     0.124 S 
ATOM    107  O   UNL A   1      32.437  34.634  28.491  1.00  0.00    -0.237 OA
ATOM    108  O   UNL A   1      33.850  35.234  30.426  1.00  0.00    -0.237 OA
ATOM    109  O   UNL A   1      34.607  35.760  28.135  1.00  0.00    -0.744 OA
ENDBRANCH 102 106
ENDBRANCH  76  99
ENDBRANCH  50  51
ENDBRANCH  43  45
ENDBRANCH  42  43
ENDBRANCH  41  42
ENDBRANCH   1  41
TORSDOF 20
ENDMDL
