MODEL 1
REMARK VINA RESULT:     -11.7      0.000      0.000
REMARK SMILES CC(=O)C1=C(C(=O)OCCOC(=O)c2ccc(-c3c4nc(c(-c5cc(S(=O)(=O)[O-])ccc5F)c5ccc([nH]5)c(-c5cc(S(=O)(=O)[O-])ccc5F)c5nc(c(-c6cc(S(=O)(=O)[O-])ccc6F)c6ccc3[nH]6)C=C5)C=C4)cc2)S[C@H]2CCCCC2=N1
REMARK SMILES IDX 10 1 9 2 8 3 6 4 7 5 5 6 4 7 84 8 77 9 83 10 78 11 82 12
REMARK SMILES IDX 79 13 81 14 80 15 2 16 1 17 3 18 11 19 12 20 13 21 14 22
REMARK SMILES IDX 15 23 76 24 16 25 75 26 17 27 18 28 19 29 69 30 20 31 74 32
REMARK SMILES IDX 68 33 70 34 21 35 73 36 67 37 66 38 22 40 54 41 34 42 53 43
REMARK SMILES IDX 35 44 38 45 52 46 71 47 36 48 37 49 51 51 72 52 39 53 23 54
REMARK SMILES IDX 24 55 32 56 25 57 31 58 33 59 30 60 26 61 27 62 28 63 29 64
REMARK SMILES IDX 55 65 56 66 64 67 57 68 63 69 65 70 62 71 58 72 59 73 60 74
REMARK SMILES IDX 61 75 40 76 41 77 49 78 42 79 48 80 50 81 47 82 43 83 44 84
REMARK SMILES IDX 45 85 46 86
REMARK H PARENT 70 39 38 50
REMARK Flexibility Score: inf
ROOT
ATOM      1  C   UNL A   1      31.476  29.977  25.512  1.00  0.00     0.275 C 
ENDROOT
BRANCH   1   2
ATOM      2  C   UNL A   1      32.051  29.104  24.399  1.00  0.00     0.275 C 
BRANCH   2   3
ATOM      3  O   UNL A   1      32.664  27.913  24.944  1.00  0.00    -0.458 OA
BRANCH   3   4
ATOM      4  C   UNL A   1      32.088  26.732  24.581  1.00  0.00     0.347 C 
ATOM      5  O   UNL A   1      30.888  26.549  24.475  1.00  0.00    -0.245 OA
BRANCH   4   6
ATOM      6  C   UNL A   1      33.116  25.668  24.372  1.00  0.00     0.123 C 
ATOM      7  C   UNL A   1      33.551  25.311  23.151  1.00  0.00     0.127 C 
ATOM      8  N   UNL A   1      34.419  24.291  22.835  1.00  0.00    -0.251 NA
ATOM      9  S   UNL A   1      33.741  24.861  25.786  1.00  0.00    -0.107 SA
ATOM     10  C   UNL A   1      35.267  23.869  23.715  1.00  0.00     0.032 C 
ATOM     11  C   UNL A   1      35.398  24.423  25.126  1.00  0.00     0.097 C 
ATOM     12  C   UNL A   1      36.332  22.932  23.181  1.00  0.00     0.053 C 
ATOM     13  C   UNL A   1      36.051  23.437  26.093  1.00  0.00     0.021 C 
ATOM     14  C   UNL A   1      36.859  21.982  24.234  1.00  0.00     0.006 C 
ATOM     15  C   UNL A   1      37.268  22.748  25.483  1.00  0.00     0.002 C 
BRANCH   7  16
ATOM     16  C   UNL A   1      33.268  26.207  21.992  1.00  0.00     0.179 C 
ATOM     17  C   UNL A   1      32.076  25.783  21.164  1.00  0.00     0.095 C 
ATOM     18  O   UNL A   1      33.939  27.207  21.772  1.00  0.00    -0.293 OA
ENDBRANCH   7  16
ENDBRANCH   4   6
ENDBRANCH   3   4
ENDBRANCH   2   3
ENDBRANCH   1   2
BRANCH   1  19
ATOM     19  O   UNL A   1      32.361  29.934  26.639  1.00  0.00    -0.458 OA
BRANCH  19  20
ATOM     20  C   UNL A   1      32.918  31.106  27.020  1.00  0.00     0.338 C 
ATOM     21  O   UNL A   1      32.350  32.192  27.052  1.00  0.00    -0.246 OA
BRANCH  20  22
ATOM     22  C   UNL A   1      34.317  30.888  27.469  1.00  0.00     0.060 A 
ATOM     23  C   UNL A   1      34.795  29.605  27.722  1.00  0.00     0.016 A 
ATOM     24  C   UNL A   1      35.139  31.981  27.763  1.00  0.00     0.016 A 
ATOM     25  C   UNL A   1      36.012  29.428  28.386  1.00  0.00     0.010 A 
ATOM     26  C   UNL A   1      36.410  31.782  28.331  1.00  0.00     0.010 A 
ATOM     27  C   UNL A   1      36.851  30.502  28.707  1.00  0.00    -0.014 A 
BRANCH  27  28
ATOM     28  C   UNL A   1      38.121  30.294  29.489  1.00  0.00     0.031 A 
ATOM     29  C   UNL A   1      39.248  29.460  28.912  1.00  0.00     0.074 A 
ATOM     30  C   UNL A   1      38.327  30.871  30.694  1.00  0.00     0.049 A 
ATOM     31  N   UNL A   1      40.265  28.898  29.516  1.00  0.00    -0.248 NA
ATOM     32  C   UNL A   1      39.209  29.210  27.463  1.00  0.00     0.031 C 
ATOM     33  C   UNL A   1      37.412  31.792  31.372  1.00  0.00     0.029 A 
ATOM     34  N   UNL A   1      39.393  30.782  31.564  1.00  0.00    -0.354 N 
ATOM     35  C   UNL A   1      40.928  28.150  28.546  1.00  0.00     0.074 A 
ATOM     36  C   UNL A   1      40.204  28.346  27.307  1.00  0.00     0.031 C 
ATOM     37  C   UNL A   1      37.983  32.240  32.497  1.00  0.00     0.029 A 
ATOM     38  C   UNL A   1      39.228  31.517  32.716  1.00  0.00     0.049 A 
ATOM     39  H   UNL A   1      40.196  30.243  31.377  1.00  0.00     0.167 HD
ATOM     40  C   UNL A   1      42.027  27.363  28.683  1.00  0.00     0.034 A 
ATOM     41  C   UNL A   1      39.935  31.555  33.864  1.00  0.00     0.034 A 
ATOM     42  C   UNL A   1      42.796  27.256  29.904  1.00  0.00     0.049 A 
ATOM     43  C   UNL A   1      41.117  30.639  34.022  1.00  0.00     0.074 A 
ATOM     44  C   UNL A   1      43.927  26.494  30.149  1.00  0.00     0.029 A 
ATOM     45  N   UNL A   1      42.534  27.955  31.075  1.00  0.00    -0.354 N 
ATOM     46  N   UNL A   1      41.628  29.793  33.159  1.00  0.00    -0.248 NA
ATOM     47  C   UNL A   1      41.791  30.654  35.326  1.00  0.00     0.031 C 
ATOM     48  C   UNL A   1      44.314  26.691  31.480  1.00  0.00     0.029 A 
ATOM     49  C   UNL A   1      43.468  27.628  32.048  1.00  0.00     0.049 A 
ATOM     50  H   UNL A   1      41.792  28.591  31.198  1.00  0.00     0.167 HD
ATOM     51  C   UNL A   1      42.681  29.171  33.821  1.00  0.00     0.074 A 
ATOM     52  C   UNL A   1      42.751  29.760  35.142  1.00  0.00     0.031 C 
ATOM     53  C   UNL A   1      43.512  28.193  33.375  1.00  0.00     0.034 A 
BRANCH  40  54
ATOM     54  C   UNL A   1      42.418  26.488  27.512  1.00  0.00     0.023 A 
ATOM     55  C   UNL A   1      42.014  25.148  27.393  1.00  0.00     0.031 A 
ATOM     56  C   UNL A   1      43.233  27.021  26.494  1.00  0.00     0.131 A 
ATOM     57  C   UNL A   1      42.476  24.371  26.316  1.00  0.00     0.055 A 
ATOM     58  C   UNL A   1      43.625  26.266  25.387  1.00  0.00     0.041 A 
ATOM     59  F   UNL A   1      43.669  28.290  26.561  1.00  0.00    -0.206 F 
ATOM     60  C   UNL A   1      43.259  24.928  25.300  1.00  0.00     0.022 A 
BRANCH  57  61
ATOM     61  S   UNL A   1      42.159  22.584  26.331  1.00  0.00     0.124 S 
ATOM     62  O   UNL A   1      42.877  22.165  27.533  1.00  0.00    -0.237 OA
ATOM     63  O   UNL A   1      40.705  22.523  26.401  1.00  0.00    -0.237 OA
ATOM     64  O   UNL A   1      42.744  22.121  25.074  1.00  0.00    -0.744 OA
ENDBRANCH  57  61
ENDBRANCH  40  54
BRANCH  41  65
ATOM     65  C   UNL A   1      39.464  32.395  35.004  1.00  0.00     0.023 A 
ATOM     66  C   UNL A   1      39.944  33.699  35.201  1.00  0.00     0.031 A 
ATOM     67  C   UNL A   1      38.527  31.890  35.927  1.00  0.00     0.131 A 
ATOM     68  C   UNL A   1      39.494  34.448  36.302  1.00  0.00     0.055 A 
ATOM     69  C   UNL A   1      38.038  32.660  36.981  1.00  0.00     0.041 A 
ATOM     70  F   UNL A   1      38.047  30.643  35.794  1.00  0.00    -0.206 F 
ATOM     71  C   UNL A   1      38.527  33.946  37.178  1.00  0.00     0.022 A 
BRANCH  68  72
ATOM     72  S   UNL A   1      40.239  36.071  36.619  1.00  0.00     0.124 S 
ATOM     73  O   UNL A   1      39.509  36.508  37.803  1.00  0.00    -0.237 OA
ATOM     74  O   UNL A   1      41.643  35.731  36.821  1.00  0.00    -0.237 OA
ATOM     75  O   UNL A   1      39.953  36.822  35.398  1.00  0.00    -0.744 OA
ENDBRANCH  68  72
ENDBRANCH  41  65
BRANCH  53  76
ATOM     76  C   UNL A   1      44.583  27.731  34.329  1.00  0.00     0.023 A 
ATOM     77  C   UNL A   1      45.842  28.355  34.379  1.00  0.00     0.031 A 
ATOM     78  C   UNL A   1      44.356  26.624  35.166  1.00  0.00     0.131 A 
ATOM     79  C   UNL A   1      46.848  27.831  35.207  1.00  0.00     0.055 A 
ATOM     80  C   UNL A   1      45.343  26.140  36.025  1.00  0.00     0.041 A 
ATOM     81  F   UNL A   1      43.173  25.990  35.153  1.00  0.00    -0.206 F 
ATOM     82  C   UNL A   1      46.602  26.736  36.039  1.00  0.00     0.022 A 
BRANCH  79  83
ATOM     83  S   UNL A   1      48.513  28.545  35.115  1.00  0.00     0.124 S 
ATOM     84  O   UNL A   1      49.296  27.592  35.894  1.00  0.00    -0.237 OA
ATOM     85  O   UNL A   1      48.769  28.557  33.678  1.00  0.00    -0.237 OA
ATOM     86  O   UNL A   1      48.356  29.863  35.726  1.00  0.00    -0.744 OA
ENDBRANCH  79  83
ENDBRANCH  53  76
ENDBRANCH  27  28
ENDBRANCH  20  22
ENDBRANCH  19  20
ENDBRANCH   1  19
TORSDOF 15
ENDMDL
MODEL 2
REMARK VINA RESULT:     -11.7      4.912      9.788
REMARK SMILES CC(=O)C1=C(C(=O)OCCOC(=O)c2ccc(-c3c4nc(c(-c5cc(S(=O)(=O)[O-])ccc5F)c5ccc([nH]5)c(-c5cc(S(=O)(=O)[O-])ccc5F)c5nc(c(-c6cc(S(=O)(=O)[O-])ccc6F)c6ccc3[nH]6)C=C5)C=C4)cc2)S[C@H]2CCCCC2=N1
REMARK SMILES IDX 10 1 9 2 8 3 6 4 7 5 5 6 4 7 84 8 77 9 83 10 78 11 82 12
REMARK SMILES IDX 79 13 81 14 80 15 2 16 1 17 3 18 11 19 12 20 13 21 14 22
REMARK SMILES IDX 15 23 76 24 16 25 75 26 17 27 18 28 19 29 69 30 20 31 74 32
REMARK SMILES IDX 68 33 70 34 21 35 73 36 67 37 66 38 22 40 54 41 34 42 53 43
REMARK SMILES IDX 35 44 38 45 52 46 71 47 36 48 37 49 51 51 72 52 39 53 23 54
REMARK SMILES IDX 24 55 32 56 25 57 31 58 33 59 30 60 26 61 27 62 28 63 29 64
REMARK SMILES IDX 55 65 56 66 64 67 57 68 63 69 65 70 62 71 58 72 59 73 60 74
REMARK SMILES IDX 61 75 40 76 41 77 49 78 42 79 48 80 50 81 47 82 43 83 44 84
REMARK SMILES IDX 45 85 46 86
REMARK H PARENT 70 39 38 50
REMARK Flexibility Score: inf
ROOT
ATOM      1  C   UNL A   1      35.989  21.378  24.924  1.00  0.00     0.275 C 
ENDROOT
BRANCH   1   2
ATOM      2  C   UNL A   1      35.167  22.665  24.885  1.00  0.00     0.275 C 
BRANCH   2   3
ATOM      3  O   UNL A   1      33.807  22.419  25.314  1.00  0.00    -0.458 OA
BRANCH   3   4
ATOM      4  C   UNL A   1      32.838  23.069  24.609  1.00  0.00     0.347 C 
ATOM      5  O   UNL A   1      32.297  22.631  23.609  1.00  0.00    -0.245 OA
BRANCH   4   6
ATOM      6  C   UNL A   1      32.553  24.415  25.192  1.00  0.00     0.123 C 
ATOM      7  C   UNL A   1      31.716  24.591  26.230  1.00  0.00     0.127 C 
ATOM      8  N   UNL A   1      31.310  25.782  26.785  1.00  0.00    -0.251 NA
ATOM      9  S   UNL A   1      33.332  25.793  24.461  1.00  0.00    -0.107 SA
ATOM     10  C   UNL A   1      32.051  26.835  26.669  1.00  0.00     0.032 C 
ATOM     11  C   UNL A   1      33.388  26.877  25.942  1.00  0.00     0.097 C 
ATOM     12  C   UNL A   1      31.635  28.011  27.530  1.00  0.00     0.053 C 
ATOM     13  C   UNL A   1      33.774  28.283  25.490  1.00  0.00     0.021 C 
ATOM     14  C   UNL A   1      32.043  29.344  26.941  1.00  0.00     0.006 C 
ATOM     15  C   UNL A   1      33.518  29.331  26.569  1.00  0.00     0.002 C 
BRANCH   7  16
ATOM     16  C   UNL A   1      31.317  23.408  27.045  1.00  0.00     0.179 C 
ATOM     17  C   UNL A   1      29.922  22.903  26.753  1.00  0.00     0.095 C 
ATOM     18  O   UNL A   1      32.080  22.893  27.851  1.00  0.00    -0.293 OA
ENDBRANCH   7  16
ENDBRANCH   4   6
ENDBRANCH   3   4
ENDBRANCH   2   3
ENDBRANCH   1   2
BRANCH   1  19
ATOM     19  O   UNL A   1      37.342  21.681  24.560  1.00  0.00    -0.458 OA
BRANCH  19  20
ATOM     20  C   UNL A   1      38.310  21.232  25.391  1.00  0.00     0.338 C 
ATOM     21  O   UNL A   1      38.690  20.071  25.487  1.00  0.00    -0.246 OA
BRANCH  20  22
ATOM     22  C   UNL A   1      38.912  22.366  26.139  1.00  0.00     0.060 A 
ATOM     23  C   UNL A   1      38.466  23.670  25.940  1.00  0.00     0.016 A 
ATOM     24  C   UNL A   1      40.022  22.155  26.963  1.00  0.00     0.016 A 
ATOM     25  C   UNL A   1      39.202  24.748  26.442  1.00  0.00     0.010 A 
ATOM     26  C   UNL A   1      40.688  23.244  27.553  1.00  0.00     0.010 A 
ATOM     27  C   UNL A   1      40.325  24.570  27.258  1.00  0.00    -0.014 A 
BRANCH  27  28
ATOM     28  C   UNL A   1      41.145  25.743  27.726  1.00  0.00     0.031 A 
ATOM     29  C   UNL A   1      40.540  26.780  28.651  1.00  0.00     0.074 A 
ATOM     30  C   UNL A   1      42.445  25.893  27.386  1.00  0.00     0.049 A 
ATOM     31  N   UNL A   1      40.940  27.999  28.914  1.00  0.00    -0.248 NA
ATOM     32  C   UNL A   1      39.309  26.396  29.359  1.00  0.00     0.031 C 
ATOM     33  C   UNL A   1      43.239  24.952  26.592  1.00  0.00     0.029 A 
ATOM     34  N   UNL A   1      43.343  26.895  27.684  1.00  0.00    -0.354 N 
ATOM     35  C   UNL A   1      39.962  28.560  29.733  1.00  0.00     0.074 A 
ATOM     36  C   UNL A   1      38.958  27.537  29.937  1.00  0.00     0.031 C 
ATOM     37  C   UNL A   1      44.508  25.376  26.536  1.00  0.00     0.029 A 
ATOM     38  C   UNL A   1      44.592  26.699  27.140  1.00  0.00     0.049 A 
ATOM     39  H   UNL A   1      43.111  27.679  28.235  1.00  0.00     0.167 HD
ATOM     40  C   UNL A   1      39.905  29.815  30.250  1.00  0.00     0.034 A 
ATOM     41  C   UNL A   1      45.667  27.507  27.047  1.00  0.00     0.034 A 
ATOM     42  C   UNL A   1      40.964  30.792  30.119  1.00  0.00     0.049 A 
ATOM     43  C   UNL A   1      45.570  28.912  27.576  1.00  0.00     0.074 A 
ATOM     44  C   UNL A   1      41.010  32.088  30.607  1.00  0.00     0.029 A 
ATOM     45  N   UNL A   1      42.176  30.572  29.478  1.00  0.00    -0.354 N 
ATOM     46  N   UNL A   1      44.568  29.497  28.188  1.00  0.00    -0.248 NA
ATOM     47  C   UNL A   1      46.737  29.777  27.363  1.00  0.00     0.031 C 
ATOM     48  C   UNL A   1      42.224  32.666  30.217  1.00  0.00     0.029 A 
ATOM     49  C   UNL A   1      42.966  31.712  29.543  1.00  0.00     0.049 A 
ATOM     50  H   UNL A   1      42.437  29.730  29.040  1.00  0.00     0.167 HD
ATOM     51  C   UNL A   1      44.983  30.802  28.427  1.00  0.00     0.074 A 
ATOM     52  C   UNL A   1      46.336  30.909  27.921  1.00  0.00     0.031 C 
ATOM     53  C   UNL A   1      44.301  31.823  29.007  1.00  0.00     0.034 A 
BRANCH  40  54
ATOM     54  C   UNL A   1      38.623  30.237  30.934  1.00  0.00     0.023 A 
ATOM     55  C   UNL A   1      37.588  30.913  30.266  1.00  0.00     0.031 A 
ATOM     56  C   UNL A   1      38.447  29.958  32.304  1.00  0.00     0.131 A 
ATOM     57  C   UNL A   1      36.457  31.341  30.981  1.00  0.00     0.055 A 
ATOM     58  C   UNL A   1      37.286  30.318  32.991  1.00  0.00     0.041 A 
ATOM     59  F   UNL A   1      39.408  29.332  33.003  1.00  0.00    -0.206 F 
ATOM     60  C   UNL A   1      36.288  31.027  32.333  1.00  0.00     0.022 A 
BRANCH  57  61
ATOM     61  S   UNL A   1      35.269  32.439  30.158  1.00  0.00     0.124 S 
ATOM     62  O   UNL A   1      36.114  33.576  29.799  1.00  0.00    -0.237 OA
ATOM     63  O   UNL A   1      34.798  31.618  29.050  1.00  0.00    -0.237 OA
ATOM     64  O   UNL A   1      34.279  32.716  31.197  1.00  0.00    -0.744 OA
ENDBRANCH  57  61
ENDBRANCH  40  54
BRANCH  41  65
ATOM     65  C   UNL A   1      46.881  27.053  26.308  1.00  0.00     0.023 A 
ATOM     66  C   UNL A   1      47.146  27.482  24.999  1.00  0.00     0.031 A 
ATOM     67  C   UNL A   1      47.793  26.161  26.907  1.00  0.00     0.131 A 
ATOM     68  C   UNL A   1      48.287  27.011  24.328  1.00  0.00     0.055 A 
ATOM     69  C   UNL A   1      48.955  25.745  26.259  1.00  0.00     0.041 A 
ATOM     70  F   UNL A   1      47.580  25.705  28.152  1.00  0.00    -0.206 F 
ATOM     71  C   UNL A   1      49.204  26.165  24.957  1.00  0.00     0.022 A 
BRANCH  68  72
ATOM     72  S   UNL A   1      48.527  27.463  22.588  1.00  0.00     0.124 S 
ATOM     73  O   UNL A   1      48.610  26.154  21.948  1.00  0.00    -0.237 OA
ATOM     74  O   UNL A   1      47.327  28.241  22.303  1.00  0.00    -0.237 OA
ATOM     75  O   UNL A   1      49.773  28.229  22.603  1.00  0.00    -0.744 OA
ENDBRANCH  68  72
ENDBRANCH  41  65
BRANCH  53  76
ATOM     76  C   UNL A   1      45.035  33.133  29.145  1.00  0.00     0.023 A 
ATOM     77  C   UNL A   1      44.907  34.151  28.184  1.00  0.00     0.031 A 
ATOM     78  C   UNL A   1      45.906  33.346  30.227  1.00  0.00     0.131 A 
ATOM     79  C   UNL A   1      45.685  35.315  28.293  1.00  0.00     0.055 A 
ATOM     80  C   UNL A   1      46.637  34.527  30.358  1.00  0.00     0.041 A 
ATOM     81  F   UNL A   1      46.067  32.403  31.169  1.00  0.00    -0.206 F 
ATOM     82  C   UNL A   1      46.539  35.514  29.381  1.00  0.00     0.022 A 
BRANCH  79  83
ATOM     83  S   UNL A   1      45.635  36.528  26.945  1.00  0.00     0.124 S 
ATOM     84  O   UNL A   1      46.435  37.620  27.488  1.00  0.00    -0.237 OA
ATOM     85  O   UNL A   1      46.231  35.789  25.837  1.00  0.00    -0.237 OA
ATOM     86  O   UNL A   1      44.209  36.818  26.798  1.00  0.00    -0.744 OA
ENDBRANCH  79  83
ENDBRANCH  53  76
ENDBRANCH  27  28
ENDBRANCH  20  22
ENDBRANCH  19  20
ENDBRANCH   1  19
TORSDOF 15
ENDMDL
MODEL 3
REMARK VINA RESULT:     -11.7      1.931      2.231
REMARK SMILES CC(=O)C1=C(C(=O)OCCOC(=O)c2ccc(-c3c4nc(c(-c5cc(S(=O)(=O)[O-])ccc5F)c5ccc([nH]5)c(-c5cc(S(=O)(=O)[O-])ccc5F)c5nc(c(-c6cc(S(=O)(=O)[O-])ccc6F)c6ccc3[nH]6)C=C5)C=C4)cc2)S[C@H]2CCCCC2=N1
REMARK SMILES IDX 10 1 9 2 8 3 6 4 7 5 5 6 4 7 84 8 77 9 83 10 78 11 82 12
REMARK SMILES IDX 79 13 81 14 80 15 2 16 1 17 3 18 11 19 12 20 13 21 14 22
REMARK SMILES IDX 15 23 76 24 16 25 75 26 17 27 18 28 19 29 69 30 20 31 74 32
REMARK SMILES IDX 68 33 70 34 21 35 73 36 67 37 66 38 22 40 54 41 34 42 53 43
REMARK SMILES IDX 35 44 38 45 52 46 71 47 36 48 37 49 51 51 72 52 39 53 23 54
REMARK SMILES IDX 24 55 32 56 25 57 31 58 33 59 30 60 26 61 27 62 28 63 29 64
REMARK SMILES IDX 55 65 56 66 64 67 57 68 63 69 65 70 62 71 58 72 59 73 60 74
REMARK SMILES IDX 61 75 40 76 41 77 49 78 42 79 48 80 50 81 47 82 43 83 44 84
REMARK SMILES IDX 45 85 46 86
REMARK H PARENT 70 39 38 50
REMARK Flexibility Score: inf
ROOT
ATOM      1  C   UNL A   1      31.804  29.643  25.686  1.00  0.00     0.275 C 
ENDROOT
BRANCH   1   2
ATOM      2  C   UNL A   1      31.932  28.127  25.542  1.00  0.00     0.275 C 
BRANCH   2   3
ATOM      3  O   UNL A   1      31.937  27.742  24.148  1.00  0.00    -0.458 OA
BRANCH   3   4
ATOM      4  C   UNL A   1      31.518  26.472  23.884  1.00  0.00     0.347 C 
ATOM      5  O   UNL A   1      30.357  26.147  23.707  1.00  0.00    -0.245 OA
BRANCH   4   6
ATOM      6  C   UNL A   1      32.663  25.511  23.884  1.00  0.00     0.123 C 
ATOM      7  C   UNL A   1      33.366  25.224  22.775  1.00  0.00     0.127 C 
ATOM      8  N   UNL A   1      34.372  24.295  22.638  1.00  0.00    -0.251 NA
ATOM      9  S   UNL A   1      33.063  24.733  25.392  1.00  0.00    -0.107 SA
ATOM     10  C   UNL A   1      35.062  23.933  23.670  1.00  0.00     0.032 C 
ATOM     11  C   UNL A   1      34.852  24.464  25.080  1.00  0.00     0.097 C 
ATOM     12  C   UNL A   1      36.296  23.110  23.359  1.00  0.00     0.053 C 
ATOM     13  C   UNL A   1      35.387  23.520  26.156  1.00  0.00     0.021 C 
ATOM     14  C   UNL A   1      36.688  22.189  24.494  1.00  0.00     0.006 C 
ATOM     15  C   UNL A   1      36.762  22.959  25.803  1.00  0.00     0.002 C 
BRANCH   7  16
ATOM     16  C   UNL A   1      33.240  26.116  21.587  1.00  0.00     0.179 C 
ATOM     17  C   UNL A   1      32.426  25.525  20.458  1.00  0.00     0.095 C 
ATOM     18  O   UNL A   1      33.735  27.236  21.565  1.00  0.00    -0.293 OA
ENDBRANCH   7  16
ENDBRANCH   4   6
ENDBRANCH   3   4
ENDBRANCH   2   3
ENDBRANCH   1   2
BRANCH   1  19
ATOM     19  O   UNL A   1      32.201  30.017  27.012  1.00  0.00    -0.458 OA
BRANCH  19  20
ATOM     20  C   UNL A   1      32.845  31.200  27.143  1.00  0.00     0.338 C 
ATOM     21  O   UNL A   1      32.346  32.308  26.989  1.00  0.00    -0.246 OA
BRANCH  20  22
ATOM     22  C   UNL A   1      34.249  30.975  27.572  1.00  0.00     0.060 A 
ATOM     23  C   UNL A   1      34.739  29.686  27.770  1.00  0.00     0.016 A 
ATOM     24  C   UNL A   1      35.066  32.060  27.903  1.00  0.00     0.016 A 
ATOM     25  C   UNL A   1      35.962  29.492  28.418  1.00  0.00     0.010 A 
ATOM     26  C   UNL A   1      36.343  31.849  28.453  1.00  0.00     0.010 A 
ATOM     27  C   UNL A   1      36.796  30.558  28.775  1.00  0.00    -0.014 A 
BRANCH  27  28
ATOM     28  C   UNL A   1      38.073  30.329  29.538  1.00  0.00     0.031 A 
ATOM     29  C   UNL A   1      39.186  29.495  28.935  1.00  0.00     0.074 A 
ATOM     30  C   UNL A   1      38.298  30.887  30.749  1.00  0.00     0.049 A 
ATOM     31  N   UNL A   1      40.206  28.917  29.519  1.00  0.00    -0.248 NA
ATOM     32  C   UNL A   1      39.128  29.267  27.483  1.00  0.00     0.031 C 
ATOM     33  C   UNL A   1      37.398  31.804  31.451  1.00  0.00     0.029 A 
ATOM     34  N   UNL A   1      39.373  30.777  31.604  1.00  0.00    -0.354 N 
ATOM     35  C   UNL A   1      40.852  28.178  28.530  1.00  0.00     0.074 A 
ATOM     36  C   UNL A   1      40.114  28.398  27.303  1.00  0.00     0.031 C 
ATOM     37  C   UNL A   1      37.986  32.231  32.576  1.00  0.00     0.029 A 
ATOM     38  C   UNL A   1      39.228  31.496  32.769  1.00  0.00     0.049 A 
ATOM     39  H   UNL A   1      40.170  30.234  31.401  1.00  0.00     0.167 HD
ATOM     40  C   UNL A   1      41.946  27.381  28.643  1.00  0.00     0.034 A 
ATOM     41  C   UNL A   1      39.949  31.512  33.909  1.00  0.00     0.034 A 
ATOM     42  C   UNL A   1      42.729  27.250  29.853  1.00  0.00     0.049 A 
ATOM     43  C   UNL A   1      41.125  30.584  34.040  1.00  0.00     0.074 A 
ATOM     44  C   UNL A   1      43.857  26.476  30.073  1.00  0.00     0.029 A 
ATOM     45  N   UNL A   1      42.486  27.933  31.037  1.00  0.00    -0.354 N 
ATOM     46  N   UNL A   1      41.619  29.748  33.159  1.00  0.00    -0.248 NA
ATOM     47  C   UNL A   1      41.815  30.575  35.336  1.00  0.00     0.031 C 
ATOM     48  C   UNL A   1      44.261  26.650  31.402  1.00  0.00     0.029 A 
ATOM     49  C   UNL A   1      43.429  27.585  31.994  1.00  0.00     0.049 A 
ATOM     50  H   UNL A   1      41.751  28.573  31.178  1.00  0.00     0.167 HD
ATOM     51  C   UNL A   1      42.675  29.108  33.798  1.00  0.00     0.074 A 
ATOM     52  C   UNL A   1      42.765  29.676  35.127  1.00  0.00     0.031 C 
ATOM     53  C   UNL A   1      43.493  28.130  33.328  1.00  0.00     0.034 A 
BRANCH  40  54
ATOM     54  C   UNL A   1      42.316  26.521  27.455  1.00  0.00     0.023 A 
ATOM     55  C   UNL A   1      41.909  25.182  27.325  1.00  0.00     0.031 A 
ATOM     56  C   UNL A   1      43.115  27.065  26.430  1.00  0.00     0.131 A 
ATOM     57  C   UNL A   1      42.352  24.419  26.231  1.00  0.00     0.055 A 
ATOM     58  C   UNL A   1      43.487  26.324  25.307  1.00  0.00     0.041 A 
ATOM     59  F   UNL A   1      43.553  28.332  26.506  1.00  0.00    -0.206 F 
ATOM     60  C   UNL A   1      43.118  24.988  25.209  1.00  0.00     0.022 A 
BRANCH  57  61
ATOM     61  S   UNL A   1      42.033  22.632  26.229  1.00  0.00     0.124 S 
ATOM     62  O   UNL A   1      40.573  22.590  26.255  1.00  0.00    -0.237 OA
ATOM     63  O   UNL A   1      42.664  22.202  24.987  1.00  0.00    -0.237 OA
ATOM     64  O   UNL A   1      42.682  22.166  27.454  1.00  0.00    -0.744 OA
ENDBRANCH  57  61
ENDBRANCH  40  54
BRANCH  41  65
ATOM     65  C   UNL A   1      39.497  32.338  35.067  1.00  0.00     0.023 A 
ATOM     66  C   UNL A   1      38.789  31.774  36.139  1.00  0.00     0.031 A 
ATOM     67  C   UNL A   1      39.759  33.722  35.105  1.00  0.00     0.131 A 
ATOM     68  C   UNL A   1      38.359  32.591  37.197  1.00  0.00     0.055 A 
ATOM     69  C   UNL A   1      39.384  34.517  36.187  1.00  0.00     0.041 A 
ATOM     70  F   UNL A   1      40.418  34.317  34.098  1.00  0.00    -0.206 F 
ATOM     71  C   UNL A   1      38.672  33.953  37.240  1.00  0.00     0.022 A 
BRANCH  68  72
ATOM     72  S   UNL A   1      37.320  31.866  38.496  1.00  0.00     0.124 S 
ATOM     73  O   UNL A   1      37.125  30.509  37.998  1.00  0.00    -0.237 OA
ATOM     74  O   UNL A   1      38.166  32.000  39.677  1.00  0.00    -0.237 OA
ATOM     75  O   UNL A   1      36.127  32.711  38.489  1.00  0.00    -0.744 OA
ENDBRANCH  68  72
ENDBRANCH  41  65
BRANCH  53  76
ATOM     76  C   UNL A   1      44.571  27.645  34.263  1.00  0.00     0.023 A 
ATOM     77  C   UNL A   1      44.375  26.529  35.095  1.00  0.00     0.031 A 
ATOM     78  C   UNL A   1      45.792  28.335  34.354  1.00  0.00     0.131 A 
ATOM     79  C   UNL A   1      45.364  26.169  36.025  1.00  0.00     0.055 A 
ATOM     80  C   UNL A   1      46.792  27.942  35.244  1.00  0.00     0.041 A 
ATOM     81  F   UNL A   1      46.028  29.411  33.585  1.00  0.00    -0.206 F 
ATOM     82  C   UNL A   1      46.576  26.862  36.095  1.00  0.00     0.022 A 
BRANCH  79  83
ATOM     83  S   UNL A   1      45.008  24.841  37.207  1.00  0.00     0.124 S 
ATOM     84  O   UNL A   1      44.050  25.479  38.104  1.00  0.00    -0.237 OA
ATOM     85  O   UNL A   1      44.474  23.790  36.347  1.00  0.00    -0.237 OA
ATOM     86  O   UNL A   1      46.312  24.551  37.800  1.00  0.00    -0.744 OA
ENDBRANCH  79  83
ENDBRANCH  53  76
ENDBRANCH  27  28
ENDBRANCH  20  22
ENDBRANCH  19  20
ENDBRANCH   1  19
TORSDOF 15
ENDMDL
