MODEL 1
REMARK VINA RESULT:     -11.9      0.000      0.000
REMARK SMILES O=C(OCCOC(=O)[C@@H]1CN(c2cccc(Cl)c2)CCO1)c1ccc(-c2c3nc(c(-c4cc(S(=O)(=O)[O-])ccc4F)c4ccc([nH]4)c(-c4cc(S(=O)(=O)[O-])ccc4F)c4nc(c(-c5cc(S(=O)(=O)[O-])ccc5F)c5ccc2[nH]5)C=C4)C=C3)cc1
REMARK SMILES IDX 4 1 3 2 2 3 1 4 22 5 23 6 84 7 24 8 83 9 25 10 26 11 27 12
REMARK SMILES IDX 77 13 28 14 82 15 76 16 78 17 29 18 81 19 75 20 74 21 30 23
REMARK SMILES IDX 62 24 42 25 61 26 43 27 46 28 60 29 79 30 44 31 45 32 59 34
REMARK SMILES IDX 80 35 47 36 31 37 32 38 40 39 33 40 39 41 41 42 38 43 34 44
REMARK SMILES IDX 35 45 36 46 37 47 63 48 64 49 72 50 65 51 71 52 73 53 70 54
REMARK SMILES IDX 66 55 67 56 68 57 69 58 48 59 49 60 57 61 50 62 56 63 58 64
REMARK SMILES IDX 55 65 51 66 52 67 53 68 54 69 5 70 6 71 7 72 8 73 9 74 10 75
REMARK SMILES IDX 21 76 11 77 20 78 19 79 12 80 13 81 18 82 14 83 16 84 15 85
REMARK SMILES IDX 17 86
REMARK H PARENT 78 22 46 33
REMARK Flexibility Score: inf
ROOT
ATOM      1  C   UNL A   1      43.632  21.513  25.266  1.00  0.00     0.275 C 
ENDROOT
BRANCH   1   2
ATOM      2  O   UNL A   1      43.296  22.754  24.638  1.00  0.00    -0.458 OA
BRANCH   2   3
ATOM      3  C   UNL A   1      43.854  23.964  24.879  1.00  0.00     0.338 C 
ATOM      4  O   UNL A   1      44.945  24.231  24.381  1.00  0.00    -0.246 OA
BRANCH   3   5
ATOM      5  C   UNL A   1      43.300  24.882  25.920  1.00  0.00     0.060 A 
ATOM      6  C   UNL A   1      42.318  24.575  26.873  1.00  0.00     0.016 A 
ATOM      7  C   UNL A   1      43.826  26.179  25.911  1.00  0.00     0.016 A 
ATOM      8  C   UNL A   1      41.957  25.492  27.873  1.00  0.00     0.010 A 
ATOM      9  C   UNL A   1      43.468  27.090  26.902  1.00  0.00     0.010 A 
ATOM     10  C   UNL A   1      42.549  26.752  27.911  1.00  0.00    -0.014 A 
BRANCH  10  11
ATOM     11  C   UNL A   1      42.142  27.826  28.859  1.00  0.00     0.031 A 
ATOM     12  C   UNL A   1      42.789  27.781  30.213  1.00  0.00     0.074 A 
ATOM     13  C   UNL A   1      41.100  28.643  28.617  1.00  0.00     0.049 A 
ATOM     14  N   UNL A   1      42.339  28.161  31.376  1.00  0.00    -0.248 NA
ATOM     15  C   UNL A   1      44.075  27.070  30.251  1.00  0.00     0.031 C 
ATOM     16  C   UNL A   1      40.345  28.724  27.366  1.00  0.00     0.029 A 
ATOM     17  N   UNL A   1      40.419  29.480  29.474  1.00  0.00    -0.354 N 
ATOM     18  C   UNL A   1      43.231  27.621  32.300  1.00  0.00     0.074 A 
ATOM     19  C   UNL A   1      44.189  26.841  31.547  1.00  0.00     0.031 C 
ATOM     20  C   UNL A   1      39.250  29.482  27.564  1.00  0.00     0.029 A 
ATOM     21  C   UNL A   1      39.211  29.903  28.962  1.00  0.00     0.049 A 
ATOM     22  H   UNL A   1      40.760  29.747  30.358  1.00  0.00     0.167 HD
ATOM     23  C   UNL A   1      43.247  27.772  33.649  1.00  0.00     0.034 A 
ATOM     24  C   UNL A   1      38.158  30.476  29.581  1.00  0.00     0.034 A 
ATOM     25  C   UNL A   1      42.302  28.613  34.340  1.00  0.00     0.049 A 
ATOM     26  C   UNL A   1      38.242  30.763  31.059  1.00  0.00     0.074 A 
ATOM     27  C   UNL A   1      42.258  28.964  35.676  1.00  0.00     0.029 A 
ATOM     28  N   UNL A   1      41.229  29.246  33.724  1.00  0.00    -0.354 N 
ATOM     29  N   UNL A   1      39.117  30.325  31.934  1.00  0.00    -0.248 NA
ATOM     30  C   UNL A   1      37.210  31.642  31.628  1.00  0.00     0.031 C 
ATOM     31  C   UNL A   1      41.142  29.786  35.873  1.00  0.00     0.029 A 
ATOM     32  C   UNL A   1      40.525  29.993  34.648  1.00  0.00     0.049 A 
ATOM     33  H   UNL A   1      41.005  29.174  32.768  1.00  0.00     0.167 HD
ATOM     34  C   UNL A   1      38.773  30.921  33.145  1.00  0.00     0.074 A 
ATOM     35  C   UNL A   1      37.594  31.724  32.894  1.00  0.00     0.031 C 
ATOM     36  C   UNL A   1      39.388  30.829  34.350  1.00  0.00     0.034 A 
BRANCH  23  37
ATOM     37  C   UNL A   1      44.295  26.996  34.421  1.00  0.00     0.023 A 
ATOM     38  C   UNL A   1      45.600  27.490  34.587  1.00  0.00     0.031 A 
ATOM     39  C   UNL A   1      44.032  25.692  34.879  1.00  0.00     0.131 A 
ATOM     40  C   UNL A   1      46.628  26.632  35.001  1.00  0.00     0.055 A 
ATOM     41  C   UNL A   1      45.035  24.889  35.431  1.00  0.00     0.041 A 
ATOM     42  F   UNL A   1      42.808  25.154  34.759  1.00  0.00    -0.206 F 
ATOM     43  C   UNL A   1      46.351  25.342  35.456  1.00  0.00     0.022 A 
BRANCH  40  44
ATOM     44  S   UNL A   1      48.342  27.143  34.688  1.00  0.00     0.124 S 
ATOM     45  O   UNL A   1      48.412  28.398  35.432  1.00  0.00    -0.237 OA
ATOM     46  O   UNL A   1      49.111  26.034  35.243  1.00  0.00    -0.237 OA
ATOM     47  O   UNL A   1      48.401  27.280  33.235  1.00  0.00    -0.744 OA
ENDBRANCH  40  44
ENDBRANCH  23  37
BRANCH  24  48
ATOM     48  C   UNL A   1      36.893  30.746  28.844  1.00  0.00     0.023 A 
ATOM     49  C   UNL A   1      36.343  32.035  28.792  1.00  0.00     0.031 A 
ATOM     50  C   UNL A   1      36.187  29.698  28.231  1.00  0.00     0.131 A 
ATOM     51  C   UNL A   1      35.094  32.237  28.184  1.00  0.00     0.055 A 
ATOM     52  C   UNL A   1      34.960  29.909  27.597  1.00  0.00     0.041 A 
ATOM     53  F   UNL A   1      36.680  28.450  28.244  1.00  0.00    -0.206 F 
ATOM     54  C   UNL A   1      34.402  31.184  27.581  1.00  0.00     0.022 A 
BRANCH  51  55
ATOM     55  S   UNL A   1      34.364  33.896  28.232  1.00  0.00     0.124 S 
ATOM     56  O   UNL A   1      34.642  34.301  29.605  1.00  0.00    -0.237 OA
ATOM     57  O   UNL A   1      35.120  34.590  27.194  1.00  0.00    -0.237 OA
ATOM     58  O   UNL A   1      32.957  33.658  27.919  1.00  0.00    -0.744 OA
ENDBRANCH  51  55
ENDBRANCH  24  48
BRANCH  36  59
ATOM     59  C   UNL A   1      38.899  31.730  35.452  1.00  0.00     0.023 A 
ATOM     60  C   UNL A   1      38.178  31.250  36.555  1.00  0.00     0.031 A 
ATOM     61  C   UNL A   1      39.237  33.095  35.411  1.00  0.00     0.131 A 
ATOM     62  C   UNL A   1      37.806  32.141  37.575  1.00  0.00     0.055 A 
ATOM     63  C   UNL A   1      38.896  33.966  36.443  1.00  0.00     0.041 A 
ATOM     64  F   UNL A   1      39.929  33.595  34.374  1.00  0.00    -0.206 F 
ATOM     65  C   UNL A   1      38.174  33.490  37.533  1.00  0.00     0.022 A 
BRANCH  62  66
ATOM     66  S   UNL A   1      36.812  31.520  38.960  1.00  0.00     0.124 S 
ATOM     67  O   UNL A   1      37.736  31.656  40.081  1.00  0.00    -0.237 OA
ATOM     68  O   UNL A   1      35.671  32.430  38.958  1.00  0.00    -0.237 OA
ATOM     69  O   UNL A   1      36.506  30.144  38.572  1.00  0.00    -0.744 OA
ENDBRANCH  62  66
ENDBRANCH  36  59
ENDBRANCH  10  11
ENDBRANCH   3   5
ENDBRANCH   2   3
ENDBRANCH   1   2
BRANCH   1  70
ATOM     70  C   UNL A   1      42.442  20.744  25.842  1.00  0.00     0.274 C 
BRANCH  70  71
ATOM     71  O   UNL A   1      41.208  21.483  25.926  1.00  0.00    -0.460 OA
BRANCH  71  72
ATOM     72  C   UNL A   1      40.079  20.708  25.990  1.00  0.00     0.337 C 
ATOM     73  O   UNL A   1      40.081  19.503  25.761  1.00  0.00    -0.249 OA
BRANCH  72  74
ATOM     74  C   UNL A   1      38.815  21.544  26.254  1.00  0.00     0.247 C 
ATOM     75  C   UNL A   1      37.743  21.282  25.179  1.00  0.00     0.160 C 
ATOM     76  O   UNL A   1      39.208  22.937  26.310  1.00  0.00    -0.363 OA
ATOM     77  N   UNL A   1      36.676  22.297  25.212  1.00  0.00    -0.366 N 
ATOM     78  C   UNL A   1      38.076  23.805  26.454  1.00  0.00     0.183 C 
ATOM     79  C   UNL A   1      37.142  23.679  25.249  1.00  0.00     0.145 C 
BRANCH  77  80
ATOM     80  C   UNL A   1      35.457  22.049  24.606  1.00  0.00     0.038 A 
ATOM     81  C   UNL A   1      34.727  20.922  24.999  1.00  0.00     0.026 A 
ATOM     82  C   UNL A   1      34.876  22.903  23.662  1.00  0.00     0.046 A 
ATOM     83  C   UNL A   1      33.460  20.650  24.474  1.00  0.00     0.004 A 
ATOM     84  C   UNL A   1      33.610  22.625  23.128  1.00  0.00     0.043 A 
ATOM     85  C   UNL A   1      32.900  21.498  23.527  1.00  0.00     0.020 A 
ATOM     86  Cl  UNL A   1      32.916  23.700  21.976  1.00  0.00    -0.084 Cl
ENDBRANCH  77  80
ENDBRANCH  72  74
ENDBRANCH  71  72
ENDBRANCH  70  71
ENDBRANCH   1  70
TORSDOF 15
ENDMDL
MODEL 2
REMARK VINA RESULT:     -11.8      4.074     10.126
REMARK SMILES O=C(OCCOC(=O)[C@@H]1CN(c2cccc(Cl)c2)CCO1)c1ccc(-c2c3nc(c(-c4cc(S(=O)(=O)[O-])ccc4F)c4ccc([nH]4)c(-c4cc(S(=O)(=O)[O-])ccc4F)c4nc(c(-c5cc(S(=O)(=O)[O-])ccc5F)c5ccc2[nH]5)C=C4)C=C3)cc1
REMARK SMILES IDX 4 1 3 2 2 3 1 4 22 5 23 6 84 7 24 8 83 9 25 10 26 11 27 12
REMARK SMILES IDX 77 13 28 14 82 15 76 16 78 17 29 18 81 19 75 20 74 21 30 23
REMARK SMILES IDX 62 24 42 25 61 26 43 27 46 28 60 29 79 30 44 31 45 32 59 34
REMARK SMILES IDX 80 35 47 36 31 37 32 38 40 39 33 40 39 41 41 42 38 43 34 44
REMARK SMILES IDX 35 45 36 46 37 47 63 48 64 49 72 50 65 51 71 52 73 53 70 54
REMARK SMILES IDX 66 55 67 56 68 57 69 58 48 59 49 60 57 61 50 62 56 63 58 64
REMARK SMILES IDX 55 65 51 66 52 67 53 68 54 69 5 70 6 71 7 72 8 73 9 74 10 75
REMARK SMILES IDX 21 76 11 77 20 78 19 79 12 80 13 81 18 82 14 83 16 84 15 85
REMARK SMILES IDX 17 86
REMARK H PARENT 78 22 46 33
REMARK Flexibility Score: inf
ROOT
ATOM      1  C   UNL A   1      33.010  36.252  29.160  1.00  0.00     0.275 C 
ENDROOT
BRANCH   1   2
ATOM      2  O   UNL A   1      33.273  36.858  30.429  1.00  0.00    -0.458 OA
BRANCH   2   3
ATOM      3  C   UNL A   1      33.018  36.330  31.650  1.00  0.00     0.338 C 
ATOM      4  O   UNL A   1      32.181  36.868  32.372  1.00  0.00    -0.246 OA
BRANCH   3   5
ATOM      5  C   UNL A   1      33.890  35.267  32.235  1.00  0.00     0.060 A 
ATOM      6  C   UNL A   1      33.468  34.107  32.900  1.00  0.00     0.016 A 
ATOM      7  C   UNL A   1      35.265  35.485  32.099  1.00  0.00     0.016 A 
ATOM      8  C   UNL A   1      34.384  33.124  33.310  1.00  0.00     0.010 A 
ATOM      9  C   UNL A   1      36.176  34.511  32.505  1.00  0.00     0.010 A 
ATOM     10  C   UNL A   1      35.747  33.308  33.092  1.00  0.00    -0.014 A 
BRANCH  10  11
ATOM     11  C   UNL A   1      36.795  32.378  33.598  1.00  0.00     0.031 A 
ATOM     12  C   UNL A   1      37.372  32.714  34.943  1.00  0.00     0.074 A 
ATOM     13  C   UNL A   1      37.359  31.437  32.817  1.00  0.00     0.049 A 
ATOM     14  N   UNL A   1      38.563  32.496  35.426  1.00  0.00    -0.248 NA
ATOM     15  C   UNL A   1      36.501  33.538  35.792  1.00  0.00     0.031 C 
ATOM     16  C   UNL A   1      36.932  31.074  31.466  1.00  0.00     0.029 A 
ATOM     17  N   UNL A   1      38.505  30.698  33.017  1.00  0.00    -0.354 N 
ATOM     18  C   UNL A   1      38.625  33.267  36.585  1.00  0.00     0.074 A 
ATOM     19  C   UNL A   1      37.377  33.993  36.670  1.00  0.00     0.031 C 
ATOM     20  C   UNL A   1      37.856  30.262  30.918  1.00  0.00     0.029 A 
ATOM     21  C   UNL A   1      38.952  30.083  31.867  1.00  0.00     0.049 A 
ATOM     22  H   UNL A   1      38.956  30.619  33.888  1.00  0.00     0.167 HD
ATOM     23  C   UNL A   1      39.631  33.350  37.494  1.00  0.00     0.034 A 
ATOM     24  C   UNL A   1      40.150  29.528  31.588  1.00  0.00     0.034 A 
ATOM     25  C   UNL A   1      40.828  32.554  37.391  1.00  0.00     0.049 A 
ATOM     26  C   UNL A   1      41.215  29.505  32.655  1.00  0.00     0.074 A 
ATOM     27  C   UNL A   1      41.876  32.433  38.283  1.00  0.00     0.029 A 
ATOM     28  N   UNL A   1      41.122  31.727  36.313  1.00  0.00    -0.354 N 
ATOM     29  N   UNL A   1      41.258  30.166  33.789  1.00  0.00    -0.248 NA
ATOM     30  C   UNL A   1      42.382  28.644  32.415  1.00  0.00     0.031 C 
ATOM     31  C   UNL A   1      42.818  31.555  37.731  1.00  0.00     0.029 A 
ATOM     32  C   UNL A   1      42.327  31.086  36.522  1.00  0.00     0.049 A 
ATOM     33  H   UNL A   1      40.553  31.615  35.518  1.00  0.00     0.167 HD
ATOM     34  C   UNL A   1      42.429  29.756  34.422  1.00  0.00     0.074 A 
ATOM     35  C   UNL A   1      43.076  28.815  33.531  1.00  0.00     0.031 C 
ATOM     36  C   UNL A   1      42.914  30.108  35.638  1.00  0.00     0.034 A 
BRANCH  23  37
ATOM     37  C   UNL A   1      39.461  34.341  38.628  1.00  0.00     0.023 A 
ATOM     38  C   UNL A   1      39.002  33.937  39.894  1.00  0.00     0.031 A 
ATOM     39  C   UNL A   1      39.626  35.720  38.408  1.00  0.00     0.131 A 
ATOM     40  C   UNL A   1      38.538  34.891  40.809  1.00  0.00     0.055 A 
ATOM     41  C   UNL A   1      39.299  36.666  39.385  1.00  0.00     0.041 A 
ATOM     42  F   UNL A   1      40.064  36.182  37.227  1.00  0.00    -0.206 F 
ATOM     43  C   UNL A   1      38.712  36.256  40.579  1.00  0.00     0.022 A 
BRANCH  40  44
ATOM     44  S   UNL A   1      37.479  34.321  42.170  1.00  0.00     0.124 S 
ATOM     45  O   UNL A   1      36.220  34.071  41.472  1.00  0.00    -0.237 OA
ATOM     46  O   UNL A   1      38.184  33.136  42.646  1.00  0.00    -0.237 OA
ATOM     47  O   UNL A   1      37.462  35.453  43.092  1.00  0.00    -0.744 OA
ENDBRANCH  40  44
ENDBRANCH  23  37
BRANCH  24  48
ATOM     48  C   UNL A   1      40.456  29.018  30.224  1.00  0.00     0.023 A 
ATOM     49  C   UNL A   1      40.080  27.726  29.829  1.00  0.00     0.031 A 
ATOM     50  C   UNL A   1      41.187  29.803  29.316  1.00  0.00     0.131 A 
ATOM     51  C   UNL A   1      40.480  27.236  28.575  1.00  0.00     0.055 A 
ATOM     52  C   UNL A   1      41.555  29.324  28.057  1.00  0.00     0.041 A 
ATOM     53  F   UNL A   1      41.558  31.050  29.646  1.00  0.00    -0.206 F 
ATOM     54  C   UNL A   1      41.210  28.027  27.685  1.00  0.00     0.022 A 
BRANCH  51  55
ATOM     55  S   UNL A   1      40.069  25.523  28.143  1.00  0.00     0.124 S 
ATOM     56  O   UNL A   1      41.323  24.837  28.434  1.00  0.00    -0.237 OA
ATOM     57  O   UNL A   1      38.959  25.241  29.047  1.00  0.00    -0.237 OA
ATOM     58  O   UNL A   1      39.711  25.606  26.729  1.00  0.00    -0.744 OA
ENDBRANCH  51  55
ENDBRANCH  24  48
BRANCH  36  59
ATOM     59  C   UNL A   1      44.119  29.367  36.150  1.00  0.00     0.023 A 
ATOM     60  C   UNL A   1      44.017  28.228  36.961  1.00  0.00     0.031 A 
ATOM     61  C   UNL A   1      45.398  29.790  35.742  1.00  0.00     0.131 A 
ATOM     62  C   UNL A   1      45.185  27.553  37.351  1.00  0.00     0.055 A 
ATOM     63  C   UNL A   1      46.549  29.095  36.103  1.00  0.00     0.041 A 
ATOM     64  F   UNL A   1      45.540  30.875  34.963  1.00  0.00    -0.206 F 
ATOM     65  C   UNL A   1      46.447  27.970  36.915  1.00  0.00     0.022 A 
BRANCH  62  66
ATOM     66  S   UNL A   1      45.042  26.124  38.459  1.00  0.00     0.124 S 
ATOM     67  O   UNL A   1      44.408  25.132  37.596  1.00  0.00    -0.237 OA
ATOM     68  O   UNL A   1      46.432  25.865  38.817  1.00  0.00    -0.237 OA
ATOM     69  O   UNL A   1      44.205  26.619  39.551  1.00  0.00    -0.744 OA
ENDBRANCH  62  66
ENDBRANCH  36  59
ENDBRANCH  10  11
ENDBRANCH   3   5
ENDBRANCH   2   3
ENDBRANCH   1   2
BRANCH   1  70
ATOM     70  C   UNL A   1      34.055  35.230  28.710  1.00  0.00     0.274 C 
BRANCH  70  71
ATOM     71  O   UNL A   1      33.530  34.007  28.158  1.00  0.00    -0.460 OA
BRANCH  71  72
ATOM     72  C   UNL A   1      34.014  32.862  28.738  1.00  0.00     0.337 C 
ATOM     73  O   UNL A   1      34.212  32.755  29.944  1.00  0.00    -0.249 OA
BRANCH  72  74
ATOM     74  C   UNL A   1      34.389  31.796  27.694  1.00  0.00     0.247 C 
ATOM     75  C   UNL A   1      33.183  30.898  27.361  1.00  0.00     0.160 C 
ATOM     76  O   UNL A   1      35.510  31.041  28.216  1.00  0.00    -0.363 OA
ATOM     77  N   UNL A   1      33.590  29.682  26.635  1.00  0.00    -0.366 N 
ATOM     78  C   UNL A   1      35.868  29.955  27.351  1.00  0.00     0.183 C 
ATOM     79  C   UNL A   1      34.712  28.961  27.225  1.00  0.00     0.145 C 
BRANCH  77  80
ATOM     80  C   UNL A   1      32.657  28.946  25.926  1.00  0.00     0.038 A 
ATOM     81  C   UNL A   1      32.191  27.746  26.472  1.00  0.00     0.026 A 
ATOM     82  C   UNL A   1      32.098  29.370  24.716  1.00  0.00     0.046 A 
ATOM     83  C   UNL A   1      31.202  26.988  25.839  1.00  0.00     0.004 A 
ATOM     84  C   UNL A   1      31.113  28.605  24.076  1.00  0.00     0.043 A 
ATOM     85  C   UNL A   1      30.665  27.412  24.631  1.00  0.00     0.020 A 
ATOM     86  Cl  UNL A   1      30.435  29.158  22.592  1.00  0.00    -0.084 Cl
ENDBRANCH  77  80
ENDBRANCH  72  74
ENDBRANCH  71  72
ENDBRANCH  70  71
ENDBRANCH   1  70
TORSDOF 15
ENDMDL
MODEL 3
REMARK VINA RESULT:     -11.7      4.569      9.697
REMARK SMILES O=C(OCCOC(=O)[C@@H]1CN(c2cccc(Cl)c2)CCO1)c1ccc(-c2c3nc(c(-c4cc(S(=O)(=O)[O-])ccc4F)c4ccc([nH]4)c(-c4cc(S(=O)(=O)[O-])ccc4F)c4nc(c(-c5cc(S(=O)(=O)[O-])ccc5F)c5ccc2[nH]5)C=C4)C=C3)cc1
REMARK SMILES IDX 4 1 3 2 2 3 1 4 22 5 23 6 84 7 24 8 83 9 25 10 26 11 27 12
REMARK SMILES IDX 77 13 28 14 82 15 76 16 78 17 29 18 81 19 75 20 74 21 30 23
REMARK SMILES IDX 62 24 42 25 61 26 43 27 46 28 60 29 79 30 44 31 45 32 59 34
REMARK SMILES IDX 80 35 47 36 31 37 32 38 40 39 33 40 39 41 41 42 38 43 34 44
REMARK SMILES IDX 35 45 36 46 37 47 63 48 64 49 72 50 65 51 71 52 73 53 70 54
REMARK SMILES IDX 66 55 67 56 68 57 69 58 48 59 49 60 57 61 50 62 56 63 58 64
REMARK SMILES IDX 55 65 51 66 52 67 53 68 54 69 5 70 6 71 7 72 8 73 9 74 10 75
REMARK SMILES IDX 21 76 11 77 20 78 19 79 12 80 13 81 18 82 14 83 16 84 15 85
REMARK SMILES IDX 17 86
REMARK H PARENT 78 22 46 33
REMARK Flexibility Score: inf
ROOT
ATOM      1  C   UNL A   1      35.221  21.170  25.271  1.00  0.00     0.275 C 
ENDROOT
BRANCH   1   2
ATOM      2  O   UNL A   1      36.285  22.066  25.604  1.00  0.00    -0.458 OA
BRANCH   2   3
ATOM      3  C   UNL A   1      37.614  21.823  25.505  1.00  0.00     0.338 C 
ATOM      4  O   UNL A   1      37.995  20.785  24.969  1.00  0.00    -0.246 OA
BRANCH   3   5
ATOM      5  C   UNL A   1      38.613  22.657  26.239  1.00  0.00     0.060 A 
ATOM      6  C   UNL A   1      39.698  22.195  26.997  1.00  0.00     0.016 A 
ATOM      7  C   UNL A   1      38.412  24.039  26.151  1.00  0.00     0.016 A 
ATOM      8  C   UNL A   1      40.635  23.082  27.551  1.00  0.00     0.010 A 
ATOM      9  C   UNL A   1      39.340  24.921  26.700  1.00  0.00     0.010 A 
ATOM     10  C   UNL A   1      40.477  24.456  27.386  1.00  0.00    -0.014 A 
BRANCH  10  11
ATOM     11  C   UNL A   1      41.351  25.470  28.036  1.00  0.00     0.031 A 
ATOM     12  C   UNL A   1      40.641  26.577  28.760  1.00  0.00     0.074 A 
ATOM     13  C   UNL A   1      42.676  25.534  27.804  1.00  0.00     0.049 A 
ATOM     14  N   UNL A   1      40.993  27.817  28.957  1.00  0.00    -0.248 NA
ATOM     15  C   UNL A   1      39.275  26.247  29.190  1.00  0.00     0.031 C 
ATOM     16  C   UNL A   1      43.463  24.556  27.052  1.00  0.00     0.029 A 
ATOM     17  N   UNL A   1      43.572  26.543  28.081  1.00  0.00    -0.354 N 
ATOM     18  C   UNL A   1      39.841  28.447  29.423  1.00  0.00     0.074 A 
ATOM     19  C   UNL A   1      38.787  27.456  29.402  1.00  0.00     0.031 C 
ATOM     20  C   UNL A   1      44.695  25.055  26.839  1.00  0.00     0.029 A 
ATOM     21  C   UNL A   1      44.765  26.400  27.406  1.00  0.00     0.049 A 
ATOM     22  H   UNL A   1      43.379  27.287  28.697  1.00  0.00     0.167 HD
ATOM     23  C   UNL A   1      39.686  29.731  29.834  1.00  0.00     0.034 A 
ATOM     24  C   UNL A   1      45.754  27.293  27.190  1.00  0.00     0.034 A 
ATOM     25  C   UNL A   1      40.787  30.659  29.892  1.00  0.00     0.049 A 
ATOM     26  C   UNL A   1      45.630  28.680  27.770  1.00  0.00     0.074 A 
ATOM     27  C   UNL A   1      40.821  31.946  30.394  1.00  0.00     0.029 A 
ATOM     28  N   UNL A   1      42.068  30.375  29.431  1.00  0.00    -0.354 N 
ATOM     29  N   UNL A   1      44.573  29.266  28.282  1.00  0.00    -0.248 NA
ATOM     30  C   UNL A   1      46.840  29.515  27.765  1.00  0.00     0.031 C 
ATOM     31  C   UNL A   1      42.114  32.451  30.210  1.00  0.00     0.029 A 
ATOM     32  C   UNL A   1      42.900  31.457  29.646  1.00  0.00     0.049 A 
ATOM     33  H   UNL A   1      42.341  29.527  29.013  1.00  0.00     0.167 HD
ATOM     34  C   UNL A   1      45.005  30.519  28.711  1.00  0.00     0.074 A 
ATOM     35  C   UNL A   1      46.410  30.614  28.370  1.00  0.00     0.031 C 
ATOM     36  C   UNL A   1      44.311  31.494  29.347  1.00  0.00     0.034 A 
BRANCH  23  37
ATOM     37  C   UNL A   1      38.287  30.174  30.215  1.00  0.00     0.023 A 
ATOM     38  C   UNL A   1      37.520  30.992  29.368  1.00  0.00     0.031 A 
ATOM     39  C   UNL A   1      37.765  29.892  31.490  1.00  0.00     0.131 A 
ATOM     40  C   UNL A   1      36.391  31.655  29.867  1.00  0.00     0.055 A 
ATOM     41  C   UNL A   1      36.557  30.442  31.930  1.00  0.00     0.041 A 
ATOM     42  F   UNL A   1      38.438  29.114  32.352  1.00  0.00    -0.206 F 
ATOM     43  C   UNL A   1      35.883  31.362  31.133  1.00  0.00     0.022 A 
BRANCH  40  44
ATOM     44  S   UNL A   1      35.762  33.083  28.937  1.00  0.00     0.124 S 
ATOM     45  O   UNL A   1      36.653  34.145  29.399  1.00  0.00    -0.237 OA
ATOM     46  O   UNL A   1      35.942  32.665  27.552  1.00  0.00    -0.237 OA
ATOM     47  O   UNL A   1      34.376  33.201  29.381  1.00  0.00    -0.744 OA
ENDBRANCH  40  44
ENDBRANCH  23  37
BRANCH  24  48
ATOM     48  C   UNL A   1      46.914  26.953  26.322  1.00  0.00     0.023 A 
ATOM     49  C   UNL A   1      48.078  26.382  26.856  1.00  0.00     0.031 A 
ATOM     50  C   UNL A   1      46.892  27.255  24.950  1.00  0.00     0.131 A 
ATOM     51  C   UNL A   1      49.195  26.175  26.030  1.00  0.00     0.055 A 
ATOM     52  C   UNL A   1      47.993  27.017  24.125  1.00  0.00     0.041 A 
ATOM     53  F   UNL A   1      45.795  27.791  24.393  1.00  0.00    -0.206 F 
ATOM     54  C   UNL A   1      49.159  26.484  24.668  1.00  0.00     0.022 A 
BRANCH  51  55
ATOM     55  S   UNL A   1      50.719  25.536  26.778  1.00  0.00     0.124 S 
ATOM     56  O   UNL A   1      51.514  25.214  25.598  1.00  0.00    -0.237 OA
ATOM     57  O   UNL A   1      51.172  26.678  27.565  1.00  0.00    -0.237 OA
ATOM     58  O   UNL A   1      50.260  24.389  27.558  1.00  0.00    -0.744 OA
ENDBRANCH  51  55
ENDBRANCH  24  48
BRANCH  36  59
ATOM     59  C   UNL A   1      45.082  32.681  29.856  1.00  0.00     0.023 A 
ATOM     60  C   UNL A   1      45.701  32.696  31.114  1.00  0.00     0.031 A 
ATOM     61  C   UNL A   1      45.248  33.793  29.011  1.00  0.00     0.131 A 
ATOM     62  C   UNL A   1      46.455  33.817  31.498  1.00  0.00     0.055 A 
ATOM     63  C   UNL A   1      46.027  34.887  29.383  1.00  0.00     0.041 A 
ATOM     64  F   UNL A   1      44.674  33.819  27.797  1.00  0.00    -0.206 F 
ATOM     65  C   UNL A   1      46.634  34.904  30.635  1.00  0.00     0.022 A 
BRANCH  62  66
ATOM     66  S   UNL A   1      47.190  33.853  33.155  1.00  0.00     0.124 S 
ATOM     67  O   UNL A   1      47.602  35.248  33.275  1.00  0.00    -0.237 OA
ATOM     68  O   UNL A   1      46.074  33.441  34.001  1.00  0.00    -0.237 OA
ATOM     69  O   UNL A   1      48.285  32.888  33.066  1.00  0.00    -0.744 OA
ENDBRANCH  62  66
ENDBRANCH  36  59
ENDBRANCH  10  11
ENDBRANCH   3   5
ENDBRANCH   2   3
ENDBRANCH   1   2
BRANCH   1  70
ATOM     70  C   UNL A   1      34.254  21.692  24.206  1.00  0.00     0.274 C 
BRANCH  70  71
ATOM     71  O   UNL A   1      33.715  23.006  24.449  1.00  0.00    -0.460 OA
BRANCH  71  72
ATOM     72  C   UNL A   1      34.052  23.946  23.510  1.00  0.00     0.337 C 
ATOM     73  O   UNL A   1      35.039  23.847  22.788  1.00  0.00    -0.249 OA
BRANCH  72  74
ATOM     74  C   UNL A   1      33.128  25.175  23.561  1.00  0.00     0.247 C 
ATOM     75  C   UNL A   1      33.476  26.081  24.757  1.00  0.00     0.160 C 
ATOM     76  O   UNL A   1      31.761  24.700  23.611  1.00  0.00    -0.363 OA
ATOM     77  N   UNL A   1      32.416  27.068  25.024  1.00  0.00    -0.366 N 
ATOM     78  C   UNL A   1      30.827  25.778  23.762  1.00  0.00     0.183 C 
ATOM     79  C   UNL A   1      31.065  26.518  25.079  1.00  0.00     0.145 C 
BRANCH  77  80
ATOM     80  C   UNL A   1      32.682  28.191  25.786  1.00  0.00     0.038 A 
ATOM     81  C   UNL A   1      33.836  28.211  26.575  1.00  0.00     0.026 A 
ATOM     82  C   UNL A   1      31.890  29.344  25.763  1.00  0.00     0.046 A 
ATOM     83  C   UNL A   1      34.197  29.339  27.318  1.00  0.00     0.004 A 
ATOM     84  C   UNL A   1      32.247  30.472  26.515  1.00  0.00     0.043 A 
ATOM     85  C   UNL A   1      33.396  30.473  27.297  1.00  0.00     0.020 A 
ATOM     86  Cl  UNL A   1      31.259  31.882  26.458  1.00  0.00    -0.084 Cl
ENDBRANCH  77  80
ENDBRANCH  72  74
ENDBRANCH  71  72
ENDBRANCH  70  71
ENDBRANCH   1  70
TORSDOF 15
ENDMDL
