MODEL 1
REMARK VINA RESULT:     -12.4      0.000      0.000
REMARK SMILES Cc1ccc(-c2c[nH]c(=O)cc2C(=O)OCCOC(=O)c2ccc(-c3c4nc(c(-c5cc(S(=O)(=O)[O-])ccc5F)c5ccc([nH]5)c(-c5cc(S(=O)(=O)[O-])ccc5F)c5nc(c(-c6cc(S(=O)(=O)[O-])ccc6F)c6ccc3[nH]6)C=C5)C=C4)cc2)cc1Cl
REMARK SMILES IDX 17 1 16 2 15 3 13 4 14 5 12 6 6 7 7 8 8 9 11 10 9 11 10 13
REMARK SMILES IDX 5 14 1 15 2 16 3 17 85 18 4 19 84 20 86 21 18 22 19 23 20 24
REMARK SMILES IDX 21 25 22 26 83 27 23 28 82 29 24 30 25 31 26 32 76 33 27 34
REMARK SMILES IDX 81 35 75 36 77 37 28 38 80 39 74 40 73 41 29 43 61 44 41 45
REMARK SMILES IDX 60 46 42 47 45 48 59 49 78 50 43 51 44 52 58 54 79 55 46 56
REMARK SMILES IDX 30 57 31 58 39 59 32 60 38 61 40 62 37 63 33 64 34 65 35 66
REMARK SMILES IDX 36 67 62 68 63 69 71 70 64 71 70 72 72 73 69 74 65 75 66 76
REMARK SMILES IDX 67 77 68 78 47 79 48 80 56 81 49 82 55 83 57 84 54 85 50 86
REMARK SMILES IDX 51 87 52 88 53 89
REMARK H PARENT 8 12 77 42 45 53
REMARK Flexibility Score: inf
ROOT
ATOM      1  C   UNL A   1      31.778  29.613  25.746  1.00  0.00     0.275 C 
ENDROOT
BRANCH   1   2
ATOM      2  C   UNL A   1      32.538  28.481  25.065  1.00  0.00     0.275 C 
BRANCH   2   3
ATOM      3  O   UNL A   1      32.432  28.604  23.629  1.00  0.00    -0.458 OA
BRANCH   3   4
ATOM      4  C   UNL A   1      31.775  27.596  22.997  1.00  0.00     0.339 C 
ATOM      5  O   UNL A   1      32.263  26.828  22.182  1.00  0.00    -0.246 OA
BRANCH   4   6
ATOM      6  C   UNL A   1      30.337  27.583  23.359  1.00  0.00     0.074 A 
ATOM      7  C   UNL A   1      29.689  26.463  24.056  1.00  0.00     0.013 A 
ATOM      8  C   UNL A   1      28.346  26.434  24.079  1.00  0.00     0.095 A 
ATOM      9  N   UNL A   1      27.612  27.443  23.501  1.00  0.00    -0.328 N 
ATOM     10  C   UNL A   1      29.628  28.580  22.808  1.00  0.00     0.087 A 
ATOM     11  C   UNL A   1      28.153  28.535  22.871  1.00  0.00     0.248 A 
ATOM     12  H   UNL A   1      26.630  27.377  23.542  1.00  0.00     0.169 HD
ATOM     13  O   UNL A   1      27.479  29.412  22.343  1.00  0.00    -0.270 OA
BRANCH   7  14
ATOM     14  C   UNL A   1      30.417  25.284  24.549  1.00  0.00    -0.015 A 
ATOM     15  C   UNL A   1      33.747  21.317  25.128  1.00  0.00     0.046 C 
ATOM     16  C   UNL A   1      32.923  22.542  24.891  1.00  0.00    -0.032 A 
ATOM     17  C   UNL A   1      32.803  23.754  26.205  1.00  0.00     0.005 A 
ATOM     18  C   UNL A   1      31.842  22.708  23.525  1.00  0.00     0.044 A 
ATOM     19  C   UNL A   1      31.422  25.228  26.058  1.00  0.00     0.009 A 
ATOM     20  C   UNL A   1      30.654  24.007  23.348  1.00  0.00     0.029 A 
ATOM     21  Cl  UNL A   1      31.838  21.484  22.303  1.00  0.00    -0.084 Cl
ENDBRANCH   7  14
ENDBRANCH   4   6
ENDBRANCH   3   4
ENDBRANCH   2   3
ENDBRANCH   1   2
BRANCH   1  22
ATOM     22  O   UNL A   1      32.594  30.797  25.718  1.00  0.00    -0.458 OA
BRANCH  22  23
ATOM     23  C   UNL A   1      32.396  31.620  26.767  1.00  0.00     0.338 C 
ATOM     24  O   UNL A   1      31.402  32.289  27.006  1.00  0.00    -0.246 OA
BRANCH  23  25
ATOM     25  C   UNL A   1      33.512  31.552  27.710  1.00  0.00     0.060 A 
ATOM     26  C   UNL A   1      34.579  32.974  27.960  1.00  0.00     0.016 A 
ATOM     27  C   UNL A   1      34.176  29.955  28.001  1.00  0.00     0.016 A 
ATOM     28  C   UNL A   1      36.501  32.636  28.498  1.00  0.00     0.010 A 
ATOM     29  C   UNL A   1      35.842  29.673  28.544  1.00  0.00     0.010 A 
ATOM     30  C   UNL A   1      37.048  30.946  28.821  1.00  0.00    -0.014 A 
BRANCH  30  31
ATOM     31  C   UNL A   1      38.331  30.628  29.597  1.00  0.00     0.031 A 
ATOM     32  C   UNL A   1      39.343  29.625  29.050  1.00  0.00     0.074 A 
ATOM     33  C   UNL A   1      38.555  31.072  30.862  1.00  0.00     0.049 A 
ATOM     34  N   UNL A   1      40.264  28.927  29.678  1.00  0.00    -0.248 NA
ATOM     35  C   UNL A   1      39.267  29.321  27.617  1.00  0.00     0.031 C 
ATOM     36  C   UNL A   1      37.743  32.015  31.618  1.00  0.00     0.029 A 
ATOM     37  N   UNL A   1      39.543  30.752  31.780  1.00  0.00    -0.354 N 
ATOM     38  C   UNL A   1      40.803  28.051  28.734  1.00  0.00     0.074 A 
ATOM     39  C   UNL A   1      40.021  28.236  27.529  1.00  0.00     0.031 C 
ATOM     40  C   UNL A   1      38.236  32.216  32.838  1.00  0.00     0.029 A 
ATOM     41  C   UNL A   1      39.369  31.345  33.018  1.00  0.00     0.049 A 
ATOM     42  H   UNL A   1      40.299  30.157  31.571  1.00  0.00     0.167 HD
ATOM     43  C   UNL A   1      41.879  27.222  28.827  1.00  0.00     0.034 A 
ATOM     44  C   UNL A   1      39.985  31.219  34.207  1.00  0.00     0.034 A 
ATOM     45  C   UNL A   1      42.741  27.144  29.987  1.00  0.00     0.049 A 
ATOM     46  C   UNL A   1      41.173  30.326  34.300  1.00  0.00     0.074 A 
ATOM     47  C   UNL A   1      43.923  26.436  30.143  1.00  0.00     0.029 A 
ATOM     48  N   UNL A   1      42.534  27.822  31.183  1.00  0.00    -0.354 N 
ATOM     49  N   UNL A   1      41.658  29.518  33.391  1.00  0.00    -0.248 NA
ATOM     50  C   UNL A   1      41.925  30.366  35.556  1.00  0.00     0.031 C 
ATOM     51  C   UNL A   1      44.406  26.652  31.439  1.00  0.00     0.029 A 
ATOM     52  C   UNL A   1      43.561  27.545  32.077  1.00  0.00     0.049 A 
ATOM     53  H   UNL A   1      41.769  28.414  31.370  1.00  0.00     0.167 HD
ATOM     54  C   UNL A   1      42.813  28.990  33.946  1.00  0.00     0.074 A 
ATOM     55  C   UNL A   1      42.947  29.575  35.267  1.00  0.00     0.031 C 
ATOM     56  C   UNL A   1      43.689  28.113  33.397  1.00  0.00     0.034 A 
BRANCH  43  57
ATOM     57  C   UNL A   1      42.207  26.350  27.623  1.00  0.00     0.023 A 
ATOM     58  C   UNL A   1      41.696  25.046  27.494  1.00  0.00     0.031 A 
ATOM     59  C   UNL A   1      43.073  26.804  26.612  1.00  0.00     0.131 A 
ATOM     60  C   UNL A   1      42.162  24.200  26.475  1.00  0.00     0.055 A 
ATOM     61  C   UNL A   1      43.443  25.994  25.531  1.00  0.00     0.041 A 
ATOM     62  F   UNL A   1      43.597  28.039  26.660  1.00  0.00    -0.206 F 
ATOM     63  C   UNL A   1      43.009  24.673  25.474  1.00  0.00     0.022 A 
BRANCH  60  64
ATOM     64  S   UNL A   1      41.805  22.427  26.607  1.00  0.00     0.124 S 
ATOM     65  O   UNL A   1      42.531  22.073  27.827  1.00  0.00    -0.237 OA
ATOM     66  O   UNL A   1      40.350  22.402  26.703  1.00  0.00    -0.237 OA
ATOM     67  O   UNL A   1      42.362  21.871  25.376  1.00  0.00    -0.744 OA
ENDBRANCH  60  64
ENDBRANCH  43  57
BRANCH  44  68
ATOM     68  C   UNL A   1      39.499  32.003  35.383  1.00  0.00     0.023 A 
ATOM     69  C   UNL A   1      39.895  33.336  35.571  1.00  0.00     0.031 A 
ATOM     70  C   UNL A   1      38.581  31.453  36.299  1.00  0.00     0.131 A 
ATOM     71  C   UNL A   1      39.400  34.068  36.661  1.00  0.00     0.055 A 
ATOM     72  C   UNL A   1      38.053  32.200  37.354  1.00  0.00     0.041 A 
ATOM     73  F   UNL A   1      38.143  30.192  36.146  1.00  0.00    -0.206 F 
ATOM     74  C   UNL A   1      38.471  33.513  37.546  1.00  0.00     0.022 A 
BRANCH  71  75
ATOM     75  S   UNL A   1      40.028  35.745  36.935  1.00  0.00     0.124 S 
ATOM     76  O   UNL A   1      39.301  36.147  38.133  1.00  0.00    -0.237 OA
ATOM     77  O   UNL A   1      41.458  35.508  37.101  1.00  0.00    -0.237 OA
ATOM     78  O   UNL A   1      39.653  36.453  35.711  1.00  0.00    -0.744 OA
ENDBRANCH  71  75
ENDBRANCH  44  68
BRANCH  56  79
ATOM     79  C   UNL A   1      44.905  27.793  34.222  1.00  0.00     0.023 A 
ATOM     80  C   UNL A   1      44.912  26.720  35.129  1.00  0.00     0.031 A 
ATOM     81  C   UNL A   1      46.036  28.624  34.164  1.00  0.00     0.131 A 
ATOM     82  C   UNL A   1      45.993  26.560  36.007  1.00  0.00     0.055 A 
ATOM     83  C   UNL A   1      47.142  28.412  34.988  1.00  0.00     0.041 A 
ATOM     84  F   UNL A   1      46.074  29.670  33.323  1.00  0.00    -0.206 F 
ATOM     85  C   UNL A   1      47.117  27.387  35.929  1.00  0.00     0.022 A 
BRANCH  82  86
ATOM     86  S   UNL A   1      45.846  25.342  37.341  1.00  0.00     0.124 S 
ATOM     87  O   UNL A   1      45.679  24.099  36.595  1.00  0.00    -0.237 OA
ATOM     88  O   UNL A   1      47.113  25.497  38.047  1.00  0.00    -0.237 OA
ATOM     89  O   UNL A   1      44.666  25.787  38.081  1.00  0.00    -0.744 OA
ENDBRANCH  82  86
ENDBRANCH  56  79
ENDBRANCH  30  31
ENDBRANCH  23  25
ENDBRANCH  22  23
ENDBRANCH   1  22
TORSDOF 15
ENDMDL
MODEL 2
REMARK VINA RESULT:     -12.3      1.778      2.141
REMARK SMILES Cc1ccc(-c2c[nH]c(=O)cc2C(=O)OCCOC(=O)c2ccc(-c3c4nc(c(-c5cc(S(=O)(=O)[O-])ccc5F)c5ccc([nH]5)c(-c5cc(S(=O)(=O)[O-])ccc5F)c5nc(c(-c6cc(S(=O)(=O)[O-])ccc6F)c6ccc3[nH]6)C=C5)C=C4)cc2)cc1Cl
REMARK SMILES IDX 17 1 16 2 15 3 13 4 14 5 12 6 6 7 7 8 8 9 11 10 9 11 10 13
REMARK SMILES IDX 5 14 1 15 2 16 3 17 85 18 4 19 84 20 86 21 18 22 19 23 20 24
REMARK SMILES IDX 21 25 22 26 83 27 23 28 82 29 24 30 25 31 26 32 76 33 27 34
REMARK SMILES IDX 81 35 75 36 77 37 28 38 80 39 74 40 73 41 29 43 61 44 41 45
REMARK SMILES IDX 60 46 42 47 45 48 59 49 78 50 43 51 44 52 58 54 79 55 46 56
REMARK SMILES IDX 30 57 31 58 39 59 32 60 38 61 40 62 37 63 33 64 34 65 35 66
REMARK SMILES IDX 36 67 62 68 63 69 71 70 64 71 70 72 72 73 69 74 65 75 66 76
REMARK SMILES IDX 67 77 68 78 47 79 48 80 56 81 49 82 55 83 57 84 54 85 50 86
REMARK SMILES IDX 51 87 52 88 53 89
REMARK H PARENT 8 12 77 42 45 53
REMARK Flexibility Score: inf
ROOT
ATOM      1  C   UNL A   1      31.446  29.750  26.361  1.00  0.00     0.275 C 
ENDROOT
BRANCH   1   2
ATOM      2  C   UNL A   1      31.612  28.483  27.194  1.00  0.00     0.275 C 
BRANCH   2   3
ATOM      3  O   UNL A   1      32.038  27.388  26.353  1.00  0.00    -0.458 OA
BRANCH   3   4
ATOM      4  C   UNL A   1      31.042  26.617  25.841  1.00  0.00     0.339 C 
ATOM      5  O   UNL A   1      30.255  25.946  26.491  1.00  0.00    -0.246 OA
BRANCH   4   6
ATOM      6  C   UNL A   1      31.072  26.618  24.359  1.00  0.00     0.074 A 
ATOM      7  C   UNL A   1      31.967  25.762  23.567  1.00  0.00     0.013 A 
ATOM      8  C   UNL A   1      32.111  26.045  22.262  1.00  0.00     0.095 A 
ATOM      9  N   UNL A   1      31.409  27.078  21.686  1.00  0.00    -0.328 N 
ATOM     10  C   UNL A   1      30.370  27.617  23.801  1.00  0.00     0.087 A 
ATOM     11  C   UNL A   1      30.528  27.888  22.357  1.00  0.00     0.248 A 
ATOM     12  H   UNL A   1      31.548  27.248  20.726  1.00  0.00     0.169 HD
ATOM     13  O   UNL A   1      29.929  28.817  21.828  1.00  0.00    -0.270 OA
BRANCH   7  14
ATOM     14  C   UNL A   1      32.857  24.751  24.160  1.00  0.00    -0.015 A 
ATOM     15  C   UNL A   1      35.836  20.562  25.010  1.00  0.00     0.046 C 
ATOM     16  C   UNL A   1      35.036  21.757  24.603  1.00  0.00    -0.032 A 
ATOM     17  C   UNL A   1      35.770  23.379  24.800  1.00  0.00     0.005 A 
ATOM     18  C   UNL A   1      33.329  21.671  24.227  1.00  0.00     0.044 A 
ATOM     19  C   UNL A   1      34.595  25.017  24.603  1.00  0.00     0.009 A 
ATOM     20  C   UNL A   1      32.287  23.084  24.008  1.00  0.00     0.029 A 
ATOM     21  Cl  UNL A   1      32.560  20.124  24.159  1.00  0.00    -0.084 Cl
ENDBRANCH   7  14
ENDBRANCH   4   6
ENDBRANCH   3   4
ENDBRANCH   2   3
ENDBRANCH   1   2
BRANCH   1  22
ATOM     22  O   UNL A   1      32.737  30.360  26.189  1.00  0.00    -0.458 OA
BRANCH  22  23
ATOM     23  C   UNL A   1      32.906  31.490  26.905  1.00  0.00     0.338 C 
ATOM     24  O   UNL A   1      32.179  32.469  26.923  1.00  0.00    -0.246 OA
BRANCH  23  25
ATOM     25  C   UNL A   1      34.061  31.382  27.796  1.00  0.00     0.060 A 
ATOM     26  C   UNL A   1      35.185  32.768  28.000  1.00  0.00     0.016 A 
ATOM     27  C   UNL A   1      34.685  29.763  28.053  1.00  0.00     0.016 A 
ATOM     28  C   UNL A   1      37.117  32.364  28.449  1.00  0.00     0.010 A 
ATOM     29  C   UNL A   1      36.364  29.425  28.520  1.00  0.00     0.010 A 
ATOM     30  C   UNL A   1      37.623  30.657  28.744  1.00  0.00    -0.014 A 
BRANCH  30  31
ATOM     31  C   UNL A   1      38.928  30.294  29.460  1.00  0.00     0.031 A 
ATOM     32  C   UNL A   1      39.843  29.204  28.908  1.00  0.00     0.074 A 
ATOM     33  C   UNL A   1      39.256  30.783  30.686  1.00  0.00     0.049 A 
ATOM     34  N   UNL A   1      40.755  28.479  29.517  1.00  0.00    -0.248 NA
ATOM     35  C   UNL A   1      39.661  28.838  27.499  1.00  0.00     0.031 C 
ATOM     36  C   UNL A   1      38.550  31.811  31.438  1.00  0.00     0.029 A 
ATOM     37  N   UNL A   1      40.275  30.444  31.561  1.00  0.00    -0.354 N 
ATOM     38  C   UNL A   1      41.182  27.527  28.590  1.00  0.00     0.074 A 
ATOM     39  C   UNL A   1      40.341  27.703  27.423  1.00  0.00     0.031 C 
ATOM     40  C   UNL A   1      39.127  32.037  32.615  1.00  0.00     0.029 A 
ATOM     41  C   UNL A   1      40.213  31.105  32.775  1.00  0.00     0.049 A 
ATOM     42  H   UNL A   1      40.980  29.793  31.339  1.00  0.00     0.167 HD
ATOM     43  C   UNL A   1      42.209  26.635  28.663  1.00  0.00     0.034 A 
ATOM     44  C   UNL A   1      40.892  30.996  33.932  1.00  0.00     0.034 A 
ATOM     45  C   UNL A   1      43.132  26.557  29.774  1.00  0.00     0.049 A 
ATOM     46  C   UNL A   1      42.025  30.035  34.002  1.00  0.00     0.074 A 
ATOM     47  C   UNL A   1      44.276  25.784  29.898  1.00  0.00     0.029 A 
ATOM     48  N   UNL A   1      43.040  27.303  30.943  1.00  0.00    -0.354 N 
ATOM     49  N   UNL A   1      42.405  29.155  33.108  1.00  0.00    -0.248 NA
ATOM     50  C   UNL A   1      42.853  30.086  35.208  1.00  0.00     0.031 C 
ATOM     51  C   UNL A   1      44.850  26.030  31.151  1.00  0.00     0.029 A 
ATOM     52  C   UNL A   1      44.100  27.004  31.790  1.00  0.00     0.049 A 
ATOM     53  H   UNL A   1      42.326  27.951  31.143  1.00  0.00     0.167 HD
ATOM     54  C   UNL A   1      43.557  28.581  33.622  1.00  0.00     0.074 A 
ATOM     55  C   UNL A   1      43.806  29.219  34.902  1.00  0.00     0.031 C 
ATOM     56  C   UNL A   1      44.343  27.625  33.070  1.00  0.00     0.034 A 
BRANCH  43  57
ATOM     57  C   UNL A   1      42.409  25.688  27.489  1.00  0.00     0.023 A 
ATOM     58  C   UNL A   1      41.798  24.421  27.448  1.00  0.00     0.031 A 
ATOM     59  C   UNL A   1      43.253  26.030  26.416  1.00  0.00     0.131 A 
ATOM     60  C   UNL A   1      42.148  23.499  26.450  1.00  0.00     0.055 A 
ATOM     61  C   UNL A   1      43.505  25.147  25.359  1.00  0.00     0.041 A 
ATOM     62  F   UNL A   1      43.867  27.223  26.379  1.00  0.00    -0.206 F 
ATOM     63  C   UNL A   1      42.975  23.861  25.388  1.00  0.00     0.022 A 
BRANCH  60  64
ATOM     64  S   UNL A   1      41.670  21.765  26.685  1.00  0.00     0.124 S 
ATOM     65  O   UNL A   1      42.276  21.468  27.982  1.00  0.00    -0.237 OA
ATOM     66  O   UNL A   1      40.213  21.832  26.664  1.00  0.00    -0.237 OA
ATOM     67  O   UNL A   1      42.283  21.081  25.548  1.00  0.00    -0.744 OA
ENDBRANCH  60  64
ENDBRANCH  43  57
BRANCH  44  68
ATOM     68  C   UNL A   1      40.526  31.864  35.092  1.00  0.00     0.023 A 
ATOM     69  C   UNL A   1      39.478  31.506  35.954  1.00  0.00     0.031 A 
ATOM     70  C   UNL A   1      41.260  33.027  35.394  1.00  0.00     0.131 A 
ATOM     71  C   UNL A   1      39.173  32.314  37.060  1.00  0.00     0.055 A 
ATOM     72  C   UNL A   1      40.984  33.802  36.523  1.00  0.00     0.041 A 
ATOM     73  F   UNL A   1      42.295  33.397  34.622  1.00  0.00    -0.206 F 
ATOM     74  C   UNL A   1      39.927  33.452  37.358  1.00  0.00     0.022 A 
BRANCH  71  75
ATOM     75  S   UNL A   1      37.738  31.882  38.079  1.00  0.00     0.124 S 
ATOM     76  O   UNL A   1      38.286  31.974  39.427  1.00  0.00    -0.237 OA
ATOM     77  O   UNL A   1      36.779  32.915  37.703  1.00  0.00    -0.237 OA
ATOM     78  O   UNL A   1      37.400  30.530  37.634  1.00  0.00    -0.744 OA
ENDBRANCH  71  75
ENDBRANCH  44  68
BRANCH  56  79
ATOM     79  C   UNL A   1      45.585  27.267  33.839  1.00  0.00     0.023 A 
ATOM     80  C   UNL A   1      45.569  26.274  34.833  1.00  0.00     0.031 A 
ATOM     81  C   UNL A   1      46.772  27.989  33.637  1.00  0.00     0.131 A 
ATOM     82  C   UNL A   1      46.694  26.091  35.649  1.00  0.00     0.055 A 
ATOM     83  C   UNL A   1      47.914  27.748  34.402  1.00  0.00     0.041 A 
ATOM     84  F   UNL A   1      46.835  28.957  32.708  1.00  0.00    -0.206 F 
ATOM     85  C   UNL A   1      47.872  26.808  35.428  1.00  0.00     0.022 A 
BRANCH  82  86
ATOM     86  S   UNL A   1      46.543  25.002  37.090  1.00  0.00     0.124 S 
ATOM     87  O   UNL A   1      45.607  25.743  37.930  1.00  0.00    -0.237 OA
ATOM     88  O   UNL A   1      46.032  23.770  36.499  1.00  0.00    -0.237 OA
ATOM     89  O   UNL A   1      47.909  24.921  37.603  1.00  0.00    -0.744 OA
ENDBRANCH  82  86
ENDBRANCH  56  79
ENDBRANCH  30  31
ENDBRANCH  23  25
ENDBRANCH  22  23
ENDBRANCH   1  22
TORSDOF 15
ENDMDL
MODEL 3
REMARK VINA RESULT:     -12.2      4.727      9.728
REMARK SMILES Cc1ccc(-c2c[nH]c(=O)cc2C(=O)OCCOC(=O)c2ccc(-c3c4nc(c(-c5cc(S(=O)(=O)[O-])ccc5F)c5ccc([nH]5)c(-c5cc(S(=O)(=O)[O-])ccc5F)c5nc(c(-c6cc(S(=O)(=O)[O-])ccc6F)c6ccc3[nH]6)C=C5)C=C4)cc2)cc1Cl
REMARK SMILES IDX 17 1 16 2 15 3 13 4 14 5 12 6 6 7 7 8 8 9 11 10 9 11 10 13
REMARK SMILES IDX 5 14 1 15 2 16 3 17 85 18 4 19 84 20 86 21 18 22 19 23 20 24
REMARK SMILES IDX 21 25 22 26 83 27 23 28 82 29 24 30 25 31 26 32 76 33 27 34
REMARK SMILES IDX 81 35 75 36 77 37 28 38 80 39 74 40 73 41 29 43 61 44 41 45
REMARK SMILES IDX 60 46 42 47 45 48 59 49 78 50 43 51 44 52 58 54 79 55 46 56
REMARK SMILES IDX 30 57 31 58 39 59 32 60 38 61 40 62 37 63 33 64 34 65 35 66
REMARK SMILES IDX 36 67 62 68 63 69 71 70 64 71 70 72 72 73 69 74 65 75 66 76
REMARK SMILES IDX 67 77 68 78 47 79 48 80 56 81 49 82 55 83 57 84 54 85 50 86
REMARK SMILES IDX 51 87 52 88 53 89
REMARK H PARENT 8 12 77 42 45 53
REMARK Flexibility Score: inf
ROOT
ATOM      1  C   UNL A   1      35.528  21.232  25.230  1.00  0.00     0.275 C 
ENDROOT
BRANCH   1   2
ATOM      2  C   UNL A   1      34.547  22.172  25.922  1.00  0.00     0.275 C 
BRANCH   2   3
ATOM      3  O   UNL A   1      33.354  21.453  26.304  1.00  0.00    -0.458 OA
BRANCH   3   4
ATOM      4  C   UNL A   1      32.232  21.754  25.597  1.00  0.00     0.339 C 
ATOM      5  O   UNL A   1      31.245  22.324  26.037  1.00  0.00    -0.246 OA
BRANCH   4   6
ATOM      6  C   UNL A   1      32.311  21.227  24.215  1.00  0.00     0.074 A 
ATOM      7  C   UNL A   1      32.215  22.075  23.018  1.00  0.00     0.013 A 
ATOM      8  C   UNL A   1      32.015  21.470  21.835  1.00  0.00     0.095 A 
ATOM      9  N   UNL A   1      31.945  20.099  21.752  1.00  0.00    -0.328 N 
ATOM     10  C   UNL A   1      32.262  19.887  24.138  1.00  0.00     0.087 A 
ATOM     11  C   UNL A   1      32.068  19.247  22.821  1.00  0.00     0.248 A 
ATOM     12  H   UNL A   1      31.797  19.700  20.864  1.00  0.00     0.169 HD
ATOM     13  O   UNL A   1      31.981  18.028  22.727  1.00  0.00    -0.270 OA
BRANCH   7  14
ATOM     14  C   UNL A   1      32.123  23.543  23.070  1.00  0.00    -0.015 A 
ATOM     15  C   UNL A   1      31.084  28.464  24.430  1.00  0.00     0.046 C 
ATOM     16  C   UNL A   1      31.394  27.019  24.209  1.00  0.00    -0.032 A 
ATOM     17  C   UNL A   1      33.104  26.542  23.975  1.00  0.00     0.005 A 
ATOM     18  C   UNL A   1      30.158  25.825  23.873  1.00  0.00     0.044 A 
ATOM     19  C   UNL A   1      33.520  24.671  23.319  1.00  0.00     0.009 A 
ATOM     20  C   UNL A   1      30.492  24.172  23.339  1.00  0.00     0.029 A 
ATOM     21  Cl  UNL A   1      28.495  26.289  23.961  1.00  0.00    -0.084 Cl
ENDBRANCH   7  14
ENDBRANCH   4   6
ENDBRANCH   3   4
ENDBRANCH   2   3
ENDBRANCH   1   2
BRANCH   1  22
ATOM     22  O   UNL A   1      36.642  21.002  26.108  1.00  0.00    -0.458 OA
BRANCH  22  23
ATOM     23  C   UNL A   1      37.796  20.730  25.466  1.00  0.00     0.338 C 
ATOM     24  O   UNL A   1      37.999  19.844  24.652  1.00  0.00    -0.246 OA
BRANCH  23  25
ATOM     25  C   UNL A   1      38.820  21.729  25.775  1.00  0.00     0.060 A 
ATOM     26  C   UNL A   1      40.173  21.329  26.886  1.00  0.00     0.016 A 
ATOM     27  C   UNL A   1      38.323  23.405  25.641  1.00  0.00     0.016 A 
ATOM     28  C   UNL A   1      40.994  22.835  27.961  1.00  0.00     0.010 A 
ATOM     29  C   UNL A   1      39.100  24.729  26.533  1.00  0.00     0.010 A 
ATOM     30  C   UNL A   1      40.431  24.529  27.691  1.00  0.00    -0.014 A 
BRANCH  30  31
ATOM     31  C   UNL A   1      41.238  25.749  28.146  1.00  0.00     0.031 A 
ATOM     32  C   UNL A   1      40.562  26.893  28.899  1.00  0.00     0.074 A 
ATOM     33  C   UNL A   1      42.526  25.964  27.767  1.00  0.00     0.049 A 
ATOM     34  N   UNL A   1      40.930  28.148  29.034  1.00  0.00    -0.248 NA
ATOM     35  C   UNL A   1      39.272  26.599  29.530  1.00  0.00     0.031 C 
ATOM     36  C   UNL A   1      43.389  25.048  27.035  1.00  0.00     0.029 A 
ATOM     37  N   UNL A   1      43.350  27.068  27.917  1.00  0.00    -0.354 N 
ATOM     38  C   UNL A   1      39.878  28.796  29.683  1.00  0.00     0.074 A 
ATOM     39  C   UNL A   1      38.821  27.813  29.805  1.00  0.00     0.031 C 
ATOM     40  C   UNL A   1      44.587  25.582  26.807  1.00  0.00     0.029 A 
ATOM     41  C   UNL A   1      44.579  26.937  27.295  1.00  0.00     0.049 A 
ATOM     42  H   UNL A   1      43.085  27.872  28.420  1.00  0.00     0.167 HD
ATOM     43  C   UNL A   1      39.809  30.059  30.189  1.00  0.00     0.034 A 
ATOM     44  C   UNL A   1      45.606  27.777  27.074  1.00  0.00     0.034 A 
ATOM     45  C   UNL A   1      40.916  30.990  30.188  1.00  0.00     0.049 A 
ATOM     46  C   UNL A   1      45.536  29.150  27.645  1.00  0.00     0.074 A 
ATOM     47  C   UNL A   1      40.998  32.241  30.781  1.00  0.00     0.029 A 
ATOM     48  N   UNL A   1      42.151  30.763  29.592  1.00  0.00    -0.354 N 
ATOM     49  N   UNL A   1      44.531  29.729  28.255  1.00  0.00    -0.248 NA
ATOM     50  C   UNL A   1      46.749  29.964  27.545  1.00  0.00     0.031 C 
ATOM     51  C   UNL A   1      42.259  32.784  30.509  1.00  0.00     0.029 A 
ATOM     52  C   UNL A   1      42.993  31.848  29.798  1.00  0.00     0.049 A 
ATOM     53  H   UNL A   1      42.395  29.948  29.094  1.00  0.00     0.167 HD
ATOM     54  C   UNL A   1      45.012  30.962  28.666  1.00  0.00     0.074 A 
ATOM     55  C   UNL A   1      46.394  31.038  28.233  1.00  0.00     0.031 C 
ATOM     56  C   UNL A   1      44.364  31.933  29.356  1.00  0.00     0.034 A 
BRANCH  43  57
ATOM     57  C   UNL A   1      38.495  30.498  30.819  1.00  0.00     0.023 A 
ATOM     58  C   UNL A   1      37.452  31.043  30.049  1.00  0.00     0.031 A 
ATOM     59  C   UNL A   1      38.293  30.415  32.210  1.00  0.00     0.131 A 
ATOM     60  C   UNL A   1      36.332  31.611  30.676  1.00  0.00     0.055 A 
ATOM     61  C   UNL A   1      37.120  30.877  32.818  1.00  0.00     0.041 A 
ATOM     62  F   UNL A   1      39.240  29.902  33.011  1.00  0.00    -0.206 F 
ATOM     63  C   UNL A   1      36.143  31.506  32.053  1.00  0.00     0.022 A 
BRANCH  60  64
ATOM     64  S   UNL A   1      35.241  32.666  29.682  1.00  0.00     0.124 S 
ATOM     65  O   UNL A   1      34.274  33.111  30.685  1.00  0.00    -0.237 OA
ATOM     66  O   UNL A   1      36.155  33.686  29.182  1.00  0.00    -0.237 OA
ATOM     67  O   UNL A   1      34.706  31.754  28.673  1.00  0.00    -0.744 OA
ENDBRANCH  60  64
ENDBRANCH  43  57
BRANCH  44  68
ATOM     68  C   UNL A   1      46.800  27.307  26.308  1.00  0.00     0.023 A 
ATOM     69  C   UNL A   1      47.869  26.675  26.962  1.00  0.00     0.031 A 
ATOM     70  C   UNL A   1      46.860  27.421  24.906  1.00  0.00     0.131 A 
ATOM     71  C   UNL A   1      48.965  26.206  26.222  1.00  0.00     0.055 A 
ATOM     72  C   UNL A   1      47.931  26.910  24.169  1.00  0.00     0.041 A 
ATOM     73  F   UNL A   1      45.849  27.987  24.227  1.00  0.00    -0.206 F 
ATOM     74  C   UNL A   1      48.997  26.307  24.828  1.00  0.00     0.022 A 
BRANCH  71  75
ATOM     75  S   UNL A   1      50.377  25.505  27.116  1.00  0.00     0.124 S 
ATOM     76  O   UNL A   1      51.345  25.309  26.044  1.00  0.00    -0.237 OA
ATOM     77  O   UNL A   1      50.683  26.563  28.072  1.00  0.00    -0.237 OA
ATOM     78  O   UNL A   1      49.835  24.278  27.699  1.00  0.00    -0.744 OA
ENDBRANCH  71  75
ENDBRANCH  44  68
BRANCH  56  79
ATOM     79  C   UNL A   1      45.186  33.135  29.733  1.00  0.00     0.023 A 
ATOM     80  C   UNL A   1      45.868  33.200  30.960  1.00  0.00     0.031 A 
ATOM     81  C   UNL A   1      45.214  34.261  28.895  1.00  0.00     0.131 A 
ATOM     82  C   UNL A   1      46.475  34.400  31.355  1.00  0.00     0.055 A 
ATOM     83  C   UNL A   1      45.887  35.428  29.259  1.00  0.00     0.041 A 
ATOM     84  F   UNL A   1      44.569  34.254  27.717  1.00  0.00    -0.206 F 
ATOM     85  C   UNL A   1      46.505  35.508  30.504  1.00  0.00     0.022 A 
BRANCH  82  86
ATOM     86  S   UNL A   1      47.100  34.532  33.050  1.00  0.00     0.124 S 
ATOM     87  O   UNL A   1      48.387  33.850  32.948  1.00  0.00    -0.237 OA
ATOM     88  O   UNL A   1      47.158  35.975  33.251  1.00  0.00    -0.237 OA
ATOM     89  O   UNL A   1      46.089  33.836  33.843  1.00  0.00    -0.744 OA
ENDBRANCH  82  86
ENDBRANCH  56  79
ENDBRANCH  30  31
ENDBRANCH  23  25
ENDBRANCH  22  23
ENDBRANCH   1  22
TORSDOF 15
ENDMDL
