MODEL 1
REMARK VINA RESULT:     -11.0      0.000      0.000
REMARK SMILES [NH3+][C@@H]1C(=O)N2C(C(=O)OCCOC(=O)c3ccc(-c4c5nc(c(-c6cc(S(=O)(=O)[O-])ccc6F)c6ccc([nH]6)c(-c6cc(S(=O)(=O)[O-])ccc6F)c6nc(c(-c7cc(S(=O)(=O)[O-])ccc7F)c7ccc4[nH]7)C=C6)C=C5)cc3)=CCS[C@@H]12
REMARK SMILES IDX 11 1 10 2 9 3 7 4 8 5 6 6 2 7 3 8 81 9 4 10 5 11 80 12 79 13
REMARK SMILES IDX 78 14 1 15 12 19 13 20 14 21 15 22 16 23 77 24 17 25 76 26
REMARK SMILES IDX 18 27 19 28 20 29 70 30 21 31 75 32 69 33 71 34 22 35 74 36
REMARK SMILES IDX 68 37 67 38 23 40 55 41 35 42 54 43 36 44 39 45 53 46 72 47
REMARK SMILES IDX 37 48 38 49 52 51 73 52 40 53 24 54 25 55 33 56 26 57 32 58
REMARK SMILES IDX 34 59 31 60 27 61 28 62 29 63 30 64 56 65 57 66 65 67 58 68
REMARK SMILES IDX 64 69 66 70 63 71 59 72 60 73 61 74 62 75 41 76 42 77 50 78
REMARK SMILES IDX 43 79 49 80 51 81 48 82 44 83 45 84 46 85 47 86
REMARK H PARENT 1 16 1 17 1 18 71 39 39 50
REMARK Flexibility Score: inf
ROOT
ATOM      1  C   UNL A   1      37.187  20.614  24.790  1.00  0.00     0.275 C 
ENDROOT
BRANCH   1   2
ATOM      2  C   UNL A   1      35.695  20.445  25.096  1.00  0.00     0.275 C 
BRANCH   2   3
ATOM      3  O   UNL A   1      34.995  21.702  25.000  1.00  0.00    -0.457 OA
BRANCH   3   4
ATOM      4  C   UNL A   1      34.369  22.149  26.128  1.00  0.00     0.354 C 
ATOM      5  O   UNL A   1      34.384  21.573  27.203  1.00  0.00    -0.244 OA
BRANCH   4   6
ATOM      6  C   UNL A   1      33.712  23.481  25.871  1.00  0.00     0.128 C 
ATOM      7  C   UNL A   1      30.338  24.096  25.756  1.00  0.00     0.305 C 
ATOM      8  C   UNL A   1      31.250  22.808  25.726  1.00  0.00     0.289 C 
ATOM      9  C   UNL A   1      31.672  24.837  26.066  1.00  0.00     0.217 C 
ATOM     10  O   UNL A   1      31.070  21.618  25.657  1.00  0.00    -0.267 OA
ATOM     11  N   UNL A   1      32.357  23.583  25.793  1.00  0.00    -0.282 N 
ATOM     12  S   UNL A   1      32.228  26.032  24.821  1.00  0.00    -0.126 SA
ATOM     13  C   UNL A   1      33.958  25.972  25.374  1.00  0.00     0.101 C 
ATOM     14  C   UNL A   1      34.460  24.591  25.702  1.00  0.00     0.018 C 
BRANCH   7  15
ATOM     15  N   UNL A   1      29.440  24.196  26.930  1.00  0.00    -0.345 N 
ATOM     16  H   UNL A   1      28.681  23.521  26.836  1.00  0.00     0.345 HD
ATOM     17  H   UNL A   1      29.052  25.139  26.981  1.00  0.00     0.345 HD
ATOM     18  H   UNL A   1      29.968  23.999  27.780  1.00  0.00     0.345 HD
ENDBRANCH   7  15
ENDBRANCH   4   6
ENDBRANCH   3   4
ENDBRANCH   2   3
ENDBRANCH   1   2
BRANCH   1  19
ATOM     19  O   UNL A   1      37.782  21.615  25.637  1.00  0.00    -0.458 OA
BRANCH  19  20
ATOM     20  C   UNL A   1      39.008  21.301  26.115  1.00  0.00     0.338 C 
ATOM     21  O   UNL A   1      39.619  20.257  25.944  1.00  0.00    -0.246 OA
BRANCH  20  22
ATOM     22  C   UNL A   1      39.623  22.498  26.707  1.00  0.00     0.060 A 
ATOM     23  C   UNL A   1      39.174  23.716  26.216  1.00  0.00     0.016 A 
ATOM     24  C   UNL A   1      40.656  22.460  27.641  1.00  0.00     0.016 A 
ATOM     25  C   UNL A   1      39.750  24.907  26.637  1.00  0.00     0.010 A 
ATOM     26  C   UNL A   1      41.234  23.667  28.075  1.00  0.00     0.010 A 
ATOM     27  C   UNL A   1      40.792  24.903  27.564  1.00  0.00    -0.014 A 
BRANCH  27  28
ATOM     28  C   UNL A   1      41.447  26.199  27.894  1.00  0.00     0.031 A 
ATOM     29  C   UNL A   1      40.687  27.239  28.672  1.00  0.00     0.074 A 
ATOM     30  C   UNL A   1      42.749  26.405  27.606  1.00  0.00     0.049 A 
ATOM     31  N   UNL A   1      41.039  28.457  28.999  1.00  0.00    -0.248 NA
ATOM     32  C   UNL A   1      39.355  26.848  29.155  1.00  0.00     0.031 C 
ATOM     33  C   UNL A   1      43.638  25.430  26.972  1.00  0.00     0.029 A 
ATOM     34  N   UNL A   1      43.556  27.496  27.823  1.00  0.00    -0.354 N 
ATOM     35  C   UNL A   1      39.962  28.989  29.699  1.00  0.00     0.074 A 
ATOM     36  C   UNL A   1      38.938  27.964  29.732  1.00  0.00     0.031 C 
ATOM     37  C   UNL A   1      44.864  25.964  26.857  1.00  0.00     0.029 A 
ATOM     38  C   UNL A   1      44.834  27.344  27.334  1.00  0.00     0.049 A 
ATOM     39  H   UNL A   1      43.249  28.310  28.284  1.00  0.00     0.167 HD
ATOM     40  C   UNL A   1      39.841  30.218  30.263  1.00  0.00     0.034 A 
ATOM     41  C   UNL A   1      45.849  28.226  27.236  1.00  0.00     0.034 A 
ATOM     42  C   UNL A   1      40.877  31.224  30.227  1.00  0.00     0.049 A 
ATOM     43  C   UNL A   1      45.645  29.631  27.749  1.00  0.00     0.074 A 
ATOM     44  C   UNL A   1      40.850  32.507  30.748  1.00  0.00     0.029 A 
ATOM     45  N   UNL A   1      42.123  31.068  29.632  1.00  0.00    -0.354 N 
ATOM     46  N   UNL A   1      44.599  30.148  28.352  1.00  0.00    -0.248 NA
ATOM     47  C   UNL A   1      46.756  30.573  27.562  1.00  0.00     0.031 C 
ATOM     48  C   UNL A   1      42.041  33.150  30.397  1.00  0.00     0.029 A 
ATOM     49  C   UNL A   1      42.856  32.241  29.742  1.00  0.00     0.049 A 
ATOM     50  H   UNL A   1      42.441  30.243  29.197  1.00  0.00     0.167 HD
ATOM     51  C   UNL A   1      44.942  31.465  28.646  1.00  0.00     0.074 A 
ATOM     52  C   UNL A   1      46.296  31.656  28.170  1.00  0.00     0.031 C 
ATOM     53  C   UNL A   1      44.205  32.429  29.256  1.00  0.00     0.034 A 
BRANCH  40  54
ATOM     54  C   UNL A   1      38.512  30.565  30.892  1.00  0.00     0.023 A 
ATOM     55  C   UNL A   1      37.480  31.186  30.168  1.00  0.00     0.031 A 
ATOM     56  C   UNL A   1      38.291  30.301  32.257  1.00  0.00     0.131 A 
ATOM     57  C   UNL A   1      36.308  31.590  30.828  1.00  0.00     0.055 A 
ATOM     58  C   UNL A   1      37.090  30.627  32.887  1.00  0.00     0.041 A 
ATOM     59  F   UNL A   1      39.250  29.734  33.007  1.00  0.00    -0.206 F 
ATOM     60  C   UNL A   1      36.096  31.290  32.176  1.00  0.00     0.022 A 
BRANCH  57  61
ATOM     61  S   UNL A   1      35.134  32.652  29.941  1.00  0.00     0.124 S 
ATOM     62  O   UNL A   1      34.203  33.017  31.007  1.00  0.00    -0.237 OA
ATOM     63  O   UNL A   1      35.989  33.724  29.446  1.00  0.00    -0.237 OA
ATOM     64  O   UNL A   1      34.580  31.770  28.916  1.00  0.00    -0.744 OA
ENDBRANCH  57  61
ENDBRANCH  40  54
BRANCH  41  65
ATOM     65  C   UNL A   1      47.125  27.846  26.556  1.00  0.00     0.023 A 
ATOM     66  C   UNL A   1      47.290  27.996  25.170  1.00  0.00     0.031 A 
ATOM     67  C   UNL A   1      48.175  27.250  27.280  1.00  0.00     0.131 A 
ATOM     68  C   UNL A   1      48.451  27.511  24.545  1.00  0.00     0.055 A 
ATOM     69  C   UNL A   1      49.356  26.833  26.665  1.00  0.00     0.041 A 
ATOM     70  F   UNL A   1      48.067  27.063  28.604  1.00  0.00    -0.206 F 
ATOM     71  C   UNL A   1      49.493  26.948  25.286  1.00  0.00     0.022 A 
BRANCH  68  72
ATOM     72  S   UNL A   1      48.535  27.524  22.733  1.00  0.00     0.124 S 
ATOM     73  O   UNL A   1      49.800  28.212  22.500  1.00  0.00    -0.237 OA
ATOM     74  O   UNL A   1      48.511  26.101  22.415  1.00  0.00    -0.237 OA
ATOM     75  O   UNL A   1      47.339  28.268  22.343  1.00  0.00    -0.744 OA
ENDBRANCH  68  72
ENDBRANCH  41  65
BRANCH  53  76
ATOM     76  C   UNL A   1      44.874  33.763  29.494  1.00  0.00     0.023 A 
ATOM     77  C   UNL A   1      44.845  34.794  28.538  1.00  0.00     0.031 A 
ATOM     78  C   UNL A   1      45.572  33.998  30.694  1.00  0.00     0.131 A 
ATOM     79  C   UNL A   1      45.552  35.985  28.770  1.00  0.00     0.055 A 
ATOM     80  C   UNL A   1      46.211  35.212  30.950  1.00  0.00     0.041 A 
ATOM     81  F   UNL A   1      45.640  33.050  31.643  1.00  0.00    -0.206 F 
ATOM     82  C   UNL A   1      46.217  36.208  29.978  1.00  0.00     0.022 A 
BRANCH  79  83
ATOM     83  S   UNL A   1      45.687  37.195  27.425  1.00  0.00     0.124 S 
ATOM     84  O   UNL A   1      46.122  36.360  26.310  1.00  0.00    -0.237 OA
ATOM     85  O   UNL A   1      44.327  37.717  27.338  1.00  0.00    -0.237 OA
ATOM     86  O   UNL A   1      46.685  38.143  27.916  1.00  0.00    -0.744 OA
ENDBRANCH  79  83
ENDBRANCH  53  76
ENDBRANCH  27  28
ENDBRANCH  20  22
ENDBRANCH  19  20
ENDBRANCH   1  19
TORSDOF 15
ENDMDL
MODEL 2
REMARK VINA RESULT:     -10.9      5.368     10.203
REMARK SMILES [NH3+][C@@H]1C(=O)N2C(C(=O)OCCOC(=O)c3ccc(-c4c5nc(c(-c6cc(S(=O)(=O)[O-])ccc6F)c6ccc([nH]6)c(-c6cc(S(=O)(=O)[O-])ccc6F)c6nc(c(-c7cc(S(=O)(=O)[O-])ccc7F)c7ccc4[nH]7)C=C6)C=C5)cc3)=CCS[C@@H]12
REMARK SMILES IDX 11 1 10 2 9 3 7 4 8 5 6 6 2 7 3 8 81 9 4 10 5 11 80 12 79 13
REMARK SMILES IDX 78 14 1 15 12 19 13 20 14 21 15 22 16 23 77 24 17 25 76 26
REMARK SMILES IDX 18 27 19 28 20 29 70 30 21 31 75 32 69 33 71 34 22 35 74 36
REMARK SMILES IDX 68 37 67 38 23 40 55 41 35 42 54 43 36 44 39 45 53 46 72 47
REMARK SMILES IDX 37 48 38 49 52 51 73 52 40 53 24 54 25 55 33 56 26 57 32 58
REMARK SMILES IDX 34 59 31 60 27 61 28 62 29 63 30 64 56 65 57 66 65 67 58 68
REMARK SMILES IDX 64 69 66 70 63 71 59 72 60 73 61 74 62 75 41 76 42 77 50 78
REMARK SMILES IDX 43 79 49 80 51 81 48 82 44 83 45 84 46 85 47 86
REMARK H PARENT 1 16 1 17 1 18 71 39 39 50
REMARK Flexibility Score: inf
ROOT
ATOM      1  C   UNL A   1      31.788  30.062  25.400  1.00  0.00     0.275 C 
ENDROOT
BRANCH   1   2
ATOM      2  C   UNL A   1      32.601  29.038  24.602  1.00  0.00     0.275 C 
BRANCH   2   3
ATOM      3  O   UNL A   1      31.917  28.652  23.393  1.00  0.00    -0.457 OA
BRANCH   3   4
ATOM      4  C   UNL A   1      30.866  27.791  23.525  1.00  0.00     0.354 C 
ATOM      5  O   UNL A   1      29.692  28.122  23.500  1.00  0.00    -0.244 OA
BRANCH   4   6
ATOM      6  C   UNL A   1      31.361  26.373  23.645  1.00  0.00     0.128 C 
ATOM      7  C   UNL A   1      31.120  24.361  26.414  1.00  0.00     0.305 C 
ATOM      8  C   UNL A   1      30.948  25.903  26.123  1.00  0.00     0.289 C 
ATOM      9  C   UNL A   1      31.222  24.244  24.865  1.00  0.00     0.217 C 
ATOM     10  O   UNL A   1      30.675  26.883  26.770  1.00  0.00    -0.267 OA
ATOM     11  N   UNL A   1      31.257  25.698  24.822  1.00  0.00    -0.282 N 
ATOM     12  S   UNL A   1      32.807  23.652  24.213  1.00  0.00    -0.126 SA
ATOM     13  C   UNL A   1      32.527  24.374  22.568  1.00  0.00     0.101 C 
ATOM     14  C   UNL A   1      31.927  25.755  22.588  1.00  0.00     0.018 C 
BRANCH   7  15
ATOM     15  N   UNL A   1      29.892  23.674  26.876  1.00  0.00    -0.345 N 
ATOM     16  H   UNL A   1      29.975  23.460  27.870  1.00  0.00     0.345 HD
ATOM     17  H   UNL A   1      29.770  22.807  26.351  1.00  0.00     0.345 HD
ATOM     18  H   UNL A   1      29.086  24.280  26.724  1.00  0.00     0.345 HD
ENDBRANCH   7  15
ENDBRANCH   4   6
ENDBRANCH   3   4
ENDBRANCH   2   3
ENDBRANCH   1   2
BRANCH   1  19
ATOM     19  O   UNL A   1      32.289  30.192  26.743  1.00  0.00    -0.458 OA
BRANCH  19  20
ATOM     20  C   UNL A   1      32.830  31.397  27.035  1.00  0.00     0.338 C 
ATOM     21  O   UNL A   1      32.275  32.483  26.986  1.00  0.00    -0.246 OA
BRANCH  20  22
ATOM     22  C   UNL A   1      34.154  31.204  27.645  1.00  0.00     0.060 A 
ATOM     23  C   UNL A   1      34.488  29.895  27.966  1.00  0.00     0.016 A 
ATOM     24  C   UNL A   1      35.016  32.246  27.979  1.00  0.00     0.016 A 
ATOM     25  C   UNL A   1      35.673  29.607  28.630  1.00  0.00     0.010 A 
ATOM     26  C   UNL A   1      36.222  31.954  28.643  1.00  0.00     0.010 A 
ATOM     27  C   UNL A   1      36.554  30.629  28.986  1.00  0.00    -0.014 A 
BRANCH  27  28
ATOM     28  C   UNL A   1      37.753  30.276  29.795  1.00  0.00     0.031 A 
ATOM     29  C   UNL A   1      38.805  29.374  29.208  1.00  0.00     0.074 A 
ATOM     30  C   UNL A   1      37.964  30.846  30.999  1.00  0.00     0.049 A 
ATOM     31  N   UNL A   1      39.885  28.883  29.763  1.00  0.00    -0.248 NA
ATOM     32  C   UNL A   1      38.620  28.983  27.804  1.00  0.00     0.031 C 
ATOM     33  C   UNL A   1      37.090  31.838  31.628  1.00  0.00     0.029 A 
ATOM     34  N   UNL A   1      38.987  30.687  31.903  1.00  0.00    -0.354 N 
ATOM     35  C   UNL A   1      40.492  28.100  28.787  1.00  0.00     0.074 A 
ATOM     36  C   UNL A   1      39.648  28.170  27.611  1.00  0.00     0.031 C 
ATOM     37  C   UNL A   1      37.616  32.201  32.809  1.00  0.00     0.029 A 
ATOM     38  C   UNL A   1      38.819  31.414  33.060  1.00  0.00     0.049 A 
ATOM     39  H   UNL A   1      39.766  30.108  31.738  1.00  0.00     0.167 HD
ATOM     40  C   UNL A   1      41.647  27.392  28.865  1.00  0.00     0.034 A 
ATOM     41  C   UNL A   1      39.525  31.412  34.210  1.00  0.00     0.034 A 
ATOM     42  C   UNL A   1      42.480  27.341  30.044  1.00  0.00     0.049 A 
ATOM     43  C   UNL A   1      40.731  30.511  34.322  1.00  0.00     0.074 A 
ATOM     44  C   UNL A   1      43.658  26.638  30.236  1.00  0.00     0.029 A 
ATOM     45  N   UNL A   1      42.223  28.011  31.234  1.00  0.00    -0.354 N 
ATOM     46  N   UNL A   1      41.263  29.723  33.416  1.00  0.00    -0.248 NA
ATOM     47  C   UNL A   1      41.429  30.496  35.614  1.00  0.00     0.031 C 
ATOM     48  C   UNL A   1      44.066  26.817  31.562  1.00  0.00     0.029 A 
ATOM     49  C   UNL A   1      43.199  27.709  32.173  1.00  0.00     0.049 A 
ATOM     50  H   UNL A   1      41.460  28.614  31.388  1.00  0.00     0.167 HD
ATOM     51  C   UNL A   1      42.377  29.146  34.020  1.00  0.00     0.074 A 
ATOM     52  C   UNL A   1      42.449  29.691  35.360  1.00  0.00     0.031 C 
ATOM     53  C   UNL A   1      43.261  28.249  33.513  1.00  0.00     0.034 A 
BRANCH  40  54
ATOM     54  C   UNL A   1      42.028  26.552  27.669  1.00  0.00     0.023 A 
ATOM     55  C   UNL A   1      41.644  25.204  27.546  1.00  0.00     0.031 A 
ATOM     56  C   UNL A   1      42.826  27.103  26.649  1.00  0.00     0.131 A 
ATOM     57  C   UNL A   1      42.121  24.438  26.470  1.00  0.00     0.055 A 
ATOM     58  C   UNL A   1      43.224  26.358  25.538  1.00  0.00     0.041 A 
ATOM     59  F   UNL A   1      43.246  28.376  26.723  1.00  0.00    -0.206 F 
ATOM     60  C   UNL A   1      42.885  25.013  25.452  1.00  0.00     0.022 A 
BRANCH  57  61
ATOM     61  S   UNL A   1      41.860  22.642  26.503  1.00  0.00     0.124 S 
ATOM     62  O   UNL A   1      40.401  22.555  26.492  1.00  0.00    -0.237 OA
ATOM     63  O   UNL A   1      42.535  22.203  25.287  1.00  0.00    -0.237 OA
ATOM     64  O   UNL A   1      42.492  22.226  27.754  1.00  0.00    -0.744 OA
ENDBRANCH  57  61
ENDBRANCH  40  54
BRANCH  41  65
ATOM     65  C   UNL A   1      39.073  32.222  35.381  1.00  0.00     0.023 A 
ATOM     66  C   UNL A   1      39.530  33.534  35.586  1.00  0.00     0.031 A 
ATOM     67  C   UNL A   1      38.231  31.662  36.361  1.00  0.00     0.131 A 
ATOM     68  C   UNL A   1      39.186  34.221  36.762  1.00  0.00     0.055 A 
ATOM     69  C   UNL A   1      37.836  32.374  37.494  1.00  0.00     0.041 A 
ATOM     70  F   UNL A   1      37.778  30.405  36.230  1.00  0.00    -0.206 F 
ATOM     71  C   UNL A   1      38.327  33.657  37.707  1.00  0.00     0.022 A 
BRANCH  68  72
ATOM     72  S   UNL A   1      39.968  35.824  37.093  1.00  0.00     0.124 S 
ATOM     73  O   UNL A   1      39.653  36.565  35.876  1.00  0.00    -0.237 OA
ATOM     74  O   UNL A   1      39.278  36.257  38.303  1.00  0.00    -0.237 OA
ATOM     75  O   UNL A   1      41.378  35.485  37.270  1.00  0.00    -0.744 OA
ENDBRANCH  68  72
ENDBRANCH  41  65
BRANCH  53  76
ATOM     76  C   UNL A   1      44.419  27.845  34.397  1.00  0.00     0.023 A 
ATOM     77  C   UNL A   1      44.349  26.735  35.258  1.00  0.00     0.031 A 
ATOM     78  C   UNL A   1      45.608  28.598  34.392  1.00  0.00     0.131 A 
ATOM     79  C   UNL A   1      45.418  26.448  36.121  1.00  0.00     0.055 A 
ATOM     80  C   UNL A   1      46.696  28.264  35.199  1.00  0.00     0.041 A 
ATOM     81  F   UNL A   1      45.733  29.672  33.595  1.00  0.00    -0.206 F 
ATOM     82  C   UNL A   1      46.599  27.193  36.082  1.00  0.00     0.022 A 
BRANCH  79  83
ATOM     83  S   UNL A   1      45.203  25.157  37.378  1.00  0.00     0.124 S 
ATOM     84  O   UNL A   1      43.865  25.446  37.883  1.00  0.00    -0.237 OA
ATOM     85  O   UNL A   1      45.339  23.934  36.594  1.00  0.00    -0.237 OA
ATOM     86  O   UNL A   1      46.291  25.412  38.320  1.00  0.00    -0.744 OA
ENDBRANCH  79  83
ENDBRANCH  53  76
ENDBRANCH  27  28
ENDBRANCH  20  22
ENDBRANCH  19  20
ENDBRANCH   1  19
TORSDOF 15
ENDMDL
MODEL 3
REMARK VINA RESULT:     -10.8      1.971      2.332
REMARK SMILES [NH3+][C@@H]1C(=O)N2C(C(=O)OCCOC(=O)c3ccc(-c4c5nc(c(-c6cc(S(=O)(=O)[O-])ccc6F)c6ccc([nH]6)c(-c6cc(S(=O)(=O)[O-])ccc6F)c6nc(c(-c7cc(S(=O)(=O)[O-])ccc7F)c7ccc4[nH]7)C=C6)C=C5)cc3)=CCS[C@@H]12
REMARK SMILES IDX 11 1 10 2 9 3 7 4 8 5 6 6 2 7 3 8 81 9 4 10 5 11 80 12 79 13
REMARK SMILES IDX 78 14 1 15 12 19 13 20 14 21 15 22 16 23 77 24 17 25 76 26
REMARK SMILES IDX 18 27 19 28 20 29 70 30 21 31 75 32 69 33 71 34 22 35 74 36
REMARK SMILES IDX 68 37 67 38 23 40 55 41 35 42 54 43 36 44 39 45 53 46 72 47
REMARK SMILES IDX 37 48 38 49 52 51 73 52 40 53 24 54 25 55 33 56 26 57 32 58
REMARK SMILES IDX 34 59 31 60 27 61 28 62 29 63 30 64 56 65 57 66 65 67 58 68
REMARK SMILES IDX 64 69 66 70 63 71 59 72 60 73 61 74 62 75 41 76 42 77 50 78
REMARK SMILES IDX 43 79 49 80 51 81 48 82 44 83 45 84 46 85 47 86
REMARK H PARENT 1 16 1 17 1 18 71 39 39 50
REMARK Flexibility Score: inf
ROOT
ATOM      1  C   UNL A   1      35.695  21.496  25.599  1.00  0.00     0.275 C 
ENDROOT
BRANCH   1   2
ATOM      2  C   UNL A   1      34.572  21.389  24.562  1.00  0.00     0.275 C 
BRANCH   2   3
ATOM      3  O   UNL A   1      33.825  22.619  24.470  1.00  0.00    -0.457 OA
BRANCH   3   4
ATOM      4  C   UNL A   1      34.299  23.567  23.611  1.00  0.00     0.354 C 
ATOM      5  O   UNL A   1      34.879  23.327  22.566  1.00  0.00    -0.244 OA
BRANCH   4   6
ATOM      6  C   UNL A   1      33.949  24.947  24.108  1.00  0.00     0.128 C 
ATOM      7  C   UNL A   1      32.357  27.408  22.325  1.00  0.00     0.305 C 
ATOM      8  C   UNL A   1      33.065  26.042  21.975  1.00  0.00     0.289 C 
ATOM      9  C   UNL A   1      32.561  26.951  23.799  1.00  0.00     0.217 C 
ATOM     10  O   UNL A   1      33.280  25.407  20.972  1.00  0.00    -0.267 OA
ATOM     11  N   UNL A   1      33.366  25.856  23.280  1.00  0.00    -0.282 N 
ATOM     12  S   UNL A   1      33.653  27.985  24.811  1.00  0.00    -0.126 SA
ATOM     13  C   UNL A   1      33.992  26.656  26.003  1.00  0.00     0.101 C 
ATOM     14  C   UNL A   1      34.219  25.303  25.381  1.00  0.00     0.018 C 
BRANCH   7  15
ATOM     15  N   UNL A   1      30.908  27.454  22.023  1.00  0.00    -0.345 N 
ATOM     16  H   UNL A   1      30.573  26.513  21.818  1.00  0.00     0.345 HD
ATOM     17  H   UNL A   1      30.748  28.056  21.214  1.00  0.00     0.345 HD
ATOM     18  H   UNL A   1      30.405  27.827  22.829  1.00  0.00     0.345 HD
ENDBRANCH   7  15
ENDBRANCH   4   6
ENDBRANCH   3   4
ENDBRANCH   2   3
ENDBRANCH   1   2
BRANCH   1  19
ATOM     19  O   UNL A   1      36.934  21.898  24.985  1.00  0.00    -0.458 OA
BRANCH  19  20
ATOM     20  C   UNL A   1      38.045  21.372  25.549  1.00  0.00     0.338 C 
ATOM     21  O   UNL A   1      38.462  20.231  25.427  1.00  0.00    -0.246 OA
BRANCH  20  22
ATOM     22  C   UNL A   1      38.831  22.446  26.175  1.00  0.00     0.060 A 
ATOM     23  C   UNL A   1      38.374  23.738  25.955  1.00  0.00     0.016 A 
ATOM     24  C   UNL A   1      40.014  22.234  26.879  1.00  0.00     0.016 A 
ATOM     25  C   UNL A   1      39.090  24.833  26.420  1.00  0.00     0.010 A 
ATOM     26  C   UNL A   1      40.735  23.343  27.359  1.00  0.00     0.010 A 
ATOM     27  C   UNL A   1      40.283  24.655  27.122  1.00  0.00    -0.014 A 
BRANCH  27  28
ATOM     28  C   UNL A   1      41.066  25.865  27.499  1.00  0.00     0.031 A 
ATOM     29  C   UNL A   1      40.425  26.929  28.348  1.00  0.00     0.074 A 
ATOM     30  C   UNL A   1      42.374  25.963  27.186  1.00  0.00     0.049 A 
ATOM     31  N   UNL A   1      40.899  28.089  28.726  1.00  0.00    -0.248 NA
ATOM     32  C   UNL A   1      39.073  26.640  28.846  1.00  0.00     0.031 C 
ATOM     33  C   UNL A   1      43.152  24.943  26.480  1.00  0.00     0.029 A 
ATOM     34  N   UNL A   1      43.286  26.960  27.436  1.00  0.00    -0.354 N 
ATOM     35  C   UNL A   1      39.893  28.683  29.482  1.00  0.00     0.074 A 
ATOM     36  C   UNL A   1      38.777  27.759  29.491  1.00  0.00     0.031 C 
ATOM     37  C   UNL A   1      44.421  25.366  26.359  1.00  0.00     0.029 A 
ATOM     38  C   UNL A   1      44.533  26.714  26.905  1.00  0.00     0.049 A 
ATOM     39  H   UNL A   1      43.069  27.774  27.946  1.00  0.00     0.167 HD
ATOM     40  C   UNL A   1      39.902  29.886  30.110  1.00  0.00     0.034 A 
ATOM     41  C   UNL A   1      45.625  27.502  26.825  1.00  0.00     0.034 A 
ATOM     42  C   UNL A   1      41.028  30.791  30.097  1.00  0.00     0.049 A 
ATOM     43  C   UNL A   1      45.566  28.891  27.413  1.00  0.00     0.074 A 
ATOM     44  C   UNL A   1      41.135  32.042  30.683  1.00  0.00     0.029 A 
ATOM     45  N   UNL A   1      42.240  30.550  29.461  1.00  0.00    -0.354 N 
ATOM     46  N   UNL A   1      44.588  29.471  28.070  1.00  0.00    -0.248 NA
ATOM     47  C   UNL A   1      46.758  29.733  27.245  1.00  0.00     0.031 C 
ATOM     48  C   UNL A   1      42.373  32.588  30.332  1.00  0.00     0.029 A 
ATOM     49  C   UNL A   1      43.083  31.642  29.610  1.00  0.00     0.049 A 
ATOM     50  H   UNL A   1      42.468  29.723  28.977  1.00  0.00     0.167 HD
ATOM     51  C   UNL A   1      45.061  30.733  28.420  1.00  0.00     0.074 A 
ATOM     52  C   UNL A   1      46.417  30.820  27.919  1.00  0.00     0.031 C 
ATOM     53  C   UNL A   1      44.433  31.728  29.098  1.00  0.00     0.034 A 
BRANCH  40  54
ATOM     54  C   UNL A   1      38.626  30.322  30.791  1.00  0.00     0.023 A 
ATOM     55  C   UNL A   1      37.595  30.983  30.100  1.00  0.00     0.031 A 
ATOM     56  C   UNL A   1      38.458  30.106  32.172  1.00  0.00     0.131 A 
ATOM     57  C   UNL A   1      36.482  31.468  30.804  1.00  0.00     0.055 A 
ATOM     58  C   UNL A   1      37.309  30.514  32.848  1.00  0.00     0.041 A 
ATOM     59  F   UNL A   1      39.420  29.504  32.891  1.00  0.00    -0.206 F 
ATOM     60  C   UNL A   1      36.319  31.214  32.168  1.00  0.00     0.022 A 
BRANCH  57  61
ATOM     61  S   UNL A   1      35.326  32.572  29.944  1.00  0.00     0.124 S 
ATOM     62  O   UNL A   1      34.362  32.871  31.002  1.00  0.00    -0.237 OA
ATOM     63  O   UNL A   1      36.187  33.674  29.535  1.00  0.00    -0.237 OA
ATOM     64  O   UNL A   1      34.807  31.746  28.856  1.00  0.00    -0.744 OA
ENDBRANCH  57  61
ENDBRANCH  40  54
BRANCH  41  65
ATOM     65  C   UNL A   1      46.843  27.040  26.092  1.00  0.00     0.023 A 
ATOM     66  C   UNL A   1      47.923  26.448  26.766  1.00  0.00     0.031 A 
ATOM     67  C   UNL A   1      46.975  27.258  24.708  1.00  0.00     0.131 A 
ATOM     68  C   UNL A   1      49.103  26.142  26.067  1.00  0.00     0.055 A 
ATOM     69  C   UNL A   1      48.123  26.889  24.005  1.00  0.00     0.041 A 
ATOM     70  F   UNL A   1      45.984  27.839  24.013  1.00  0.00    -0.206 F 
ATOM     71  C   UNL A   1      49.203  26.341  24.689  1.00  0.00     0.022 A 
BRANCH  68  72
ATOM     72  S   UNL A   1      50.550  25.582  27.006  1.00  0.00     0.124 S 
ATOM     73  O   UNL A   1      51.542  25.413  25.951  1.00  0.00    -0.237 OA
ATOM     74  O   UNL A   1      50.771  26.697  27.921  1.00  0.00    -0.237 OA
ATOM     75  O   UNL A   1      50.091  24.345  27.635  1.00  0.00    -0.744 OA
ENDBRANCH  68  72
ENDBRANCH  41  65
BRANCH  53  76
ATOM     76  C   UNL A   1      45.232  32.978  29.385  1.00  0.00     0.023 A 
ATOM     77  C   UNL A   1      45.241  34.076  28.506  1.00  0.00     0.031 A 
ATOM     78  C   UNL A   1      46.014  33.064  30.553  1.00  0.00     0.131 A 
ATOM     79  C   UNL A   1      46.064  35.182  28.774  1.00  0.00     0.055 A 
ATOM     80  C   UNL A   1      46.772  34.197  30.851  1.00  0.00     0.041 A 
ATOM     81  F   UNL A   1      46.049  32.047  31.428  1.00  0.00    -0.206 F 
ATOM     82  C   UNL A   1      46.813  35.258  29.951  1.00  0.00     0.022 A 
BRANCH  79  83
ATOM     83  S   UNL A   1      46.231  36.472  27.510  1.00  0.00     0.124 S 
ATOM     84  O   UNL A   1      45.035  36.260  26.701  1.00  0.00    -0.237 OA
ATOM     85  O   UNL A   1      46.252  37.692  28.310  1.00  0.00    -0.237 OA
ATOM     86  O   UNL A   1      47.493  36.143  26.850  1.00  0.00    -0.744 OA
ENDBRANCH  79  83
ENDBRANCH  53  76
ENDBRANCH  27  28
ENDBRANCH  20  22
ENDBRANCH  19  20
ENDBRANCH   1  19
TORSDOF 15
ENDMDL
