MODEL 1
REMARK VINA RESULT:     -12.6      0.000      0.000
REMARK SMILES C=CCn1nc(C(=O)OCCOC(=O)c2ccc(-c3c4nc(c(-c5cc(S(=O)(=O)[O-])ccc5F)c5ccc([nH]5)c(-c5cc(S(=O)(=O)[O-])ccc5F)c5nc(c(-c6cc(S(=O)(=O)[O-])ccc6F)c6ccc3[nH]6)C=C5)C=C4)cc2)c2c1CC[C@@H]([NH+]1CCC(C(C)(C)O)CC1)C2
REMARK SMILES IDX 10 1 9 2 7 3 8 4 6 5 4 6 5 7 79 8 78 9 80 10 93 11 81 12
REMARK SMILES IDX 82 13 3 14 2 15 1 16 83 17 84 18 92 19 85 21 91 22 86 23
REMARK SMILES IDX 87 24 88 25 89 26 90 27 11 29 12 30 13 31 14 32 15 33 16 34
REMARK SMILES IDX 77 35 17 36 76 37 18 38 19 39 20 40 70 41 21 42 75 43 69 44
REMARK SMILES IDX 71 45 22 46 74 47 68 48 67 49 23 51 55 52 35 53 54 54 36 55
REMARK SMILES IDX 39 56 53 57 72 58 37 59 38 60 52 62 73 63 40 64 24 65 25 66
REMARK SMILES IDX 33 67 26 68 32 69 34 70 31 71 27 72 28 73 29 74 30 75 56 76
REMARK SMILES IDX 57 77 65 78 58 79 64 80 66 81 63 82 59 83 60 84 61 85 62 86
REMARK SMILES IDX 41 87 42 88 50 89 43 90 49 91 51 92 48 93 44 94 45 95 46 96
REMARK SMILES IDX 47 97
REMARK H PARENT 83 20 90 28 71 50 39 61
REMARK Flexibility Score: inf
ROOT
ATOM      1  C   UNL A   1      33.715  31.027  27.606  1.00  0.00     0.275 C 
ENDROOT
BRANCH   1   2
ATOM      2  O   UNL A   1      33.447  30.097  26.555  1.00  0.00    -0.457 OA
BRANCH   2   3
ATOM      3  C   UNL A   1      32.592  29.059  26.833  1.00  0.00     0.359 C 
ATOM      4  O   UNL A   1      32.475  28.550  27.934  1.00  0.00    -0.244 OA
BRANCH   3   5
ATOM      5  C   UNL A   1      31.884  28.638  25.613  1.00  0.00     0.174 A 
ATOM      6  N   UNL A   1      30.717  28.705  23.829  1.00  0.00    -0.265 N 
ATOM      7  N   UNL A   1      31.285  29.502  24.763  1.00  0.00    -0.165 NA
ATOM      8  C   UNL A   1      30.699  27.399  24.227  1.00  0.00     0.043 A 
ATOM      9  C   UNL A   1      31.695  27.303  25.167  1.00  0.00     0.014 A 
ATOM     10  C   UNL A   1      29.896  26.279  23.707  1.00  0.00     0.062 C 
ATOM     11  C   UNL A   1      32.270  26.008  25.626  1.00  0.00     0.105 C 
ATOM     12  C   UNL A   1      30.368  24.953  24.341  1.00  0.00     0.072 C 
ATOM     13  C   UNL A   1      31.880  24.827  24.679  1.00  0.00     0.189 C 
BRANCH   6  14
ATOM     14  C   UNL A   1      30.397  29.235  22.506  1.00  0.00     0.171 C 
BRANCH  14  15
ATOM     15  C   UNL A   1      29.094  29.974  22.466  1.00  0.00    -0.011 C 
ATOM     16  C   UNL A   1      27.901  29.394  22.662  1.00  0.00     0.006 C 
ENDBRANCH  14  15
ENDBRANCH   6  14
BRANCH  13  17
ATOM     17  N   UNL A   1      32.891  24.565  23.633  1.00  0.00    -0.332 N 
ATOM     18  C   UNL A   1      32.727  23.473  22.691  1.00  0.00     0.262 C 
ATOM     19  C   UNL A   1      34.289  24.678  24.016  1.00  0.00     0.262 C 
ATOM     20  H   UNL A   1      32.618  25.391  23.100  1.00  0.00     0.348 HD
ATOM     21  C   UNL A   1      33.216  22.113  23.188  1.00  0.00     0.068 C 
ATOM     22  C   UNL A   1      34.818  23.458  24.752  1.00  0.00     0.068 C 
ATOM     23  C   UNL A   1      34.440  22.087  24.141  1.00  0.00     0.031 C 
BRANCH  23  24
ATOM     24  C   UNL A   1      34.367  20.970  25.254  1.00  0.00     0.062 C 
ATOM     25  C   UNL A   1      33.595  21.394  26.510  1.00  0.00     0.042 C 
ATOM     26  C   UNL A   1      33.754  19.681  24.689  1.00  0.00     0.042 C 
BRANCH  24  27
ATOM     27  O   UNL A   1      35.684  20.613  25.687  1.00  0.00    -0.390 OA
ATOM     28  H   UNL A   1      35.631  19.851  26.284  1.00  0.00     0.211 HD
ENDBRANCH  24  27
ENDBRANCH  23  24
ENDBRANCH  13  17
ENDBRANCH   3   5
ENDBRANCH   2   3
ENDBRANCH   1   2
BRANCH   1  29
ATOM     29  C   UNL A   1      35.213  31.202  27.780  1.00  0.00     0.275 C 
BRANCH  29  30
ATOM     30  O   UNL A   1      35.869  29.938  27.823  1.00  0.00    -0.458 OA
BRANCH  30  31
ATOM     31  C   UNL A   1      36.348  29.550  29.029  1.00  0.00     0.338 C 
ATOM     32  O   UNL A   1      35.758  29.583  30.097  1.00  0.00    -0.246 OA
BRANCH  31  33
ATOM     33  C   UNL A   1      37.781  29.262  28.875  1.00  0.00     0.060 A 
ATOM     34  C   UNL A   1      38.434  29.623  27.694  1.00  0.00     0.016 A 
ATOM     35  C   UNL A   1      38.412  28.462  29.839  1.00  0.00     0.016 A 
ATOM     36  C   UNL A   1      39.690  29.090  27.442  1.00  0.00     0.010 A 
ATOM     37  C   UNL A   1      39.649  27.918  29.578  1.00  0.00     0.010 A 
ATOM     38  C   UNL A   1      40.262  28.194  28.361  1.00  0.00    -0.014 A 
BRANCH  38  39
ATOM     39  C   UNL A   1      41.631  27.728  28.168  1.00  0.00     0.031 A 
ATOM     40  C   UNL A   1      41.653  26.407  27.494  1.00  0.00     0.074 A 
ATOM     41  C   UNL A   1      42.731  28.476  28.412  1.00  0.00     0.049 A 
ATOM     42  N   UNL A   1      41.955  25.272  28.026  1.00  0.00    -0.248 NA
ATOM     43  C   UNL A   1      41.059  26.283  26.148  1.00  0.00     0.031 C 
ATOM     44  C   UNL A   1      42.773  29.875  28.854  1.00  0.00     0.029 A 
ATOM     45  N   UNL A   1      44.056  28.179  28.244  1.00  0.00    -0.354 N 
ATOM     46  C   UNL A   1      41.881  24.342  26.994  1.00  0.00     0.074 A 
ATOM     47  C   UNL A   1      41.105  24.962  25.960  1.00  0.00     0.031 C 
ATOM     48  C   UNL A   1      44.032  30.361  28.719  1.00  0.00     0.029 A 
ATOM     49  C   UNL A   1      44.920  29.280  28.321  1.00  0.00     0.049 A 
ATOM     50  H   UNL A   1      44.377  27.263  28.082  1.00  0.00     0.167 HD
ATOM     51  C   UNL A   1      42.749  23.293  26.970  1.00  0.00     0.034 A 
ATOM     52  C   UNL A   1      46.266  29.301  28.095  1.00  0.00     0.034 A 
ATOM     53  C   UNL A   1      43.388  23.152  28.259  1.00  0.00     0.049 A 
ATOM     54  C   UNL A   1      46.748  27.922  28.314  1.00  0.00     0.074 A 
ATOM     55  C   UNL A   1      43.026  22.715  29.514  1.00  0.00     0.029 A 
ATOM     56  N   UNL A   1      44.514  23.924  28.404  1.00  0.00    -0.354 N 
ATOM     57  N   UNL A   1      46.727  27.353  29.486  1.00  0.00    -0.248 NA
ATOM     58  C   UNL A   1      46.877  27.011  27.183  1.00  0.00     0.031 C 
ATOM     59  C   UNL A   1      43.849  23.436  30.432  1.00  0.00     0.029 A 
ATOM     60  C   UNL A   1      44.735  24.241  29.718  1.00  0.00     0.049 A 
ATOM     61  H   UNL A   1      45.091  24.212  27.660  1.00  0.00     0.167 HD
ATOM     62  C   UNL A   1      46.377  26.044  29.224  1.00  0.00     0.074 A 
ATOM     63  C   UNL A   1      46.670  25.847  27.808  1.00  0.00     0.031 C 
ATOM     64  C   UNL A   1      45.588  25.353  30.096  1.00  0.00     0.034 A 
BRANCH  51  65
ATOM     65  C   UNL A   1      43.416  22.745  25.719  1.00  0.00     0.023 A 
ATOM     66  C   UNL A   1      43.598  21.346  25.655  1.00  0.00     0.031 A 
ATOM     67  C   UNL A   1      44.145  23.498  24.771  1.00  0.00     0.131 A 
ATOM     68  C   UNL A   1      44.529  20.774  24.769  1.00  0.00     0.055 A 
ATOM     69  C   UNL A   1      45.032  22.918  23.858  1.00  0.00     0.041 A 
ATOM     70  F   UNL A   1      44.123  24.833  24.727  1.00  0.00    -0.206 F 
ATOM     71  C   UNL A   1      45.251  21.553  23.871  1.00  0.00     0.022 A 
BRANCH  68  72
ATOM     72  S   UNL A   1      44.896  19.006  24.916  1.00  0.00     0.124 S 
ATOM     73  O   UNL A   1      46.142  19.021  25.675  1.00  0.00    -0.237 OA
ATOM     74  O   UNL A   1      43.717  18.510  25.618  1.00  0.00    -0.237 OA
ATOM     75  O   UNL A   1      45.019  18.570  23.526  1.00  0.00    -0.744 OA
ENDBRANCH  68  72
ENDBRANCH  51  65
BRANCH  52  76
ATOM     76  C   UNL A   1      47.136  30.351  27.486  1.00  0.00     0.023 A 
ATOM     77  C   UNL A   1      46.645  31.554  26.916  1.00  0.00     0.031 A 
ATOM     78  C   UNL A   1      48.522  30.300  27.744  1.00  0.00     0.131 A 
ATOM     79  C   UNL A   1      47.523  32.638  26.651  1.00  0.00     0.055 A 
ATOM     80  C   UNL A   1      49.380  31.376  27.496  1.00  0.00     0.041 A 
ATOM     81  F   UNL A   1      49.070  29.230  28.341  1.00  0.00    -0.206 F 
ATOM     82  C   UNL A   1      48.882  32.554  26.960  1.00  0.00     0.022 A 
BRANCH  79  83
ATOM     83  S   UNL A   1      46.907  34.222  25.974  1.00  0.00     0.124 S 
ATOM     84  O   UNL A   1      45.708  33.812  25.254  1.00  0.00    -0.237 OA
ATOM     85  O   UNL A   1      46.704  35.024  27.174  1.00  0.00    -0.237 OA
ATOM     86  O   UNL A   1      48.004  34.680  25.117  1.00  0.00    -0.744 OA
ENDBRANCH  79  83
ENDBRANCH  52  76
BRANCH  64  87
ATOM     87  C   UNL A   1      45.537  25.849  31.520  1.00  0.00     0.023 A 
ATOM     88  C   UNL A   1      46.530  25.630  32.504  1.00  0.00     0.031 A 
ATOM     89  C   UNL A   1      44.416  26.614  31.880  1.00  0.00     0.131 A 
ATOM     90  C   UNL A   1      46.363  26.165  33.797  1.00  0.00     0.055 A 
ATOM     91  C   UNL A   1      44.266  27.160  33.151  1.00  0.00     0.041 A 
ATOM     92  F   UNL A   1      43.446  26.861  30.983  1.00  0.00    -0.206 F 
ATOM     93  C   UNL A   1      45.238  26.931  34.118  1.00  0.00     0.022 A 
BRANCH  90  94
ATOM     94  S   UNL A   1      47.595  25.847  35.104  1.00  0.00     0.124 S 
ATOM     95  O   UNL A   1      47.203  24.546  35.634  1.00  0.00    -0.237 OA
ATOM     96  O   UNL A   1      48.856  25.882  34.367  1.00  0.00    -0.237 OA
ATOM     97  O   UNL A   1      47.406  26.964  36.031  1.00  0.00    -0.744 OA
ENDBRANCH  90  94
ENDBRANCH  64  87
ENDBRANCH  38  39
ENDBRANCH  31  33
ENDBRANCH  30  31
ENDBRANCH  29  30
ENDBRANCH   1  29
TORSDOF 19
ENDMDL
MODEL 2
REMARK VINA RESULT:     -12.4      2.368      6.872
REMARK SMILES C=CCn1nc(C(=O)OCCOC(=O)c2ccc(-c3c4nc(c(-c5cc(S(=O)(=O)[O-])ccc5F)c5ccc([nH]5)c(-c5cc(S(=O)(=O)[O-])ccc5F)c5nc(c(-c6cc(S(=O)(=O)[O-])ccc6F)c6ccc3[nH]6)C=C5)C=C4)cc2)c2c1CC[C@@H]([NH+]1CCC(C(C)(C)O)CC1)C2
REMARK SMILES IDX 10 1 9 2 7 3 8 4 6 5 4 6 5 7 79 8 78 9 80 10 93 11 81 12
REMARK SMILES IDX 82 13 3 14 2 15 1 16 83 17 84 18 92 19 85 21 91 22 86 23
REMARK SMILES IDX 87 24 88 25 89 26 90 27 11 29 12 30 13 31 14 32 15 33 16 34
REMARK SMILES IDX 77 35 17 36 76 37 18 38 19 39 20 40 70 41 21 42 75 43 69 44
REMARK SMILES IDX 71 45 22 46 74 47 68 48 67 49 23 51 55 52 35 53 54 54 36 55
REMARK SMILES IDX 39 56 53 57 72 58 37 59 38 60 52 62 73 63 40 64 24 65 25 66
REMARK SMILES IDX 33 67 26 68 32 69 34 70 31 71 27 72 28 73 29 74 30 75 56 76
REMARK SMILES IDX 57 77 65 78 58 79 64 80 66 81 63 82 59 83 60 84 61 85 62 86
REMARK SMILES IDX 41 87 42 88 50 89 43 90 49 91 51 92 48 93 44 94 45 95 46 96
REMARK SMILES IDX 47 97
REMARK H PARENT 83 20 90 28 71 50 39 61
REMARK Flexibility Score: inf
ROOT
ATOM      1  C   UNL A   1      33.928  30.262  27.032  1.00  0.00     0.275 C 
ENDROOT
BRANCH   1   2
ATOM      2  O   UNL A   1      32.503  30.179  27.096  1.00  0.00    -0.457 OA
BRANCH   2   3
ATOM      3  C   UNL A   1      31.942  28.926  27.091  1.00  0.00     0.359 C 
ATOM      4  O   UNL A   1      31.871  28.208  28.074  1.00  0.00    -0.244 OA
BRANCH   3   5
ATOM      5  C   UNL A   1      31.487  28.574  25.737  1.00  0.00     0.174 A 
ATOM      6  N   UNL A   1      30.673  28.739  23.772  1.00  0.00    -0.265 N 
ATOM      7  N   UNL A   1      31.036  29.482  24.842  1.00  0.00    -0.165 NA
ATOM      8  C   UNL A   1      30.614  27.410  24.080  1.00  0.00     0.043 A 
ATOM      9  C   UNL A   1      31.418  27.268  25.184  1.00  0.00     0.014 A 
ATOM     10  C   UNL A   1      29.952  26.315  23.351  1.00  0.00     0.062 C 
ATOM     11  C   UNL A   1      31.930  25.954  25.664  1.00  0.00     0.105 C 
ATOM     12  C   UNL A   1      30.330  24.958  23.981  1.00  0.00     0.072 C 
ATOM     13  C   UNL A   1      31.755  24.831  24.591  1.00  0.00     0.189 C 
BRANCH   6  14
ATOM     14  C   UNL A   1      30.594  29.348  22.447  1.00  0.00     0.171 C 
BRANCH  14  15
ATOM     15  C   UNL A   1      29.376  30.202  22.262  1.00  0.00    -0.011 C 
ATOM     16  C   UNL A   1      28.122  29.758  22.421  1.00  0.00     0.006 C 
ENDBRANCH  14  15
ENDBRANCH   6  14
BRANCH  13  17
ATOM     17  N   UNL A   1      32.950  24.650  23.741  1.00  0.00    -0.332 N 
ATOM     18  C   UNL A   1      32.994  23.617  22.722  1.00  0.00     0.262 C 
ATOM     19  C   UNL A   1      34.248  24.759  24.386  1.00  0.00     0.262 C 
ATOM     20  H   UNL A   1      32.760  25.504  23.216  1.00  0.00     0.348 HD
ATOM     21  C   UNL A   1      33.416  22.236  23.222  1.00  0.00     0.068 C 
ATOM     22  C   UNL A   1      34.662  23.503  25.137  1.00  0.00     0.068 C 
ATOM     23  C   UNL A   1      34.440  22.168  24.385  1.00  0.00     0.031 C 
BRANCH  23  24
ATOM     24  C   UNL A   1      34.189  20.982  25.397  1.00  0.00     0.062 C 
ATOM     25  C   UNL A   1      33.971  21.437  26.845  1.00  0.00     0.042 C 
ATOM     26  C   UNL A   1      32.998  20.127  24.944  1.00  0.00     0.042 C 
BRANCH  24  27
ATOM     27  O   UNL A   1      35.315  20.097  25.413  1.00  0.00    -0.390 OA
ATOM     28  H   UNL A   1      35.502  19.831  26.327  1.00  0.00     0.211 HD
ENDBRANCH  24  27
ENDBRANCH  23  24
ENDBRANCH  13  17
ENDBRANCH   3   5
ENDBRANCH   2   3
ENDBRANCH   1   2
BRANCH   1  29
ATOM     29  C   UNL A   1      34.405  31.556  27.668  1.00  0.00     0.275 C 
BRANCH  29  30
ATOM     30  O   UNL A   1      35.824  31.661  27.598  1.00  0.00    -0.458 OA
BRANCH  30  31
ATOM     31  C   UNL A   1      36.442  32.194  28.680  1.00  0.00     0.338 C 
ATOM     32  O   UNL A   1      36.301  33.323  29.122  1.00  0.00    -0.246 OA
BRANCH  31  33
ATOM     33  C   UNL A   1      37.472  31.245  29.125  1.00  0.00     0.060 A 
ATOM     34  C   UNL A   1      38.724  31.721  29.521  1.00  0.00     0.016 A 
ATOM     35  C   UNL A   1      37.236  29.871  28.958  1.00  0.00     0.016 A 
ATOM     36  C   UNL A   1      39.767  30.815  29.650  1.00  0.00     0.010 A 
ATOM     37  C   UNL A   1      38.276  28.977  29.068  1.00  0.00     0.010 A 
ATOM     38  C   UNL A   1      39.547  29.456  29.365  1.00  0.00    -0.014 A 
BRANCH  38  39
ATOM     39  C   UNL A   1      40.600  28.479  29.619  1.00  0.00     0.031 A 
ATOM     40  C   UNL A   1      40.876  28.362  31.072  1.00  0.00     0.074 A 
ATOM     41  C   UNL A   1      41.128  27.666  28.676  1.00  0.00     0.049 A 
ATOM     42  N   UNL A   1      41.920  28.790  31.698  1.00  0.00    -0.248 NA
ATOM     43  C   UNL A   1      39.789  27.932  31.973  1.00  0.00     0.031 C 
ATOM     44  C   UNL A   1      40.731  27.566  27.267  1.00  0.00     0.029 A 
ATOM     45  N   UNL A   1      42.084  26.693  28.784  1.00  0.00    -0.354 N 
ATOM     46  C   UNL A   1      41.746  28.405  33.023  1.00  0.00     0.074 A 
ATOM     47  C   UNL A   1      40.349  28.116  33.170  1.00  0.00     0.031 C 
ATOM     48  C   UNL A   1      41.284  26.460  26.712  1.00  0.00     0.029 A 
ATOM     49  C   UNL A   1      42.189  25.847  27.672  1.00  0.00     0.049 A 
ATOM     50  H   UNL A   1      42.653  26.595  29.581  1.00  0.00     0.167 HD
ATOM     51  C   UNL A   1      42.828  28.044  33.767  1.00  0.00     0.034 A 
ATOM     52  C   UNL A   1      42.975  24.738  27.539  1.00  0.00     0.034 A 
ATOM     53  C   UNL A   1      44.043  28.473  33.110  1.00  0.00     0.049 A 
ATOM     54  C   UNL A   1      44.086  24.896  28.500  1.00  0.00     0.074 A 
ATOM     55  C   UNL A   1      44.696  29.665  32.891  1.00  0.00     0.029 A 
ATOM     56  N   UNL A   1      44.523  27.570  32.193  1.00  0.00    -0.354 N 
ATOM     57  N   UNL A   1      44.990  25.827  28.377  1.00  0.00    -0.248 NA
ATOM     58  C   UNL A   1      43.987  24.297  29.825  1.00  0.00     0.031 C 
ATOM     59  C   UNL A   1      45.418  29.499  31.672  1.00  0.00     0.029 A 
ATOM     60  C   UNL A   1      45.246  28.195  31.212  1.00  0.00     0.049 A 
ATOM     61  H   UNL A   1      44.369  26.599  32.237  1.00  0.00     0.167 HD
ATOM     62  C   UNL A   1      45.232  26.241  29.671  1.00  0.00     0.074 A 
ATOM     63  C   UNL A   1      44.748  25.154  30.515  1.00  0.00     0.031 C 
ATOM     64  C   UNL A   1      45.504  27.550  29.937  1.00  0.00     0.034 A 
BRANCH  51  65
ATOM     65  C   UNL A   1      42.857  26.891  34.757  1.00  0.00     0.023 A 
ATOM     66  C   UNL A   1      43.611  25.755  34.390  1.00  0.00     0.031 A 
ATOM     67  C   UNL A   1      41.972  26.709  35.844  1.00  0.00     0.131 A 
ATOM     68  C   UNL A   1      43.399  24.510  35.010  1.00  0.00     0.055 A 
ATOM     69  C   UNL A   1      41.802  25.481  36.490  1.00  0.00     0.041 A 
ATOM     70  F   UNL A   1      41.154  27.668  36.286  1.00  0.00    -0.206 F 
ATOM     71  C   UNL A   1      42.495  24.365  36.057  1.00  0.00     0.022 A 
BRANCH  68  72
ATOM     72  S   UNL A   1      44.212  23.045  34.320  1.00  0.00     0.124 S 
ATOM     73  O   UNL A   1      43.223  22.581  33.355  1.00  0.00    -0.237 OA
ATOM     74  O   UNL A   1      45.439  23.613  33.770  1.00  0.00    -0.237 OA
ATOM     75  O   UNL A   1      44.397  22.182  35.486  1.00  0.00    -0.744 OA
ENDBRANCH  68  72
ENDBRANCH  51  65
BRANCH  52  76
ATOM     76  C   UNL A   1      42.732  23.451  26.822  1.00  0.00     0.023 A 
ATOM     77  C   UNL A   1      43.743  22.710  26.159  1.00  0.00     0.031 A 
ATOM     78  C   UNL A   1      41.513  22.779  27.055  1.00  0.00     0.131 A 
ATOM     79  C   UNL A   1      43.519  21.360  25.781  1.00  0.00     0.055 A 
ATOM     80  C   UNL A   1      41.303  21.444  26.696  1.00  0.00     0.041 A 
ATOM     81  F   UNL A   1      40.520  23.375  27.733  1.00  0.00    -0.206 F 
ATOM     82  C   UNL A   1      42.309  20.725  26.068  1.00  0.00     0.022 A 
BRANCH  79  83
ATOM     83  S   UNL A   1      44.827  20.362  24.980  1.00  0.00     0.124 S 
ATOM     84  O   UNL A   1      44.632  19.047  25.578  1.00  0.00    -0.237 OA
ATOM     85  O   UNL A   1      44.501  20.488  23.564  1.00  0.00    -0.237 OA
ATOM     86  O   UNL A   1      46.066  21.035  25.379  1.00  0.00    -0.744 OA
ENDBRANCH  79  83
ENDBRANCH  52  76
BRANCH  64  87
ATOM     87  C   UNL A   1      46.017  28.393  28.794  1.00  0.00     0.023 A 
ATOM     88  C   UNL A   1      47.352  28.425  28.329  1.00  0.00     0.031 A 
ATOM     89  C   UNL A   1      45.072  29.189  28.127  1.00  0.00     0.131 A 
ATOM     90  C   UNL A   1      47.694  29.250  27.239  1.00  0.00     0.055 A 
ATOM     91  C   UNL A   1      45.408  29.984  27.036  1.00  0.00     0.041 A 
ATOM     92  F   UNL A   1      43.786  29.192  28.520  1.00  0.00    -0.206 F 
ATOM     93  C   UNL A   1      46.724  30.022  26.591  1.00  0.00     0.022 A 
BRANCH  90  94
ATOM     94  S   UNL A   1      49.419  29.360  26.657  1.00  0.00     0.124 S 
ATOM     95  O   UNL A   1      50.184  28.750  27.738  1.00  0.00    -0.237 OA
ATOM     96  O   UNL A   1      49.379  28.613  25.402  1.00  0.00    -0.237 OA
ATOM     97  O   UNL A   1      49.634  30.800  26.497  1.00  0.00    -0.744 OA
ENDBRANCH  90  94
ENDBRANCH  64  87
ENDBRANCH  38  39
ENDBRANCH  31  33
ENDBRANCH  30  31
ENDBRANCH  29  30
ENDBRANCH   1  29
TORSDOF 19
ENDMDL
MODEL 3
REMARK VINA RESULT:     -12.3      2.223      6.985
REMARK SMILES C=CCn1nc(C(=O)OCCOC(=O)c2ccc(-c3c4nc(c(-c5cc(S(=O)(=O)[O-])ccc5F)c5ccc([nH]5)c(-c5cc(S(=O)(=O)[O-])ccc5F)c5nc(c(-c6cc(S(=O)(=O)[O-])ccc6F)c6ccc3[nH]6)C=C5)C=C4)cc2)c2c1CC[C@@H]([NH+]1CCC(C(C)(C)O)CC1)C2
REMARK SMILES IDX 10 1 9 2 7 3 8 4 6 5 4 6 5 7 79 8 78 9 80 10 93 11 81 12
REMARK SMILES IDX 82 13 3 14 2 15 1 16 83 17 84 18 92 19 85 21 91 22 86 23
REMARK SMILES IDX 87 24 88 25 89 26 90 27 11 29 12 30 13 31 14 32 15 33 16 34
REMARK SMILES IDX 77 35 17 36 76 37 18 38 19 39 20 40 70 41 21 42 75 43 69 44
REMARK SMILES IDX 71 45 22 46 74 47 68 48 67 49 23 51 55 52 35 53 54 54 36 55
REMARK SMILES IDX 39 56 53 57 72 58 37 59 38 60 52 62 73 63 40 64 24 65 25 66
REMARK SMILES IDX 33 67 26 68 32 69 34 70 31 71 27 72 28 73 29 74 30 75 56 76
REMARK SMILES IDX 57 77 65 78 58 79 64 80 66 81 63 82 59 83 60 84 61 85 62 86
REMARK SMILES IDX 41 87 42 88 50 89 43 90 49 91 51 92 48 93 44 94 45 95 46 96
REMARK SMILES IDX 47 97
REMARK H PARENT 83 20 90 28 71 50 39 61
REMARK Flexibility Score: inf
ROOT
ATOM      1  C   UNL A   1      33.077  31.061  27.466  1.00  0.00     0.275 C 
ENDROOT
BRANCH   1   2
ATOM      2  O   UNL A   1      32.966  30.617  26.113  1.00  0.00    -0.457 OA
BRANCH   2   3
ATOM      3  C   UNL A   1      33.305  29.313  25.846  1.00  0.00     0.359 C 
ATOM      4  O   UNL A   1      34.365  28.806  26.170  1.00  0.00    -0.244 OA
BRANCH   3   5
ATOM      5  C   UNL A   1      32.232  28.649  25.089  1.00  0.00     0.174 A 
ATOM      6  N   UNL A   1      30.488  28.346  23.898  1.00  0.00    -0.265 N 
ATOM      7  N   UNL A   1      31.299  29.319  24.375  1.00  0.00    -0.165 NA
ATOM      8  C   UNL A   1      30.717  27.152  24.520  1.00  0.00     0.043 A 
ATOM      9  C   UNL A   1      31.993  27.252  25.017  1.00  0.00     0.014 A 
ATOM     10  C   UNL A   1      29.865  25.951  24.569  1.00  0.00     0.062 C 
ATOM     11  C   UNL A   1      32.792  26.078  25.469  1.00  0.00     0.105 C 
ATOM     12  C   UNL A   1      30.635  24.785  25.225  1.00  0.00     0.072 C 
ATOM     13  C   UNL A   1      32.171  24.727  24.988  1.00  0.00     0.189 C 
BRANCH   6  14
ATOM     14  C   UNL A   1      29.666  28.589  22.716  1.00  0.00     0.171 C 
BRANCH  14  15
ATOM     15  C   UNL A   1      28.234  28.887  23.045  1.00  0.00    -0.011 C 
ATOM     16  C   UNL A   1      27.703  30.117  23.020  1.00  0.00     0.006 C 
ENDBRANCH  14  15
ENDBRANCH   6  14
BRANCH  13  17
ATOM     17  N   UNL A   1      32.743  24.249  23.712  1.00  0.00    -0.332 N 
ATOM     18  C   UNL A   1      32.442  22.920  23.209  1.00  0.00     0.262 C 
ATOM     19  C   UNL A   1      34.134  24.572  23.443  1.00  0.00     0.262 C 
ATOM     20  H   UNL A   1      32.139  24.860  23.161  1.00  0.00     0.348 HD
ATOM     21  C   UNL A   1      33.327  21.805  23.765  1.00  0.00     0.068 C 
ATOM     22  C   UNL A   1      35.119  23.664  24.159  1.00  0.00     0.068 C 
ATOM     23  C   UNL A   1      34.801  22.149  24.102  1.00  0.00     0.031 C 
BRANCH  23  24
ATOM     24  C   UNL A   1      35.363  21.403  25.375  1.00  0.00     0.062 C 
ATOM     25  C   UNL A   1      36.772  21.849  25.785  1.00  0.00     0.042 C 
ATOM     26  C   UNL A   1      34.408  21.568  26.565  1.00  0.00     0.042 C 
BRANCH  24  27
ATOM     27  O   UNL A   1      35.437  19.994  25.132  1.00  0.00    -0.390 OA
ATOM     28  H   UNL A   1      34.557  19.601  25.245  1.00  0.00     0.211 HD
ENDBRANCH  24  27
ENDBRANCH  23  24
ENDBRANCH  13  17
ENDBRANCH   3   5
ENDBRANCH   2   3
ENDBRANCH   1   2
BRANCH   1  29
ATOM     29  C   UNL A   1      34.344  31.880  27.644  1.00  0.00     0.275 C 
BRANCH  29  30
ATOM     30  O   UNL A   1      35.049  31.474  28.814  1.00  0.00    -0.458 OA
BRANCH  30  31
ATOM     31  C   UNL A   1      36.104  32.242  29.177  1.00  0.00     0.338 C 
ATOM     32  O   UNL A   1      36.209  33.451  29.051  1.00  0.00    -0.246 OA
BRANCH  31  33
ATOM     33  C   UNL A   1      37.200  31.345  29.571  1.00  0.00     0.060 A 
ATOM     34  C   UNL A   1      38.461  31.879  29.851  1.00  0.00     0.016 A 
ATOM     35  C   UNL A   1      37.003  29.959  29.470  1.00  0.00     0.016 A 
ATOM     36  C   UNL A   1      39.544  31.014  29.928  1.00  0.00     0.010 A 
ATOM     37  C   UNL A   1      38.081  29.106  29.527  1.00  0.00     0.010 A 
ATOM     38  C   UNL A   1      39.353  29.639  29.707  1.00  0.00    -0.014 A 
BRANCH  38  39
ATOM     39  C   UNL A   1      40.458  28.709  29.911  1.00  0.00     0.031 A 
ATOM     40  C   UNL A   1      40.760  28.550  31.354  1.00  0.00     0.074 A 
ATOM     41  C   UNL A   1      41.014  27.961  28.930  1.00  0.00     0.049 A 
ATOM     42  N   UNL A   1      41.788  29.007  31.984  1.00  0.00    -0.248 NA
ATOM     43  C   UNL A   1      39.708  28.030  32.250  1.00  0.00     0.031 C 
ATOM     44  C   UNL A   1      40.603  27.895  27.522  1.00  0.00     0.029 A 
ATOM     45  N   UNL A   1      42.020  27.036  28.988  1.00  0.00    -0.354 N 
ATOM     46  C   UNL A   1      41.653  28.563  33.295  1.00  0.00     0.074 A 
ATOM     47  C   UNL A   1      40.275  28.196  33.447  1.00  0.00     0.031 C 
ATOM     48  C   UNL A   1      41.205  26.841  26.918  1.00  0.00     0.029 A 
ATOM     49  C   UNL A   1      42.153  26.240  27.842  1.00  0.00     0.049 A 
ATOM     50  H   UNL A   1      42.604  26.937  29.774  1.00  0.00     0.167 HD
ATOM     51  C   UNL A   1      42.763  28.230  34.011  1.00  0.00     0.034 A 
ATOM     52  C   UNL A   1      42.993  25.179  27.657  1.00  0.00     0.034 A 
ATOM     53  C   UNL A   1      43.944  28.746  33.357  1.00  0.00     0.049 A 
ATOM     54  C   UNL A   1      44.107  25.357  28.610  1.00  0.00     0.074 A 
ATOM     55  C   UNL A   1      44.532  29.978  33.178  1.00  0.00     0.029 A 
ATOM     56  N   UNL A   1      44.457  27.906  32.400  1.00  0.00    -0.354 N 
ATOM     57  N   UNL A   1      44.960  26.337  28.513  1.00  0.00    -0.248 NA
ATOM     58  C   UNL A   1      44.058  24.703  29.912  1.00  0.00     0.031 C 
ATOM     59  C   UNL A   1      45.246  29.897  31.944  1.00  0.00     0.029 A 
ATOM     60  C   UNL A   1      45.134  28.604  31.435  1.00  0.00     0.049 A 
ATOM     61  H   UNL A   1      44.354  26.926  32.407  1.00  0.00     0.167 HD
ATOM     62  C   UNL A   1      45.199  26.713  29.819  1.00  0.00     0.074 A 
ATOM     63  C   UNL A   1      44.783  25.571  30.626  1.00  0.00     0.031 C 
ATOM     64  C   UNL A   1      45.407  28.024  30.133  1.00  0.00     0.034 A 
BRANCH  51  65
ATOM     65  C   UNL A   1      42.864  27.043  34.955  1.00  0.00     0.023 A 
ATOM     66  C   UNL A   1      43.612  25.933  34.504  1.00  0.00     0.031 A 
ATOM     67  C   UNL A   1      42.045  26.807  36.082  1.00  0.00     0.131 A 
ATOM     68  C   UNL A   1      43.454  24.663  35.089  1.00  0.00     0.055 A 
ATOM     69  C   UNL A   1      41.930  25.553  36.691  1.00  0.00     0.041 A 
ATOM     70  F   UNL A   1      41.239  27.736  36.604  1.00  0.00    -0.206 F 
ATOM     71  C   UNL A   1      42.613  24.466  36.179  1.00  0.00     0.022 A 
BRANCH  68  72
ATOM     72  S   UNL A   1      44.248  23.238  34.301  1.00  0.00     0.124 S 
ATOM     73  O   UNL A   1      45.533  23.797  33.897  1.00  0.00    -0.237 OA
ATOM     74  O   UNL A   1      44.278  22.269  35.392  1.00  0.00    -0.237 OA
ATOM     75  O   UNL A   1      43.340  22.909  33.204  1.00  0.00    -0.744 OA
ENDBRANCH  68  72
ENDBRANCH  51  65
BRANCH  52  76
ATOM     76  C   UNL A   1      42.806  23.910  26.892  1.00  0.00     0.023 A 
ATOM     77  C   UNL A   1      43.834  23.272  26.153  1.00  0.00     0.031 A 
ATOM     78  C   UNL A   1      41.649  23.143  27.147  1.00  0.00     0.131 A 
ATOM     79  C   UNL A   1      43.686  21.926  25.724  1.00  0.00     0.055 A 
ATOM     80  C   UNL A   1      41.515  21.814  26.737  1.00  0.00     0.041 A 
ATOM     81  F   UNL A   1      40.649  23.637  27.895  1.00  0.00    -0.206 F 
ATOM     82  C   UNL A   1      42.538  21.195  26.034  1.00  0.00     0.022 A 
BRANCH  79  83
ATOM     83  S   UNL A   1      45.021  21.060  24.821  1.00  0.00     0.124 S 
ATOM     84  O   UNL A   1      44.841  19.676  25.243  1.00  0.00    -0.237 OA
ATOM     85  O   UNL A   1      44.712  21.361  23.428  1.00  0.00    -0.237 OA
ATOM     86  O   UNL A   1      46.243  21.693  25.322  1.00  0.00    -0.744 OA
ENDBRANCH  79  83
ENDBRANCH  52  76
BRANCH  64  87
ATOM     87  C   UNL A   1      45.860  28.935  29.018  1.00  0.00     0.023 A 
ATOM     88  C   UNL A   1      45.054  29.893  28.360  1.00  0.00     0.031 A 
ATOM     89  C   UNL A   1      47.205  28.831  28.628  1.00  0.00     0.131 A 
ATOM     90  C   UNL A   1      45.609  30.693  27.341  1.00  0.00     0.055 A 
ATOM     91  C   UNL A   1      47.755  29.639  27.639  1.00  0.00     0.041 A 
ATOM     92  F   UNL A   1      48.019  27.944  29.226  1.00  0.00    -0.206 F 
ATOM     93  C   UNL A   1      46.956  30.570  26.985  1.00  0.00     0.022 A 
BRANCH  90  94
ATOM     94  S   UNL A   1      44.579  31.892  26.431  1.00  0.00     0.124 S 
ATOM     95  O   UNL A   1      44.264  32.903  27.434  1.00  0.00    -0.237 OA
ATOM     96  O   UNL A   1      45.467  32.318  25.352  1.00  0.00    -0.237 OA
ATOM     97  O   UNL A   1      43.434  31.094  25.991  1.00  0.00    -0.744 OA
ENDBRANCH  90  94
ENDBRANCH  64  87
ENDBRANCH  38  39
ENDBRANCH  31  33
ENDBRANCH  30  31
ENDBRANCH  29  30
ENDBRANCH   1  29
TORSDOF 19
ENDMDL
