MODEL 1
REMARK VINA RESULT:     -12.2      0.000      0.000
REMARK SMILES C[C@H]1[C@H](C(=O)OCCOC(=O)c2ccc(-c3c4nc(c(-c5cc(S(=O)(=O)[O-])ccc5F)c5ccc([nH]5)c(-c5cc(S(=O)(=O)[O-])ccc5F)c5nc(c(-c6cc(S(=O)(=O)[O-])ccc6F)c6ccc3[nH]6)C=C5)C=C4)cc2)CCN1C(=O)Nc1ccc(F)c(Cl)c1
REMARK SMILES IDX 8 1 7 2 6 3 4 4 5 5 3 6 1 7 2 8 77 9 75 10 76 11 78 12 79 13
REMARK SMILES IDX 80 14 81 16 82 17 88 18 83 19 86 20 84 21 87 22 85 23 9 24
REMARK SMILES IDX 10 25 11 26 12 27 13 28 74 29 14 30 73 31 15 32 16 33 17 34
REMARK SMILES IDX 67 35 18 36 72 37 66 38 68 39 19 40 71 41 65 42 64 43 20 45
REMARK SMILES IDX 52 46 32 47 51 48 33 49 36 50 50 51 69 52 34 53 35 54 49 56
REMARK SMILES IDX 70 57 37 58 21 59 22 60 30 61 23 62 29 63 31 64 28 65 24 66
REMARK SMILES IDX 25 67 26 68 27 69 53 70 54 71 62 72 55 73 61 74 63 75 60 76
REMARK SMILES IDX 56 77 57 78 58 79 59 80 38 81 39 82 47 83 40 84 46 85 48 86
REMARK SMILES IDX 45 87 41 88 42 89 43 90 44 91
REMARK H PARENT 80 15 68 44 36 55
REMARK Flexibility Score: inf
ROOT
ATOM      1  C   UNL A   1      37.311  21.440  24.407  1.00  0.00     0.275 C 
ENDROOT
BRANCH   1   2
ATOM      2  C   UNL A   1      36.845  22.561  23.473  1.00  0.00     0.274 C 
BRANCH   2   3
ATOM      3  O   UNL A   1      36.041  23.542  24.157  1.00  0.00    -0.462 OA
BRANCH   3   4
ATOM      4  C   UNL A   1      34.737  23.603  23.784  1.00  0.00     0.311 C 
ATOM      5  O   UNL A   1      34.310  24.286  22.860  1.00  0.00    -0.252 OA
BRANCH   4   6
ATOM      6  C   UNL A   1      33.813  22.807  24.679  1.00  0.00     0.123 C 
ATOM      7  C   UNL A   1      33.757  22.989  27.197  1.00  0.00     0.032 C 
ATOM      8  C   UNL A   1      33.215  23.569  25.885  1.00  0.00     0.098 C 
ATOM      9  N   UNL A   1      31.761  23.386  25.766  1.00  0.00    -0.321 N 
ATOM     10  C   UNL A   1      32.624  22.309  23.862  1.00  0.00     0.039 C 
ATOM     11  C   UNL A   1      31.479  22.301  24.847  1.00  0.00     0.122 C 
BRANCH   9  12
ATOM     12  C   UNL A   1      30.727  23.877  26.517  1.00  0.00     0.322 C 
ATOM     13  O   UNL A   1      30.140  23.159  27.336  1.00  0.00    -0.248 OA
ATOM     14  N   UNL A   1      30.414  25.194  26.541  1.00  0.00    -0.308 N 
ATOM     15  H   UNL A   1      30.066  25.484  27.416  1.00  0.00     0.171 HD
BRANCH  14  16
ATOM     16  C   UNL A   1      30.470  26.236  25.612  1.00  0.00     0.044 A 
ATOM     17  C   UNL A   1      29.537  26.200  24.566  1.00  0.00     0.029 A 
ATOM     18  C   UNL A   1      31.443  27.236  25.636  1.00  0.00     0.049 A 
ATOM     19  C   UNL A   1      29.508  27.213  23.608  1.00  0.00     0.043 A 
ATOM     20  C   UNL A   1      31.437  28.228  24.650  1.00  0.00     0.078 A 
ATOM     21  C   UNL A   1      30.457  28.226  23.659  1.00  0.00     0.141 A 
ATOM     22  Cl  UNL A   1      32.681  29.422  24.640  1.00  0.00    -0.081 Cl
ATOM     23  F   UNL A   1      30.429  29.182  22.718  1.00  0.00    -0.205 F 
ENDBRANCH  14  16
ENDBRANCH   9  12
ENDBRANCH   4   6
ENDBRANCH   3   4
ENDBRANCH   2   3
ENDBRANCH   1   2
BRANCH   1  24
ATOM     24  O   UNL A   1      37.650  21.923  25.717  1.00  0.00    -0.458 OA
BRANCH  24  25
ATOM     25  C   UNL A   1      38.908  21.635  26.125  1.00  0.00     0.338 C 
ATOM     26  O   UNL A   1      39.520  20.593  25.968  1.00  0.00    -0.246 OA
BRANCH  25  27
ATOM     27  C   UNL A   1      39.518  22.834  26.705  1.00  0.00     0.060 A 
ATOM     28  C   UNL A   1      39.103  24.084  26.239  1.00  0.00     0.016 A 
ATOM     29  C   UNL A   1      40.553  22.722  27.631  1.00  0.00     0.016 A 
ATOM     30  C   UNL A   1      39.738  25.238  26.682  1.00  0.00     0.010 A 
ATOM     31  C   UNL A   1      41.171  23.882  28.097  1.00  0.00     0.010 A 
ATOM     32  C   UNL A   1      40.772  25.145  27.620  1.00  0.00    -0.014 A 
BRANCH  32  33
ATOM     33  C   UNL A   1      41.457  26.363  28.103  1.00  0.00     0.031 A 
ATOM     34  C   UNL A   1      40.677  27.405  28.846  1.00  0.00     0.074 A 
ATOM     35  C   UNL A   1      42.765  26.536  27.837  1.00  0.00     0.049 A 
ATOM     36  N   UNL A   1      41.020  28.624  29.167  1.00  0.00    -0.248 NA
ATOM     37  C   UNL A   1      39.325  27.022  29.277  1.00  0.00     0.031 C 
ATOM     38  C   UNL A   1      43.629  25.554  27.179  1.00  0.00     0.029 A 
ATOM     39  N   UNL A   1      43.589  27.608  28.066  1.00  0.00    -0.354 N 
ATOM     40  C   UNL A   1      39.917  29.169  29.811  1.00  0.00     0.074 A 
ATOM     41  C   UNL A   1      38.889  28.147  29.825  1.00  0.00     0.031 C 
ATOM     42  C   UNL A   1      44.857  26.076  27.039  1.00  0.00     0.029 A 
ATOM     43  C   UNL A   1      44.846  27.450  27.530  1.00  0.00     0.049 A 
ATOM     44  H   UNL A   1      43.309  28.409  28.563  1.00  0.00     0.167 HD
ATOM     45  C   UNL A   1      39.779  30.413  30.334  1.00  0.00     0.034 A 
ATOM     46  C   UNL A   1      45.853  28.336  27.398  1.00  0.00     0.034 A 
ATOM     47  C   UNL A   1      40.823  31.409  30.298  1.00  0.00     0.049 A 
ATOM     48  C   UNL A   1      45.651  29.739  27.907  1.00  0.00     0.074 A 
ATOM     49  C   UNL A   1      40.802  32.703  30.787  1.00  0.00     0.029 A 
ATOM     50  N   UNL A   1      42.079  31.220  29.733  1.00  0.00    -0.354 N 
ATOM     51  N   UNL A   1      44.590  30.263  28.477  1.00  0.00    -0.248 NA
ATOM     52  C   UNL A   1      46.775  30.671  27.752  1.00  0.00     0.031 C 
ATOM     53  C   UNL A   1      42.020  33.314  30.467  1.00  0.00     0.029 A 
ATOM     54  C   UNL A   1      42.830  32.380  29.840  1.00  0.00     0.049 A 
ATOM     55  H   UNL A   1      42.390  30.384  29.316  1.00  0.00     0.167 HD
ATOM     56  C   UNL A   1      44.930  31.577  28.776  1.00  0.00     0.074 A 
ATOM     57  C   UNL A   1      46.294  31.766  28.322  1.00  0.00     0.031 C 
ATOM     58  C   UNL A   1      44.189  32.540  29.379  1.00  0.00     0.034 A 
BRANCH  45  59
ATOM     59  C   UNL A   1      38.436  30.775  30.917  1.00  0.00     0.023 A 
ATOM     60  C   UNL A   1      37.427  31.375  30.145  1.00  0.00     0.031 A 
ATOM     61  C   UNL A   1      38.177  30.553  32.281  1.00  0.00     0.131 A 
ATOM     62  C   UNL A   1      36.234  31.794  30.754  1.00  0.00     0.055 A 
ATOM     63  C   UNL A   1      36.958  30.903  32.866  1.00  0.00     0.041 A 
ATOM     64  F   UNL A   1      39.111  30.006  33.075  1.00  0.00    -0.206 F 
ATOM     65  C   UNL A   1      35.983  31.541  32.105  1.00  0.00     0.022 A 
BRANCH  62  66
ATOM     66  S   UNL A   1      35.071  32.798  29.790  1.00  0.00     0.124 S 
ATOM     67  O   UNL A   1      34.174  33.295  30.832  1.00  0.00    -0.237 OA
ATOM     68  O   UNL A   1      35.945  33.789  29.173  1.00  0.00    -0.237 OA
ATOM     69  O   UNL A   1      34.469  31.837  28.869  1.00  0.00    -0.744 OA
ENDBRANCH  62  66
ENDBRANCH  45  59
BRANCH  46  70
ATOM     70  C   UNL A   1      47.107  27.942  26.698  1.00  0.00     0.023 A 
ATOM     71  C   UNL A   1      47.203  27.990  25.300  1.00  0.00     0.031 A 
ATOM     72  C   UNL A   1      48.227  27.492  27.423  1.00  0.00     0.131 A 
ATOM     73  C   UNL A   1      48.382  27.564  24.667  1.00  0.00     0.055 A 
ATOM     74  C   UNL A   1      49.413  27.117  26.792  1.00  0.00     0.041 A 
ATOM     75  F   UNL A   1      48.187  27.429  28.764  1.00  0.00    -0.206 F 
ATOM     76  C   UNL A   1      49.491  27.142  25.403  1.00  0.00     0.022 A 
BRANCH  73  77
ATOM     77  S   UNL A   1      48.421  27.505  22.854  1.00  0.00     0.124 S 
ATOM     78  O   UNL A   1      47.212  28.243  22.507  1.00  0.00    -0.237 OA
ATOM     79  O   UNL A   1      49.686  28.170  22.557  1.00  0.00    -0.237 OA
ATOM     80  O   UNL A   1      48.386  26.075  22.559  1.00  0.00    -0.744 OA
ENDBRANCH  73  77
ENDBRANCH  46  70
BRANCH  58  81
ATOM     81  C   UNL A   1      44.866  33.859  29.642  1.00  0.00     0.023 A 
ATOM     82  C   UNL A   1      44.883  34.887  28.685  1.00  0.00     0.031 A 
ATOM     83  C   UNL A   1      45.489  34.088  30.881  1.00  0.00     0.131 A 
ATOM     84  C   UNL A   1      45.542  36.092  28.973  1.00  0.00     0.055 A 
ATOM     85  C   UNL A   1      46.104  35.303  31.179  1.00  0.00     0.041 A 
ATOM     86  F   UNL A   1      45.498  33.134  31.826  1.00  0.00    -0.206 F 
ATOM     87  C   UNL A   1      46.139  36.311  30.220  1.00  0.00     0.022 A 
BRANCH  84  88
ATOM     88  S   UNL A   1      45.650  37.361  27.682  1.00  0.00     0.124 S 
ATOM     89  O   UNL A   1      44.345  37.249  27.040  1.00  0.00    -0.237 OA
ATOM     90  O   UNL A   1      45.877  38.578  28.455  1.00  0.00    -0.237 OA
ATOM     91  O   UNL A   1      46.783  36.927  26.868  1.00  0.00    -0.744 OA
ENDBRANCH  84  88
ENDBRANCH  58  81
ENDBRANCH  32  33
ENDBRANCH  25  27
ENDBRANCH  24  25
ENDBRANCH   1  24
TORSDOF 16
ENDMDL
MODEL 2
REMARK VINA RESULT:     -12.2      5.219      9.939
REMARK SMILES C[C@H]1[C@H](C(=O)OCCOC(=O)c2ccc(-c3c4nc(c(-c5cc(S(=O)(=O)[O-])ccc5F)c5ccc([nH]5)c(-c5cc(S(=O)(=O)[O-])ccc5F)c5nc(c(-c6cc(S(=O)(=O)[O-])ccc6F)c6ccc3[nH]6)C=C5)C=C4)cc2)CCN1C(=O)Nc1ccc(F)c(Cl)c1
REMARK SMILES IDX 8 1 7 2 6 3 4 4 5 5 3 6 1 7 2 8 77 9 75 10 76 11 78 12 79 13
REMARK SMILES IDX 80 14 81 16 82 17 88 18 83 19 86 20 84 21 87 22 85 23 9 24
REMARK SMILES IDX 10 25 11 26 12 27 13 28 74 29 14 30 73 31 15 32 16 33 17 34
REMARK SMILES IDX 67 35 18 36 72 37 66 38 68 39 19 40 71 41 65 42 64 43 20 45
REMARK SMILES IDX 52 46 32 47 51 48 33 49 36 50 50 51 69 52 34 53 35 54 49 56
REMARK SMILES IDX 70 57 37 58 21 59 22 60 30 61 23 62 29 63 31 64 28 65 24 66
REMARK SMILES IDX 25 67 26 68 27 69 53 70 54 71 62 72 55 73 61 74 63 75 60 76
REMARK SMILES IDX 56 77 57 78 58 79 59 80 38 81 39 82 47 83 40 84 46 85 48 86
REMARK SMILES IDX 45 87 41 88 42 89 43 90 44 91
REMARK H PARENT 80 15 68 44 36 55
REMARK Flexibility Score: inf
ROOT
ATOM      1  C   UNL A   1      31.561  30.164  25.734  1.00  0.00     0.275 C 
ENDROOT
BRANCH   1   2
ATOM      2  C   UNL A   1      31.344  29.403  24.423  1.00  0.00     0.274 C 
BRANCH   2   3
ATOM      3  O   UNL A   1      30.832  28.074  24.641  1.00  0.00    -0.462 OA
BRANCH   3   4
ATOM      4  C   UNL A   1      30.806  27.263  23.552  1.00  0.00     0.311 C 
ATOM      5  O   UNL A   1      30.195  27.508  22.518  1.00  0.00    -0.252 OA
BRANCH   4   6
ATOM      6  C   UNL A   1      31.541  25.957  23.753  1.00  0.00     0.123 C 
ATOM      7  C   UNL A   1      33.282  25.557  25.539  1.00  0.00     0.032 C 
ATOM      8  C   UNL A   1      31.782  25.533  25.221  1.00  0.00     0.098 C 
ATOM      9  N   UNL A   1      31.224  24.176  25.322  1.00  0.00    -0.321 N 
ATOM     10  C   UNL A   1      30.743  24.824  23.113  1.00  0.00     0.039 C 
ATOM     11  C   UNL A   1      31.027  23.631  23.993  1.00  0.00     0.122 C 
BRANCH   9  12
ATOM     12  C   UNL A   1      31.106  23.328  26.389  1.00  0.00     0.322 C 
ATOM     13  O   UNL A   1      30.248  23.518  27.260  1.00  0.00    -0.248 OA
ATOM     14  N   UNL A   1      31.781  22.156  26.459  1.00  0.00    -0.308 N 
ATOM     15  H   UNL A   1      31.276  21.455  26.931  1.00  0.00     0.171 HD
BRANCH  14  16
ATOM     16  C   UNL A   1      33.030  21.713  26.015  1.00  0.00     0.044 A 
ATOM     17  C   UNL A   1      33.070  20.454  25.400  1.00  0.00     0.029 A 
ATOM     18  C   UNL A   1      34.216  22.417  26.227  1.00  0.00     0.049 A 
ATOM     19  C   UNL A   1      34.272  19.946  24.907  1.00  0.00     0.043 A 
ATOM     20  C   UNL A   1      35.425  21.886  25.768  1.00  0.00     0.078 A 
ATOM     21  C   UNL A   1      35.444  20.668  25.090  1.00  0.00     0.141 A 
ATOM     22  Cl  UNL A   1      36.898  22.722  26.092  1.00  0.00    -0.081 Cl
ATOM     23  F   UNL A   1      36.594  20.156  24.627  1.00  0.00    -0.205 F 
ENDBRANCH  14  16
ENDBRANCH   9  12
ENDBRANCH   4   6
ENDBRANCH   3   4
ENDBRANCH   2   3
ENDBRANCH   1   2
BRANCH   1  24
ATOM     24  O   UNL A   1      32.951  30.280  26.077  1.00  0.00    -0.458 OA
BRANCH  24  25
ATOM     25  C   UNL A   1      33.244  31.281  26.941  1.00  0.00     0.338 C 
ATOM     26  O   UNL A   1      32.538  32.223  27.255  1.00  0.00    -0.246 OA
BRANCH  25  27
ATOM     27  C   UNL A   1      34.539  31.013  27.572  1.00  0.00     0.060 A 
ATOM     28  C   UNL A   1      34.798  29.722  28.039  1.00  0.00     0.016 A 
ATOM     29  C   UNL A   1      35.447  32.049  27.786  1.00  0.00     0.016 A 
ATOM     30  C   UNL A   1      35.966  29.459  28.745  1.00  0.00     0.010 A 
ATOM     31  C   UNL A   1      36.632  31.777  28.469  1.00  0.00     0.010 A 
ATOM     32  C   UNL A   1      36.894  30.483  28.958  1.00  0.00    -0.014 A 
BRANCH  32  33
ATOM     33  C   UNL A   1      38.142  30.219  29.706  1.00  0.00     0.031 A 
ATOM     34  C   UNL A   1      39.160  29.277  29.137  1.00  0.00     0.074 A 
ATOM     35  C   UNL A   1      38.331  30.800  30.905  1.00  0.00     0.049 A 
ATOM     36  N   UNL A   1      40.206  28.745  29.710  1.00  0.00    -0.248 NA
ATOM     37  C   UNL A   1      38.965  28.876  27.737  1.00  0.00     0.031 C 
ATOM     38  C   UNL A   1      37.433  31.782  31.516  1.00  0.00     0.029 A 
ATOM     39  N   UNL A   1      39.327  30.632  31.833  1.00  0.00    -0.354 N 
ATOM     40  C   UNL A   1      40.782  27.920  28.751  1.00  0.00     0.074 A 
ATOM     41  C   UNL A   1      39.958  28.016  27.563  1.00  0.00     0.031 C 
ATOM     42  C   UNL A   1      37.909  32.114  32.727  1.00  0.00     0.029 A 
ATOM     43  C   UNL A   1      39.100  31.318  33.003  1.00  0.00     0.049 A 
ATOM     44  H   UNL A   1      40.124  30.076  31.677  1.00  0.00     0.167 HD
ATOM     45  C   UNL A   1      41.892  27.149  28.864  1.00  0.00     0.034 A 
ATOM     46  C   UNL A   1      39.746  31.262  34.184  1.00  0.00     0.034 A 
ATOM     47  C   UNL A   1      42.687  27.073  30.066  1.00  0.00     0.049 A 
ATOM     48  C   UNL A   1      40.926  30.335  34.317  1.00  0.00     0.074 A 
ATOM     49  C   UNL A   1      43.827  26.325  30.305  1.00  0.00     0.029 A 
ATOM     50  N   UNL A   1      42.418  27.769  31.239  1.00  0.00    -0.354 N 
ATOM     51  N   UNL A   1      41.440  29.524  33.422  1.00  0.00    -0.248 NA
ATOM     52  C   UNL A   1      41.608  30.309  35.617  1.00  0.00     0.031 C 
ATOM     53  C   UNL A   1      44.212  26.524  31.636  1.00  0.00     0.029 A 
ATOM     54  C   UNL A   1      43.355  27.450  32.209  1.00  0.00     0.049 A 
ATOM     55  H   UNL A   1      41.670  28.397  31.363  1.00  0.00     0.167 HD
ATOM     56  C   UNL A   1      42.525  28.914  34.041  1.00  0.00     0.074 A 
ATOM     57  C   UNL A   1      42.591  29.451  35.386  1.00  0.00     0.031 C 
ATOM     58  C   UNL A   1      43.396  28.001  33.543  1.00  0.00     0.034 A 
BRANCH  45  59
ATOM     59  C   UNL A   1      42.258  26.284  27.684  1.00  0.00     0.023 A 
ATOM     60  C   UNL A   1      41.809  24.957  27.567  1.00  0.00     0.031 A 
ATOM     61  C   UNL A   1      43.104  26.784  26.679  1.00  0.00     0.131 A 
ATOM     62  C   UNL A   1      42.263  24.155  26.507  1.00  0.00     0.055 A 
ATOM     63  C   UNL A   1      43.492  26.005  25.587  1.00  0.00     0.041 A 
ATOM     64  F   UNL A   1      43.584  28.035  26.749  1.00  0.00    -0.206 F 
ATOM     65  C   UNL A   1      43.083  24.677  25.504  1.00  0.00     0.022 A 
BRANCH  62  66
ATOM     66  S   UNL A   1      41.881  22.382  26.534  1.00  0.00     0.124 S 
ATOM     67  O   UNL A   1      40.419  22.395  26.504  1.00  0.00    -0.237 OA
ATOM     68  O   UNL A   1      42.540  21.898  25.327  1.00  0.00    -0.237 OA
ATOM     69  O   UNL A   1      42.466  21.923  27.792  1.00  0.00    -0.744 OA
ENDBRANCH  62  66
ENDBRANCH  45  59
BRANCH  46  70
ATOM     70  C   UNL A   1      39.251  32.053  35.345  1.00  0.00     0.023 A 
ATOM     71  C   UNL A   1      39.711  33.356  35.584  1.00  0.00     0.031 A 
ATOM     72  C   UNL A   1      38.320  31.505  36.247  1.00  0.00     0.131 A 
ATOM     73  C   UNL A   1      39.264  34.057  36.716  1.00  0.00     0.055 A 
ATOM     74  C   UNL A   1      37.842  32.223  37.342  1.00  0.00     0.041 A 
ATOM     75  F   UNL A   1      37.847  30.261  36.063  1.00  0.00    -0.206 F 
ATOM     76  C   UNL A   1      38.322  33.505  37.588  1.00  0.00     0.022 A 
BRANCH  73  77
ATOM     77  S   UNL A   1      39.986  35.682  37.071  1.00  0.00     0.124 S 
ATOM     78  O   UNL A   1      39.279  36.062  38.288  1.00  0.00    -0.237 OA
ATOM     79  O   UNL A   1      41.401  35.359  37.225  1.00  0.00    -0.237 OA
ATOM     80  O   UNL A   1      39.654  36.469  35.885  1.00  0.00    -0.744 OA
ENDBRANCH  73  77
ENDBRANCH  46  70
BRANCH  58  81
ATOM     81  C   UNL A   1      44.532  27.581  34.439  1.00  0.00     0.023 A 
ATOM     82  C   UNL A   1      44.429  26.474  35.297  1.00  0.00     0.031 A 
ATOM     83  C   UNL A   1      45.741  28.299  34.413  1.00  0.00     0.131 A 
ATOM     84  C   UNL A   1      45.511  26.135  36.123  1.00  0.00     0.055 A 
ATOM     85  C   UNL A   1      46.828  27.930  35.204  1.00  0.00     0.041 A 
ATOM     86  F   UNL A   1      45.885  29.364  33.609  1.00  0.00    -0.206 F 
ATOM     87  C   UNL A   1      46.714  26.847  36.071  1.00  0.00     0.022 A 
BRANCH  84  88
ATOM     88  S   UNL A   1      45.315  24.773  37.305  1.00  0.00     0.124 S 
ATOM     89  O   UNL A   1      45.019  23.649  36.424  1.00  0.00    -0.237 OA
ATOM     90  O   UNL A   1      46.616  24.740  37.966  1.00  0.00    -0.237 OA
ATOM     91  O   UNL A   1      44.205  25.209  38.150  1.00  0.00    -0.744 OA
ENDBRANCH  84  88
ENDBRANCH  58  81
ENDBRANCH  32  33
ENDBRANCH  25  27
ENDBRANCH  24  25
ENDBRANCH   1  24
TORSDOF 16
ENDMDL
MODEL 3
REMARK VINA RESULT:     -12.1      1.408      1.634
REMARK SMILES C[C@H]1[C@H](C(=O)OCCOC(=O)c2ccc(-c3c4nc(c(-c5cc(S(=O)(=O)[O-])ccc5F)c5ccc([nH]5)c(-c5cc(S(=O)(=O)[O-])ccc5F)c5nc(c(-c6cc(S(=O)(=O)[O-])ccc6F)c6ccc3[nH]6)C=C5)C=C4)cc2)CCN1C(=O)Nc1ccc(F)c(Cl)c1
REMARK SMILES IDX 8 1 7 2 6 3 4 4 5 5 3 6 1 7 2 8 77 9 75 10 76 11 78 12 79 13
REMARK SMILES IDX 80 14 81 16 82 17 88 18 83 19 86 20 84 21 87 22 85 23 9 24
REMARK SMILES IDX 10 25 11 26 12 27 13 28 74 29 14 30 73 31 15 32 16 33 17 34
REMARK SMILES IDX 67 35 18 36 72 37 66 38 68 39 19 40 71 41 65 42 64 43 20 45
REMARK SMILES IDX 52 46 32 47 51 48 33 49 36 50 50 51 69 52 34 53 35 54 49 56
REMARK SMILES IDX 70 57 37 58 21 59 22 60 30 61 23 62 29 63 31 64 28 65 24 66
REMARK SMILES IDX 25 67 26 68 27 69 53 70 54 71 62 72 55 73 61 74 63 75 60 76
REMARK SMILES IDX 56 77 57 78 58 79 59 80 38 81 39 82 47 83 40 84 46 85 48 86
REMARK SMILES IDX 45 87 41 88 42 89 43 90 44 91
REMARK H PARENT 80 15 68 44 36 55
REMARK Flexibility Score: inf
ROOT
ATOM      1  C   UNL A   1      36.633  21.342  24.456  1.00  0.00     0.275 C 
ENDROOT
BRANCH   1   2
ATOM      2  C   UNL A   1      36.662  22.564  23.533  1.00  0.00     0.274 C 
BRANCH   2   3
ATOM      3  O   UNL A   1      35.620  23.509  23.846  1.00  0.00    -0.462 OA
BRANCH   3   4
ATOM      4  C   UNL A   1      34.422  23.292  23.243  1.00  0.00     0.311 C 
ATOM      5  O   UNL A   1      34.125  23.695  22.124  1.00  0.00    -0.252 OA
BRANCH   4   6
ATOM      6  C   UNL A   1      33.425  22.569  24.120  1.00  0.00     0.123 C 
ATOM      7  C   UNL A   1      33.686  22.246  26.611  1.00  0.00     0.032 C 
ATOM      8  C   UNL A   1      33.175  23.189  25.515  1.00  0.00     0.098 C 
ATOM      9  N   UNL A   1      31.719  23.377  25.592  1.00  0.00    -0.321 N 
ATOM     10  C   UNL A   1      32.068  22.537  23.423  1.00  0.00     0.039 C 
ATOM     11  C   UNL A   1      31.071  22.596  24.555  1.00  0.00     0.122 C 
BRANCH   9  12
ATOM     12  C   UNL A   1      30.932  23.933  26.564  1.00  0.00     0.322 C 
ATOM     13  O   UNL A   1      30.433  23.233  27.454  1.00  0.00    -0.248 OA
ATOM     14  N   UNL A   1      30.806  25.272  26.714  1.00  0.00    -0.308 N 
ATOM     15  H   UNL A   1      30.684  25.539  27.654  1.00  0.00     0.171 HD
BRANCH  14  16
ATOM     16  C   UNL A   1      30.811  26.364  25.841  1.00  0.00     0.044 A 
ATOM     17  C   UNL A   1      29.885  26.335  24.789  1.00  0.00     0.029 A 
ATOM     18  C   UNL A   1      31.729  27.413  25.926  1.00  0.00     0.049 A 
ATOM     19  C   UNL A   1      29.806  27.396  23.887  1.00  0.00     0.043 A 
ATOM     20  C   UNL A   1      31.674  28.454  24.995  1.00  0.00     0.078 A 
ATOM     21  C   UNL A   1      30.699  28.454  23.998  1.00  0.00     0.141 A 
ATOM     22  Cl  UNL A   1      32.851  29.712  25.057  1.00  0.00    -0.081 Cl
ATOM     23  F   UNL A   1      30.623  29.456  23.109  1.00  0.00    -0.205 F 
ENDBRANCH  14  16
ENDBRANCH   9  12
ENDBRANCH   4   6
ENDBRANCH   3   4
ENDBRANCH   2   3
ENDBRANCH   1   2
BRANCH   1  24
ATOM     24  O   UNL A   1      37.165  21.627  25.759  1.00  0.00    -0.458 OA
BRANCH  24  25
ATOM     25  C   UNL A   1      38.475  21.323  25.920  1.00  0.00     0.338 C 
ATOM     26  O   UNL A   1      39.051  20.308  25.569  1.00  0.00    -0.246 OA
BRANCH  25  27
ATOM     27  C   UNL A   1      39.175  22.475  26.494  1.00  0.00     0.060 A 
ATOM     28  C   UNL A   1      38.754  23.757  26.132  1.00  0.00     0.016 A 
ATOM     29  C   UNL A   1      40.293  22.289  27.304  1.00  0.00     0.016 A 
ATOM     30  C   UNL A   1      39.465  24.871  26.565  1.00  0.00     0.010 A 
ATOM     31  C   UNL A   1      40.988  23.408  27.762  1.00  0.00     0.010 A 
ATOM     32  C   UNL A   1      40.582  24.703  27.388  1.00  0.00    -0.014 A 
BRANCH  32  33
ATOM     33  C   UNL A   1      41.349  25.878  27.859  1.00  0.00     0.031 A 
ATOM     34  C   UNL A   1      40.656  26.944  28.652  1.00  0.00     0.074 A 
ATOM     35  C   UNL A   1      42.651  25.990  27.537  1.00  0.00     0.049 A 
ATOM     36  N   UNL A   1      41.074  28.138  28.976  1.00  0.00    -0.248 NA
ATOM     37  C   UNL A   1      39.306  26.621  29.137  1.00  0.00     0.031 C 
ATOM     38  C   UNL A   1      43.434  24.978  26.827  1.00  0.00     0.029 A 
ATOM     39  N   UNL A   1      43.537  27.015  27.745  1.00  0.00    -0.354 N 
ATOM     40  C   UNL A   1      40.029  28.726  29.678  1.00  0.00     0.074 A 
ATOM     41  C   UNL A   1      38.953  27.756  29.721  1.00  0.00     0.031 C 
ATOM     42  C   UNL A   1      44.680  25.441  26.640  1.00  0.00     0.029 A 
ATOM     43  C   UNL A   1      44.760  26.805  27.151  1.00  0.00     0.049 A 
ATOM     44  H   UNL A   1      43.320  27.821  28.267  1.00  0.00     0.167 HD
ATOM     45  C   UNL A   1      39.977  29.966  30.225  1.00  0.00     0.034 A 
ATOM     46  C   UNL A   1      45.804  27.642  26.987  1.00  0.00     0.034 A 
ATOM     47  C   UNL A   1      41.067  30.909  30.157  1.00  0.00     0.049 A 
ATOM     48  C   UNL A   1      45.695  29.044  27.527  1.00  0.00     0.074 A 
ATOM     49  C   UNL A   1      41.132  32.194  30.666  1.00  0.00     0.029 A 
ATOM     50  N   UNL A   1      42.285  30.669  29.533  1.00  0.00    -0.354 N 
ATOM     51  N   UNL A   1      44.688  29.610  28.152  1.00  0.00    -0.248 NA
ATOM     52  C   UNL A   1      46.856  29.922  27.335  1.00  0.00     0.031 C 
ATOM     53  C   UNL A   1      42.364  32.750  30.301  1.00  0.00     0.029 A 
ATOM     54  C   UNL A   1      43.098  31.787  29.624  1.00  0.00     0.049 A 
ATOM     55  H   UNL A   1      42.535  29.826  29.091  1.00  0.00     0.167 HD
ATOM     56  C   UNL A   1      45.106  30.901  28.455  1.00  0.00     0.074 A 
ATOM     57  C   UNL A   1      46.457  31.030  27.943  1.00  0.00     0.031 C 
ATOM     58  C   UNL A   1      44.441  31.888  29.105  1.00  0.00     0.034 A 
BRANCH  45  59
ATOM     59  C   UNL A   1      38.681  30.384  30.873  1.00  0.00     0.023 A 
ATOM     60  C   UNL A   1      37.646  30.992  30.142  1.00  0.00     0.031 A 
ATOM     61  C   UNL A   1      38.495  30.207  32.256  1.00  0.00     0.131 A 
ATOM     62  C   UNL A   1      36.502  31.463  30.807  1.00  0.00     0.055 A 
ATOM     63  C   UNL A   1      37.323  30.609  32.899  1.00  0.00     0.041 A 
ATOM     64  F   UNL A   1      39.458  29.655  33.010  1.00  0.00    -0.206 F 
ATOM     65  C   UNL A   1      36.324  31.255  32.177  1.00  0.00     0.022 A 
BRANCH  62  66
ATOM     66  S   UNL A   1      35.314  32.475  29.882  1.00  0.00     0.124 S 
ATOM     67  O   UNL A   1      34.297  32.739  30.897  1.00  0.00    -0.237 OA
ATOM     68  O   UNL A   1      36.122  33.618  29.474  1.00  0.00    -0.237 OA
ATOM     69  O   UNL A   1      34.885  31.595  28.797  1.00  0.00    -0.744 OA
ENDBRANCH  62  66
ENDBRANCH  45  59
BRANCH  46  70
ATOM     70  C   UNL A   1      47.004  27.199  26.226  1.00  0.00     0.023 A 
ATOM     71  C   UNL A   1      48.064  26.538  26.863  1.00  0.00     0.031 A 
ATOM     72  C   UNL A   1      47.116  27.449  24.845  1.00  0.00     0.131 A 
ATOM     73  C   UNL A   1      49.205  26.178  26.128  1.00  0.00     0.055 A 
ATOM     74  C   UNL A   1      48.229  27.046  24.109  1.00  0.00     0.041 A 
ATOM     75  F   UNL A   1      46.128  28.078  24.187  1.00  0.00    -0.206 F 
ATOM     76  C   UNL A   1      49.288  26.415  24.753  1.00  0.00     0.022 A 
BRANCH  73  77
ATOM     77  S   UNL A   1      50.613  25.453  27.010  1.00  0.00     0.124 S 
ATOM     78  O   UNL A   1      51.531  25.160  25.916  1.00  0.00    -0.237 OA
ATOM     79  O   UNL A   1      51.004  26.540  27.902  1.00  0.00    -0.237 OA
ATOM     80  O   UNL A   1      50.036  24.285  27.671  1.00  0.00    -0.744 OA
ENDBRANCH  73  77
ENDBRANCH  46  70
BRANCH  58  81
ATOM     81  C   UNL A   1      45.195  33.167  29.357  1.00  0.00     0.023 A 
ATOM     82  C   UNL A   1      45.134  34.252  28.467  1.00  0.00     0.031 A 
ATOM     83  C   UNL A   1      45.973  33.300  30.521  1.00  0.00     0.131 A 
ATOM     84  C   UNL A   1      45.869  35.415  28.740  1.00  0.00     0.055 A 
ATOM     85  C   UNL A   1      46.665  34.475  30.810  1.00  0.00     0.041 A 
ATOM     86  F   UNL A   1      46.062  32.290  31.401  1.00  0.00    -0.206 F 
ATOM     87  C   UNL A   1      46.621  35.539  29.913  1.00  0.00     0.022 A 
BRANCH  84  88
ATOM     88  S   UNL A   1      45.866  36.758  27.521  1.00  0.00     0.124 S 
ATOM     89  O   UNL A   1      46.218  37.912  28.342  1.00  0.00    -0.237 OA
ATOM     90  O   UNL A   1      46.881  36.321  26.567  1.00  0.00    -0.237 OA
ATOM     91  O   UNL A   1      44.497  36.754  27.010  1.00  0.00    -0.744 OA
ENDBRANCH  84  88
ENDBRANCH  58  81
ENDBRANCH  32  33
ENDBRANCH  25  27
ENDBRANCH  24  25
ENDBRANCH   1  24
TORSDOF 16
ENDMDL
