MODEL 1
REMARK VINA RESULT:     -12.2      0.000      0.000
REMARK SMILES O=C(OCCOC(=O)c1cc(S(=O)(=O)Nc2ccccc2-n2cc(Br)cn2)c[nH]1)c1ccc(-c2c3nc(c(-c4cc(S(=O)(=O)[O-])ccc4F)c4ccc([nH]4)c(-c4cc(S(=O)(=O)[O-])ccc4F)c4nc(c(-c5cc(S(=O)(=O)[O-])ccc5F)c5ccc2[nH]5)C=C4)C=C3)cc1
REMARK SMILES IDX 5 1 4 2 3 3 2 4 1 5 30 6 31 7 92 8 32 9 91 10 33 11 34 12
REMARK SMILES IDX 35 13 85 14 36 15 90 16 84 17 86 18 37 19 89 20 83 21 82 22
REMARK SMILES IDX 38 24 70 25 50 26 69 27 51 28 54 29 68 30 87 31 52 32 53 33
REMARK SMILES IDX 67 35 88 36 55 37 39 38 40 39 48 40 41 41 47 42 49 43 46 44
REMARK SMILES IDX 42 45 43 46 44 47 45 48 71 49 72 50 80 51 73 52 79 53 81 54
REMARK SMILES IDX 78 55 74 56 75 57 76 58 77 59 56 60 57 61 65 62 58 63 64 64
REMARK SMILES IDX 66 65 63 66 59 67 60 68 61 69 62 70 6 71 7 72 8 73 9 74
REMARK SMILES IDX 10 75 29 76 11 77 28 78 12 80 13 81 14 82 15 83 16 85 17 86
REMARK SMILES IDX 21 87 18 88 20 89 19 90 22 91 23 92 27 93 24 94 26 95 25 96
REMARK H PARENT 86 23 54 34 29 79 15 84
REMARK Flexibility Score: inf
ROOT
ATOM      1  C   UNL A   1      33.159  30.042  25.912  1.00  0.00     0.275 C 
ENDROOT
BRANCH   1   2
ATOM      2  C   UNL A   1      33.621  30.251  27.360  1.00  0.00     0.275 C 
BRANCH   2   3
ATOM      3  O   UNL A   1      34.916  29.660  27.606  1.00  0.00    -0.458 OA
BRANCH   3   4
ATOM      4  C   UNL A   1      35.960  30.248  28.238  1.00  0.00     0.338 C 
ATOM      5  O   UNL A   1      35.819  31.311  28.838  1.00  0.00    -0.246 OA
BRANCH   4   6
ATOM      6  C   UNL A   1      37.252  29.538  28.393  1.00  0.00     0.060 A 
ATOM      7  C   UNL A   1      38.373  29.751  27.591  1.00  0.00     0.016 A 
ATOM      8  C   UNL A   1      37.356  28.689  29.511  1.00  0.00     0.016 A 
ATOM      9  C   UNL A   1      39.551  29.060  27.847  1.00  0.00     0.010 A 
ATOM     10  C   UNL A   1      38.547  28.025  29.794  1.00  0.00     0.010 A 
ATOM     11  C   UNL A   1      39.642  28.202  28.948  1.00  0.00    -0.014 A 
BRANCH  11  12
ATOM     12  C   UNL A   1      40.965  27.604  29.229  1.00  0.00     0.031 A 
ATOM     13  C   UNL A   1      41.300  26.469  28.249  1.00  0.00     0.074 A 
ATOM     14  C   UNL A   1      41.610  28.039  30.352  1.00  0.00     0.049 A 
ATOM     15  N   UNL A   1      41.831  25.305  28.474  1.00  0.00    -0.248 NA
ATOM     16  C   UNL A   1      40.844  26.589  26.838  1.00  0.00     0.031 C 
ATOM     17  C   UNL A   1      41.148  29.157  31.208  1.00  0.00     0.029 A 
ATOM     18  N   UNL A   1      42.750  27.640  31.018  1.00  0.00    -0.354 N 
ATOM     19  C   UNL A   1      41.979  24.657  27.224  1.00  0.00     0.074 A 
ATOM     20  C   UNL A   1      41.214  25.429  26.289  1.00  0.00     0.031 C 
ATOM     21  C   UNL A   1      41.941  29.295  32.293  1.00  0.00     0.029 A 
ATOM     22  C   UNL A   1      42.987  28.294  32.256  1.00  0.00     0.049 A 
ATOM     23  H   UNL A   1      43.355  26.951  30.660  1.00  0.00     0.167 HD
ATOM     24  C   UNL A   1      42.843  23.617  27.014  1.00  0.00     0.034 A 
ATOM     25  C   UNL A   1      43.923  28.019  33.218  1.00  0.00     0.034 A 
ATOM     26  C   UNL A   1      43.555  23.332  28.217  1.00  0.00     0.049 A 
ATOM     27  C   UNL A   1      44.719  26.902  32.684  1.00  0.00     0.074 A 
ATOM     28  C   UNL A   1      43.244  22.707  29.392  1.00  0.00     0.029 A 
ATOM     29  N   UNL A   1      44.786  23.932  28.351  1.00  0.00    -0.354 N 
ATOM     30  N   UNL A   1      45.610  26.996  31.746  1.00  0.00    -0.248 NA
ATOM     31  C   UNL A   1      44.448  25.548  33.188  1.00  0.00     0.031 C 
ATOM     32  C   UNL A   1      44.108  23.303  30.336  1.00  0.00     0.029 A 
ATOM     33  C   UNL A   1      44.959  24.204  29.683  1.00  0.00     0.049 A 
ATOM     34  H   UNL A   1      45.423  24.127  27.626  1.00  0.00     0.167 HD
ATOM     35  C   UNL A   1      45.782  25.690  31.356  1.00  0.00     0.074 A 
ATOM     36  C   UNL A   1      45.327  24.870  32.455  1.00  0.00     0.031 C 
ATOM     37  C   UNL A   1      45.749  25.369  30.038  1.00  0.00     0.034 A 
BRANCH  24  38
ATOM     38  C   UNL A   1      43.363  22.917  25.774  1.00  0.00     0.023 A 
ATOM     39  C   UNL A   1      43.339  21.495  25.800  1.00  0.00     0.031 A 
ATOM     40  C   UNL A   1      44.121  23.496  24.751  1.00  0.00     0.131 A 
ATOM     41  C   UNL A   1      44.145  20.722  24.954  1.00  0.00     0.055 A 
ATOM     42  C   UNL A   1      44.870  22.717  23.852  1.00  0.00     0.041 A 
ATOM     43  F   UNL A   1      44.243  24.825  24.630  1.00  0.00    -0.206 F 
ATOM     44  C   UNL A   1      44.918  21.328  23.974  1.00  0.00     0.022 A 
BRANCH  41  45
ATOM     45  S   UNL A   1      44.297  18.943  25.297  1.00  0.00     0.124 S 
ATOM     46  O   UNL A   1      45.696  18.820  25.690  1.00  0.00    -0.237 OA
ATOM     47  O   UNL A   1      43.317  18.750  26.361  1.00  0.00    -0.237 OA
ATOM     48  O   UNL A   1      43.954  18.320  24.020  1.00  0.00    -0.744 OA
ENDBRANCH  41  45
ENDBRANCH  24  38
BRANCH  25  49
ATOM     49  C   UNL A   1      44.254  28.469  34.633  1.00  0.00     0.023 A 
ATOM     50  C   UNL A   1      44.309  27.646  35.770  1.00  0.00     0.031 A 
ATOM     51  C   UNL A   1      44.562  29.844  34.883  1.00  0.00     0.131 A 
ATOM     52  C   UNL A   1      44.717  28.177  37.026  1.00  0.00     0.055 A 
ATOM     53  C   UNL A   1      45.024  30.345  36.099  1.00  0.00     0.041 A 
ATOM     54  F   UNL A   1      44.427  30.791  33.946  1.00  0.00    -0.206 F 
ATOM     55  C   UNL A   1      45.118  29.505  37.182  1.00  0.00     0.022 A 
BRANCH  52  56
ATOM     56  S   UNL A   1      44.763  27.147  38.523  1.00  0.00     0.124 S 
ATOM     57  O   UNL A   1      44.833  28.153  39.579  1.00  0.00    -0.237 OA
ATOM     58  O   UNL A   1      43.518  26.389  38.442  1.00  0.00    -0.237 OA
ATOM     59  O   UNL A   1      45.978  26.355  38.338  1.00  0.00    -0.744 OA
ENDBRANCH  52  56
ENDBRANCH  25  49
BRANCH  37  60
ATOM     60  C   UNL A   1      46.122  26.525  29.111  1.00  0.00     0.023 A 
ATOM     61  C   UNL A   1      45.125  27.291  28.478  1.00  0.00     0.031 A 
ATOM     62  C   UNL A   1      47.446  26.807  28.730  1.00  0.00     0.131 A 
ATOM     63  C   UNL A   1      45.464  28.256  27.508  1.00  0.00     0.055 A 
ATOM     64  C   UNL A   1      47.790  27.777  27.783  1.00  0.00     0.041 A 
ATOM     65  F   UNL A   1      48.463  26.128  29.252  1.00  0.00    -0.206 F 
ATOM     66  C   UNL A   1      46.792  28.507  27.159  1.00  0.00     0.022 A 
BRANCH  63  67
ATOM     67  S   UNL A   1      44.148  29.208  26.700  1.00  0.00     0.124 S 
ATOM     68  O   UNL A   1      43.228  29.479  27.799  1.00  0.00    -0.237 OA
ATOM     69  O   UNL A   1      44.871  30.361  26.171  1.00  0.00    -0.237 OA
ATOM     70  O   UNL A   1      43.639  28.290  25.681  1.00  0.00    -0.744 OA
ENDBRANCH  63  67
ENDBRANCH  37  60
ENDBRANCH  11  12
ENDBRANCH   4   6
ENDBRANCH   3   4
ENDBRANCH   2   3
ENDBRANCH   1   2
BRANCH   1  71
ATOM     71  O   UNL A   1      32.276  28.916  25.787  1.00  0.00    -0.457 OA
BRANCH  71  72
ATOM     72  C   UNL A   1      31.751  28.727  24.546  1.00  0.00     0.354 C 
ATOM     73  O   UNL A   1      30.861  29.405  24.048  1.00  0.00    -0.244 OA
BRANCH  72  74
ATOM     74  C   UNL A   1      32.452  27.670  23.874  1.00  0.00     0.126 A 
ATOM     75  C   UNL A   1      33.046  26.533  24.395  1.00  0.00     0.057 A 
ATOM     76  N   UNL A   1      32.560  27.590  22.501  1.00  0.00    -0.354 N 
ATOM     77  C   UNL A   1      33.243  25.639  23.307  1.00  0.00     0.106 A 
ATOM     78  C   UNL A   1      33.038  26.354  22.144  1.00  0.00     0.105 A 
ATOM     79  H   UNL A   1      32.328  28.311  21.871  1.00  0.00     0.166 HD
BRANCH  77  80
ATOM     80  S   UNL A   1      33.505  23.939  23.486  1.00  0.00     0.263 S 
ATOM     81  O   UNL A   1      32.192  23.328  23.373  1.00  0.00    -0.201 OA
ATOM     82  O   UNL A   1      34.586  23.618  22.590  1.00  0.00    -0.201 OA
BRANCH  80  83
ATOM     83  N   UNL A   1      34.051  23.605  25.083  1.00  0.00    -0.277 N 
ATOM     84  H   UNL A   1      33.471  23.732  25.868  1.00  0.00     0.180 HD
BRANCH  83  85
ATOM     85  C   UNL A   1      35.405  23.131  25.208  1.00  0.00     0.075 A 
ATOM     86  C   UNL A   1      36.412  24.094  25.383  1.00  0.00     0.029 A 
ATOM     87  C   UNL A   1      35.723  21.764  25.349  1.00  0.00     0.089 A 
ATOM     88  C   UNL A   1      37.716  23.715  25.707  1.00  0.00     0.002 A 
ATOM     89  C   UNL A   1      37.040  21.400  25.700  1.00  0.00     0.030 A 
ATOM     90  C   UNL A   1      38.028  22.370  25.874  1.00  0.00     0.002 A 
BRANCH  87  91
ATOM     91  N   UNL A   1      34.758  20.721  25.223  1.00  0.00    -0.238 N 
ATOM     92  C   UNL A   1      34.863  19.504  24.579  1.00  0.00     0.130 A 
ATOM     93  N   UNL A   1      33.512  20.872  25.761  1.00  0.00    -0.175 NA
ATOM     94  C   UNL A   1      33.593  19.004  24.498  1.00  0.00     0.056 A 
ATOM     95  C   UNL A   1      32.791  19.888  25.217  1.00  0.00     0.151 A 
ATOM     96  Br  UNL A   1      33.015  17.471  23.610  1.00  0.00    -0.047 Br
ENDBRANCH  87  91
ENDBRANCH  83  85
ENDBRANCH  80  83
ENDBRANCH  77  80
ENDBRANCH  72  74
ENDBRANCH  71  72
ENDBRANCH   1  71
TORSDOF 18
ENDMDL
MODEL 2
REMARK VINA RESULT:     -12.1      4.809     10.425
REMARK SMILES O=C(OCCOC(=O)c1cc(S(=O)(=O)Nc2ccccc2-n2cc(Br)cn2)c[nH]1)c1ccc(-c2c3nc(c(-c4cc(S(=O)(=O)[O-])ccc4F)c4ccc([nH]4)c(-c4cc(S(=O)(=O)[O-])ccc4F)c4nc(c(-c5cc(S(=O)(=O)[O-])ccc5F)c5ccc2[nH]5)C=C4)C=C3)cc1
REMARK SMILES IDX 5 1 4 2 3 3 2 4 1 5 30 6 31 7 92 8 32 9 91 10 33 11 34 12
REMARK SMILES IDX 35 13 85 14 36 15 90 16 84 17 86 18 37 19 89 20 83 21 82 22
REMARK SMILES IDX 38 24 70 25 50 26 69 27 51 28 54 29 68 30 87 31 52 32 53 33
REMARK SMILES IDX 67 35 88 36 55 37 39 38 40 39 48 40 41 41 47 42 49 43 46 44
REMARK SMILES IDX 42 45 43 46 44 47 45 48 71 49 72 50 80 51 73 52 79 53 81 54
REMARK SMILES IDX 78 55 74 56 75 57 76 58 77 59 56 60 57 61 65 62 58 63 64 64
REMARK SMILES IDX 66 65 63 66 59 67 60 68 61 69 62 70 6 71 7 72 8 73 9 74
REMARK SMILES IDX 10 75 29 76 11 77 28 78 12 80 13 81 14 82 15 83 16 85 17 86
REMARK SMILES IDX 21 87 18 88 20 89 19 90 22 91 23 92 27 93 24 94 26 95 25 96
REMARK H PARENT 86 23 54 34 29 79 15 84
REMARK Flexibility Score: inf
ROOT
ATOM      1  C   UNL A   1      36.768  22.424  25.559  1.00  0.00     0.275 C 
ENDROOT
BRANCH   1   2
ATOM      2  C   UNL A   1      37.578  23.712  25.753  1.00  0.00     0.275 C 
BRANCH   2   3
ATOM      3  O   UNL A   1      38.477  23.621  26.880  1.00  0.00    -0.458 OA
BRANCH   3   4
ATOM      4  C   UNL A   1      39.654  24.276  27.024  1.00  0.00     0.338 C 
ATOM      5  O   UNL A   1      40.683  23.852  26.503  1.00  0.00    -0.246 OA
BRANCH   4   6
ATOM      6  C   UNL A   1      39.705  25.621  27.646  1.00  0.00     0.060 A 
ATOM      7  C   UNL A   1      39.558  25.867  29.011  1.00  0.00     0.016 A 
ATOM      8  C   UNL A   1      40.048  26.682  26.788  1.00  0.00     0.016 A 
ATOM      9  C   UNL A   1      39.662  27.164  29.498  1.00  0.00     0.010 A 
ATOM     10  C   UNL A   1      40.192  27.978  27.278  1.00  0.00     0.010 A 
ATOM     11  C   UNL A   1      39.983  28.219  28.636  1.00  0.00    -0.014 A 
BRANCH  11  12
ATOM     12  C   UNL A   1      40.204  29.546  29.249  1.00  0.00     0.031 A 
ATOM     13  C   UNL A   1      38.883  30.213  29.663  1.00  0.00     0.074 A 
ATOM     14  C   UNL A   1      41.484  30.024  29.236  1.00  0.00     0.049 A 
ATOM     15  N   UNL A   1      38.492  31.443  29.523  1.00  0.00    -0.248 NA
ATOM     16  C   UNL A   1      37.782  29.353  30.175  1.00  0.00     0.031 C 
ATOM     17  C   UNL A   1      42.667  29.249  28.793  1.00  0.00     0.029 A 
ATOM     18  N   UNL A   1      42.058  31.235  29.561  1.00  0.00    -0.354 N 
ATOM     19  C   UNL A   1      37.214  31.554  30.122  1.00  0.00     0.074 A 
ATOM     20  C   UNL A   1      36.774  30.210  30.359  1.00  0.00     0.031 C 
ATOM     21  C   UNL A   1      43.780  30.014  28.808  1.00  0.00     0.029 A 
ATOM     22  C   UNL A   1      43.441  31.350  29.257  1.00  0.00     0.049 A 
ATOM     23  H   UNL A   1      41.546  31.966  29.975  1.00  0.00     0.167 HD
ATOM     24  C   UNL A   1      36.671  32.745  30.521  1.00  0.00     0.034 A 
ATOM     25  C   UNL A   1      44.252  32.452  29.305  1.00  0.00     0.034 A 
ATOM     26  C   UNL A   1      37.591  33.803  30.262  1.00  0.00     0.049 A 
ATOM     27  C   UNL A   1      43.403  33.543  29.811  1.00  0.00     0.074 A 
ATOM     28  C   UNL A   1      37.990  34.475  29.140  1.00  0.00     0.029 A 
ATOM     29  N   UNL A   1      38.406  34.171  31.307  1.00  0.00    -0.354 N 
ATOM     30  N   UNL A   1      43.020  33.685  31.043  1.00  0.00    -0.248 NA
ATOM     31  C   UNL A   1      42.874  34.521  28.850  1.00  0.00     0.031 C 
ATOM     32  C   UNL A   1      39.299  34.908  29.448  1.00  0.00     0.029 A 
ATOM     33  C   UNL A   1      39.607  34.552  30.768  1.00  0.00     0.049 A 
ATOM     34  H   UNL A   1      38.170  34.162  32.263  1.00  0.00     0.167 HD
ATOM     35  C   UNL A   1      41.985  34.583  30.938  1.00  0.00     0.074 A 
ATOM     36  C   UNL A   1      42.169  35.278  29.686  1.00  0.00     0.031 C 
ATOM     37  C   UNL A   1      40.805  34.327  31.557  1.00  0.00     0.034 A 
BRANCH  24  38
ATOM     38  C   UNL A   1      35.475  33.121  31.373  1.00  0.00     0.023 A 
ATOM     39  C   UNL A   1      34.698  34.220  30.913  1.00  0.00     0.031 A 
ATOM     40  C   UNL A   1      35.229  32.707  32.687  1.00  0.00     0.131 A 
ATOM     41  C   UNL A   1      33.854  34.943  31.766  1.00  0.00     0.055 A 
ATOM     42  C   UNL A   1      34.322  33.386  33.520  1.00  0.00     0.041 A 
ATOM     43  F   UNL A   1      35.909  31.698  33.247  1.00  0.00    -0.206 F 
ATOM     44  C   UNL A   1      33.660  34.531  33.077  1.00  0.00     0.022 A 
BRANCH  41  45
ATOM     45  S   UNL A   1      33.177  36.523  31.173  1.00  0.00     0.124 S 
ATOM     46  O   UNL A   1      33.483  36.476  29.747  1.00  0.00    -0.237 OA
ATOM     47  O   UNL A   1      31.766  36.405  31.526  1.00  0.00    -0.237 OA
ATOM     48  O   UNL A   1      33.924  37.521  31.934  1.00  0.00    -0.744 OA
ENDBRANCH  41  45
ENDBRANCH  24  38
BRANCH  25  49
ATOM     49  C   UNL A   1      45.668  32.832  28.897  1.00  0.00     0.023 A 
ATOM     50  C   UNL A   1      46.022  33.692  27.844  1.00  0.00     0.031 A 
ATOM     51  C   UNL A   1      46.778  32.305  29.630  1.00  0.00     0.131 A 
ATOM     52  C   UNL A   1      47.385  34.035  27.620  1.00  0.00     0.055 A 
ATOM     53  C   UNL A   1      48.105  32.695  29.448  1.00  0.00     0.041 A 
ATOM     54  F   UNL A   1      46.635  31.368  30.575  1.00  0.00    -0.206 F 
ATOM     55  C   UNL A   1      48.416  33.579  28.443  1.00  0.00     0.022 A 
BRANCH  52  56
ATOM     56  S   UNL A   1      47.879  35.115  26.244  1.00  0.00     0.124 S 
ATOM     57  O   UNL A   1      47.727  34.229  25.095  1.00  0.00    -0.237 OA
ATOM     58  O   UNL A   1      46.928  36.219  26.333  1.00  0.00    -0.237 OA
ATOM     59  O   UNL A   1      49.258  35.464  26.582  1.00  0.00    -0.744 OA
ENDBRANCH  52  56
ENDBRANCH  25  49
BRANCH  37  60
ATOM     60  C   UNL A   1      40.929  33.402  32.767  1.00  0.00     0.023 A 
ATOM     61  C   UNL A   1      40.618  32.034  32.663  1.00  0.00     0.031 A 
ATOM     62  C   UNL A   1      41.221  33.868  34.062  1.00  0.00     0.131 A 
ATOM     63  C   UNL A   1      40.586  31.212  33.808  1.00  0.00     0.055 A 
ATOM     64  C   UNL A   1      41.210  33.053  35.199  1.00  0.00     0.041 A 
ATOM     65  F   UNL A   1      41.508  35.149  34.275  1.00  0.00    -0.206 F 
ATOM     66  C   UNL A   1      40.884  31.713  35.076  1.00  0.00     0.022 A 
BRANCH  63  67
ATOM     67  S   UNL A   1      40.161  29.457  33.634  1.00  0.00     0.124 S 
ATOM     68  O   UNL A   1      38.703  29.480  33.623  1.00  0.00    -0.237 OA
ATOM     69  O   UNL A   1      40.806  29.099  32.374  1.00  0.00    -0.237 OA
ATOM     70  O   UNL A   1      40.759  28.841  34.820  1.00  0.00    -0.744 OA
ENDBRANCH  63  67
ENDBRANCH  37  60
ENDBRANCH  11  12
ENDBRANCH   4   6
ENDBRANCH   3   4
ENDBRANCH   2   3
ENDBRANCH   1   2
BRANCH   1  71
ATOM     71  O   UNL A   1      35.410  22.697  25.178  1.00  0.00    -0.457 OA
BRANCH  71  72
ATOM     72  C   UNL A   1      34.475  21.888  25.747  1.00  0.00     0.354 C 
ATOM     73  O   UNL A   1      34.683  20.751  26.153  1.00  0.00    -0.244 OA
BRANCH  72  74
ATOM     74  C   UNL A   1      33.232  22.592  25.878  1.00  0.00     0.126 A 
ATOM     75  C   UNL A   1      32.995  23.951  25.999  1.00  0.00     0.057 A 
ATOM     76  N   UNL A   1      32.001  21.972  25.804  1.00  0.00    -0.354 N 
ATOM     77  C   UNL A   1      31.620  24.155  25.700  1.00  0.00     0.106 A 
ATOM     78  C   UNL A   1      31.012  22.917  25.691  1.00  0.00     0.105 A 
ATOM     79  H   UNL A   1      31.855  20.999  25.828  1.00  0.00     0.166 HD
BRANCH  77  80
ATOM     80  S   UNL A   1      30.943  25.683  25.254  1.00  0.00     0.263 S 
ATOM     81  O   UNL A   1      30.077  25.410  24.121  1.00  0.00    -0.201 OA
ATOM     82  O   UNL A   1      30.455  26.262  26.479  1.00  0.00    -0.201 OA
BRANCH  80  83
ATOM     83  N   UNL A   1      32.188  26.715  24.664  1.00  0.00    -0.277 N 
ATOM     84  H   UNL A   1      32.636  26.549  23.803  1.00  0.00     0.180 HD
BRANCH  83  85
ATOM     85  C   UNL A   1      32.538  27.833  25.500  1.00  0.00     0.075 A 
ATOM     86  C   UNL A   1      33.496  27.613  26.503  1.00  0.00     0.029 A 
ATOM     87  C   UNL A   1      32.108  29.150  25.231  1.00  0.00     0.089 A 
ATOM     88  C   UNL A   1      34.035  28.681  27.224  1.00  0.00     0.002 A 
ATOM     89  C   UNL A   1      32.680  30.217  25.953  1.00  0.00     0.030 A 
ATOM     90  C   UNL A   1      33.634  29.983  26.944  1.00  0.00     0.002 A 
BRANCH  87  91
ATOM     91  N   UNL A   1      31.166  29.469  24.208  1.00  0.00    -0.238 N 
ATOM     92  C   UNL A   1      30.069  30.305  24.259  1.00  0.00     0.130 A 
ATOM     93  N   UNL A   1      31.268  28.888  22.977  1.00  0.00    -0.175 NA
ATOM     94  C   UNL A   1      29.339  30.047  23.132  1.00  0.00     0.056 A 
ATOM     95  C   UNL A   1      30.102  29.153  22.384  1.00  0.00     0.151 A 
ATOM     96  Br  UNL A   1      27.666  30.721  22.666  1.00  0.00    -0.047 Br
ENDBRANCH  87  91
ENDBRANCH  83  85
ENDBRANCH  80  83
ENDBRANCH  77  80
ENDBRANCH  72  74
ENDBRANCH  71  72
ENDBRANCH   1  71
TORSDOF 18
ENDMDL
MODEL 3
REMARK VINA RESULT:     -12.0      4.890     10.048
REMARK SMILES O=C(OCCOC(=O)c1cc(S(=O)(=O)Nc2ccccc2-n2cc(Br)cn2)c[nH]1)c1ccc(-c2c3nc(c(-c4cc(S(=O)(=O)[O-])ccc4F)c4ccc([nH]4)c(-c4cc(S(=O)(=O)[O-])ccc4F)c4nc(c(-c5cc(S(=O)(=O)[O-])ccc5F)c5ccc2[nH]5)C=C4)C=C3)cc1
REMARK SMILES IDX 5 1 4 2 3 3 2 4 1 5 30 6 31 7 92 8 32 9 91 10 33 11 34 12
REMARK SMILES IDX 35 13 85 14 36 15 90 16 84 17 86 18 37 19 89 20 83 21 82 22
REMARK SMILES IDX 38 24 70 25 50 26 69 27 51 28 54 29 68 30 87 31 52 32 53 33
REMARK SMILES IDX 67 35 88 36 55 37 39 38 40 39 48 40 41 41 47 42 49 43 46 44
REMARK SMILES IDX 42 45 43 46 44 47 45 48 71 49 72 50 80 51 73 52 79 53 81 54
REMARK SMILES IDX 78 55 74 56 75 57 76 58 77 59 56 60 57 61 65 62 58 63 64 64
REMARK SMILES IDX 66 65 63 66 59 67 60 68 61 69 62 70 6 71 7 72 8 73 9 74
REMARK SMILES IDX 10 75 29 76 11 77 28 78 12 80 13 81 14 82 15 83 16 85 17 86
REMARK SMILES IDX 21 87 18 88 20 89 19 90 22 91 23 92 27 93 24 94 26 95 25 96
REMARK H PARENT 86 23 54 34 29 79 15 84
REMARK Flexibility Score: inf
ROOT
ATOM      1  C   UNL A   1      36.161  23.048  25.229  1.00  0.00     0.275 C 
ENDROOT
BRANCH   1   2
ATOM      2  C   UNL A   1      37.583  22.899  25.783  1.00  0.00     0.275 C 
BRANCH   2   3
ATOM      3  O   UNL A   1      38.031  24.096  26.455  1.00  0.00    -0.458 OA
BRANCH   3   4
ATOM      4  C   UNL A   1      39.272  24.328  26.943  1.00  0.00     0.338 C 
ATOM      5  O   UNL A   1      40.179  23.515  26.777  1.00  0.00    -0.246 OA
BRANCH   4   6
ATOM      6  C   UNL A   1      39.630  25.646  27.519  1.00  0.00     0.060 A 
ATOM      7  C   UNL A   1      40.056  26.747  26.774  1.00  0.00     0.016 A 
ATOM      8  C   UNL A   1      39.396  25.798  28.898  1.00  0.00     0.016 A 
ATOM      9  C   UNL A   1      40.329  27.951  27.409  1.00  0.00     0.010 A 
ATOM     10  C   UNL A   1      39.631  27.016  29.532  1.00  0.00     0.010 A 
ATOM     11  C   UNL A   1      40.114  28.090  28.784  1.00  0.00    -0.014 A 
BRANCH  11  12
ATOM     12  C   UNL A   1      40.304  29.437  29.363  1.00  0.00     0.031 A 
ATOM     13  C   UNL A   1      38.965  30.100  29.721  1.00  0.00     0.074 A 
ATOM     14  C   UNL A   1      41.578  29.929  29.370  1.00  0.00     0.049 A 
ATOM     15  N   UNL A   1      38.564  31.321  29.534  1.00  0.00    -0.248 NA
ATOM     16  C   UNL A   1      37.860  29.243  30.228  1.00  0.00     0.031 C 
ATOM     17  C   UNL A   1      42.781  29.156  28.982  1.00  0.00     0.029 A 
ATOM     18  N   UNL A   1      42.131  31.156  29.675  1.00  0.00    -0.354 N 
ATOM     19  C   UNL A   1      37.269  31.434  30.095  1.00  0.00     0.074 A 
ATOM     20  C   UNL A   1      36.838  30.093  30.359  1.00  0.00     0.031 C 
ATOM     21  C   UNL A   1      43.885  29.934  29.005  1.00  0.00     0.029 A 
ATOM     22  C   UNL A   1      43.520  31.278  29.405  1.00  0.00     0.049 A 
ATOM     23  H   UNL A   1      41.599  31.893  30.053  1.00  0.00     0.167 HD
ATOM     24  C   UNL A   1      36.703  32.630  30.443  1.00  0.00     0.034 A 
ATOM     25  C   UNL A   1      44.318  32.391  29.442  1.00  0.00     0.034 A 
ATOM     26  C   UNL A   1      37.618  33.692  30.177  1.00  0.00     0.049 A 
ATOM     27  C   UNL A   1      43.443  33.486  29.893  1.00  0.00     0.074 A 
ATOM     28  C   UNL A   1      38.041  34.334  29.048  1.00  0.00     0.029 A 
ATOM     29  N   UNL A   1      38.400  34.099  31.233  1.00  0.00    -0.354 N 
ATOM     30  N   UNL A   1      43.025  33.660  31.108  1.00  0.00    -0.248 NA
ATOM     31  C   UNL A   1      42.930  34.429  28.889  1.00  0.00     0.031 C 
ATOM     32  C   UNL A   1      39.336  34.792  29.378  1.00  0.00     0.029 A 
ATOM     33  C   UNL A   1      39.611  34.479  30.716  1.00  0.00     0.049 A 
ATOM     34  H   UNL A   1      38.138  34.116  32.182  1.00  0.00     0.167 HD
ATOM     35  C   UNL A   1      41.983  34.542  30.950  1.00  0.00     0.074 A 
ATOM     36  C   UNL A   1      42.194  35.202  29.682  1.00  0.00     0.031 C 
ATOM     37  C   UNL A   1      40.789  34.290  31.544  1.00  0.00     0.034 A 
BRANCH  24  38
ATOM     38  C   UNL A   1      35.480  33.017  31.251  1.00  0.00     0.023 A 
ATOM     39  C   UNL A   1      34.686  34.071  30.720  1.00  0.00     0.031 A 
ATOM     40  C   UNL A   1      35.217  32.665  32.579  1.00  0.00     0.131 A 
ATOM     41  C   UNL A   1      33.805  34.814  31.518  1.00  0.00     0.055 A 
ATOM     42  C   UNL A   1      34.276  33.360  33.359  1.00  0.00     0.041 A 
ATOM     43  F   UNL A   1      35.910  31.703  33.203  1.00  0.00    -0.206 F 
ATOM     44  C   UNL A   1      33.594  34.463  32.844  1.00  0.00     0.022 A 
BRANCH  41  45
ATOM     45  S   UNL A   1      33.101  36.343  30.831  1.00  0.00     0.124 S 
ATOM     46  O   UNL A   1      31.675  36.170  31.085  1.00  0.00    -0.237 OA
ATOM     47  O   UNL A   1      33.768  37.371  31.624  1.00  0.00    -0.237 OA
ATOM     48  O   UNL A   1      33.491  36.296  29.424  1.00  0.00    -0.744 OA
ENDBRANCH  41  45
ENDBRANCH  24  38
BRANCH  25  49
ATOM     49  C   UNL A   1      45.739  32.775  29.061  1.00  0.00     0.023 A 
ATOM     50  C   UNL A   1      46.788  33.049  29.955  1.00  0.00     0.031 A 
ATOM     51  C   UNL A   1      46.101  32.864  27.680  1.00  0.00     0.131 A 
ATOM     52  C   UNL A   1      48.099  33.314  29.469  1.00  0.00     0.055 A 
ATOM     53  C   UNL A   1      47.399  33.059  27.210  1.00  0.00     0.041 A 
ATOM     54  F   UNL A   1      45.199  32.769  26.695  1.00  0.00    -0.206 F 
ATOM     55  C   UNL A   1      48.415  33.273  28.109  1.00  0.00     0.022 A 
BRANCH  52  56
ATOM     56  S   UNL A   1      49.469  33.708  30.596  1.00  0.00     0.124 S 
ATOM     57  O   UNL A   1      48.758  34.124  31.801  1.00  0.00    -0.237 OA
ATOM     58  O   UNL A   1      50.198  32.447  30.685  1.00  0.00    -0.237 OA
ATOM     59  O   UNL A   1      50.175  34.777  29.891  1.00  0.00    -0.744 OA
ENDBRANCH  52  56
ENDBRANCH  25  49
BRANCH  37  60
ATOM     60  C   UNL A   1      40.890  33.404  32.783  1.00  0.00     0.023 A 
ATOM     61  C   UNL A   1      40.628  32.023  32.705  1.00  0.00     0.031 A 
ATOM     62  C   UNL A   1      41.111  33.913  34.076  1.00  0.00     0.131 A 
ATOM     63  C   UNL A   1      40.573  31.231  33.871  1.00  0.00     0.055 A 
ATOM     64  C   UNL A   1      41.076  33.129  35.234  1.00  0.00     0.041 A 
ATOM     65  F   UNL A   1      41.347  35.208  34.265  1.00  0.00    -0.206 F 
ATOM     66  C   UNL A   1      40.799  31.777  35.135  1.00  0.00     0.022 A 
BRANCH  63  67
ATOM     67  S   UNL A   1      40.212  29.459  33.728  1.00  0.00     0.124 S 
ATOM     68  O   UNL A   1      41.079  29.042  32.633  1.00  0.00    -0.237 OA
ATOM     69  O   UNL A   1      40.566  28.957  35.052  1.00  0.00    -0.237 OA
ATOM     70  O   UNL A   1      38.780  29.426  33.428  1.00  0.00    -0.744 OA
ENDBRANCH  63  67
ENDBRANCH  37  60
ENDBRANCH  11  12
ENDBRANCH   4   6
ENDBRANCH   3   4
ENDBRANCH   2   3
ENDBRANCH   1   2
BRANCH   1  71
ATOM     71  O   UNL A   1      35.188  22.405  26.067  1.00  0.00    -0.457 OA
BRANCH  71  72
ATOM     72  C   UNL A   1      34.117  21.879  25.412  1.00  0.00     0.354 C 
ATOM     73  O   UNL A   1      34.172  20.976  24.587  1.00  0.00    -0.244 OA
BRANCH  72  74
ATOM     74  C   UNL A   1      32.905  22.479  25.893  1.00  0.00     0.126 A 
ATOM     75  C   UNL A   1      32.680  23.764  26.356  1.00  0.00     0.057 A 
ATOM     76  N   UNL A   1      31.685  21.836  25.874  1.00  0.00    -0.354 N 
ATOM     77  C   UNL A   1      31.273  23.968  26.331  1.00  0.00     0.106 A 
ATOM     78  C   UNL A   1      30.682  22.736  26.136  1.00  0.00     0.105 A 
ATOM     79  H   UNL A   1      31.553  20.877  25.698  1.00  0.00     0.166 HD
BRANCH  77  80
ATOM     80  S   UNL A   1      30.519  25.524  26.355  1.00  0.00     0.263 S 
ATOM     81  O   UNL A   1      29.167  25.296  26.831  1.00  0.00    -0.201 OA
ATOM     82  O   UNL A   1      31.444  26.390  27.040  1.00  0.00    -0.201 OA
BRANCH  80  83
ATOM     83  N   UNL A   1      30.365  26.116  24.746  1.00  0.00    -0.277 N 
ATOM     84  H   UNL A   1      29.542  26.552  24.430  1.00  0.00     0.180 HD
BRANCH  83  85
ATOM     85  C   UNL A   1      31.508  25.935  23.889  1.00  0.00     0.075 A 
ATOM     86  C   UNL A   1      31.519  24.801  23.060  1.00  0.00     0.029 A 
ATOM     87  C   UNL A   1      32.496  26.927  23.717  1.00  0.00     0.089 A 
ATOM     88  C   UNL A   1      32.485  24.653  22.063  1.00  0.00     0.002 A 
ATOM     89  C   UNL A   1      33.450  26.772  22.690  1.00  0.00     0.030 A 
ATOM     90  C   UNL A   1      33.445  25.641  21.872  1.00  0.00     0.002 A 
BRANCH  87  91
ATOM     91  N   UNL A   1      32.541  28.125  24.490  1.00  0.00    -0.238 N 
ATOM     92  C   UNL A   1      33.580  28.651  25.229  1.00  0.00     0.130 A 
ATOM     93  N   UNL A   1      31.432  28.915  24.594  1.00  0.00    -0.175 NA
ATOM     94  C   UNL A   1      33.038  29.640  26.003  1.00  0.00     0.056 A 
ATOM     95  C   UNL A   1      31.710  29.753  25.596  1.00  0.00     0.151 A 
ATOM     96  Br  UNL A   1      33.866  30.640  27.339  1.00  0.00    -0.047 Br
ENDBRANCH  87  91
ENDBRANCH  83  85
ENDBRANCH  80  83
ENDBRANCH  77  80
ENDBRANCH  72  74
ENDBRANCH  71  72
ENDBRANCH   1  71
TORSDOF 18
ENDMDL
