MODEL 1
REMARK VINA RESULT:     -10.5      0.000      0.000
REMARK SMILES CCC([NH3+])(CC)C(=O)N1C[C@@H](O)C[C@H]1C(=O)OCCOC(=O)c1ccc(-c2c3nc(c(-c4cc(S(=O)(=O)[O-])ccc4F)c4ccc([nH]4)c(-c4cc(S(=O)(=O)[O-])ccc4F)c4nc(c(-c5cc(S(=O)(=O)[O-])ccc5F)c5ccc2[nH]5)C=C4)C=C3)cc1
REMARK SMILES IDX 18 1 17 2 15 3 16 4 14 5 9 6 10 7 11 8 13 9 7 10 8 11 3 12
REMARK SMILES IDX 2 13 1 14 4 15 5 19 6 20 12 21 19 23 20 24 21 25 22 26 23 27
REMARK SMILES IDX 24 28 85 29 25 30 84 31 26 32 27 33 28 34 78 35 29 36 83 37
REMARK SMILES IDX 77 38 79 39 30 40 82 41 76 42 75 43 31 45 63 46 43 47 62 48
REMARK SMILES IDX 44 49 47 50 61 51 80 52 45 53 46 54 60 56 81 57 48 58 32 59
REMARK SMILES IDX 33 60 41 61 34 62 40 63 42 64 39 65 35 66 36 67 37 68 38 69
REMARK SMILES IDX 64 70 65 71 73 72 66 73 72 74 74 75 71 76 67 77 68 78 69 79
REMARK SMILES IDX 70 80 49 81 50 82 58 83 51 84 57 85 59 86 56 87 52 88 53 89
REMARK SMILES IDX 54 90 55 91
REMARK H PARENT 4 16 4 17 4 18 12 22 79 44 47 55
REMARK Flexibility Score: inf
ROOT
ATOM      1  C   UNL A   1      32.119  28.128  24.409  1.00  0.00     0.274 C 
ENDROOT
BRANCH   1   2
ATOM      2  O   UNL A   1      32.781  27.223  25.314  1.00  0.00    -0.461 OA
BRANCH   2   3
ATOM      3  C   UNL A   1      31.935  26.518  26.108  1.00  0.00     0.329 C 
ATOM      4  O   UNL A   1      31.382  26.972  27.109  1.00  0.00    -0.250 OA
BRANCH   3   5
ATOM      5  C   UNL A   1      31.782  25.044  25.725  1.00  0.00     0.198 C 
ATOM      6  N   UNL A   1      32.710  24.003  26.181  1.00  0.00    -0.321 N 
ATOM      7  C   UNL A   1      32.015  22.994  26.954  1.00  0.00     0.152 C 
ATOM      8  C   UNL A   1      30.546  23.143  26.573  1.00  0.00     0.136 C 
ATOM      9  C   UNL A   1      30.403  24.615  26.237  1.00  0.00     0.070 C 
BRANCH   6  10
ATOM     10  C   UNL A   1      33.984  23.985  25.637  1.00  0.00     0.284 C 
ATOM     11  O   UNL A   1      34.758  24.894  25.952  1.00  0.00    -0.268 OA
BRANCH  10  12
ATOM     12  C   UNL A   1      34.358  22.957  24.491  1.00  0.00     0.173 C 
BRANCH  12  13
ATOM     13  C   UNL A   1      33.100  22.647  23.611  1.00  0.00     0.075 C 
ATOM     14  C   UNL A   1      33.191  22.956  22.114  1.00  0.00     0.011 C 
ENDBRANCH  12  13
BRANCH  12  15
ATOM     15  N   UNL A   1      34.796  21.691  25.139  1.00  0.00    -0.345 N 
ATOM     16  H   UNL A   1      34.765  21.800  26.153  1.00  0.00     0.345 HD
ATOM     17  H   UNL A   1      35.750  21.474  24.851  1.00  0.00     0.345 HD
ATOM     18  H   UNL A   1      34.175  20.933  24.859  1.00  0.00     0.345 HD
ENDBRANCH  12  15
BRANCH  12  19
ATOM     19  C   UNL A   1      35.502  23.388  23.538  1.00  0.00     0.075 C 
ATOM     20  C   UNL A   1      36.692  22.442  23.479  1.00  0.00     0.011 C 
ENDBRANCH  12  19
ENDBRANCH  10  12
ENDBRANCH   6  10
BRANCH   8  21
ATOM     21  O   UNL A   1      29.674  22.769  27.627  1.00  0.00    -0.391 OA
ATOM     22  H   UNL A   1      29.512  23.535  28.200  1.00  0.00     0.211 HD
ENDBRANCH   8  21
ENDBRANCH   3   5
ENDBRANCH   2   3
ENDBRANCH   1   2
BRANCH   1  23
ATOM     23  C   UNL A   1      31.937  29.502  25.051  1.00  0.00     0.275 C 
BRANCH  23  24
ATOM     24  O   UNL A   1      33.197  29.982  25.548  1.00  0.00    -0.458 OA
BRANCH  24  25
ATOM     25  C   UNL A   1      33.111  30.804  26.620  1.00  0.00     0.338 C 
ATOM     26  O   UNL A   1      32.208  31.587  26.864  1.00  0.00    -0.246 OA
BRANCH  25  27
ATOM     27  C   UNL A   1      34.347  30.713  27.431  1.00  0.00     0.060 A 
ATOM     28  C   UNL A   1      35.201  31.803  27.623  1.00  0.00     0.016 A 
ATOM     29  C   UNL A   1      34.676  29.470  27.973  1.00  0.00     0.016 A 
ATOM     30  C   UNL A   1      36.407  31.640  28.310  1.00  0.00     0.010 A 
ATOM     31  C   UNL A   1      35.849  29.323  28.714  1.00  0.00     0.010 A 
ATOM     32  C   UNL A   1      36.740  30.397  28.869  1.00  0.00    -0.014 A 
BRANCH  32  33
ATOM     33  C   UNL A   1      38.018  30.180  29.596  1.00  0.00     0.031 A 
ATOM     34  C   UNL A   1      39.043  29.232  29.032  1.00  0.00     0.074 A 
ATOM     35  C   UNL A   1      38.233  30.777  30.785  1.00  0.00     0.049 A 
ATOM     36  N   UNL A   1      40.113  28.732  29.594  1.00  0.00    -0.248 NA
ATOM     37  C   UNL A   1      38.818  28.774  27.652  1.00  0.00     0.031 C 
ATOM     38  C   UNL A   1      37.332  31.738  31.422  1.00  0.00     0.029 A 
ATOM     39  N   UNL A   1      39.265  30.645  31.680  1.00  0.00    -0.354 N 
ATOM     40  C   UNL A   1      40.671  27.870  28.655  1.00  0.00     0.074 A 
ATOM     41  C   UNL A   1      39.806  27.905  27.493  1.00  0.00     0.031 C 
ATOM     42  C   UNL A   1      37.849  32.108  32.604  1.00  0.00     0.029 A 
ATOM     43  C   UNL A   1      39.077  31.357  32.842  1.00  0.00     0.049 A 
ATOM     44  H   UNL A   1      40.062  30.094  31.507  1.00  0.00     0.167 HD
ATOM     45  C   UNL A   1      41.796  27.120  28.755  1.00  0.00     0.034 A 
ATOM     46  C   UNL A   1      39.785  31.367  33.989  1.00  0.00     0.034 A 
ATOM     47  C   UNL A   1      42.650  27.109  29.921  1.00  0.00     0.049 A 
ATOM     48  C   UNL A   1      40.999  30.484  34.102  1.00  0.00     0.074 A 
ATOM     49  C   UNL A   1      43.825  26.408  30.125  1.00  0.00     0.029 A 
ATOM     50  N   UNL A   1      42.415  27.832  31.085  1.00  0.00    -0.354 N 
ATOM     51  N   UNL A   1      41.501  29.652  33.219  1.00  0.00    -0.248 NA
ATOM     52  C   UNL A   1      41.738  30.536  35.370  1.00  0.00     0.031 C 
ATOM     53  C   UNL A   1      44.268  26.659  31.430  1.00  0.00     0.029 A 
ATOM     54  C   UNL A   1      43.408  27.571  32.019  1.00  0.00     0.049 A 
ATOM     55  H   UNL A   1      41.654  28.440  31.226  1.00  0.00     0.167 HD
ATOM     56  C   UNL A   1      42.624  29.093  33.820  1.00  0.00     0.074 A 
ATOM     57  C   UNL A   1      42.736  29.697  35.133  1.00  0.00     0.031 C 
ATOM     58  C   UNL A   1      43.488  28.167  33.332  1.00  0.00     0.034 A 
BRANCH  45  59
ATOM     59  C   UNL A   1      42.133  26.210  27.597  1.00  0.00     0.023 A 
ATOM     60  C   UNL A   1      41.675  24.882  27.534  1.00  0.00     0.031 A 
ATOM     61  C   UNL A   1      42.951  26.672  26.550  1.00  0.00     0.131 A 
ATOM     62  C   UNL A   1      42.095  24.044  26.489  1.00  0.00     0.055 A 
ATOM     63  C   UNL A   1      43.304  25.855  25.473  1.00  0.00     0.041 A 
ATOM     64  F   UNL A   1      43.435  27.924  26.563  1.00  0.00    -0.206 F 
ATOM     65  C   UNL A   1      42.888  24.528  25.446  1.00  0.00     0.022 A 
BRANCH  62  66
ATOM     66  S   UNL A   1      41.702  22.274  26.582  1.00  0.00     0.124 S 
ATOM     67  O   UNL A   1      42.347  21.893  27.837  1.00  0.00    -0.237 OA
ATOM     68  O   UNL A   1      40.245  22.275  26.586  1.00  0.00    -0.237 OA
ATOM     69  O   UNL A   1      42.323  21.721  25.380  1.00  0.00    -0.744 OA
ENDBRANCH  62  66
ENDBRANCH  45  59
BRANCH  46  70
ATOM     70  C   UNL A   1      39.332  32.197  35.141  1.00  0.00     0.023 A 
ATOM     71  C   UNL A   1      39.823  33.496  35.335  1.00  0.00     0.031 A 
ATOM     72  C   UNL A   1      38.415  31.690  36.080  1.00  0.00     0.131 A 
ATOM     73  C   UNL A   1      39.416  34.237  36.455  1.00  0.00     0.055 A 
ATOM     74  C   UNL A   1      37.976  32.447  37.166  1.00  0.00     0.041 A 
ATOM     75  F   UNL A   1      37.915  30.451  35.941  1.00  0.00    -0.206 F 
ATOM     76  C   UNL A   1      38.485  33.727  37.364  1.00  0.00     0.022 A 
BRANCH  73  77
ATOM     77  S   UNL A   1      40.170  35.861  36.744  1.00  0.00     0.124 S 
ATOM     78  O   UNL A   1      41.593  35.540  36.703  1.00  0.00    -0.237 OA
ATOM     79  O   UNL A   1      39.654  36.639  35.623  1.00  0.00    -0.237 OA
ATOM     80  O   UNL A   1      39.655  36.247  38.057  1.00  0.00    -0.744 OA
ENDBRANCH  73  77
ENDBRANCH  46  70
BRANCH  58  81
ATOM     81  C   UNL A   1      44.645  27.787  34.222  1.00  0.00     0.023 A 
ATOM     82  C   UNL A   1      44.563  26.705  35.117  1.00  0.00     0.031 A 
ATOM     83  C   UNL A   1      45.834  28.538  34.196  1.00  0.00     0.131 A 
ATOM     84  C   UNL A   1      45.628  26.441  35.991  1.00  0.00     0.055 A 
ATOM     85  C   UNL A   1      46.912  28.235  35.028  1.00  0.00     0.041 A 
ATOM     86  F   UNL A   1      45.962  29.583  33.362  1.00  0.00    -0.206 F 
ATOM     87  C   UNL A   1      46.807  27.190  35.941  1.00  0.00     0.022 A 
BRANCH  84  88
ATOM     88  S   UNL A   1      45.418  25.161  37.258  1.00  0.00     0.124 S 
ATOM     89  O   UNL A   1      43.966  25.098  37.388  1.00  0.00    -0.237 OA
ATOM     90  O   UNL A   1      46.054  24.002  36.640  1.00  0.00    -0.237 OA
ATOM     91  O   UNL A   1      46.122  25.707  38.417  1.00  0.00    -0.744 OA
ENDBRANCH  84  88
ENDBRANCH  58  81
ENDBRANCH  32  33
ENDBRANCH  25  27
ENDBRANCH  24  25
ENDBRANCH  23  24
ENDBRANCH   1  23
TORSDOF 20
ENDMDL
MODEL 2
REMARK VINA RESULT:     -10.4      1.788      2.503
REMARK SMILES CCC([NH3+])(CC)C(=O)N1C[C@@H](O)C[C@H]1C(=O)OCCOC(=O)c1ccc(-c2c3nc(c(-c4cc(S(=O)(=O)[O-])ccc4F)c4ccc([nH]4)c(-c4cc(S(=O)(=O)[O-])ccc4F)c4nc(c(-c5cc(S(=O)(=O)[O-])ccc5F)c5ccc2[nH]5)C=C4)C=C3)cc1
REMARK SMILES IDX 18 1 17 2 15 3 16 4 14 5 9 6 10 7 11 8 13 9 7 10 8 11 3 12
REMARK SMILES IDX 2 13 1 14 4 15 5 19 6 20 12 21 19 23 20 24 21 25 22 26 23 27
REMARK SMILES IDX 24 28 85 29 25 30 84 31 26 32 27 33 28 34 78 35 29 36 83 37
REMARK SMILES IDX 77 38 79 39 30 40 82 41 76 42 75 43 31 45 63 46 43 47 62 48
REMARK SMILES IDX 44 49 47 50 61 51 80 52 45 53 46 54 60 56 81 57 48 58 32 59
REMARK SMILES IDX 33 60 41 61 34 62 40 63 42 64 39 65 35 66 36 67 37 68 38 69
REMARK SMILES IDX 64 70 65 71 73 72 66 73 72 74 74 75 71 76 67 77 68 78 69 79
REMARK SMILES IDX 70 80 49 81 50 82 58 83 51 84 57 85 59 86 56 87 52 88 53 89
REMARK SMILES IDX 54 90 55 91
REMARK H PARENT 4 16 4 17 4 18 12 22 79 44 47 55
REMARK Flexibility Score: inf
ROOT
ATOM      1  C   UNL A   1      31.974  27.792  25.935  1.00  0.00     0.274 C 
ENDROOT
BRANCH   1   2
ATOM      2  O   UNL A   1      30.725  27.087  25.805  1.00  0.00    -0.461 OA
BRANCH   2   3
ATOM      3  C   UNL A   1      30.578  26.435  24.623  1.00  0.00     0.329 C 
ATOM      4  O   UNL A   1      29.526  25.930  24.234  1.00  0.00    -0.250 OA
BRANCH   3   5
ATOM      5  C   UNL A   1      31.871  26.276  23.820  1.00  0.00     0.198 C 
ATOM      6  N   UNL A   1      32.510  24.975  23.588  1.00  0.00    -0.321 N 
ATOM      7  C   UNL A   1      32.598  24.688  22.171  1.00  0.00     0.152 C 
ATOM      8  C   UNL A   1      32.452  26.039  21.481  1.00  0.00     0.136 C 
ATOM      9  C   UNL A   1      31.576  26.840  22.426  1.00  0.00     0.070 C 
BRANCH   6  10
ATOM     10  C   UNL A   1      33.131  24.356  24.661  1.00  0.00     0.284 C 
ATOM     11  O   UNL A   1      34.137  24.894  25.133  1.00  0.00    -0.268 OA
BRANCH  10  12
ATOM     12  C   UNL A   1      32.689  22.906  25.122  1.00  0.00     0.173 C 
BRANCH  12  13
ATOM     13  C   UNL A   1      31.130  22.832  25.252  1.00  0.00     0.075 C 
ATOM     14  C   UNL A   1      30.518  23.150  26.618  1.00  0.00     0.011 C 
ENDBRANCH  12  13
BRANCH  12  15
ATOM     15  N   UNL A   1      33.280  22.655  26.464  1.00  0.00    -0.345 N 
ATOM     16  H   UNL A   1      32.558  22.759  27.178  1.00  0.00     0.345 HD
ATOM     17  H   UNL A   1      34.027  23.327  26.638  1.00  0.00     0.345 HD
ATOM     18  H   UNL A   1      33.658  21.709  26.498  1.00  0.00     0.345 HD
ENDBRANCH  12  15
BRANCH  12  19
ATOM     19  C   UNL A   1      33.140  21.737  24.211  1.00  0.00     0.075 C 
ATOM     20  C   UNL A   1      32.554  20.376  24.559  1.00  0.00     0.011 C 
ENDBRANCH  12  19
ENDBRANCH  10  12
ENDBRANCH   6  10
BRANCH   8  21
ATOM     21  O   UNL A   1      31.858  25.931  20.198  1.00  0.00    -0.391 OA
ATOM     22  H   UNL A   1      32.176  25.124  19.762  1.00  0.00     0.211 HD
ENDBRANCH   8  21
ENDBRANCH   3   5
ENDBRANCH   2   3
ENDBRANCH   1   2
BRANCH   1  23
ATOM     23  C   UNL A   1      31.755  29.302  25.863  1.00  0.00     0.275 C 
BRANCH  23  24
ATOM     24  O   UNL A   1      33.019  29.984  25.905  1.00  0.00    -0.458 OA
BRANCH  24  25
ATOM     25  C   UNL A   1      33.085  31.009  26.788  1.00  0.00     0.338 C 
ATOM     26  O   UNL A   1      32.322  31.958  26.855  1.00  0.00    -0.246 OA
BRANCH  25  27
ATOM     27  C   UNL A   1      34.305  30.888  27.617  1.00  0.00     0.060 A 
ATOM     28  C   UNL A   1      35.166  31.966  27.846  1.00  0.00     0.016 A 
ATOM     29  C   UNL A   1      34.614  29.631  28.138  1.00  0.00     0.016 A 
ATOM     30  C   UNL A   1      36.360  31.777  28.550  1.00  0.00     0.010 A 
ATOM     31  C   UNL A   1      35.773  29.457  28.895  1.00  0.00     0.010 A 
ATOM     32  C   UNL A   1      36.671  30.519  29.087  1.00  0.00    -0.014 A 
BRANCH  32  33
ATOM     33  C   UNL A   1      37.935  30.274  29.831  1.00  0.00     0.031 A 
ATOM     34  C   UNL A   1      38.968  29.342  29.256  1.00  0.00     0.074 A 
ATOM     35  C   UNL A   1      38.128  30.831  31.043  1.00  0.00     0.049 A 
ATOM     36  N   UNL A   1      40.026  28.820  29.821  1.00  0.00    -0.248 NA
ATOM     37  C   UNL A   1      38.768  28.930  27.858  1.00  0.00     0.031 C 
ATOM     38  C   UNL A   1      37.218  31.773  31.694  1.00  0.00     0.029 A 
ATOM     39  N   UNL A   1      39.143  30.667  31.953  1.00  0.00    -0.354 N 
ATOM     40  C   UNL A   1      40.599  27.988  28.865  1.00  0.00     0.074 A 
ATOM     41  C   UNL A   1      39.756  28.063  27.689  1.00  0.00     0.031 C 
ATOM     42  C   UNL A   1      37.713  32.103  32.897  1.00  0.00     0.029 A 
ATOM     43  C   UNL A   1      38.935  31.340  33.133  1.00  0.00     0.049 A 
ATOM     44  H   UNL A   1      39.942  30.119  31.776  1.00  0.00     0.167 HD
ATOM     45  C   UNL A   1      41.721  27.231  28.962  1.00  0.00     0.034 A 
ATOM     46  C   UNL A   1      39.620  31.310  34.294  1.00  0.00     0.034 A 
ATOM     47  C   UNL A   1      42.552  27.180  30.143  1.00  0.00     0.049 A 
ATOM     48  C   UNL A   1      40.830  30.420  34.401  1.00  0.00     0.074 A 
ATOM     49  C   UNL A   1      43.721  26.468  30.346  1.00  0.00     0.029 A 
ATOM     50  N   UNL A   1      42.297  27.864  31.325  1.00  0.00    -0.354 N 
ATOM     51  N   UNL A   1      41.347  29.616  33.500  1.00  0.00    -0.248 NA
ATOM     52  C   UNL A   1      41.544  30.429  35.683  1.00  0.00     0.031 C 
ATOM     53  C   UNL A   1      44.140  26.675  31.667  1.00  0.00     0.029 A 
ATOM     54  C   UNL A   1      43.271  27.570  32.268  1.00  0.00     0.049 A 
ATOM     55  H   UNL A   1      41.535  28.471  31.471  1.00  0.00     0.167 HD
ATOM     56  C   UNL A   1      42.457  29.035  34.103  1.00  0.00     0.074 A 
ATOM     57  C   UNL A   1      42.545  29.595  35.438  1.00  0.00     0.031 C 
ATOM     58  C   UNL A   1      43.327  28.122  33.602  1.00  0.00     0.034 A 
BRANCH  45  59
ATOM     59  C   UNL A   1      42.076  26.359  27.781  1.00  0.00     0.023 A 
ATOM     60  C   UNL A   1      41.649  25.023  27.684  1.00  0.00     0.031 A 
ATOM     61  C   UNL A   1      42.884  26.866  26.746  1.00  0.00     0.131 A 
ATOM     62  C   UNL A   1      42.087  24.222  26.618  1.00  0.00     0.055 A 
ATOM     63  C   UNL A   1      43.255  26.084  25.649  1.00  0.00     0.041 A 
ATOM     64  F   UNL A   1      43.340  28.127  26.791  1.00  0.00    -0.206 F 
ATOM     65  C   UNL A   1      42.868  24.749  25.587  1.00  0.00     0.022 A 
BRANCH  62  66
ATOM     66  S   UNL A   1      41.734  22.442  26.666  1.00  0.00     0.124 S 
ATOM     67  O   UNL A   1      42.225  22.007  25.360  1.00  0.00    -0.237 OA
ATOM     68  O   UNL A   1      42.507  21.999  27.820  1.00  0.00    -0.237 OA
ATOM     69  O   UNL A   1      40.283  22.384  26.827  1.00  0.00    -0.744 OA
ENDBRANCH  62  66
ENDBRANCH  45  59
BRANCH  46  70
ATOM     70  C   UNL A   1      39.148  32.103  35.464  1.00  0.00     0.023 A 
ATOM     71  C   UNL A   1      38.485  31.488  36.536  1.00  0.00     0.031 A 
ATOM     72  C   UNL A   1      39.335  33.497  35.514  1.00  0.00     0.131 A 
ATOM     73  C   UNL A   1      38.009  32.267  37.602  1.00  0.00     0.055 A 
ATOM     74  C   UNL A   1      38.903  34.261  36.599  1.00  0.00     0.041 A 
ATOM     75  F   UNL A   1      39.963  34.135  34.513  1.00  0.00    -0.206 F 
ATOM     76  C   UNL A   1      38.226  33.647  37.647  1.00  0.00     0.022 A 
BRANCH  73  77
ATOM     77  S   UNL A   1      37.042  31.457  38.906  1.00  0.00     0.124 S 
ATOM     78  O   UNL A   1      37.014  30.074  38.441  1.00  0.00    -0.237 OA
ATOM     79  O   UNL A   1      37.852  31.720  40.091  1.00  0.00    -0.237 OA
ATOM     80  O   UNL A   1      35.760  32.156  38.863  1.00  0.00    -0.744 OA
ENDBRANCH  73  77
ENDBRANCH  46  70
BRANCH  58  81
ATOM     81  C   UNL A   1      44.467  27.709  34.501  1.00  0.00     0.023 A 
ATOM     82  C   UNL A   1      44.249  26.952  35.665  1.00  0.00     0.031 A 
ATOM     83  C   UNL A   1      45.782  28.108  34.203  1.00  0.00     0.131 A 
ATOM     84  C   UNL A   1      45.324  26.666  36.521  1.00  0.00     0.055 A 
ATOM     85  C   UNL A   1      46.855  27.772  35.028  1.00  0.00     0.041 A 
ATOM     86  F   UNL A   1      46.042  28.835  33.104  1.00  0.00    -0.206 F 
ATOM     87  C   UNL A   1      46.627  27.058  36.202  1.00  0.00     0.022 A 
BRANCH  84  88
ATOM     88  S   UNL A   1      44.983  25.852  38.105  1.00  0.00     0.124 S 
ATOM     89  O   UNL A   1      46.071  26.346  38.941  1.00  0.00    -0.237 OA
ATOM     90  O   UNL A   1      43.650  26.350  38.432  1.00  0.00    -0.237 OA
ATOM     91  O   UNL A   1      45.047  24.428  37.779  1.00  0.00    -0.744 OA
ENDBRANCH  84  88
ENDBRANCH  58  81
ENDBRANCH  32  33
ENDBRANCH  25  27
ENDBRANCH  24  25
ENDBRANCH  23  24
ENDBRANCH   1  23
TORSDOF 20
ENDMDL
MODEL 3
REMARK VINA RESULT:     -10.3      5.094      9.980
REMARK SMILES CCC([NH3+])(CC)C(=O)N1C[C@@H](O)C[C@H]1C(=O)OCCOC(=O)c1ccc(-c2c3nc(c(-c4cc(S(=O)(=O)[O-])ccc4F)c4ccc([nH]4)c(-c4cc(S(=O)(=O)[O-])ccc4F)c4nc(c(-c5cc(S(=O)(=O)[O-])ccc5F)c5ccc2[nH]5)C=C4)C=C3)cc1
REMARK SMILES IDX 18 1 17 2 15 3 16 4 14 5 9 6 10 7 11 8 13 9 7 10 8 11 3 12
REMARK SMILES IDX 2 13 1 14 4 15 5 19 6 20 12 21 19 23 20 24 21 25 22 26 23 27
REMARK SMILES IDX 24 28 85 29 25 30 84 31 26 32 27 33 28 34 78 35 29 36 83 37
REMARK SMILES IDX 77 38 79 39 30 40 82 41 76 42 75 43 31 45 63 46 43 47 62 48
REMARK SMILES IDX 44 49 47 50 61 51 80 52 45 53 46 54 60 56 81 57 48 58 32 59
REMARK SMILES IDX 33 60 41 61 34 62 40 63 42 64 39 65 35 66 36 67 37 68 38 69
REMARK SMILES IDX 64 70 65 71 73 72 66 73 72 74 74 75 71 76 67 77 68 78 69 79
REMARK SMILES IDX 70 80 49 81 50 82 58 83 51 84 57 85 59 86 56 87 52 88 53 89
REMARK SMILES IDX 54 90 55 91
REMARK H PARENT 4 16 4 17 4 18 12 22 79 44 47 55
REMARK Flexibility Score: inf
ROOT
ATOM      1  C   UNL A   1      35.092  22.208  24.213  1.00  0.00     0.274 C 
ENDROOT
BRANCH   1   2
ATOM      2  O   UNL A   1      33.654  22.160  24.278  1.00  0.00    -0.461 OA
BRANCH   2   3
ATOM      3  C   UNL A   1      33.099  23.169  24.998  1.00  0.00     0.329 C 
ATOM      4  O   UNL A   1      33.015  23.183  26.225  1.00  0.00    -0.250 OA
BRANCH   3   5
ATOM      5  C   UNL A   1      32.475  24.284  24.154  1.00  0.00     0.198 C 
ATOM      6  N   UNL A   1      33.120  25.586  23.952  1.00  0.00    -0.321 N 
ATOM      7  C   UNL A   1      33.370  25.826  22.546  1.00  0.00     0.152 C 
ATOM      8  C   UNL A   1      32.433  24.878  21.807  1.00  0.00     0.136 C 
ATOM      9  C   UNL A   1      32.288  23.698  22.750  1.00  0.00     0.070 C 
BRANCH   6  10
ATOM     10  C   UNL A   1      33.168  26.461  25.026  1.00  0.00     0.284 C 
ATOM     11  O   UNL A   1      34.085  26.325  25.841  1.00  0.00    -0.268 OA
BRANCH  10  12
ATOM     12  C   UNL A   1      31.969  27.458  25.308  1.00  0.00     0.173 C 
BRANCH  12  13
ATOM     13  C   UNL A   1      31.749  27.617  26.850  1.00  0.00     0.075 C 
ATOM     14  C   UNL A   1      31.772  29.036  27.425  1.00  0.00     0.011 C 
ENDBRANCH  12  13
BRANCH  12  15
ATOM     15  N   UNL A   1      30.736  26.867  24.721  1.00  0.00    -0.345 N 
ATOM     16  H   UNL A   1      30.416  27.448  23.946  1.00  0.00     0.345 HD
ATOM     17  H   UNL A   1      30.008  26.820  25.434  1.00  0.00     0.345 HD
ATOM     18  H   UNL A   1      30.939  25.927  24.379  1.00  0.00     0.345 HD
ENDBRANCH  12  15
BRANCH  12  19
ATOM     19  C   UNL A   1      32.112  28.879  24.705  1.00  0.00     0.075 C 
ATOM     20  C   UNL A   1      33.333  29.092  23.823  1.00  0.00     0.011 C 
ENDBRANCH  12  19
ENDBRANCH  10  12
ENDBRANCH   6  10
BRANCH   8  21
ATOM     21  O   UNL A   1      32.954  24.471  20.552  1.00  0.00    -0.391 OA
ATOM     22  H   UNL A   1      32.242  24.469  19.893  1.00  0.00     0.211 HD
ENDBRANCH   8  21
ENDBRANCH   3   5
ENDBRANCH   2   3
ENDBRANCH   1   2
BRANCH   1  23
ATOM     23  C   UNL A   1      35.711  21.102  25.066  1.00  0.00     0.275 C 
BRANCH  23  24
ATOM     24  O   UNL A   1      36.680  21.661  25.968  1.00  0.00    -0.458 OA
BRANCH  24  25
ATOM     25  C   UNL A   1      37.963  21.307  25.718  1.00  0.00     0.338 C 
ATOM     26  O   UNL A   1      38.350  20.225  25.311  1.00  0.00    -0.246 OA
BRANCH  25  27
ATOM     27  C   UNL A   1      38.879  22.398  26.122  1.00  0.00     0.060 A 
ATOM     28  C   UNL A   1      40.047  22.165  26.854  1.00  0.00     0.016 A 
ATOM     29  C   UNL A   1      38.518  23.704  25.791  1.00  0.00     0.016 A 
ATOM     30  C   UNL A   1      40.825  23.237  27.300  1.00  0.00     0.010 A 
ATOM     31  C   UNL A   1      39.328  24.770  26.180  1.00  0.00     0.010 A 
ATOM     32  C   UNL A   1      40.475  24.552  26.961  1.00  0.00    -0.014 A 
BRANCH  32  33
ATOM     33  C   UNL A   1      41.269  25.720  27.425  1.00  0.00     0.031 A 
ATOM     34  C   UNL A   1      40.623  26.756  28.307  1.00  0.00     0.074 A 
ATOM     35  C   UNL A   1      42.539  25.887  27.008  1.00  0.00     0.049 A 
ATOM     36  N   UNL A   1      41.050  27.945  28.645  1.00  0.00    -0.248 NA
ATOM     37  C   UNL A   1      39.309  26.407  28.866  1.00  0.00     0.031 C 
ATOM     38  C   UNL A   1      43.287  24.941  26.178  1.00  0.00     0.029 A 
ATOM     39  N   UNL A   1      43.419  26.922  27.205  1.00  0.00    -0.354 N 
ATOM     40  C   UNL A   1      40.044  28.505  29.425  1.00  0.00     0.074 A 
ATOM     41  C   UNL A   1      38.977  27.527  29.492  1.00  0.00     0.031 C 
ATOM     42  C   UNL A   1      44.509  25.438  25.936  1.00  0.00     0.029 A 
ATOM     43  C   UNL A   1      44.607  26.768  26.530  1.00  0.00     0.049 A 
ATOM     44  H   UNL A   1      43.218  27.700  27.774  1.00  0.00     0.167 HD
ATOM     45  C   UNL A   1      40.013  29.721  30.026  1.00  0.00     0.034 A 
ATOM     46  C   UNL A   1      45.639  27.619  26.364  1.00  0.00     0.034 A 
ATOM     47  C   UNL A   1      41.095  30.677  29.953  1.00  0.00     0.049 A 
ATOM     48  C   UNL A   1      45.562  28.986  26.990  1.00  0.00     0.074 A 
ATOM     49  C   UNL A   1      41.184  31.927  30.540  1.00  0.00     0.029 A 
ATOM     50  N   UNL A   1      42.275  30.489  29.245  1.00  0.00    -0.354 N 
ATOM     51  N   UNL A   1      44.594  29.516  27.702  1.00  0.00    -0.248 NA
ATOM     52  C   UNL A   1      46.714  29.873  26.785  1.00  0.00     0.031 C 
ATOM     53  C   UNL A   1      42.388  32.518  30.138  1.00  0.00     0.029 A 
ATOM     54  C   UNL A   1      43.084  31.611  29.357  1.00  0.00     0.049 A 
ATOM     55  H   UNL A   1      42.504  29.678  28.736  1.00  0.00     0.167 HD
ATOM     56  C   UNL A   1      45.028  30.792  28.043  1.00  0.00     0.074 A 
ATOM     57  C   UNL A   1      46.353  30.946  27.473  1.00  0.00     0.031 C 
ATOM     58  C   UNL A   1      44.393  31.753  28.762  1.00  0.00     0.034 A 
BRANCH  45  59
ATOM     59  C   UNL A   1      38.750  30.103  30.762  1.00  0.00     0.023 A 
ATOM     60  C   UNL A   1      37.707  30.808  30.136  1.00  0.00     0.031 A 
ATOM     61  C   UNL A   1      38.601  29.781  32.123  1.00  0.00     0.131 A 
ATOM     62  C   UNL A   1      36.596  31.228  30.886  1.00  0.00     0.055 A 
ATOM     63  C   UNL A   1      37.459  30.137  32.845  1.00  0.00     0.041 A 
ATOM     64  F   UNL A   1      39.571  29.127  32.781  1.00  0.00    -0.206 F 
ATOM     65  C   UNL A   1      36.455  30.878  32.231  1.00  0.00     0.022 A 
BRANCH  62  66
ATOM     66  S   UNL A   1      35.402  32.356  30.113  1.00  0.00     0.124 S 
ATOM     67  O   UNL A   1      34.417  32.519  31.179  1.00  0.00    -0.237 OA
ATOM     68  O   UNL A   1      36.221  33.524  29.815  1.00  0.00    -0.237 OA
ATOM     69  O   UNL A   1      34.930  31.611  28.948  1.00  0.00    -0.744 OA
ENDBRANCH  62  66
ENDBRANCH  45  59
BRANCH  46  70
ATOM     70  C   UNL A   1      46.807  27.227  25.524  1.00  0.00     0.023 A 
ATOM     71  C   UNL A   1      46.959  27.719  24.220  1.00  0.00     0.031 A 
ATOM     72  C   UNL A   1      47.778  26.333  26.012  1.00  0.00     0.131 A 
ATOM     73  C   UNL A   1      48.043  27.295  23.435  1.00  0.00     0.055 A 
ATOM     74  C   UNL A   1      48.880  25.951  25.245  1.00  0.00     0.041 A 
ATOM     75  F   UNL A   1      47.679  25.832  27.254  1.00  0.00    -0.206 F 
ATOM     76  C   UNL A   1      49.011  26.426  23.944  1.00  0.00     0.022 A 
BRANCH  73  77
ATOM     77  S   UNL A   1      48.136  27.849  21.711  1.00  0.00     0.124 S 
ATOM     78  O   UNL A   1      46.787  28.357  21.487  1.00  0.00    -0.237 OA
ATOM     79  O   UNL A   1      49.198  28.849  21.771  1.00  0.00    -0.237 OA
ATOM     80  O   UNL A   1      48.473  26.629  20.980  1.00  0.00    -0.744 OA
ENDBRANCH  73  77
ENDBRANCH  46  70
BRANCH  58  81
ATOM     81  C   UNL A   1      45.152  33.036  28.995  1.00  0.00     0.023 A 
ATOM     82  C   UNL A   1      45.061  34.118  28.103  1.00  0.00     0.031 A 
ATOM     83  C   UNL A   1      46.001  33.162  30.109  1.00  0.00     0.131 A 
ATOM     84  C   UNL A   1      45.852  35.259  28.308  1.00  0.00     0.055 A 
ATOM     85  C   UNL A   1      46.742  34.321  30.339  1.00  0.00     0.041 A 
ATOM     86  F   UNL A   1      46.125  32.156  30.990  1.00  0.00    -0.206 F 
ATOM     87  C   UNL A   1      46.680  35.373  29.428  1.00  0.00     0.022 A 
BRANCH  84  88
ATOM     88  S   UNL A   1      45.853  36.557  27.042  1.00  0.00     0.124 S 
ATOM     89  O   UNL A   1      46.809  37.514  27.589  1.00  0.00    -0.237 OA
ATOM     90  O   UNL A   1      46.284  35.832  25.851  1.00  0.00    -0.237 OA
ATOM     91  O   UNL A   1      44.464  37.013  27.018  1.00  0.00    -0.744 OA
ENDBRANCH  84  88
ENDBRANCH  58  81
ENDBRANCH  32  33
ENDBRANCH  25  27
ENDBRANCH  24  25
ENDBRANCH  23  24
ENDBRANCH   1  23
TORSDOF 20
ENDMDL
