MODEL 1
REMARK VINA RESULT:     -12.7      0.000      0.000
REMARK SMILES Cc1cccc(-c2ccc(Cl)c(C(=O)OCCOC(=O)c3ccc(-c4c5nc(c(-c6cc(S(=O)(=O)[O-])ccc6F)c6ccc([nH]6)c(-c6cc(S(=O)(=O)[O-])ccc6F)c6nc(c(-c7cc(S(=O)(=O)[O-])ccc7F)c7ccc4[nH]7)C=C6)C=C5)cc3)c2)c1
REMARK SMILES IDX 17 1 16 2 15 3 13 4 14 5 12 6 7 7 8 8 84 9 9 10 10 11 11 12
REMARK SMILES IDX 6 13 1 14 2 15 3 16 85 17 4 18 5 19 18 20 19 21 20 22 21 23
REMARK SMILES IDX 22 24 83 25 23 26 82 27 24 28 25 29 26 30 76 31 27 32 81 33
REMARK SMILES IDX 75 34 77 35 28 36 80 37 74 38 73 39 29 41 61 42 41 43 60 44
REMARK SMILES IDX 42 45 45 46 59 47 78 48 43 49 44 50 58 52 79 53 46 54 30 55
REMARK SMILES IDX 31 56 39 57 32 58 38 59 40 60 37 61 33 62 34 63 35 64 36 65
REMARK SMILES IDX 62 66 63 67 71 68 64 69 70 70 72 71 69 72 65 73 66 74 67 75
REMARK SMILES IDX 68 76 47 77 48 78 56 79 49 80 55 81 57 82 54 83 50 84 51 85
REMARK SMILES IDX 52 86 53 87
REMARK H PARENT 77 40 45 51
REMARK Flexibility Score: inf
ROOT
ATOM      1  C   UNL A   1      34.189  29.439  27.391  1.00  0.00     0.275 C 
ENDROOT
BRANCH   1   2
ATOM      2  C   UNL A   1      33.894  28.555  26.170  1.00  0.00     0.275 C 
BRANCH   2   3
ATOM      3  O   UNL A   1      33.089  27.398  26.475  1.00  0.00    -0.458 OA
BRANCH   3   4
ATOM      4  C   UNL A   1      31.770  27.704  26.561  1.00  0.00     0.339 C 
ATOM      5  O   UNL A   1      31.186  27.989  27.597  1.00  0.00    -0.246 OA
BRANCH   4   6
ATOM      6  C   UNL A   1      31.012  27.613  25.295  1.00  0.00     0.079 A 
ATOM      7  C   UNL A   1      29.662  28.737  23.571  1.00  0.00    -0.017 A 
ATOM      8  C   UNL A   1      28.999  27.510  23.375  1.00  0.00     0.010 A 
ATOM      9  C   UNL A   1      30.716  28.752  24.513  1.00  0.00     0.026 A 
ATOM     10  C   UNL A   1      29.347  26.359  24.080  1.00  0.00     0.022 A 
ATOM     11  C   UNL A   1      30.348  26.408  25.043  1.00  0.00     0.055 A 
ATOM     12  Cl  UNL A   1      30.733  24.926  25.852  1.00  0.00    -0.083 Cl
BRANCH   7  13
ATOM     13  C   UNL A   1      29.200  29.933  22.814  1.00  0.00    -0.018 A 
ATOM     14  C   UNL A   1      29.096  33.748  23.319  1.00  0.00     0.044 C 
ATOM     15  C   UNL A   1      28.898  32.389  22.711  1.00  0.00    -0.051 A 
ATOM     16  C   UNL A   1      28.140  32.244  21.549  1.00  0.00     0.003 A 
ATOM     17  C   UNL A   1      29.426  31.237  23.320  1.00  0.00     0.012 A 
ATOM     18  C   UNL A   1      27.946  30.978  20.997  1.00  0.00     0.001 A 
ATOM     19  C   UNL A   1      28.472  29.835  21.619  1.00  0.00     0.009 A 
ENDBRANCH   7  13
ENDBRANCH   4   6
ENDBRANCH   3   4
ENDBRANCH   2   3
ENDBRANCH   1   2
BRANCH   1  20
ATOM     20  O   UNL A   1      35.511  30.037  27.477  1.00  0.00    -0.458 OA
BRANCH  20  21
ATOM     21  C   UNL A   1      36.313  30.073  28.579  1.00  0.00     0.338 C 
ATOM     22  O   UNL A   1      35.921  30.564  29.637  1.00  0.00    -0.246 OA
BRANCH  21  23
ATOM     23  C   UNL A   1      37.573  29.304  28.522  1.00  0.00     0.060 A 
ATOM     24  C   UNL A   1      38.502  29.574  27.502  1.00  0.00     0.016 A 
ATOM     25  C   UNL A   1      37.903  28.457  29.567  1.00  0.00     0.016 A 
ATOM     26  C   UNL A   1      39.809  29.130  27.613  1.00  0.00     0.010 A 
ATOM     27  C   UNL A   1      39.223  28.182  29.787  1.00  0.00     0.010 A 
ATOM     28  C   UNL A   1      40.158  28.463  28.781  1.00  0.00    -0.014 A 
BRANCH  28  29
ATOM     29  C   UNL A   1      41.386  27.706  28.927  1.00  0.00     0.031 A 
ATOM     30  C   UNL A   1      41.443  26.298  28.523  1.00  0.00     0.074 A 
ATOM     31  C   UNL A   1      42.390  28.487  29.384  1.00  0.00     0.049 A 
ATOM     32  N   UNL A   1      42.194  25.406  29.059  1.00  0.00    -0.248 NA
ATOM     33  C   UNL A   1      40.564  25.735  27.500  1.00  0.00     0.031 C 
ATOM     34  C   UNL A   1      43.819  28.300  29.504  1.00  0.00     0.029 A 
ATOM     35  N   UNL A   1      42.172  29.697  30.050  1.00  0.00    -0.354 N 
ATOM     36  C   UNL A   1      42.216  24.336  28.183  1.00  0.00     0.074 A 
ATOM     37  C   UNL A   1      41.032  24.488  27.384  1.00  0.00     0.031 C 
ATOM     38  C   UNL A   1      44.277  29.150  30.450  1.00  0.00     0.029 A 
ATOM     39  C   UNL A   1      43.122  29.824  31.046  1.00  0.00     0.049 A 
ATOM     40  H   UNL A   1      41.461  30.347  29.845  1.00  0.00     0.167 HD
ATOM     41  C   UNL A   1      43.372  23.619  28.067  1.00  0.00     0.034 A 
ATOM     42  C   UNL A   1      42.657  29.682  32.325  1.00  0.00     0.034 A 
ATOM     43  C   UNL A   1      44.355  24.151  29.015  1.00  0.00     0.049 A 
ATOM     44  C   UNL A   1      43.154  28.372  32.897  1.00  0.00     0.074 A 
ATOM     45  C   UNL A   1      45.392  25.055  28.860  1.00  0.00     0.029 A 
ATOM     46  N   UNL A   1      44.073  24.103  30.374  1.00  0.00    -0.354 N 
ATOM     47  N   UNL A   1      43.411  27.301  32.188  1.00  0.00    -0.248 NA
ATOM     48  C   UNL A   1      43.527  28.229  34.296  1.00  0.00     0.031 C 
ATOM     49  C   UNL A   1      45.646  25.640  30.133  1.00  0.00     0.029 A 
ATOM     50  C   UNL A   1      44.770  25.084  31.052  1.00  0.00     0.049 A 
ATOM     51  H   UNL A   1      43.460  23.457  30.795  1.00  0.00     0.167 HD
ATOM     52  C   UNL A   1      44.078  26.391  32.968  1.00  0.00     0.074 A 
ATOM     53  C   UNL A   1      44.107  27.018  34.283  1.00  0.00     0.031 C 
ATOM     54  C   UNL A   1      44.598  25.216  32.489  1.00  0.00     0.034 A 
BRANCH  41  55
ATOM     55  C   UNL A   1      43.769  22.716  26.912  1.00  0.00     0.023 A 
ATOM     56  C   UNL A   1      43.188  21.429  26.841  1.00  0.00     0.031 A 
ATOM     57  C   UNL A   1      44.698  23.002  25.892  1.00  0.00     0.131 A 
ATOM     58  C   UNL A   1      43.572  20.486  25.868  1.00  0.00     0.055 A 
ATOM     59  C   UNL A   1      45.097  22.058  24.931  1.00  0.00     0.041 A 
ATOM     60  F   UNL A   1      45.239  24.215  25.738  1.00  0.00    -0.206 F 
ATOM     61  C   UNL A   1      44.540  20.789  24.918  1.00  0.00     0.022 A 
BRANCH  58  62
ATOM     62  S   UNL A   1      42.781  18.855  25.866  1.00  0.00     0.124 S 
ATOM     63  O   UNL A   1      42.835  18.484  27.277  1.00  0.00    -0.237 OA
ATOM     64  O   UNL A   1      41.460  19.149  25.324  1.00  0.00    -0.237 OA
ATOM     65  O   UNL A   1      43.642  18.061  24.988  1.00  0.00    -0.744 OA
ENDBRANCH  58  62
ENDBRANCH  41  55
BRANCH  42  66
ATOM     66  C   UNL A   1      41.302  30.318  32.558  1.00  0.00     0.023 A 
ATOM     67  C   UNL A   1      41.094  31.618  32.027  1.00  0.00     0.031 A 
ATOM     68  C   UNL A   1      40.159  29.630  32.986  1.00  0.00     0.131 A 
ATOM     69  C   UNL A   1      39.803  32.107  31.764  1.00  0.00     0.055 A 
ATOM     70  C   UNL A   1      38.866  30.165  32.814  1.00  0.00     0.041 A 
ATOM     71  F   UNL A   1      40.254  28.393  33.495  1.00  0.00    -0.206 F 
ATOM     72  C   UNL A   1      38.678  31.390  32.163  1.00  0.00     0.022 A 
BRANCH  69  73
ATOM     73  S   UNL A   1      39.646  33.527  30.633  1.00  0.00     0.124 S 
ATOM     74  O   UNL A   1      39.171  34.581  31.523  1.00  0.00    -0.237 OA
ATOM     75  O   UNL A   1      41.013  33.682  30.134  1.00  0.00    -0.237 OA
ATOM     76  O   UNL A   1      38.690  33.073  29.628  1.00  0.00    -0.744 OA
ENDBRANCH  69  73
ENDBRANCH  42  66
BRANCH  54  77
ATOM     77  C   UNL A   1      45.065  24.066  33.350  1.00  0.00     0.023 A 
ATOM     78  C   UNL A   1      46.341  24.025  33.912  1.00  0.00     0.031 A 
ATOM     79  C   UNL A   1      44.193  23.012  33.724  1.00  0.00     0.131 A 
ATOM     80  C   UNL A   1      46.753  22.934  34.685  1.00  0.00     0.055 A 
ATOM     81  C   UNL A   1      44.562  22.001  34.611  1.00  0.00     0.041 A 
ATOM     82  F   UNL A   1      42.939  22.918  33.257  1.00  0.00    -0.206 F 
ATOM     83  C   UNL A   1      45.864  21.940  35.078  1.00  0.00     0.022 A 
BRANCH  80  84
ATOM     84  S   UNL A   1      48.519  22.796  35.041  1.00  0.00     0.124 S 
ATOM     85  O   UNL A   1      48.525  22.777  36.501  1.00  0.00    -0.237 OA
ATOM     86  O   UNL A   1      48.874  21.538  34.393  1.00  0.00    -0.237 OA
ATOM     87  O   UNL A   1      49.086  23.996  34.432  1.00  0.00    -0.744 OA
ENDBRANCH  80  84
ENDBRANCH  54  77
ENDBRANCH  28  29
ENDBRANCH  21  23
ENDBRANCH  20  21
ENDBRANCH   1  20
TORSDOF 15
ENDMDL
MODEL 2
REMARK VINA RESULT:     -12.5      2.628      4.352
REMARK SMILES Cc1cccc(-c2ccc(Cl)c(C(=O)OCCOC(=O)c3ccc(-c4c5nc(c(-c6cc(S(=O)(=O)[O-])ccc6F)c6ccc([nH]6)c(-c6cc(S(=O)(=O)[O-])ccc6F)c6nc(c(-c7cc(S(=O)(=O)[O-])ccc7F)c7ccc4[nH]7)C=C6)C=C5)cc3)c2)c1
REMARK SMILES IDX 17 1 16 2 15 3 13 4 14 5 12 6 7 7 8 8 84 9 9 10 10 11 11 12
REMARK SMILES IDX 6 13 1 14 2 15 3 16 85 17 4 18 5 19 18 20 19 21 20 22 21 23
REMARK SMILES IDX 22 24 83 25 23 26 82 27 24 28 25 29 26 30 76 31 27 32 81 33
REMARK SMILES IDX 75 34 77 35 28 36 80 37 74 38 73 39 29 41 61 42 41 43 60 44
REMARK SMILES IDX 42 45 45 46 59 47 78 48 43 49 44 50 58 52 79 53 46 54 30 55
REMARK SMILES IDX 31 56 39 57 32 58 38 59 40 60 37 61 33 62 34 63 35 64 36 65
REMARK SMILES IDX 62 66 63 67 71 68 64 69 70 70 72 71 69 72 65 73 66 74 67 75
REMARK SMILES IDX 68 76 47 77 48 78 56 79 49 80 55 81 57 82 54 83 50 84 51 85
REMARK SMILES IDX 52 86 53 87
REMARK H PARENT 77 40 45 51
REMARK Flexibility Score: inf
ROOT
ATOM      1  C   UNL A   1      34.376  30.671  27.620  1.00  0.00     0.275 C 
ENDROOT
BRANCH   1   2
ATOM      2  C   UNL A   1      33.169  30.072  26.883  1.00  0.00     0.275 C 
BRANCH   2   3
ATOM      3  O   UNL A   1      33.497  28.918  26.082  1.00  0.00    -0.458 OA
BRANCH   3   4
ATOM      4  C   UNL A   1      32.707  27.854  26.374  1.00  0.00     0.339 C 
ATOM      5  O   UNL A   1      31.956  27.786  27.336  1.00  0.00    -0.246 OA
BRANCH   4   6
ATOM      6  C   UNL A   1      32.846  26.693  25.470  1.00  0.00     0.079 A 
ATOM      7  C   UNL A   1      34.172  24.757  24.726  1.00  0.00    -0.017 A 
ATOM      8  C   UNL A   1      33.622  24.948  23.444  1.00  0.00     0.010 A 
ATOM      9  C   UNL A   1      33.724  25.622  25.750  1.00  0.00     0.026 A 
ATOM     10  C   UNL A   1      32.686  25.948  23.181  1.00  0.00     0.022 A 
ATOM     11  C   UNL A   1      32.300  26.823  24.188  1.00  0.00     0.055 A 
ATOM     12  Cl  UNL A   1      31.114  28.017  23.780  1.00  0.00    -0.083 Cl
BRANCH   7  13
ATOM     13  C   UNL A   1      35.202  23.698  24.916  1.00  0.00    -0.018 A 
ATOM     14  C   UNL A   1      35.338  19.852  25.001  1.00  0.00     0.044 C 
ATOM     15  C   UNL A   1      35.760  21.292  25.080  1.00  0.00    -0.051 A 
ATOM     16  C   UNL A   1      37.049  21.622  25.497  1.00  0.00     0.003 A 
ATOM     17  C   UNL A   1      34.860  22.330  24.784  1.00  0.00     0.012 A 
ATOM     18  C   UNL A   1      37.432  22.961  25.584  1.00  0.00     0.001 A 
ATOM     19  C   UNL A   1      36.521  23.988  25.293  1.00  0.00     0.009 A 
ENDBRANCH   7  13
ENDBRANCH   4   6
ENDBRANCH   3   4
ENDBRANCH   2   3
ENDBRANCH   1   2
BRANCH   1  20
ATOM     20  O   UNL A   1      35.653  29.992  27.471  1.00  0.00    -0.458 OA
BRANCH  20  21
ATOM     21  C   UNL A   1      36.847  30.391  27.994  1.00  0.00     0.338 C 
ATOM     22  O   UNL A   1      36.953  31.457  28.601  1.00  0.00    -0.246 OA
BRANCH  21  23
ATOM     23  C   UNL A   1      37.944  29.402  28.001  1.00  0.00     0.060 A 
ATOM     24  C   UNL A   1      38.816  29.329  26.901  1.00  0.00     0.016 A 
ATOM     25  C   UNL A   1      38.207  28.684  29.156  1.00  0.00     0.016 A 
ATOM     26  C   UNL A   1      40.031  28.672  27.016  1.00  0.00     0.010 A 
ATOM     27  C   UNL A   1      39.473  28.206  29.349  1.00  0.00     0.010 A 
ATOM     28  C   UNL A   1      40.354  28.145  28.261  1.00  0.00    -0.014 A 
BRANCH  28  29
ATOM     29  C   UNL A   1      41.439  27.205  28.468  1.00  0.00     0.031 A 
ATOM     30  C   UNL A   1      41.198  25.762  28.374  1.00  0.00     0.074 A 
ATOM     31  C   UNL A   1      42.612  27.848  28.665  1.00  0.00     0.049 A 
ATOM     32  N   UNL A   1      41.840  24.863  29.028  1.00  0.00    -0.248 NA
ATOM     33  C   UNL A   1      40.119  25.193  27.569  1.00  0.00     0.031 C 
ATOM     34  C   UNL A   1      43.989  27.411  28.708  1.00  0.00     0.029 A 
ATOM     35  N   UNL A   1      42.690  29.184  29.070  1.00  0.00    -0.354 N 
ATOM     36  C   UNL A   1      41.569  23.658  28.403  1.00  0.00     0.074 A 
ATOM     37  C   UNL A   1      40.344  23.880  27.687  1.00  0.00     0.031 C 
ATOM     38  C   UNL A   1      44.698  28.323  29.410  1.00  0.00     0.029 A 
ATOM     39  C   UNL A   1      43.759  29.314  29.936  1.00  0.00     0.049 A 
ATOM     40  H   UNL A   1      42.085  29.908  28.787  1.00  0.00     0.167 HD
ATOM     41  C   UNL A   1      42.559  22.720  28.352  1.00  0.00     0.034 A 
ATOM     42  C   UNL A   1      43.432  29.521  31.249  1.00  0.00     0.034 A 
ATOM     43  C   UNL A   1      43.726  23.224  29.083  1.00  0.00     0.049 A 
ATOM     44  C   UNL A   1      43.756  28.277  32.047  1.00  0.00     0.074 A 
ATOM     45  C   UNL A   1      44.880  23.858  28.654  1.00  0.00     0.029 A 
ATOM     46  N   UNL A   1      43.603  23.500  30.438  1.00  0.00    -0.354 N 
ATOM     47  N   UNL A   1      43.734  27.059  31.568  1.00  0.00    -0.248 NA
ATOM     48  C   UNL A   1      44.262  28.341  33.410  1.00  0.00     0.031 C 
ATOM     49  C   UNL A   1      45.382  24.620  29.748  1.00  0.00     0.029 A 
ATOM     50  C   UNL A   1      44.537  24.439  30.832  1.00  0.00     0.049 A 
ATOM     51  H   UNL A   1      42.941  23.082  31.036  1.00  0.00     0.167 HD
ATOM     52  C   UNL A   1      44.319  26.207  32.469  1.00  0.00     0.074 A 
ATOM     53  C   UNL A   1      44.614  27.061  33.613  1.00  0.00     0.031 C 
ATOM     54  C   UNL A   1      44.564  24.882  32.215  1.00  0.00     0.034 A 
BRANCH  41  55
ATOM     55  C   UNL A   1      42.651  21.547  27.391  1.00  0.00     0.023 A 
ATOM     56  C   UNL A   1      43.702  21.541  26.446  1.00  0.00     0.031 A 
ATOM     57  C   UNL A   1      41.771  20.451  27.304  1.00  0.00     0.131 A 
ATOM     58  C   UNL A   1      43.808  20.551  25.450  1.00  0.00     0.055 A 
ATOM     59  C   UNL A   1      41.862  19.473  26.299  1.00  0.00     0.041 A 
ATOM     60  F   UNL A   1      40.804  20.238  28.202  1.00  0.00    -0.206 F 
ATOM     61  C   UNL A   1      42.880  19.522  25.360  1.00  0.00     0.022 A 
BRANCH  58  62
ATOM     62  S   UNL A   1      45.183  20.635  24.271  1.00  0.00     0.124 S 
ATOM     63  O   UNL A   1      44.826  19.600  23.307  1.00  0.00    -0.237 OA
ATOM     64  O   UNL A   1      45.106  22.014  23.800  1.00  0.00    -0.237 OA
ATOM     65  O   UNL A   1      46.355  20.333  25.093  1.00  0.00    -0.744 OA
ENDBRANCH  58  62
ENDBRANCH  41  55
BRANCH  42  66
ATOM     66  C   UNL A   1      42.247  30.444  31.447  1.00  0.00     0.023 A 
ATOM     67  C   UNL A   1      41.115  29.915  32.120  1.00  0.00     0.031 A 
ATOM     68  C   UNL A   1      42.284  31.836  31.291  1.00  0.00     0.131 A 
ATOM     69  C   UNL A   1      40.185  30.749  32.763  1.00  0.00     0.055 A 
ATOM     70  C   UNL A   1      41.294  32.670  31.851  1.00  0.00     0.041 A 
ATOM     71  F   UNL A   1      43.316  32.430  30.674  1.00  0.00    -0.206 F 
ATOM     72  C   UNL A   1      40.261  32.132  32.627  1.00  0.00     0.022 A 
BRANCH  69  73
ATOM     73  S   UNL A   1      39.087  29.996  34.008  1.00  0.00     0.124 S 
ATOM     74  O   UNL A   1      40.038  29.380  34.927  1.00  0.00    -0.237 OA
ATOM     75  O   UNL A   1      38.360  31.155  34.525  1.00  0.00    -0.237 OA
ATOM     76  O   UNL A   1      38.265  29.069  33.237  1.00  0.00    -0.744 OA
ENDBRANCH  69  73
ENDBRANCH  42  66
BRANCH  54  77
ATOM     77  C   UNL A   1      44.920  23.854  33.263  1.00  0.00     0.023 A 
ATOM     78  C   UNL A   1      46.222  23.692  33.736  1.00  0.00     0.031 A 
ATOM     79  C   UNL A   1      43.929  23.068  33.905  1.00  0.00     0.131 A 
ATOM     80  C   UNL A   1      46.527  22.714  34.690  1.00  0.00     0.055 A 
ATOM     81  C   UNL A   1      44.216  22.197  34.956  1.00  0.00     0.041 A 
ATOM     82  F   UNL A   1      42.637  23.114  33.551  1.00  0.00    -0.206 F 
ATOM     83  C   UNL A   1      45.531  21.992  35.338  1.00  0.00     0.022 A 
BRANCH  80  84
ATOM     84  S   UNL A   1      48.272  22.330  34.950  1.00  0.00     0.124 S 
ATOM     85  O   UNL A   1      48.378  22.406  36.404  1.00  0.00    -0.237 OA
ATOM     86  O   UNL A   1      48.390  20.993  34.379  1.00  0.00    -0.237 OA
ATOM     87  O   UNL A   1      48.968  23.387  34.219  1.00  0.00    -0.744 OA
ENDBRANCH  80  84
ENDBRANCH  54  77
ENDBRANCH  28  29
ENDBRANCH  21  23
ENDBRANCH  20  21
ENDBRANCH   1  20
TORSDOF 15
ENDMDL
MODEL 3
REMARK VINA RESULT:     -12.4      1.988      3.750
REMARK SMILES Cc1cccc(-c2ccc(Cl)c(C(=O)OCCOC(=O)c3ccc(-c4c5nc(c(-c6cc(S(=O)(=O)[O-])ccc6F)c6ccc([nH]6)c(-c6cc(S(=O)(=O)[O-])ccc6F)c6nc(c(-c7cc(S(=O)(=O)[O-])ccc7F)c7ccc4[nH]7)C=C6)C=C5)cc3)c2)c1
REMARK SMILES IDX 17 1 16 2 15 3 13 4 14 5 12 6 7 7 8 8 84 9 9 10 10 11 11 12
REMARK SMILES IDX 6 13 1 14 2 15 3 16 85 17 4 18 5 19 18 20 19 21 20 22 21 23
REMARK SMILES IDX 22 24 83 25 23 26 82 27 24 28 25 29 26 30 76 31 27 32 81 33
REMARK SMILES IDX 75 34 77 35 28 36 80 37 74 38 73 39 29 41 61 42 41 43 60 44
REMARK SMILES IDX 42 45 45 46 59 47 78 48 43 49 44 50 58 52 79 53 46 54 30 55
REMARK SMILES IDX 31 56 39 57 32 58 38 59 40 60 37 61 33 62 34 63 35 64 36 65
REMARK SMILES IDX 62 66 63 67 71 68 64 69 70 70 72 71 69 72 65 73 66 74 67 75
REMARK SMILES IDX 68 76 47 77 48 78 56 79 49 80 55 81 57 82 54 83 50 84 51 85
REMARK SMILES IDX 52 86 53 87
REMARK H PARENT 77 40 45 51
REMARK Flexibility Score: inf
ROOT
ATOM      1  C   UNL A   1      34.585  28.937  27.007  1.00  0.00     0.275 C 
ENDROOT
BRANCH   1   2
ATOM      2  C   UNL A   1      33.388  29.735  26.470  1.00  0.00     0.275 C 
BRANCH   2   3
ATOM      3  O   UNL A   1      32.425  28.926  25.763  1.00  0.00    -0.458 OA
BRANCH   3   4
ATOM      4  C   UNL A   1      32.906  28.484  24.574  1.00  0.00     0.339 C 
ATOM      5  O   UNL A   1      33.412  29.195  23.718  1.00  0.00    -0.246 OA
BRANCH   4   6
ATOM      6  C   UNL A   1      32.728  27.040  24.313  1.00  0.00     0.079 A 
ATOM      7  C   UNL A   1      33.704  24.781  24.253  1.00  0.00    -0.017 A 
ATOM      8  C   UNL A   1      32.802  24.483  23.213  1.00  0.00     0.010 A 
ATOM      9  C   UNL A   1      33.612  26.068  24.832  1.00  0.00     0.026 A 
ATOM     10  C   UNL A   1      31.865  25.410  22.758  1.00  0.00     0.022 A 
ATOM     11  C   UNL A   1      31.829  26.689  23.300  1.00  0.00     0.055 A 
ATOM     12  Cl  UNL A   1      30.617  27.766  22.693  1.00  0.00    -0.083 Cl
BRANCH   7  13
ATOM     13  C   UNL A   1      34.706  23.754  24.651  1.00  0.00    -0.018 A 
ATOM     14  C   UNL A   1      38.231  23.677  26.198  1.00  0.00     0.044 C 
ATOM     15  C   UNL A   1      36.940  23.222  25.578  1.00  0.00    -0.051 A 
ATOM     16  C   UNL A   1      36.766  21.885  25.223  1.00  0.00     0.003 A 
ATOM     17  C   UNL A   1      35.907  24.135  25.299  1.00  0.00     0.012 A 
ATOM     18  C   UNL A   1      35.571  21.471  24.632  1.00  0.00     0.001 A 
ATOM     19  C   UNL A   1      34.551  22.393  24.353  1.00  0.00     0.009 A 
ENDBRANCH   7  13
ENDBRANCH   4   6
ENDBRANCH   3   4
ENDBRANCH   2   3
ENDBRANCH   1   2
BRANCH   1  20
ATOM     20  O   UNL A   1      35.820  29.666  27.246  1.00  0.00    -0.458 OA
BRANCH  20  21
ATOM     21  C   UNL A   1      36.536  29.686  28.405  1.00  0.00     0.338 C 
ATOM     22  O   UNL A   1      36.040  30.095  29.455  1.00  0.00    -0.246 OA
BRANCH  21  23
ATOM     23  C   UNL A   1      37.842  28.996  28.403  1.00  0.00     0.060 A 
ATOM     24  C   UNL A   1      38.824  29.377  27.472  1.00  0.00     0.016 A 
ATOM     25  C   UNL A   1      38.147  28.110  29.423  1.00  0.00     0.016 A 
ATOM     26  C   UNL A   1      40.145  29.004  27.659  1.00  0.00     0.010 A 
ATOM     27  C   UNL A   1      39.462  27.899  29.728  1.00  0.00     0.010 A 
ATOM     28  C   UNL A   1      40.448  28.291  28.812  1.00  0.00    -0.014 A 
BRANCH  28  29
ATOM     29  C   UNL A   1      41.707  27.598  29.011  1.00  0.00     0.031 A 
ATOM     30  C   UNL A   1      41.906  26.251  28.468  1.00  0.00     0.074 A 
ATOM     31  C   UNL A   1      42.600  28.382  29.656  1.00  0.00     0.049 A 
ATOM     32  N   UNL A   1      42.662  25.352  28.985  1.00  0.00    -0.248 NA
ATOM     33  C   UNL A   1      41.180  25.756  27.301  1.00  0.00     0.031 C 
ATOM     34  C   UNL A   1      44.018  28.269  29.911  1.00  0.00     0.029 A 
ATOM     35  N   UNL A   1      42.227  29.493  30.418  1.00  0.00    -0.354 N 
ATOM     36  C   UNL A   1      42.851  24.391  28.008  1.00  0.00     0.074 A 
ATOM     37  C   UNL A   1      41.747  24.560  27.105  1.00  0.00     0.031 C 
ATOM     38  C   UNL A   1      44.314  29.033  30.987  1.00  0.00     0.029 A 
ATOM     39  C   UNL A   1      43.059  29.563  31.520  1.00  0.00     0.049 A 
ATOM     40  H   UNL A   1      41.496  30.118  30.207  1.00  0.00     0.167 HD
ATOM     41  C   UNL A   1      44.061  23.764  27.943  1.00  0.00     0.034 A 
ATOM     42  C   UNL A   1      42.478  29.249  32.719  1.00  0.00     0.034 A 
ATOM     43  C   UNL A   1      44.901  24.243  29.045  1.00  0.00     0.049 A 
ATOM     44  C   UNL A   1      43.007  27.916  33.199  1.00  0.00     0.074 A 
ATOM     45  C   UNL A   1      45.880  25.221  29.101  1.00  0.00     0.029 A 
ATOM     46  N   UNL A   1      44.486  24.024  30.351  1.00  0.00    -0.354 N 
ATOM     47  N   UNL A   1      43.412  26.950  32.412  1.00  0.00    -0.248 NA
ATOM     48  C   UNL A   1      43.245  27.638  34.607  1.00  0.00     0.031 C 
ATOM     49  C   UNL A   1      45.960  25.671  30.450  1.00  0.00     0.029 A 
ATOM     50  C   UNL A   1      45.037  24.963  31.203  1.00  0.00     0.049 A 
ATOM     51  H   UNL A   1      43.882  23.298  30.632  1.00  0.00     0.167 HD
ATOM     52  C   UNL A   1      44.060  25.999  33.159  1.00  0.00     0.074 A 
ATOM     53  C   UNL A   1      43.909  26.473  34.529  1.00  0.00     0.031 C 
ATOM     54  C   UNL A   1      44.710  24.920  32.618  1.00  0.00     0.034 A 
BRANCH  41  55
ATOM     55  C   UNL A   1      44.639  23.023  26.749  1.00  0.00     0.023 A 
ATOM     56  C   UNL A   1      44.085  21.767  26.412  1.00  0.00     0.031 A 
ATOM     57  C   UNL A   1      45.712  23.435  25.934  1.00  0.00     0.131 A 
ATOM     58  C   UNL A   1      44.622  20.963  25.388  1.00  0.00     0.055 A 
ATOM     59  C   UNL A   1      46.262  22.626  24.925  1.00  0.00     0.041 A 
ATOM     60  F   UNL A   1      46.261  24.649  26.035  1.00  0.00    -0.206 F 
ATOM     61  C   UNL A   1      45.722  21.379  24.651  1.00  0.00     0.022 A 
BRANCH  58  62
ATOM     62  S   UNL A   1      43.853  19.358  25.039  1.00  0.00     0.124 S 
ATOM     63  O   UNL A   1      44.164  19.168  23.626  1.00  0.00    -0.237 OA
ATOM     64  O   UNL A   1      44.537  18.474  25.977  1.00  0.00    -0.237 OA
ATOM     65  O   UNL A   1      42.439  19.588  25.332  1.00  0.00    -0.744 OA
ENDBRANCH  58  62
ENDBRANCH  41  55
BRANCH  42  66
ATOM     66  C   UNL A   1      41.063  29.771  32.868  1.00  0.00     0.023 A 
ATOM     67  C   UNL A   1      40.838  31.139  32.561  1.00  0.00     0.031 A 
ATOM     68  C   UNL A   1      39.923  28.967  32.994  1.00  0.00     0.131 A 
ATOM     69  C   UNL A   1      39.563  31.614  32.210  1.00  0.00     0.055 A 
ATOM     70  C   UNL A   1      38.631  29.470  32.740  1.00  0.00     0.041 A 
ATOM     71  F   UNL A   1      40.034  27.660  33.276  1.00  0.00    -0.206 F 
ATOM     72  C   UNL A   1      38.448  30.787  32.306  1.00  0.00     0.022 A 
BRANCH  69  73
ATOM     73  S   UNL A   1      39.462  33.217  31.349  1.00  0.00     0.124 S 
ATOM     74  O   UNL A   1      39.793  34.160  32.412  1.00  0.00    -0.237 OA
ATOM     75  O   UNL A   1      40.462  33.069  30.293  1.00  0.00    -0.237 OA
ATOM     76  O   UNL A   1      38.085  33.270  30.866  1.00  0.00    -0.744 OA
ENDBRANCH  69  73
ENDBRANCH  42  66
BRANCH  54  77
ATOM     77  C   UNL A   1      45.169  23.710  33.397  1.00  0.00     0.023 A 
ATOM     78  C   UNL A   1      46.446  23.621  33.952  1.00  0.00     0.031 A 
ATOM     79  C   UNL A   1      44.288  22.641  33.702  1.00  0.00     0.131 A 
ATOM     80  C   UNL A   1      46.851  22.476  34.648  1.00  0.00     0.055 A 
ATOM     81  C   UNL A   1      44.651  21.569  34.517  1.00  0.00     0.041 A 
ATOM     82  F   UNL A   1      43.033  22.589  33.234  1.00  0.00    -0.206 F 
ATOM     83  C   UNL A   1      45.954  21.465  34.975  1.00  0.00     0.022 A 
BRANCH  80  84
ATOM     84  S   UNL A   1      48.616  22.299  34.988  1.00  0.00     0.124 S 
ATOM     85  O   UNL A   1      48.918  21.034  34.324  1.00  0.00    -0.237 OA
ATOM     86  O   UNL A   1      49.179  23.490  34.362  1.00  0.00    -0.237 OA
ATOM     87  O   UNL A   1      48.682  22.266  36.447  1.00  0.00    -0.744 OA
ENDBRANCH  80  84
ENDBRANCH  54  77
ENDBRANCH  28  29
ENDBRANCH  21  23
ENDBRANCH  20  21
ENDBRANCH   1  20
TORSDOF 15
ENDMDL
