MODEL 1
REMARK VINA RESULT:     -12.5      0.000      0.000
REMARK SMILES O=C(OCCOC(=O)c1[nH]ncc1C[N@H+]1CCC[C@H](C(=O)c2ccc3ccccc3c2)C1)c1ccc(-c2c3nc(c(-c4cc(S(=O)(=O)[O-])ccc4F)c4ccc([nH]4)c(-c4cc(S(=O)(=O)[O-])ccc4F)c4nc(c(-c5cc(S(=O)(=O)[O-])ccc5F)c5ccc2[nH]5)C=C4)C=C3)cc1
REMARK SMILES IDX 5 1 4 2 3 3 2 4 1 5 33 6 34 7 95 8 35 9 94 10 36 11 37 12
REMARK SMILES IDX 38 13 88 14 39 15 93 16 87 17 89 18 40 19 92 20 86 21 85 22
REMARK SMILES IDX 41 24 73 25 53 26 72 27 54 28 57 29 71 30 90 31 55 32 56 33
REMARK SMILES IDX 70 35 91 36 58 37 42 38 43 39 51 40 44 41 50 42 52 43 49 44
REMARK SMILES IDX 45 45 46 46 47 47 48 48 74 49 75 50 83 51 76 52 82 53 84 54
REMARK SMILES IDX 81 55 77 56 78 57 79 58 80 59 59 60 60 61 68 62 61 63 67 64
REMARK SMILES IDX 69 65 66 66 62 67 63 68 64 69 65 70 6 71 7 72 8 73 9 74
REMARK SMILES IDX 10 75 13 76 11 77 12 79 14 80 15 81 16 82 32 83 17 85 19 86
REMARK SMILES IDX 18 87 20 88 21 89 22 90 23 91 31 92 24 93 30 94 25 95 29 96
REMARK SMILES IDX 26 97 28 98 27 99
REMARK H PARENT 89 23 57 34 10 78 15 84
REMARK Flexibility Score: inf
ROOT
ATOM      1  C   UNL A   1      33.715  29.132  25.596  1.00  0.00     0.275 C 
ENDROOT
BRANCH   1   2
ATOM      2  C   UNL A   1      32.775  30.159  26.238  1.00  0.00     0.275 C 
BRANCH   2   3
ATOM      3  O   UNL A   1      33.291  30.728  27.455  1.00  0.00    -0.458 OA
BRANCH   3   4
ATOM      4  C   UNL A   1      34.476  31.307  27.758  1.00  0.00     0.338 C 
ATOM      5  O   UNL A   1      34.601  32.501  27.478  1.00  0.00    -0.246 OA
BRANCH   4   6
ATOM      6  C   UNL A   1      35.684  30.603  28.314  1.00  0.00     0.060 A 
ATOM      7  C   UNL A   1      35.725  29.737  29.409  1.00  0.00     0.016 A 
ATOM      8  C   UNL A   1      36.892  30.809  27.614  1.00  0.00     0.016 A 
ATOM      9  C   UNL A   1      36.914  29.099  29.789  1.00  0.00     0.010 A 
ATOM     10  C   UNL A   1      38.072  30.144  27.964  1.00  0.00     0.010 A 
ATOM     11  C   UNL A   1      38.095  29.300  29.075  1.00  0.00    -0.014 A 
BRANCH  11  12
ATOM     12  C   UNL A   1      39.371  28.757  29.597  1.00  0.00     0.031 A 
ATOM     13  C   UNL A   1      39.934  29.360  30.845  1.00  0.00     0.074 A 
ATOM     14  C   UNL A   1      39.973  27.705  29.014  1.00  0.00     0.049 A 
ATOM     15  N   UNL A   1      40.972  28.993  31.545  1.00  0.00    -0.248 NA
ATOM     16  C   UNL A   1      39.221  30.531  31.379  1.00  0.00     0.031 C 
ATOM     17  C   UNL A   1      39.477  27.031  27.822  1.00  0.00     0.029 A 
ATOM     18  N   UNL A   1      41.107  27.007  29.338  1.00  0.00    -0.354 N 
ATOM     19  C   UNL A   1      41.024  29.872  32.618  1.00  0.00     0.074 A 
ATOM     20  C   UNL A   1      39.962  30.837  32.429  1.00  0.00     0.031 C 
ATOM     21  C   UNL A   1      40.286  26.005  27.516  1.00  0.00     0.029 A 
ATOM     22  C   UNL A   1      41.383  25.968  28.477  1.00  0.00     0.049 A 
ATOM     23  H   UNL A   1      41.672  27.227  30.112  1.00  0.00     0.167 HD
ATOM     24  C   UNL A   1      41.863  29.855  33.682  1.00  0.00     0.034 A 
ATOM     25  C   UNL A   1      42.400  25.085  28.465  1.00  0.00     0.034 A 
ATOM     26  C   UNL A   1      42.949  28.919  33.812  1.00  0.00     0.049 A 
ATOM     27  C   UNL A   1      43.398  25.157  29.591  1.00  0.00     0.074 A 
ATOM     28  C   UNL A   1      43.901  28.824  34.809  1.00  0.00     0.029 A 
ATOM     29  N   UNL A   1      43.241  27.918  32.888  1.00  0.00    -0.354 N 
ATOM     30  N   UNL A   1      43.419  25.976  30.619  1.00  0.00    -0.248 NA
ATOM     31  C   UNL A   1      44.489  24.179  29.575  1.00  0.00     0.031 C 
ATOM     32  C   UNL A   1      44.802  27.810  34.458  1.00  0.00     0.029 A 
ATOM     33  C   UNL A   1      44.374  27.221  33.277  1.00  0.00     0.049 A 
ATOM     34  H   UNL A   1      42.718  27.733  32.075  1.00  0.00     0.167 HD
ATOM     35  C   UNL A   1      44.502  25.584  31.397  1.00  0.00     0.074 A 
ATOM     36  C   UNL A   1      45.104  24.452  30.716  1.00  0.00     0.031 C 
ATOM     37  C   UNL A   1      44.952  26.099  32.571  1.00  0.00     0.034 A 
BRANCH  24  38
ATOM     38  C   UNL A   1      41.641  30.936  34.711  1.00  0.00     0.023 A 
ATOM     39  C   UNL A   1      40.528  30.902  35.574  1.00  0.00     0.031 A 
ATOM     40  C   UNL A   1      42.445  32.087  34.719  1.00  0.00     0.131 A 
ATOM     41  C   UNL A   1      40.179  32.044  36.310  1.00  0.00     0.055 A 
ATOM     42  C   UNL A   1      42.146  33.185  35.529  1.00  0.00     0.041 A 
ATOM     43  F   UNL A   1      43.502  32.188  33.898  1.00  0.00    -0.206 F 
ATOM     44  C   UNL A   1      40.993  33.178  36.311  1.00  0.00     0.022 A 
BRANCH  41  45
ATOM     45  S   UNL A   1      38.539  32.101  37.088  1.00  0.00     0.124 S 
ATOM     46  O   UNL A   1      38.886  32.312  38.492  1.00  0.00    -0.237 OA
ATOM     47  O   UNL A   1      37.906  33.227  36.412  1.00  0.00    -0.237 OA
ATOM     48  O   UNL A   1      37.969  30.790  36.786  1.00  0.00    -0.744 OA
ENDBRANCH  41  45
ENDBRANCH  24  38
BRANCH  25  49
ATOM     49  C   UNL A   1      42.518  24.068  27.377  1.00  0.00     0.023 A 
ATOM     50  C   UNL A   1      41.998  22.772  27.527  1.00  0.00     0.031 A 
ATOM     51  C   UNL A   1      43.163  24.377  26.164  1.00  0.00     0.131 A 
ATOM     52  C   UNL A   1      42.156  21.825  26.499  1.00  0.00     0.055 A 
ATOM     53  C   UNL A   1      43.283  23.447  25.129  1.00  0.00     0.041 A 
ATOM     54  F   UNL A   1      43.666  25.605  25.958  1.00  0.00    -0.206 F 
ATOM     55  C   UNL A   1      42.788  22.158  25.299  1.00  0.00     0.022 A 
BRANCH  52  56
ATOM     56  S   UNL A   1      41.566  20.132  26.776  1.00  0.00     0.124 S 
ATOM     57  O   UNL A   1      40.492  20.342  27.741  1.00  0.00    -0.237 OA
ATOM     58  O   UNL A   1      41.151  19.739  25.433  1.00  0.00    -0.237 OA
ATOM     59  O   UNL A   1      42.742  19.437  27.295  1.00  0.00    -0.744 OA
ENDBRANCH  52  56
ENDBRANCH  25  49
BRANCH  37  60
ATOM     60  C   UNL A   1      46.119  25.391  33.209  1.00  0.00     0.023 A 
ATOM     61  C   UNL A   1      47.447  25.697  32.869  1.00  0.00     0.031 A 
ATOM     62  C   UNL A   1      45.890  24.375  34.152  1.00  0.00     0.131 A 
ATOM     63  C   UNL A   1      48.496  24.947  33.420  1.00  0.00     0.055 A 
ATOM     64  C   UNL A   1      46.941  23.675  34.744  1.00  0.00     0.041 A 
ATOM     65  F   UNL A   1      44.639  24.042  34.509  1.00  0.00    -0.206 F 
ATOM     66  C   UNL A   1      48.252  23.949  34.369  1.00  0.00     0.022 A 
BRANCH  63  67
ATOM     67  S   UNL A   1      50.178  25.223  32.801  1.00  0.00     0.124 S 
ATOM     68  O   UNL A   1      50.736  26.099  33.825  1.00  0.00    -0.237 OA
ATOM     69  O   UNL A   1      50.719  23.868  32.756  1.00  0.00    -0.237 OA
ATOM     70  O   UNL A   1      49.964  25.847  31.497  1.00  0.00    -0.744 OA
ENDBRANCH  63  67
ENDBRANCH  37  60
ENDBRANCH  11  12
ENDBRANCH   4   6
ENDBRANCH   3   4
ENDBRANCH   2   3
ENDBRANCH   1   2
BRANCH   1  71
ATOM     71  O   UNL A   1      33.006  28.091  24.912  1.00  0.00    -0.457 OA
BRANCH  71  72
ATOM     72  C   UNL A   1      32.983  28.186  23.551  1.00  0.00     0.356 C 
ATOM     73  O   UNL A   1      33.914  27.922  22.804  1.00  0.00    -0.244 OA
BRANCH  72  74
ATOM     74  C   UNL A   1      31.646  28.462  23.126  1.00  0.00     0.152 A 
ATOM     75  N   UNL A   1      31.366  29.433  22.206  1.00  0.00    -0.271 N 
ATOM     76  C   UNL A   1      30.424  27.898  23.465  1.00  0.00     0.059 A 
ATOM     77  N   UNL A   1      30.082  29.451  21.814  1.00  0.00    -0.183 NA
ATOM     78  H   UNL A   1      32.042  30.060  21.861  1.00  0.00     0.190 HD
ATOM     79  C   UNL A   1      29.519  28.487  22.544  1.00  0.00     0.145 A 
BRANCH  76  80
ATOM     80  C   UNL A   1      30.139  26.977  24.613  1.00  0.00     0.303 C 
BRANCH  80  81
ATOM     81  N   UNL A   1      30.925  25.727  24.538  1.00  0.00    -0.330 N 
ATOM     82  C   UNL A   1      30.643  24.810  25.647  1.00  0.00     0.262 C 
ATOM     83  C   UNL A   1      30.818  25.083  23.224  1.00  0.00     0.274 C 
ATOM     84  H   UNL A   1      31.903  25.994  24.646  1.00  0.00     0.348 HD
ATOM     85  C   UNL A   1      31.535  23.582  25.640  1.00  0.00     0.062 C 
ATOM     86  C   UNL A   1      31.670  23.820  23.080  1.00  0.00     0.116 C 
ATOM     87  C   UNL A   1      31.558  22.879  24.285  1.00  0.00     0.023 C 
BRANCH  86  88
ATOM     88  C   UNL A   1      33.103  24.086  22.615  1.00  0.00     0.171 C 
ATOM     89  O   UNL A   1      33.364  24.356  21.444  1.00  0.00    -0.294 OA
BRANCH  88  90
ATOM     90  C   UNL A   1      34.225  23.955  23.565  1.00  0.00     0.019 A 
ATOM     91  C   UNL A   1      34.358  24.897  24.583  1.00  0.00     0.012 A 
ATOM     92  C   UNL A   1      35.106  22.876  23.480  1.00  0.00     0.020 A 
ATOM     93  C   UNL A   1      35.459  24.853  25.432  1.00  0.00     0.009 A 
ATOM     94  C   UNL A   1      36.193  22.790  24.370  1.00  0.00    -0.018 A 
ATOM     95  C   UNL A   1      36.391  23.814  25.328  1.00  0.00    -0.018 A 
ATOM     96  C   UNL A   1      37.091  21.711  24.338  1.00  0.00     0.009 A 
ATOM     97  C   UNL A   1      37.503  23.762  26.183  1.00  0.00     0.009 A 
ATOM     98  C   UNL A   1      38.177  21.659  25.215  1.00  0.00     0.001 A 
ATOM     99  C   UNL A   1      38.392  22.690  26.126  1.00  0.00     0.001 A 
ENDBRANCH  88  90
ENDBRANCH  86  88
ENDBRANCH  80  81
ENDBRANCH  76  80
ENDBRANCH  72  74
ENDBRANCH  71  72
ENDBRANCH   1  71
TORSDOF 18
ENDMDL
MODEL 2
REMARK VINA RESULT:     -12.2      1.429      1.708
REMARK SMILES O=C(OCCOC(=O)c1[nH]ncc1C[N@H+]1CCC[C@H](C(=O)c2ccc3ccccc3c2)C1)c1ccc(-c2c3nc(c(-c4cc(S(=O)(=O)[O-])ccc4F)c4ccc([nH]4)c(-c4cc(S(=O)(=O)[O-])ccc4F)c4nc(c(-c5cc(S(=O)(=O)[O-])ccc5F)c5ccc2[nH]5)C=C4)C=C3)cc1
REMARK SMILES IDX 5 1 4 2 3 3 2 4 1 5 33 6 34 7 95 8 35 9 94 10 36 11 37 12
REMARK SMILES IDX 38 13 88 14 39 15 93 16 87 17 89 18 40 19 92 20 86 21 85 22
REMARK SMILES IDX 41 24 73 25 53 26 72 27 54 28 57 29 71 30 90 31 55 32 56 33
REMARK SMILES IDX 70 35 91 36 58 37 42 38 43 39 51 40 44 41 50 42 52 43 49 44
REMARK SMILES IDX 45 45 46 46 47 47 48 48 74 49 75 50 83 51 76 52 82 53 84 54
REMARK SMILES IDX 81 55 77 56 78 57 79 58 80 59 59 60 60 61 68 62 61 63 67 64
REMARK SMILES IDX 69 65 66 66 62 67 63 68 64 69 65 70 6 71 7 72 8 73 9 74
REMARK SMILES IDX 10 75 13 76 11 77 12 79 14 80 15 81 16 82 32 83 17 85 19 86
REMARK SMILES IDX 18 87 20 88 21 89 22 90 23 91 31 92 24 93 30 94 25 95 29 96
REMARK SMILES IDX 26 97 28 98 27 99
REMARK H PARENT 89 23 57 34 10 78 15 84
REMARK Flexibility Score: inf
ROOT
ATOM      1  C   UNL A   1      33.685  29.483  25.620  1.00  0.00     0.275 C 
ENDROOT
BRANCH   1   2
ATOM      2  C   UNL A   1      32.678  30.466  26.227  1.00  0.00     0.275 C 
BRANCH   2   3
ATOM      3  O   UNL A   1      33.136  31.079  27.446  1.00  0.00    -0.458 OA
BRANCH   3   4
ATOM      4  C   UNL A   1      34.306  31.668  27.784  1.00  0.00     0.338 C 
ATOM      5  O   UNL A   1      34.393  32.883  27.602  1.00  0.00    -0.246 OA
BRANCH   4   6
ATOM      6  C   UNL A   1      35.541  30.956  28.270  1.00  0.00     0.060 A 
ATOM      7  C   UNL A   1      35.631  29.638  28.723  1.00  0.00     0.016 A 
ATOM      8  C   UNL A   1      36.740  31.697  28.211  1.00  0.00     0.016 A 
ATOM      9  C   UNL A   1      36.861  29.078  29.095  1.00  0.00     0.010 A 
ATOM     10  C   UNL A   1      37.976  31.131  28.542  1.00  0.00     0.010 A 
ATOM     11  C   UNL A   1      38.040  29.819  29.013  1.00  0.00    -0.014 A 
BRANCH  11  12
ATOM     12  C   UNL A   1      39.295  29.267  29.574  1.00  0.00     0.031 A 
ATOM     13  C   UNL A   1      39.759  29.784  30.900  1.00  0.00     0.074 A 
ATOM     14  C   UNL A   1      39.964  28.280  28.953  1.00  0.00     0.049 A 
ATOM     15  N   UNL A   1      40.761  29.388  31.636  1.00  0.00    -0.248 NA
ATOM     16  C   UNL A   1      38.980  30.892  31.474  1.00  0.00     0.031 C 
ATOM     17  C   UNL A   1      39.565  27.690  27.682  1.00  0.00     0.029 A 
ATOM     18  N   UNL A   1      41.095  27.586  29.296  1.00  0.00    -0.354 N 
ATOM     19  C   UNL A   1      40.719  30.181  32.775  1.00  0.00     0.074 A 
ATOM     20  C   UNL A   1      39.643  31.132  32.590  1.00  0.00     0.031 C 
ATOM     21  C   UNL A   1      40.422  26.711  27.353  1.00  0.00     0.029 A 
ATOM     22  C   UNL A   1      41.455  26.625  28.377  1.00  0.00     0.049 A 
ATOM     23  H   UNL A   1      41.603  27.758  30.121  1.00  0.00     0.167 HD
ATOM     24  C   UNL A   1      41.488  30.101  33.886  1.00  0.00     0.034 A 
ATOM     25  C   UNL A   1      42.497  25.771  28.365  1.00  0.00     0.034 A 
ATOM     26  C   UNL A   1      42.591  29.184  34.016  1.00  0.00     0.049 A 
ATOM     27  C   UNL A   1      43.418  25.778  29.556  1.00  0.00     0.074 A 
ATOM     28  C   UNL A   1      43.480  29.034  35.063  1.00  0.00     0.029 A 
ATOM     29  N   UNL A   1      42.971  28.267  33.038  1.00  0.00    -0.354 N 
ATOM     30  N   UNL A   1      43.350  26.514  30.643  1.00  0.00    -0.248 NA
ATOM     31  C   UNL A   1      44.537  24.831  29.536  1.00  0.00     0.031 C 
ATOM     32  C   UNL A   1      44.430  28.073  34.695  1.00  0.00     0.029 A 
ATOM     33  C   UNL A   1      44.096  27.569  33.446  1.00  0.00     0.049 A 
ATOM     34  H   UNL A   1      42.506  28.134  32.181  1.00  0.00     0.167 HD
ATOM     35  C   UNL A   1      44.392  26.088  31.458  1.00  0.00     0.074 A 
ATOM     36  C   UNL A   1      45.069  25.029  30.733  1.00  0.00     0.031 C 
ATOM     37  C   UNL A   1      44.751  26.520  32.695  1.00  0.00     0.034 A 
BRANCH  24  38
ATOM     38  C   UNL A   1      41.169  31.092  34.979  1.00  0.00     0.023 A 
ATOM     39  C   UNL A   1      39.970  31.005  35.713  1.00  0.00     0.031 A 
ATOM     40  C   UNL A   1      41.981  32.220  35.175  1.00  0.00     0.131 A 
ATOM     41  C   UNL A   1      39.557  32.085  36.507  1.00  0.00     0.055 A 
ATOM     42  C   UNL A   1      41.610  33.249  36.045  1.00  0.00     0.041 A 
ATOM     43  F   UNL A   1      43.122  32.371  34.483  1.00  0.00    -0.206 F 
ATOM     44  C   UNL A   1      40.380  33.198  36.696  1.00  0.00     0.022 A 
BRANCH  41  45
ATOM     45  S   UNL A   1      37.844  32.108  37.110  1.00  0.00     0.124 S 
ATOM     46  O   UNL A   1      37.111  32.475  35.899  1.00  0.00    -0.237 OA
ATOM     47  O   UNL A   1      37.655  30.742  37.580  1.00  0.00    -0.237 OA
ATOM     48  O   UNL A   1      37.861  33.131  38.152  1.00  0.00    -0.744 OA
ENDBRANCH  41  45
ENDBRANCH  24  38
BRANCH  25  49
ATOM     49  C   UNL A   1      42.713  24.846  27.212  1.00  0.00     0.023 A 
ATOM     50  C   UNL A   1      42.380  23.484  27.293  1.00  0.00     0.031 A 
ATOM     51  C   UNL A   1      43.266  25.312  26.003  1.00  0.00     0.131 A 
ATOM     52  C   UNL A   1      42.630  22.631  26.203  1.00  0.00     0.055 A 
ATOM     53  C   UNL A   1      43.475  24.470  24.909  1.00  0.00     0.041 A 
ATOM     54  F   UNL A   1      43.590  26.608  25.862  1.00  0.00    -0.206 F 
ATOM     55  C   UNL A   1      43.167  23.118  25.010  1.00  0.00     0.022 A 
BRANCH  52  56
ATOM     56  S   UNL A   1      42.287  20.859  26.389  1.00  0.00     0.124 S 
ATOM     57  O   UNL A   1      43.582  20.266  26.073  1.00  0.00    -0.237 OA
ATOM     58  O   UNL A   1      41.871  20.782  27.785  1.00  0.00    -0.237 OA
ATOM     59  O   UNL A   1      41.232  20.607  25.409  1.00  0.00    -0.744 OA
ENDBRANCH  52  56
ENDBRANCH  25  49
BRANCH  37  60
ATOM     60  C   UNL A   1      45.895  25.793  33.352  1.00  0.00     0.023 A 
ATOM     61  C   UNL A   1      45.692  24.638  34.126  1.00  0.00     0.031 A 
ATOM     62  C   UNL A   1      47.205  26.285  33.220  1.00  0.00     0.131 A 
ATOM     63  C   UNL A   1      46.776  24.050  34.794  1.00  0.00     0.055 A 
ATOM     64  C   UNL A   1      48.288  25.658  33.836  1.00  0.00     0.041 A 
ATOM     65  F   UNL A   1      47.452  27.387  32.494  1.00  0.00    -0.206 F 
ATOM     66  C   UNL A   1      48.075  24.543  34.640  1.00  0.00     0.022 A 
BRANCH  63  67
ATOM     67  S   UNL A   1      46.448  22.694  35.952  1.00  0.00     0.124 S 
ATOM     68  O   UNL A   1      47.644  22.716  36.789  1.00  0.00    -0.237 OA
ATOM     69  O   UNL A   1      45.211  23.125  36.595  1.00  0.00    -0.237 OA
ATOM     70  O   UNL A   1      46.320  21.525  35.083  1.00  0.00    -0.744 OA
ENDBRANCH  63  67
ENDBRANCH  37  60
ENDBRANCH  11  12
ENDBRANCH   4   6
ENDBRANCH   3   4
ENDBRANCH   2   3
ENDBRANCH   1   2
BRANCH   1  71
ATOM     71  O   UNL A   1      33.057  28.491  24.798  1.00  0.00    -0.457 OA
BRANCH  71  72
ATOM     72  C   UNL A   1      33.037  28.759  23.460  1.00  0.00     0.356 C 
ATOM     73  O   UNL A   1      34.002  28.717  22.711  1.00  0.00    -0.244 OA
BRANCH  72  74
ATOM     74  C   UNL A   1      31.679  28.913  23.037  1.00  0.00     0.152 A 
ATOM     75  N   UNL A   1      31.322  29.805  22.065  1.00  0.00    -0.271 N 
ATOM     76  C   UNL A   1      30.504  28.285  23.424  1.00  0.00     0.059 A 
ATOM     77  N   UNL A   1      30.037  29.709  21.689  1.00  0.00    -0.183 NA
ATOM     78  H   UNL A   1      31.948  30.458  21.676  1.00  0.00     0.190 HD
ATOM     79  C   UNL A   1      29.551  28.752  22.482  1.00  0.00     0.145 A 
BRANCH  76  80
ATOM     80  C   UNL A   1      30.296  27.416  24.628  1.00  0.00     0.303 C 
BRANCH  80  81
ATOM     81  N   UNL A   1      30.974  26.108  24.500  1.00  0.00    -0.330 N 
ATOM     82  C   UNL A   1      30.620  25.175  25.574  1.00  0.00     0.262 C 
ATOM     83  C   UNL A   1      30.809  25.527  23.162  1.00  0.00     0.274 C 
ATOM     84  H   UNL A   1      31.971  26.288  24.612  1.00  0.00     0.348 HD
ATOM     85  C   UNL A   1      31.405  23.878  25.513  1.00  0.00     0.062 C 
ATOM     86  C   UNL A   1      31.552  24.203  22.964  1.00  0.00     0.116 C 
ATOM     87  C   UNL A   1      31.365  23.229  24.132  1.00  0.00     0.023 C 
BRANCH  86  88
ATOM     88  C   UNL A   1      33.001  24.367  22.500  1.00  0.00     0.171 C 
ATOM     89  O   UNL A   1      33.282  24.613  21.329  1.00  0.00    -0.294 OA
BRANCH  88  90
ATOM     90  C   UNL A   1      34.110  24.161  23.452  1.00  0.00     0.019 A 
ATOM     91  C   UNL A   1      34.298  25.087  24.476  1.00  0.00     0.012 A 
ATOM     92  C   UNL A   1      34.922  23.029  23.364  1.00  0.00     0.020 A 
ATOM     93  C   UNL A   1      35.392  24.970  25.327  1.00  0.00     0.009 A 
ATOM     94  C   UNL A   1      35.999  22.870  24.256  1.00  0.00    -0.018 A 
ATOM     95  C   UNL A   1      36.257  23.875  25.221  1.00  0.00    -0.018 A 
ATOM     96  C   UNL A   1      36.827  21.737  24.221  1.00  0.00     0.009 A 
ATOM     97  C   UNL A   1      37.361  23.749  26.079  1.00  0.00     0.009 A 
ATOM     98  C   UNL A   1      37.905  21.612  25.101  1.00  0.00     0.001 A 
ATOM     99  C   UNL A   1      38.181  22.623  26.018  1.00  0.00     0.001 A 
ENDBRANCH  88  90
ENDBRANCH  86  88
ENDBRANCH  80  81
ENDBRANCH  76  80
ENDBRANCH  72  74
ENDBRANCH  71  72
ENDBRANCH   1  71
TORSDOF 18
ENDMDL
MODEL 3
REMARK VINA RESULT:     -12.1      1.536      2.060
REMARK SMILES O=C(OCCOC(=O)c1[nH]ncc1C[N@H+]1CCC[C@H](C(=O)c2ccc3ccccc3c2)C1)c1ccc(-c2c3nc(c(-c4cc(S(=O)(=O)[O-])ccc4F)c4ccc([nH]4)c(-c4cc(S(=O)(=O)[O-])ccc4F)c4nc(c(-c5cc(S(=O)(=O)[O-])ccc5F)c5ccc2[nH]5)C=C4)C=C3)cc1
REMARK SMILES IDX 5 1 4 2 3 3 2 4 1 5 33 6 34 7 95 8 35 9 94 10 36 11 37 12
REMARK SMILES IDX 38 13 88 14 39 15 93 16 87 17 89 18 40 19 92 20 86 21 85 22
REMARK SMILES IDX 41 24 73 25 53 26 72 27 54 28 57 29 71 30 90 31 55 32 56 33
REMARK SMILES IDX 70 35 91 36 58 37 42 38 43 39 51 40 44 41 50 42 52 43 49 44
REMARK SMILES IDX 45 45 46 46 47 47 48 48 74 49 75 50 83 51 76 52 82 53 84 54
REMARK SMILES IDX 81 55 77 56 78 57 79 58 80 59 59 60 60 61 68 62 61 63 67 64
REMARK SMILES IDX 69 65 66 66 62 67 63 68 64 69 65 70 6 71 7 72 8 73 9 74
REMARK SMILES IDX 10 75 13 76 11 77 12 79 14 80 15 81 16 82 32 83 17 85 19 86
REMARK SMILES IDX 18 87 20 88 21 89 22 90 23 91 31 92 24 93 30 94 25 95 29 96
REMARK SMILES IDX 26 97 28 98 27 99
REMARK H PARENT 89 23 57 34 10 78 15 84
REMARK Flexibility Score: inf
ROOT
ATOM      1  C   UNL A   1      33.822  28.351  26.124  1.00  0.00     0.275 C 
ENDROOT
BRANCH   1   2
ATOM      2  C   UNL A   1      33.032  29.362  26.962  1.00  0.00     0.275 C 
BRANCH   2   3
ATOM      3  O   UNL A   1      33.564  30.697  26.904  1.00  0.00    -0.458 OA
BRANCH   3   4
ATOM      4  C   UNL A   1      34.343  31.404  27.755  1.00  0.00     0.338 C 
ATOM      5  O   UNL A   1      33.958  32.537  28.052  1.00  0.00    -0.246 OA
BRANCH   4   6
ATOM      6  C   UNL A   1      35.680  30.970  28.291  1.00  0.00     0.060 A 
ATOM      7  C   UNL A   1      36.908  31.611  28.113  1.00  0.00     0.016 A 
ATOM      8  C   UNL A   1      35.672  29.815  29.101  1.00  0.00     0.016 A 
ATOM      9  C   UNL A   1      38.077  31.129  28.719  1.00  0.00     0.010 A 
ATOM     10  C   UNL A   1      36.827  29.351  29.740  1.00  0.00     0.010 A 
ATOM     11  C   UNL A   1      38.047  29.995  29.531  1.00  0.00    -0.014 A 
BRANCH  11  12
ATOM     12  C   UNL A   1      39.317  29.404  30.015  1.00  0.00     0.031 A 
ATOM     13  C   UNL A   1      39.899  29.936  31.287  1.00  0.00     0.074 A 
ATOM     14  C   UNL A   1      39.897  28.373  29.376  1.00  0.00     0.049 A 
ATOM     15  N   UNL A   1      40.937  29.517  31.959  1.00  0.00    -0.248 NA
ATOM     16  C   UNL A   1      39.211  31.091  31.884  1.00  0.00     0.031 C 
ATOM     17  C   UNL A   1      39.380  27.767  28.157  1.00  0.00     0.029 A 
ATOM     18  N   UNL A   1      41.021  27.641  29.655  1.00  0.00    -0.354 N 
ATOM     19  C   UNL A   1      41.012  30.341  33.074  1.00  0.00     0.074 A 
ATOM     20  C   UNL A   1      39.965  31.332  32.941  1.00  0.00     0.031 C 
ATOM     21  C   UNL A   1      40.169  26.744  27.794  1.00  0.00     0.029 A 
ATOM     22  C   UNL A   1      41.272  26.641  28.742  1.00  0.00     0.049 A 
ATOM     23  H   UNL A   1      41.596  27.813  30.435  1.00  0.00     0.167 HD
ATOM     24  C   UNL A   1      41.858  30.258  34.128  1.00  0.00     0.034 A 
ATOM     25  C   UNL A   1      42.275  25.744  28.678  1.00  0.00     0.034 A 
ATOM     26  C   UNL A   1      42.930  29.298  34.203  1.00  0.00     0.049 A 
ATOM     27  C   UNL A   1      43.282  25.743  29.798  1.00  0.00     0.074 A 
ATOM     28  C   UNL A   1      43.887  29.139  35.186  1.00  0.00     0.029 A 
ATOM     29  N   UNL A   1      43.197  28.340  33.228  1.00  0.00    -0.354 N 
ATOM     30  N   UNL A   1      43.325  26.510  30.865  1.00  0.00    -0.248 NA
ATOM     31  C   UNL A   1      44.356  24.749  29.724  1.00  0.00     0.031 C 
ATOM     32  C   UNL A   1      44.767  28.128  34.778  1.00  0.00     0.029 A 
ATOM     33  C   UNL A   1      44.320  27.606  33.572  1.00  0.00     0.049 A 
ATOM     34  H   UNL A   1      42.665  28.204  32.411  1.00  0.00     0.167 HD
ATOM     35  C   UNL A   1      44.407  26.061  31.613  1.00  0.00     0.074 A 
ATOM     36  C   UNL A   1      44.985  24.955  30.872  1.00  0.00     0.031 C 
ATOM     37  C   UNL A   1      44.875  26.510  32.807  1.00  0.00     0.034 A 
BRANCH  24  38
ATOM     38  C   UNL A   1      41.662  31.290  35.212  1.00  0.00     0.023 A 
ATOM     39  C   UNL A   1      40.540  31.249  36.061  1.00  0.00     0.031 A 
ATOM     40  C   UNL A   1      42.505  32.410  35.288  1.00  0.00     0.131 A 
ATOM     41  C   UNL A   1      40.222  32.362  36.854  1.00  0.00     0.055 A 
ATOM     42  C   UNL A   1      42.236  33.473  36.153  1.00  0.00     0.041 A 
ATOM     43  F   UNL A   1      43.575  32.517  34.482  1.00  0.00    -0.206 F 
ATOM     44  C   UNL A   1      41.076  33.466  36.922  1.00  0.00     0.022 A 
BRANCH  41  45
ATOM     45  S   UNL A   1      38.577  32.436  37.620  1.00  0.00     0.124 S 
ATOM     46  O   UNL A   1      37.941  31.241  37.067  1.00  0.00    -0.237 OA
ATOM     47  O   UNL A   1      38.888  32.393  39.043  1.00  0.00    -0.237 OA
ATOM     48  O   UNL A   1      38.031  33.702  37.137  1.00  0.00    -0.744 OA
ENDBRANCH  41  45
ENDBRANCH  24  38
BRANCH  25  49
ATOM     49  C   UNL A   1      42.366  24.780  27.540  1.00  0.00     0.023 A 
ATOM     50  C   UNL A   1      41.626  23.586  27.530  1.00  0.00     0.031 A 
ATOM     51  C   UNL A   1      43.207  25.037  26.440  1.00  0.00     0.131 A 
ATOM     52  C   UNL A   1      41.762  22.681  26.462  1.00  0.00     0.055 A 
ATOM     53  C   UNL A   1      43.308  24.155  25.361  1.00  0.00     0.041 A 
ATOM     54  F   UNL A   1      43.927  26.169  26.388  1.00  0.00    -0.206 F 
ATOM     55  C   UNL A   1      42.592  22.963  25.375  1.00  0.00     0.022 A 
BRANCH  52  56
ATOM     56  S   UNL A   1      40.872  21.102  26.540  1.00  0.00     0.124 S 
ATOM     57  O   UNL A   1      39.560  21.470  26.019  1.00  0.00    -0.237 OA
ATOM     58  O   UNL A   1      41.690  20.258  25.675  1.00  0.00    -0.237 OA
ATOM     59  O   UNL A   1      40.904  20.758  27.960  1.00  0.00    -0.744 OA
ENDBRANCH  52  56
ENDBRANCH  25  49
BRANCH  37  60
ATOM     60  C   UNL A   1      46.034  25.752  33.399  1.00  0.00     0.023 A 
ATOM     61  C   UNL A   1      47.362  26.020  33.028  1.00  0.00     0.031 A 
ATOM     62  C   UNL A   1      45.797  24.727  34.331  1.00  0.00     0.131 A 
ATOM     63  C   UNL A   1      48.399  25.226  33.536  1.00  0.00     0.055 A 
ATOM     64  C   UNL A   1      46.839  23.982  34.881  1.00  0.00     0.041 A 
ATOM     65  F   UNL A   1      44.545  24.430  34.717  1.00  0.00    -0.206 F 
ATOM     66  C   UNL A   1      48.148  24.220  34.473  1.00  0.00     0.022 A 
BRANCH  63  67
ATOM     67  S   UNL A   1      50.072  25.457  32.874  1.00  0.00     0.124 S 
ATOM     68  O   UNL A   1      50.350  26.843  33.234  1.00  0.00    -0.237 OA
ATOM     69  O   UNL A   1      50.835  24.444  33.598  1.00  0.00    -0.237 OA
ATOM     70  O   UNL A   1      49.912  25.205  31.443  1.00  0.00    -0.744 OA
ENDBRANCH  63  67
ENDBRANCH  37  60
ENDBRANCH  11  12
ENDBRANCH   4   6
ENDBRANCH   3   4
ENDBRANCH   2   3
ENDBRANCH   1   2
BRANCH   1  71
ATOM     71  O   UNL A   1      33.034  27.768  25.077  1.00  0.00    -0.457 OA
BRANCH  71  72
ATOM     72  C   UNL A   1      32.915  28.515  23.942  1.00  0.00     0.356 C 
ATOM     73  O   UNL A   1      33.822  28.783  23.167  1.00  0.00    -0.244 OA
BRANCH  72  74
ATOM     74  C   UNL A   1      31.530  28.778  23.700  1.00  0.00     0.152 A 
ATOM     75  N   UNL A   1      30.922  29.919  24.145  1.00  0.00    -0.271 N 
ATOM     76  C   UNL A   1      30.547  28.061  23.033  1.00  0.00     0.059 A 
ATOM     77  N   UNL A   1      29.665  30.069  23.700  1.00  0.00    -0.183 NA
ATOM     78  H   UNL A   1      31.364  30.570  24.735  1.00  0.00     0.190 HD
ATOM     79  C   UNL A   1      29.452  28.962  22.984  1.00  0.00     0.145 A 
BRANCH  76  80
ATOM     80  C   UNL A   1      30.615  26.632  22.584  1.00  0.00     0.303 C 
BRANCH  80  81
ATOM     81  N   UNL A   1      30.925  25.708  23.697  1.00  0.00    -0.330 N 
ATOM     82  C   UNL A   1      30.065  25.916  24.865  1.00  0.00     0.262 C 
ATOM     83  C   UNL A   1      30.965  24.308  23.259  1.00  0.00     0.274 C 
ATOM     84  H   UNL A   1      31.868  25.937  24.008  1.00  0.00     0.348 HD
ATOM     85  C   UNL A   1      30.459  25.053  26.050  1.00  0.00     0.062 C 
ATOM     86  C   UNL A   1      31.349  23.322  24.365  1.00  0.00     0.116 C 
ATOM     87  C   UNL A   1      30.607  23.579  25.682  1.00  0.00     0.023 C 
BRANCH  86  88
ATOM     88  C   UNL A   1      32.857  23.113  24.517  1.00  0.00     0.171 C 
ATOM     89  O   UNL A   1      33.641  24.060  24.555  1.00  0.00    -0.294 OA
BRANCH  88  90
ATOM     90  C   UNL A   1      33.414  21.747  24.551  1.00  0.00     0.019 A 
ATOM     91  C   UNL A   1      34.713  21.562  25.021  1.00  0.00     0.012 A 
ATOM     92  C   UNL A   1      32.636  20.652  24.173  1.00  0.00     0.020 A 
ATOM     93  C   UNL A   1      35.296  20.300  24.973  1.00  0.00     0.009 A 
ATOM     94  C   UNL A   1      33.197  19.361  24.175  1.00  0.00    -0.018 A 
ATOM     95  C   UNL A   1      34.555  19.194  24.541  1.00  0.00    -0.018 A 
ATOM     96  C   UNL A   1      32.445  18.228  23.826  1.00  0.00     0.009 A 
ATOM     97  C   UNL A   1      35.136  17.917  24.494  1.00  0.00     0.009 A 
ATOM     98  C   UNL A   1      33.031  16.959  23.811  1.00  0.00     0.001 A 
ATOM     99  C   UNL A   1      34.378  16.806  24.129  1.00  0.00     0.001 A 
ENDBRANCH  88  90
ENDBRANCH  86  88
ENDBRANCH  80  81
ENDBRANCH  76  80
ENDBRANCH  72  74
ENDBRANCH  71  72
ENDBRANCH   1  71
TORSDOF 18
ENDMDL
