MODEL 1
REMARK VINA RESULT:     -11.1      0.000      0.000
REMARK SMILES CCc1c(Cl)ccc2c1C=C(C(=O)OCCOC(=O)c1ccc(-c3c4nc(c(-c5cc(S(=O)(=O)[O-])ccc5F)c5ccc([nH]5)c(-c5cc(S(=O)(=O)[O-])ccc5F)c5nc(c(-c6cc(S(=O)(=O)[O-])ccc6F)c6ccc3[nH]6)C=C5)C=C4)cc1)[C@@H](C(F)(F)F)O2
REMARK SMILES IDX 16 1 15 2 14 3 12 4 13 5 11 6 3 7 4 8 9 9 5 10 6 11 8 12
REMARK SMILES IDX 10 13 7 14 88 15 83 16 2 17 1 18 84 19 85 20 86 21 87 22
REMARK SMILES IDX 17 23 18 24 19 25 20 26 21 27 82 28 22 29 81 30 23 31 24 32
REMARK SMILES IDX 25 33 75 34 26 35 80 36 74 37 76 38 27 39 79 40 73 41 72 42
REMARK SMILES IDX 28 44 60 45 40 46 59 47 41 48 44 49 58 50 77 51 42 52 43 53
REMARK SMILES IDX 57 55 78 56 45 57 29 58 30 59 38 60 31 61 37 62 39 63 36 64
REMARK SMILES IDX 32 65 33 66 34 67 35 68 61 69 62 70 70 71 63 72 69 73 71 74
REMARK SMILES IDX 68 75 64 76 65 77 66 78 67 79 46 80 47 81 55 82 48 83 54 84
REMARK SMILES IDX 56 85 53 86 49 87 50 88 51 89 52 90
REMARK H PARENT 76 43 44 54
REMARK Flexibility Score: inf
ROOT
ATOM      1  C   UNL A   1      40.591  19.983  26.290  1.00  0.00     0.275 C 
ENDROOT
BRANCH   1   2
ATOM      2  C   UNL A   1      42.102  19.812  26.449  1.00  0.00     0.275 C 
BRANCH   2   3
ATOM      3  O   UNL A   1      42.721  21.013  26.960  1.00  0.00    -0.459 OA
BRANCH   3   4
ATOM      4  C   UNL A   1      43.240  21.850  26.029  1.00  0.00     0.338 C 
ATOM      5  O   UNL A   1      42.824  22.024  24.895  1.00  0.00    -0.246 OA
BRANCH   4   6
ATOM      6  C   UNL A   1      44.424  22.550  26.566  1.00  0.00     0.087 C 
ATOM      7  C   UNL A   1      45.392  24.756  29.441  1.00  0.00    -0.019 A 
ATOM      8  C   UNL A   1      46.541  25.498  29.798  1.00  0.00     0.045 A 
ATOM      9  C   UNL A   1      45.434  24.013  28.223  1.00  0.00     0.022 A 
ATOM     10  Cl  UNL A   1      46.656  26.402  31.270  1.00  0.00    -0.084 Cl
ATOM     11  C   UNL A   1      47.676  25.514  28.985  1.00  0.00     0.024 A 
ATOM     12  C   UNL A   1      46.603  24.009  27.442  1.00  0.00     0.128 A 
ATOM     13  C   UNL A   1      44.306  23.235  27.711  1.00  0.00     0.027 C 
ATOM     14  C   UNL A   1      47.711  24.763  27.817  1.00  0.00     0.048 A 
ATOM     15  O   UNL A   1      46.781  23.278  26.299  1.00  0.00    -0.475 OA
ATOM     16  C   UNL A   1      45.663  22.557  25.729  1.00  0.00     0.316 C 
BRANCH   7  17
ATOM     17  C   UNL A   1      44.189  24.741  30.375  1.00  0.00     0.034 C 
ATOM     18  C   UNL A   1      44.250  23.690  31.480  1.00  0.00     0.009 C 
ENDBRANCH   7  17
BRANCH  16  19
ATOM     19  C   UNL A   1      45.393  23.115  24.321  1.00  0.00     0.430 C 
ATOM     20  F   UNL A   1      44.485  24.122  24.357  1.00  0.00    -0.167 F 
ATOM     21  F   UNL A   1      46.515  23.636  23.767  1.00  0.00    -0.167 F 
ATOM     22  F   UNL A   1      44.921  22.174  23.475  1.00  0.00    -0.167 F 
ENDBRANCH  16  19
ENDBRANCH   4   6
ENDBRANCH   3   4
ENDBRANCH   2   3
ENDBRANCH   1   2
BRANCH   1  23
ATOM     23  O   UNL A   1      40.123  21.056  27.123  1.00  0.00    -0.458 OA
BRANCH  23  24
ATOM     24  C   UNL A   1      39.421  22.022  26.486  1.00  0.00     0.338 C 
ATOM     25  O   UNL A   1      38.547  21.876  25.652  1.00  0.00    -0.246 OA
BRANCH  24  26
ATOM     26  C   UNL A   1      39.822  23.329  27.025  1.00  0.00     0.060 A 
ATOM     27  C   UNL A   1      40.718  23.432  28.082  1.00  0.00     0.016 A 
ATOM     28  C   UNL A   1      39.367  24.473  26.380  1.00  0.00     0.016 A 
ATOM     29  C   UNL A   1      41.134  24.703  28.499  1.00  0.00     0.010 A 
ATOM     30  C   UNL A   1      39.892  25.718  26.700  1.00  0.00     0.010 A 
ATOM     31  C   UNL A   1      40.752  25.861  27.791  1.00  0.00    -0.014 A 
BRANCH  31  32
ATOM     32  C   UNL A   1      41.225  27.223  28.177  1.00  0.00     0.031 A 
ATOM     33  C   UNL A   1      42.643  27.657  27.884  1.00  0.00     0.074 A 
ATOM     34  C   UNL A   1      40.401  28.045  28.859  1.00  0.00     0.049 A 
ATOM     35  N   UNL A   1      43.242  28.779  28.193  1.00  0.00    -0.248 NA
ATOM     36  C   UNL A   1      43.521  26.692  27.201  1.00  0.00     0.031 C 
ATOM     37  C   UNL A   1      39.047  27.703  29.298  1.00  0.00     0.029 A 
ATOM     38  N   UNL A   1      40.572  29.336  29.299  1.00  0.00    -0.354 N 
ATOM     39  C   UNL A   1      44.563  28.634  27.778  1.00  0.00     0.074 A 
ATOM     40  C   UNL A   1      44.700  27.289  27.273  1.00  0.00     0.031 C 
ATOM     41  C   UNL A   1      38.488  28.774  29.879  1.00  0.00     0.029 A 
ATOM     42  C   UNL A   1      39.455  29.867  29.904  1.00  0.00     0.049 A 
ATOM     43  H   UNL A   1      41.414  29.834  29.191  1.00  0.00     0.167 HD
ATOM     44  C   UNL A   1      45.559  29.552  27.769  1.00  0.00     0.034 A 
ATOM     45  C   UNL A   1      39.227  31.098  30.410  1.00  0.00     0.034 A 
ATOM     46  C   UNL A   1      45.380  30.914  28.198  1.00  0.00     0.049 A 
ATOM     47  C   UNL A   1      40.319  32.133  30.314  1.00  0.00     0.074 A 
ATOM     48  C   UNL A   1      46.288  31.955  28.137  1.00  0.00     0.029 A 
ATOM     49  N   UNL A   1      44.213  31.431  28.743  1.00  0.00    -0.354 N 
ATOM     50  N   UNL A   1      41.528  32.009  29.817  1.00  0.00    -0.248 NA
ATOM     51  C   UNL A   1      40.022  33.477  30.831  1.00  0.00     0.031 C 
ATOM     52  C   UNL A   1      45.690  33.086  28.690  1.00  0.00     0.029 A 
ATOM     53  C   UNL A   1      44.383  32.773  29.031  1.00  0.00     0.049 A 
ATOM     54  H   UNL A   1      43.386  30.919  28.900  1.00  0.00     0.167 HD
ATOM     55  C   UNL A   1      42.124  33.261  29.936  1.00  0.00     0.074 A 
ATOM     56  C   UNL A   1      41.137  34.136  30.532  1.00  0.00     0.031 C 
ATOM     57  C   UNL A   1      43.378  33.646  29.591  1.00  0.00     0.034 A 
BRANCH  44  58
ATOM     58  C   UNL A   1      46.913  29.161  27.222  1.00  0.00     0.023 A 
ATOM     59  C   UNL A   1      47.044  28.741  25.884  1.00  0.00     0.031 A 
ATOM     60  C   UNL A   1      48.046  29.074  28.054  1.00  0.00     0.131 A 
ATOM     61  C   UNL A   1      48.266  28.227  25.430  1.00  0.00     0.055 A 
ATOM     62  C   UNL A   1      49.274  28.613  27.582  1.00  0.00     0.041 A 
ATOM     63  F   UNL A   1      47.976  29.449  29.342  1.00  0.00    -0.206 F 
ATOM     64  C   UNL A   1      49.385  28.173  26.268  1.00  0.00     0.022 A 
BRANCH  61  65
ATOM     65  S   UNL A   1      48.437  27.538  23.760  1.00  0.00     0.124 S 
ATOM     66  O   UNL A   1      49.725  28.088  23.339  1.00  0.00    -0.237 OA
ATOM     67  O   UNL A   1      48.429  26.102  24.021  1.00  0.00    -0.237 OA
ATOM     68  O   UNL A   1      47.277  28.057  23.044  1.00  0.00    -0.744 OA
ENDBRANCH  61  65
ENDBRANCH  44  58
BRANCH  45  69
ATOM     69  C   UNL A   1      37.869  31.422  30.943  1.00  0.00     0.023 A 
ATOM     70  C   UNL A   1      36.890  32.026  30.132  1.00  0.00     0.031 A 
ATOM     71  C   UNL A   1      37.581  31.251  32.307  1.00  0.00     0.131 A 
ATOM     72  C   UNL A   1      35.705  32.504  30.709  1.00  0.00     0.055 A 
ATOM     73  C   UNL A   1      36.367  31.661  32.864  1.00  0.00     0.041 A 
ATOM     74  F   UNL A   1      38.488  30.697  33.127  1.00  0.00    -0.206 F 
ATOM     75  C   UNL A   1      35.429  32.309  32.066  1.00  0.00     0.022 A 
BRANCH  72  76
ATOM     76  S   UNL A   1      34.547  33.524  29.753  1.00  0.00     0.124 S 
ATOM     77  O   UNL A   1      35.450  34.418  29.036  1.00  0.00    -0.237 OA
ATOM     78  O   UNL A   1      33.871  32.520  28.935  1.00  0.00    -0.237 OA
ATOM     79  O   UNL A   1      33.717  34.151  30.775  1.00  0.00    -0.744 OA
ENDBRANCH  72  76
ENDBRANCH  45  69
BRANCH  57  80
ATOM     80  C   UNL A   1      43.793  35.079  29.813  1.00  0.00     0.023 A 
ATOM     81  C   UNL A   1      43.463  36.056  28.851  1.00  0.00     0.031 A 
ATOM     82  C   UNL A   1      44.677  35.430  30.845  1.00  0.00     0.131 A 
ATOM     83  C   UNL A   1      44.067  37.318  28.908  1.00  0.00     0.055 A 
ATOM     84  C   UNL A   1      45.235  36.706  30.926  1.00  0.00     0.041 A 
ATOM     85  F   UNL A   1      45.031  34.529  31.776  1.00  0.00    -0.206 F 
ATOM     86  C   UNL A   1      44.946  37.650  29.944  1.00  0.00     0.022 A 
BRANCH  83  87
ATOM     87  S   UNL A   1      43.821  38.531  27.583  1.00  0.00     0.124 S 
ATOM     88  O   UNL A   1      45.194  38.817  27.174  1.00  0.00    -0.237 OA
ATOM     89  O   UNL A   1      43.029  37.774  26.618  1.00  0.00    -0.237 OA
ATOM     90  O   UNL A   1      43.127  39.635  28.237  1.00  0.00    -0.744 OA
ENDBRANCH  83  87
ENDBRANCH  57  80
ENDBRANCH  31  32
ENDBRANCH  24  26
ENDBRANCH  23  24
ENDBRANCH   1  23
TORSDOF 16
ENDMDL
MODEL 2
REMARK VINA RESULT:     -11.0      5.971     11.549
REMARK SMILES CCc1c(Cl)ccc2c1C=C(C(=O)OCCOC(=O)c1ccc(-c3c4nc(c(-c5cc(S(=O)(=O)[O-])ccc5F)c5ccc([nH]5)c(-c5cc(S(=O)(=O)[O-])ccc5F)c5nc(c(-c6cc(S(=O)(=O)[O-])ccc6F)c6ccc3[nH]6)C=C5)C=C4)cc1)[C@@H](C(F)(F)F)O2
REMARK SMILES IDX 16 1 15 2 14 3 12 4 13 5 11 6 3 7 4 8 9 9 5 10 6 11 8 12
REMARK SMILES IDX 10 13 7 14 88 15 83 16 2 17 1 18 84 19 85 20 86 21 87 22
REMARK SMILES IDX 17 23 18 24 19 25 20 26 21 27 82 28 22 29 81 30 23 31 24 32
REMARK SMILES IDX 25 33 75 34 26 35 80 36 74 37 76 38 27 39 79 40 73 41 72 42
REMARK SMILES IDX 28 44 60 45 40 46 59 47 41 48 44 49 58 50 77 51 42 52 43 53
REMARK SMILES IDX 57 55 78 56 45 57 29 58 30 59 38 60 31 61 37 62 39 63 36 64
REMARK SMILES IDX 32 65 33 66 34 67 35 68 61 69 62 70 70 71 63 72 69 73 71 74
REMARK SMILES IDX 68 75 64 76 65 77 66 78 67 79 46 80 47 81 55 82 48 83 54 84
REMARK SMILES IDX 56 85 53 86 49 87 50 88 51 89 52 90
REMARK H PARENT 76 43 44 54
REMARK Flexibility Score: inf
ROOT
ATOM      1  C   UNL A   1      31.581  30.045  25.645  1.00  0.00     0.275 C 
ENDROOT
BRANCH   1   2
ATOM      2  C   UNL A   1      31.439  28.879  24.667  1.00  0.00     0.275 C 
BRANCH   2   3
ATOM      3  O   UNL A   1      32.166  27.715  25.119  1.00  0.00    -0.459 OA
BRANCH   3   4
ATOM      4  C   UNL A   1      32.930  27.099  24.185  1.00  0.00     0.338 C 
ATOM      5  O   UNL A   1      33.494  27.629  23.242  1.00  0.00    -0.246 OA
BRANCH   4   6
ATOM      6  C   UNL A   1      32.995  25.647  24.447  1.00  0.00     0.087 C 
ATOM      7  C   UNL A   1      35.525  22.890  24.702  1.00  0.00    -0.019 A 
ATOM      8  C   UNL A   1      35.472  21.483  24.824  1.00  0.00     0.045 A 
ATOM      9  C   UNL A   1      34.288  23.599  24.644  1.00  0.00     0.022 A 
ATOM     10  Cl  UNL A   1      36.888  20.496  24.960  1.00  0.00    -0.084 Cl
ATOM     11  C   UNL A   1      34.252  20.805  24.878  1.00  0.00     0.024 A 
ATOM     12  C   UNL A   1      33.072  22.899  24.743  1.00  0.00     0.128 A 
ATOM     13  C   UNL A   1      34.193  25.048  24.477  1.00  0.00     0.027 C 
ATOM     14  C   UNL A   1      33.057  21.511  24.849  1.00  0.00     0.048 A 
ATOM     15  O   UNL A   1      31.833  23.479  24.774  1.00  0.00    -0.475 OA
ATOM     16  C   UNL A   1      31.702  24.902  24.539  1.00  0.00     0.316 C 
BRANCH   7  17
ATOM     17  C   UNL A   1      36.878  23.590  24.680  1.00  0.00     0.034 C 
ATOM     18  C   UNL A   1      37.478  23.864  26.056  1.00  0.00     0.009 C 
ENDBRANCH   7  17
BRANCH  16  19
ATOM     19  C   UNL A   1      30.838  25.108  23.284  1.00  0.00     0.430 C 
ATOM     20  F   UNL A   1      31.606  25.334  22.190  1.00  0.00    -0.167 F 
ATOM     21  F   UNL A   1      30.093  24.011  23.004  1.00  0.00    -0.167 F 
ATOM     22  F   UNL A   1      29.991  26.154  23.407  1.00  0.00    -0.167 F 
ENDBRANCH  16  19
ENDBRANCH   4   6
ENDBRANCH   3   4
ENDBRANCH   2   3
ENDBRANCH   1   2
BRANCH   1  23
ATOM     23  O   UNL A   1      32.970  30.313  25.898  1.00  0.00    -0.458 OA
BRANCH  23  24
ATOM     24  C   UNL A   1      33.217  31.247  26.846  1.00  0.00     0.338 C 
ATOM     25  O   UNL A   1      32.484  32.148  27.210  1.00  0.00    -0.246 OA
BRANCH  24  26
ATOM     26  C   UNL A   1      34.519  30.958  27.464  1.00  0.00     0.060 A 
ATOM     27  C   UNL A   1      35.392  31.979  27.821  1.00  0.00     0.016 A 
ATOM     28  C   UNL A   1      34.815  29.639  27.788  1.00  0.00     0.016 A 
ATOM     29  C   UNL A   1      36.581  31.654  28.488  1.00  0.00     0.010 A 
ATOM     30  C   UNL A   1      35.919  29.338  28.573  1.00  0.00     0.010 A 
ATOM     31  C   UNL A   1      36.844  30.332  28.902  1.00  0.00    -0.014 A 
BRANCH  31  32
ATOM     32  C   UNL A   1      38.073  29.965  29.663  1.00  0.00     0.031 A 
ATOM     33  C   UNL A   1      38.297  30.488  31.064  1.00  0.00     0.074 A 
ATOM     34  C   UNL A   1      39.028  29.221  29.067  1.00  0.00     0.049 A 
ATOM     35  N   UNL A   1      39.327  30.318  31.853  1.00  0.00    -0.248 NA
ATOM     36  C   UNL A   1      37.255  31.356  31.639  1.00  0.00     0.031 C 
ATOM     37  C   UNL A   1      38.982  28.747  27.683  1.00  0.00     0.029 A 
ATOM     38  N   UNL A   1      40.218  28.726  29.544  1.00  0.00    -0.354 N 
ATOM     39  C   UNL A   1      39.070  31.083  32.987  1.00  0.00     0.074 A 
ATOM     40  C   UNL A   1      37.831  31.783  32.751  1.00  0.00     0.031 C 
ATOM     41  C   UNL A   1      40.052  27.976  27.445  1.00  0.00     0.029 A 
ATOM     42  C   UNL A   1      40.892  27.937  28.638  1.00  0.00     0.049 A 
ATOM     43  H   UNL A   1      40.557  28.916  30.448  1.00  0.00     0.167 HD
ATOM     44  C   UNL A   1      39.775  31.157  34.142  1.00  0.00     0.034 A 
ATOM     45  C   UNL A   1      42.048  27.249  28.756  1.00  0.00     0.034 A 
ATOM     46  C   UNL A   1      40.964  30.386  34.392  1.00  0.00     0.049 A 
ATOM     47  C   UNL A   1      42.774  27.275  30.077  1.00  0.00     0.074 A 
ATOM     48  C   UNL A   1      41.699  30.304  35.560  1.00  0.00     0.029 A 
ATOM     49  N   UNL A   1      41.577  29.547  33.472  1.00  0.00    -0.354 N 
ATOM     50  N   UNL A   1      42.457  27.918  31.176  1.00  0.00    -0.248 NA
ATOM     51  C   UNL A   1      44.003  26.477  30.187  1.00  0.00     0.031 C 
ATOM     52  C   UNL A   1      42.782  29.458  35.333  1.00  0.00     0.029 A 
ATOM     53  C   UNL A   1      42.687  28.953  34.045  1.00  0.00     0.049 A 
ATOM     54  H   UNL A   1      41.268  29.397  32.549  1.00  0.00     0.167 HD
ATOM     55  C   UNL A   1      43.429  27.582  32.114  1.00  0.00     0.074 A 
ATOM     56  C   UNL A   1      44.334  26.661  31.460  1.00  0.00     0.031 C 
ATOM     57  C   UNL A   1      43.562  28.006  33.395  1.00  0.00     0.034 A 
BRANCH  44  58
ATOM     58  C   UNL A   1      39.263  32.038  35.259  1.00  0.00     0.023 A 
ATOM     59  C   UNL A   1      39.733  33.359  35.394  1.00  0.00     0.031 A 
ATOM     60  C   UNL A   1      38.417  31.533  36.266  1.00  0.00     0.131 A 
ATOM     61  C   UNL A   1      39.379  34.114  36.521  1.00  0.00     0.055 A 
ATOM     62  C   UNL A   1      38.026  32.308  37.357  1.00  0.00     0.041 A 
ATOM     63  F   UNL A   1      37.950  30.276  36.196  1.00  0.00    -0.206 F 
ATOM     64  C   UNL A   1      38.519  33.600  37.496  1.00  0.00     0.022 A 
BRANCH  61  65
ATOM     65  S   UNL A   1      40.080  35.763  36.808  1.00  0.00     0.124 S 
ATOM     66  O   UNL A   1      41.515  35.490  36.772  1.00  0.00    -0.237 OA
ATOM     67  O   UNL A   1      39.561  36.517  35.671  1.00  0.00    -0.237 OA
ATOM     68  O   UNL A   1      39.554  36.147  38.113  1.00  0.00    -0.744 OA
ENDBRANCH  61  65
ENDBRANCH  44  58
BRANCH  45  69
ATOM     69  C   UNL A   1      42.505  26.401  27.614  1.00  0.00     0.023 A 
ATOM     70  C   UNL A   1      42.014  25.096  27.429  1.00  0.00     0.031 A 
ATOM     71  C   UNL A   1      43.539  26.841  26.770  1.00  0.00     0.131 A 
ATOM     72  C   UNL A   1      42.609  24.255  26.478  1.00  0.00     0.055 A 
ATOM     73  C   UNL A   1      44.078  26.026  25.773  1.00  0.00     0.041 A 
ATOM     74  F   UNL A   1      44.055  28.071  26.916  1.00  0.00    -0.206 F 
ATOM     75  C   UNL A   1      43.626  24.717  25.636  1.00  0.00     0.022 A 
BRANCH  72  76
ATOM     76  S   UNL A   1      42.188  22.490  26.400  1.00  0.00     0.124 S 
ATOM     77  O   UNL A   1      42.825  22.081  25.153  1.00  0.00    -0.237 OA
ATOM     78  O   UNL A   1      42.806  21.982  27.622  1.00  0.00    -0.237 OA
ATOM     79  O   UNL A   1      40.729  22.485  26.396  1.00  0.00    -0.744 OA
ENDBRANCH  72  76
ENDBRANCH  45  69
BRANCH  57  80
ATOM     80  C   UNL A   1      44.709  27.485  34.225  1.00  0.00     0.023 A 
ATOM     81  C   UNL A   1      44.531  26.328  35.010  1.00  0.00     0.031 A 
ATOM     82  C   UNL A   1      45.883  28.237  34.399  1.00  0.00     0.131 A 
ATOM     83  C   UNL A   1      45.484  25.994  35.980  1.00  0.00     0.055 A 
ATOM     84  C   UNL A   1      46.853  27.869  35.331  1.00  0.00     0.041 A 
ATOM     85  F   UNL A   1      46.089  29.353  33.683  1.00  0.00    -0.206 F 
ATOM     86  C   UNL A   1      46.647  26.754  36.140  1.00  0.00     0.022 A 
BRANCH  83  87
ATOM     87  S   UNL A   1      45.196  24.630  37.140  1.00  0.00     0.124 S 
ATOM     88  O   UNL A   1      44.622  23.607  36.269  1.00  0.00    -0.237 OA
ATOM     89  O   UNL A   1      46.544  24.351  37.626  1.00  0.00    -0.237 OA
ATOM     90  O   UNL A   1      44.276  25.190  38.125  1.00  0.00    -0.744 OA
ENDBRANCH  83  87
ENDBRANCH  57  80
ENDBRANCH  31  32
ENDBRANCH  24  26
ENDBRANCH  23  24
ENDBRANCH   1  23
TORSDOF 16
ENDMDL
MODEL 3
REMARK VINA RESULT:     -10.9      4.067      6.494
REMARK SMILES CCc1c(Cl)ccc2c1C=C(C(=O)OCCOC(=O)c1ccc(-c3c4nc(c(-c5cc(S(=O)(=O)[O-])ccc5F)c5ccc([nH]5)c(-c5cc(S(=O)(=O)[O-])ccc5F)c5nc(c(-c6cc(S(=O)(=O)[O-])ccc6F)c6ccc3[nH]6)C=C5)C=C4)cc1)[C@@H](C(F)(F)F)O2
REMARK SMILES IDX 16 1 15 2 14 3 12 4 13 5 11 6 3 7 4 8 9 9 5 10 6 11 8 12
REMARK SMILES IDX 10 13 7 14 88 15 83 16 2 17 1 18 84 19 85 20 86 21 87 22
REMARK SMILES IDX 17 23 18 24 19 25 20 26 21 27 82 28 22 29 81 30 23 31 24 32
REMARK SMILES IDX 25 33 75 34 26 35 80 36 74 37 76 38 27 39 79 40 73 41 72 42
REMARK SMILES IDX 28 44 60 45 40 46 59 47 41 48 44 49 58 50 77 51 42 52 43 53
REMARK SMILES IDX 57 55 78 56 45 57 29 58 30 59 38 60 31 61 37 62 39 63 36 64
REMARK SMILES IDX 32 65 33 66 34 67 35 68 61 69 62 70 70 71 63 72 69 73 71 74
REMARK SMILES IDX 68 75 64 76 65 77 66 78 67 79 46 80 47 81 55 82 48 83 54 84
REMARK SMILES IDX 56 85 53 86 49 87 50 88 51 89 52 90
REMARK H PARENT 76 43 44 54
REMARK Flexibility Score: inf
ROOT
ATOM      1  C   UNL A   1      37.294  20.968  24.778  1.00  0.00     0.275 C 
ENDROOT
BRANCH   1   2
ATOM      2  C   UNL A   1      35.831  20.584  25.002  1.00  0.00     0.275 C 
BRANCH   2   3
ATOM      3  O   UNL A   1      34.936  21.454  24.274  1.00  0.00    -0.459 OA
BRANCH   3   4
ATOM      4  C   UNL A   1      33.623  21.347  24.592  1.00  0.00     0.338 C 
ATOM      5  O   UNL A   1      32.943  20.336  24.538  1.00  0.00    -0.246 OA
BRANCH   4   6
ATOM      6  C   UNL A   1      33.088  22.656  25.019  1.00  0.00     0.087 C 
ATOM      7  C   UNL A   1      32.954  26.218  23.856  1.00  0.00    -0.019 A 
ATOM      8  C   UNL A   1      32.526  27.444  24.413  1.00  0.00     0.045 A 
ATOM      9  C   UNL A   1      32.821  25.043  24.654  1.00  0.00     0.022 A 
ATOM     10  Cl  UNL A   1      32.577  28.941  23.546  1.00  0.00    -0.084 Cl
ATOM     11  C   UNL A   1      31.999  27.509  25.705  1.00  0.00     0.024 A 
ATOM     12  C   UNL A   1      32.247  25.125  25.935  1.00  0.00     0.128 A 
ATOM     13  C   UNL A   1      33.259  23.717  24.221  1.00  0.00     0.027 C 
ATOM     14  C   UNL A   1      31.849  26.352  26.459  1.00  0.00     0.048 A 
ATOM     15  O   UNL A   1      32.003  24.058  26.755  1.00  0.00    -0.475 OA
ATOM     16  C   UNL A   1      32.489  22.745  26.387  1.00  0.00     0.316 C 
BRANCH   7  17
ATOM     17  C   UNL A   1      33.493  26.190  22.430  1.00  0.00     0.034 C 
ATOM     18  C   UNL A   1      32.436  25.973  21.352  1.00  0.00     0.009 C 
ENDBRANCH   7  17
BRANCH  16  19
ATOM     19  C   UNL A   1      33.474  22.272  27.469  1.00  0.00     0.430 C 
ATOM     20  F   UNL A   1      33.605  20.922  27.459  1.00  0.00    -0.167 F 
ATOM     21  F   UNL A   1      34.717  22.774  27.268  1.00  0.00    -0.167 F 
ATOM     22  F   UNL A   1      33.087  22.632  28.712  1.00  0.00    -0.167 F 
ENDBRANCH  16  19
ENDBRANCH   4   6
ENDBRANCH   3   4
ENDBRANCH   2   3
ENDBRANCH   1   2
BRANCH   1  23
ATOM     23  O   UNL A   1      37.775  21.752  25.882  1.00  0.00    -0.458 OA
BRANCH  23  24
ATOM     24  C   UNL A   1      39.089  21.605  26.169  1.00  0.00     0.338 C 
ATOM     25  O   UNL A   1      39.795  20.639  25.945  1.00  0.00    -0.246 OA
BRANCH  24  26
ATOM     26  C   UNL A   1      39.591  22.864  26.738  1.00  0.00     0.060 A 
ATOM     27  C   UNL A   1      40.626  22.876  27.665  1.00  0.00     0.016 A 
ATOM     28  C   UNL A   1      39.081  24.058  26.243  1.00  0.00     0.016 A 
ATOM     29  C   UNL A   1      41.126  24.108  28.108  1.00  0.00     0.010 A 
ATOM     30  C   UNL A   1      39.675  25.268  26.574  1.00  0.00     0.010 A 
ATOM     31  C   UNL A   1      40.680  25.320  27.543  1.00  0.00    -0.014 A 
BRANCH  31  32
ATOM     32  C   UNL A   1      41.234  26.643  27.954  1.00  0.00     0.031 A 
ATOM     33  C   UNL A   1      42.663  27.013  27.630  1.00  0.00     0.074 A 
ATOM     34  C   UNL A   1      40.475  27.485  28.685  1.00  0.00     0.049 A 
ATOM     35  N   UNL A   1      43.329  28.093  27.953  1.00  0.00    -0.248 NA
ATOM     36  C   UNL A   1      43.469  26.026  26.891  1.00  0.00     0.031 C 
ATOM     37  C   UNL A   1      39.118  27.198  29.156  1.00  0.00     0.029 A 
ATOM     38  N   UNL A   1      40.725  28.750  29.157  1.00  0.00    -0.354 N 
ATOM     39  C   UNL A   1      44.627  27.893  27.493  1.00  0.00     0.074 A 
ATOM     40  C   UNL A   1      44.679  26.560  26.945  1.00  0.00     0.031 C 
ATOM     41  C   UNL A   1      38.633  28.278  29.785  1.00  0.00     0.029 A 
ATOM     42  C   UNL A   1      39.656  29.319  29.812  1.00  0.00     0.049 A 
ATOM     43  H   UNL A   1      41.588  29.208  29.038  1.00  0.00     0.167 HD
ATOM     44  C   UNL A   1      45.669  28.759  27.480  1.00  0.00     0.034 A 
ATOM     45  C   UNL A   1      39.507  30.544  30.362  1.00  0.00     0.034 A 
ATOM     46  C   UNL A   1      45.574  30.115  27.955  1.00  0.00     0.049 A 
ATOM     47  C   UNL A   1      40.649  31.524  30.262  1.00  0.00     0.074 A 
ATOM     48  C   UNL A   1      46.533  31.109  27.896  1.00  0.00     0.029 A 
ATOM     49  N   UNL A   1      44.452  30.673  28.550  1.00  0.00    -0.354 N 
ATOM     50  N   UNL A   1      41.834  31.354  29.724  1.00  0.00    -0.248 NA
ATOM     51  C   UNL A   1      40.437  32.865  30.827  1.00  0.00     0.031 C 
ATOM     52  C   UNL A   1      46.011  32.251  28.500  1.00  0.00     0.029 A 
ATOM     53  C   UNL A   1      44.701  31.995  28.873  1.00  0.00     0.049 A 
ATOM     54  H   UNL A   1      43.605  30.200  28.718  1.00  0.00     0.167 HD
ATOM     55  C   UNL A   1      42.497  32.570  29.862  1.00  0.00     0.074 A 
ATOM     56  C   UNL A   1      41.575  33.475  30.514  1.00  0.00     0.031 C 
ATOM     57  C   UNL A   1      43.759  32.900  29.489  1.00  0.00     0.034 A 
BRANCH  44  58
ATOM     58  C   UNL A   1      46.985  28.317  26.880  1.00  0.00     0.023 A 
ATOM     59  C   UNL A   1      47.132  28.227  25.482  1.00  0.00     0.031 A 
ATOM     60  C   UNL A   1      48.043  27.857  27.686  1.00  0.00     0.131 A 
ATOM     61  C   UNL A   1      48.295  27.664  24.937  1.00  0.00     0.055 A 
ATOM     62  C   UNL A   1      49.220  27.347  27.137  1.00  0.00     0.041 A 
ATOM     63  F   UNL A   1      47.952  27.906  29.025  1.00  0.00    -0.206 F 
ATOM     64  C   UNL A   1      49.344  27.235  25.757  1.00  0.00     0.022 A 
BRANCH  61  65
ATOM     65  S   UNL A   1      48.464  27.393  23.152  1.00  0.00     0.124 S 
ATOM     66  O   UNL A   1      48.375  25.937  23.059  1.00  0.00    -0.237 OA
ATOM     67  O   UNL A   1      47.314  28.121  22.623  1.00  0.00    -0.237 OA
ATOM     68  O   UNL A   1      49.770  27.957  22.831  1.00  0.00    -0.744 OA
ENDBRANCH  61  65
ENDBRANCH  44  58
BRANCH  45  69
ATOM     69  C   UNL A   1      38.185  30.920  30.945  1.00  0.00     0.023 A 
ATOM     70  C   UNL A   1      37.203  31.571  30.175  1.00  0.00     0.031 A 
ATOM     71  C   UNL A   1      37.938  30.750  32.319  1.00  0.00     0.131 A 
ATOM     72  C   UNL A   1      36.061  32.093  30.799  1.00  0.00     0.055 A 
ATOM     73  C   UNL A   1      36.764  31.206  32.922  1.00  0.00     0.041 A 
ATOM     74  F   UNL A   1      38.850  30.152  33.101  1.00  0.00    -0.206 F 
ATOM     75  C   UNL A   1      35.826  31.899  32.163  1.00  0.00     0.022 A 
BRANCH  72  76
ATOM     76  S   UNL A   1      34.913  33.169  29.891  1.00  0.00     0.124 S 
ATOM     77  O   UNL A   1      34.200  32.212  29.051  1.00  0.00    -0.237 OA
ATOM     78  O   UNL A   1      34.135  33.757  30.979  1.00  0.00    -0.237 OA
ATOM     79  O   UNL A   1      35.794  34.095  29.188  1.00  0.00    -0.744 OA
ENDBRANCH  72  76
ENDBRANCH  45  69
BRANCH  57  80
ATOM     80  C   UNL A   1      44.255  34.303  29.740  1.00  0.00     0.023 A 
ATOM     81  C   UNL A   1      44.126  35.277  28.730  1.00  0.00     0.031 A 
ATOM     82  C   UNL A   1      45.026  34.611  30.872  1.00  0.00     0.131 A 
ATOM     83  C   UNL A   1      44.816  36.491  28.844  1.00  0.00     0.055 A 
ATOM     84  C   UNL A   1      45.668  35.843  31.004  1.00  0.00     0.041 A 
ATOM     85  F   UNL A   1      45.187  33.709  31.853  1.00  0.00    -0.206 F 
ATOM     86  C   UNL A   1      45.581  36.781  29.978  1.00  0.00     0.022 A 
BRANCH  83  87
ATOM     87  S   UNL A   1      44.835  37.685  27.480  1.00  0.00     0.124 S 
ATOM     88  O   UNL A   1      43.475  37.570  26.957  1.00  0.00    -0.237 OA
ATOM     89  O   UNL A   1      45.133  38.936  28.171  1.00  0.00    -0.237 OA
ATOM     90  O   UNL A   1      45.883  37.192  26.591  1.00  0.00    -0.744 OA
ENDBRANCH  83  87
ENDBRANCH  57  80
ENDBRANCH  31  32
ENDBRANCH  24  26
ENDBRANCH  23  24
ENDBRANCH   1  23
TORSDOF 16
ENDMDL
