MODEL 1
REMARK VINA RESULT:     -14.1      0.000      0.000
REMARK SMILES O=C(OCCOC(=O)c1ccc(-c2c3nc(c(-c4cc(S(=O)(=O)[O-])ccc4F)c4ccc([nH]4)c(-c4cc(S(=O)(=O)[O-])ccc4F)c4nc(c(-c5cc(S(=O)(=O)[O-])ccc5F)c5ccc2[nH]5)C=C4)C=C3)cc1)C1=Cc2cc(OC(F)(F)F)ccc2O[C@@H]1C(F)(F)F
REMARK SMILES IDX 5 1 4 2 3 3 2 4 1 5 72 6 73 7 86 8 74 9 85 10 75 11 84 12
REMARK SMILES IDX 76 13 83 14 82 15 87 16 88 17 89 18 90 19 77 20 78 21 79 22
REMARK SMILES IDX 80 23 81 24 6 25 7 26 8 27 9 28 10 29 71 30 11 31 70 32
REMARK SMILES IDX 12 33 13 34 14 35 64 36 15 37 69 38 63 39 65 40 16 41 68 42
REMARK SMILES IDX 62 43 61 44 17 46 49 47 29 48 48 49 30 50 33 51 47 52 66 53
REMARK SMILES IDX 31 54 32 55 46 57 67 58 34 59 18 60 19 61 27 62 20 63 26 64
REMARK SMILES IDX 28 65 25 66 21 67 22 68 23 69 24 70 50 71 51 72 59 73 52 74
REMARK SMILES IDX 58 75 60 76 57 77 53 78 54 79 55 80 56 81 35 82 36 83 44 84
REMARK SMILES IDX 37 85 43 86 45 87 42 88 38 89 39 90 40 91 41 92
REMARK H PARENT 65 45 33 56
REMARK Flexibility Score: inf
ROOT
ATOM      1  C   UNL A   1      31.636  31.615  26.467  1.00  0.00     0.275 C 
ENDROOT
BRANCH   1   2
ATOM      2  C   UNL A   1      31.789  29.505  27.003  1.00  0.00     0.275 C 
BRANCH   2   3
ATOM      3  O   UNL A   1      32.482  28.397  26.172  1.00  0.00    -0.459 OA
BRANCH   3   4
ATOM      4  C   UNL A   1      31.725  27.306  26.012  1.00  0.00     0.338 C 
ATOM      5  O   UNL A   1      31.171  26.616  26.826  1.00  0.00    -0.246 OA
BRANCH   4   6
ATOM      6  C   UNL A   1      32.061  27.111  24.624  1.00  0.00     0.087 C 
ATOM      7  C   UNL A   1      33.298  26.344  24.479  1.00  0.00     0.027 C 
ATOM      8  C   UNL A   1      30.309  26.535  24.051  1.00  0.00     0.316 C 
ATOM      9  C   UNL A   1      33.331  24.639  23.922  1.00  0.00     0.021 A 
ATOM     10  O   UNL A   1      30.323  24.682  23.491  1.00  0.00    -0.475 OA
ATOM     11  C   UNL A   1      34.503  23.969  24.086  1.00  0.00     0.058 A 
ATOM     12  C   UNL A   1      31.900  23.753  23.518  1.00  0.00     0.128 A 
ATOM     13  C   UNL A   1      34.438  22.574  23.951  1.00  0.00     0.130 A 
ATOM     14  C   UNL A   1      31.912  22.392  23.386  1.00  0.00     0.051 A 
ATOM     15  C   UNL A   1      33.217  21.830  23.624  1.00  0.00     0.050 A 
BRANCH   8  16
ATOM     16  C   UNL A   1      29.930  27.908  23.361  1.00  0.00     0.430 C 
ATOM     17  F   UNL A   1      30.438  28.006  22.128  1.00  0.00    -0.167 F 
ATOM     18  F   UNL A   1      28.574  27.920  23.151  1.00  0.00    -0.167 F 
ATOM     19  F   UNL A   1      30.117  29.031  24.071  1.00  0.00    -0.167 F 
ENDBRANCH   8  16
BRANCH  13  20
ATOM     20  O   UNL A   1      35.688  22.062  24.199  1.00  0.00    -0.406 OA
BRANCH  20  21
ATOM     21  C   UNL A   1      35.953  21.291  25.343  1.00  0.00     0.573 C 
ATOM     22  F   UNL A   1      37.216  21.477  25.773  1.00  0.00    -0.132 F 
ATOM     23  F   UNL A   1      35.080  21.574  26.328  1.00  0.00    -0.132 F 
ATOM     24  F   UNL A   1      35.808  19.988  25.008  1.00  0.00    -0.132 F 
ENDBRANCH  20  21
ENDBRANCH  13  20
ENDBRANCH   4   6
ENDBRANCH   3   4
ENDBRANCH   2   3
ENDBRANCH   1   2
BRANCH   1  25
ATOM     25  O   UNL A   1      31.968  32.926  27.516  1.00  0.00    -0.458 OA
BRANCH  25  26
ATOM     26  C   UNL A   1      32.920  33.837  27.891  1.00  0.00     0.338 C 
ATOM     27  O   UNL A   1      32.790  34.964  28.329  1.00  0.00    -0.246 OA
BRANCH  26  28
ATOM     28  C   UNL A   1      34.169  33.025  28.035  1.00  0.00     0.060 A 
ATOM     29  C   UNL A   1      35.410  33.685  28.000  1.00  0.00     0.016 A 
ATOM     30  C   UNL A   1      34.077  31.746  28.592  1.00  0.00     0.016 A 
ATOM     31  C   UNL A   1      36.503  33.148  28.704  1.00  0.00     0.010 A 
ATOM     32  C   UNL A   1      35.162  31.220  29.298  1.00  0.00     0.010 A 
ATOM     33  C   UNL A   1      36.369  31.937  29.402  1.00  0.00    -0.014 A 
BRANCH  33  34
ATOM     34  C   UNL A   1      37.576  31.242  29.926  1.00  0.00     0.031 A 
ATOM     35  C   UNL A   1      37.927  31.609  31.339  1.00  0.00     0.074 A 
ATOM     36  C   UNL A   1      38.340  30.383  29.218  1.00  0.00     0.049 A 
ATOM     37  N   UNL A   1      38.906  31.202  32.097  1.00  0.00    -0.248 NA
ATOM     38  C   UNL A   1      37.051  32.616  31.968  1.00  0.00     0.031 C 
ATOM     39  C   UNL A   1      38.117  29.967  27.832  1.00  0.00     0.029 A 
ATOM     40  N   UNL A   1      39.480  29.700  29.580  1.00  0.00    -0.354 N 
ATOM     41  C   UNL A   1      38.745  31.890  33.294  1.00  0.00     0.074 A 
ATOM     42  C   UNL A   1      37.654  32.816  33.121  1.00  0.00     0.031 C 
ATOM     43  C   UNL A   1      39.082  29.095  27.469  1.00  0.00     0.029 A 
ATOM     44  C   UNL A   1      40.002  28.892  28.588  1.00  0.00     0.049 A 
ATOM     45  H   UNL A   1      39.890  29.780  30.473  1.00  0.00     0.167 HD
ATOM     46  C   UNL A   1      39.416  31.736  34.456  1.00  0.00     0.034 A 
ATOM     47  C   UNL A   1      41.087  28.082  28.606  1.00  0.00     0.034 A 
ATOM     48  C   UNL A   1      40.534  30.848  34.594  1.00  0.00     0.049 A 
ATOM     49  C   UNL A   1      41.887  27.989  29.895  1.00  0.00     0.074 A 
ATOM     50  C   UNL A   1      41.324  30.619  35.702  1.00  0.00     0.029 A 
ATOM     51  N   UNL A   1      41.031  30.055  33.568  1.00  0.00    -0.354 N 
ATOM     52  N   UNL A   1      41.684  28.594  31.046  1.00  0.00    -0.248 NA
ATOM     53  C   UNL A   1      43.048  27.088  29.895  1.00  0.00     0.031 C 
ATOM     54  C   UNL A   1      42.344  29.739  35.325  1.00  0.00     0.029 A 
ATOM     55  C   UNL A   1      42.134  29.349  34.009  1.00  0.00     0.049 A 
ATOM     56  H   UNL A   1      40.655  30.003  32.659  1.00  0.00     0.167 HD
ATOM     57  C   UNL A   1      42.654  28.098  31.918  1.00  0.00     0.074 A 
ATOM     58  C   UNL A   1      43.437  27.143  31.160  1.00  0.00     0.031 C 
ATOM     59  C   UNL A   1      42.879  28.390  33.227  1.00  0.00     0.034 A 
BRANCH  46  60
ATOM     60  C   UNL A   1      38.960  32.600  35.604  1.00  0.00     0.023 A 
ATOM     61  C   UNL A   1      39.390  33.937  35.724  1.00  0.00     0.031 A 
ATOM     62  C   UNL A   1      38.228  32.042  36.663  1.00  0.00     0.131 A 
ATOM     63  C   UNL A   1      39.188  34.628  36.927  1.00  0.00     0.055 A 
ATOM     64  C   UNL A   1      37.940  32.774  37.816  1.00  0.00     0.041 A 
ATOM     65  F   UNL A   1      37.828  30.763  36.620  1.00  0.00    -0.206 F 
ATOM     66  C   UNL A   1      38.441  34.066  37.964  1.00  0.00     0.022 A 
BRANCH  63  67
ATOM     67  S   UNL A   1      40.095  36.178  37.197  1.00  0.00     0.124 S 
ATOM     68  O   UNL A   1      41.422  35.683  37.557  1.00  0.00    -0.237 OA
ATOM     69  O   UNL A   1      39.990  36.837  35.900  1.00  0.00    -0.237 OA
ATOM     70  O   UNL A   1      39.360  36.819  38.284  1.00  0.00    -0.744 OA
ENDBRANCH  63  67
ENDBRANCH  46  60
BRANCH  47  71
ATOM     71  C   UNL A   1      41.509  27.280  27.408  1.00  0.00     0.023 A 
ATOM     72  C   UNL A   1      41.365  25.879  27.375  1.00  0.00     0.031 A 
ATOM     73  C   UNL A   1      42.176  27.883  26.325  1.00  0.00     0.131 A 
ATOM     74  C   UNL A   1      41.930  25.127  26.327  1.00  0.00     0.055 A 
ATOM     75  C   UNL A   1      42.687  27.137  25.257  1.00  0.00     0.041 A 
ATOM     76  F   UNL A   1      42.359  29.212  26.298  1.00  0.00    -0.206 F 
ATOM     77  C   UNL A   1      42.581  25.749  25.261  1.00  0.00     0.022 A 
BRANCH  74  78
ATOM     78  S   UNL A   1      41.905  23.312  26.430  1.00  0.00     0.124 S 
ATOM     79  O   UNL A   1      42.613  22.935  25.213  1.00  0.00    -0.237 OA
ATOM     80  O   UNL A   1      42.607  23.068  27.686  1.00  0.00    -0.237 OA
ATOM     81  O   UNL A   1      40.479  22.991  26.446  1.00  0.00    -0.744 OA
ENDBRANCH  74  78
ENDBRANCH  47  71
BRANCH  59  82
ATOM     82  C   UNL A   1      43.955  27.607  33.940  1.00  0.00     0.023 A 
ATOM     83  C   UNL A   1      43.694  26.384  34.576  1.00  0.00     0.031 A 
ATOM     84  C   UNL A   1      45.275  28.097  33.962  1.00  0.00     0.131 A 
ATOM     85  C   UNL A   1      44.723  25.722  35.261  1.00  0.00     0.055 A 
ATOM     86  C   UNL A   1      46.309  27.397  34.579  1.00  0.00     0.041 A 
ATOM     87  F   UNL A   1      45.581  29.263  33.368  1.00  0.00    -0.206 F 
ATOM     88  C   UNL A   1      46.033  26.209  35.248  1.00  0.00     0.022 A 
BRANCH  85  89
ATOM     89  S   UNL A   1      44.304  24.272  36.266  1.00  0.00     0.124 S 
ATOM     90  O   UNL A   1      43.268  23.634  35.461  1.00  0.00    -0.237 OA
ATOM     91  O   UNL A   1      45.578  23.565  36.340  1.00  0.00    -0.237 OA
ATOM     92  O   UNL A   1      43.842  24.851  37.526  1.00  0.00    -0.744 OA
ENDBRANCH  85  89
ENDBRANCH  59  82
ENDBRANCH  33  34
ENDBRANCH  26  28
ENDBRANCH  25  26
ENDBRANCH   1  25
TORSDOF 17
ENDMDL
MODEL 2
REMARK VINA RESULT:     -13.9      1.625      1.927
REMARK SMILES O=C(OCCOC(=O)c1ccc(-c2c3nc(c(-c4cc(S(=O)(=O)[O-])ccc4F)c4ccc([nH]4)c(-c4cc(S(=O)(=O)[O-])ccc4F)c4nc(c(-c5cc(S(=O)(=O)[O-])ccc5F)c5ccc2[nH]5)C=C4)C=C3)cc1)C1=Cc2cc(OC(F)(F)F)ccc2O[C@@H]1C(F)(F)F
REMARK SMILES IDX 5 1 4 2 3 3 2 4 1 5 72 6 73 7 86 8 74 9 85 10 75 11 84 12
REMARK SMILES IDX 76 13 83 14 82 15 87 16 88 17 89 18 90 19 77 20 78 21 79 22
REMARK SMILES IDX 80 23 81 24 6 25 7 26 8 27 9 28 10 29 71 30 11 31 70 32
REMARK SMILES IDX 12 33 13 34 14 35 64 36 15 37 69 38 63 39 65 40 16 41 68 42
REMARK SMILES IDX 62 43 61 44 17 46 49 47 29 48 48 49 30 50 33 51 47 52 66 53
REMARK SMILES IDX 31 54 32 55 46 57 67 58 34 59 18 60 19 61 27 62 20 63 26 64
REMARK SMILES IDX 28 65 25 66 21 67 22 68 23 69 24 70 50 71 51 72 59 73 52 74
REMARK SMILES IDX 58 75 60 76 57 77 53 78 54 79 55 80 56 81 35 82 36 83 44 84
REMARK SMILES IDX 37 85 43 86 45 87 42 88 38 89 39 90 40 91 41 92
REMARK H PARENT 65 45 33 56
REMARK Flexibility Score: inf
ROOT
ATOM      1  C   UNL A   1      32.602  31.895  27.366  1.00  0.00     0.275 C 
ENDROOT
BRANCH   1   2
ATOM      2  C   UNL A   1      33.764  30.084  27.004  1.00  0.00     0.275 C 
BRANCH   2   3
ATOM      3  O   UNL A   1      33.506  28.690  27.628  1.00  0.00    -0.459 OA
BRANCH   3   4
ATOM      4  C   UNL A   1      32.336  28.157  27.261  1.00  0.00     0.338 C 
ATOM      5  O   UNL A   1      31.366  27.880  27.916  1.00  0.00    -0.246 OA
BRANCH   4   6
ATOM      6  C   UNL A   1      32.768  27.780  25.938  1.00  0.00     0.087 C 
ATOM      7  C   UNL A   1      33.683  26.639  25.982  1.00  0.00     0.027 C 
ATOM      8  C   UNL A   1      31.017  27.784  25.124  1.00  0.00     0.316 C 
ATOM      9  C   UNL A   1      33.214  24.990  25.454  1.00  0.00     0.021 A 
ATOM     10  O   UNL A   1      30.481  26.002  24.591  1.00  0.00    -0.475 OA
ATOM     11  C   UNL A   1      34.059  23.980  25.793  1.00  0.00     0.058 A 
ATOM     12  C   UNL A   1      31.635  24.606  24.856  1.00  0.00     0.128 A 
ATOM     13  C   UNL A   1      33.548  22.680  25.664  1.00  0.00     0.130 A 
ATOM     14  C   UNL A   1      31.207  23.313  24.742  1.00  0.00     0.051 A 
ATOM     15  C   UNL A   1      32.203  22.365  25.172  1.00  0.00     0.050 A 
BRANCH   8  16
ATOM     16  C   UNL A   1      31.217  29.163  24.371  1.00  0.00     0.430 C 
ATOM     17  F   UNL A   1      32.374  29.205  23.702  1.00  0.00    -0.167 F 
ATOM     18  F   UNL A   1      30.271  29.250  23.382  1.00  0.00    -0.167 F 
ATOM     19  F   UNL A   1      31.001  30.288  25.070  1.00  0.00    -0.167 F 
ENDBRANCH   8  16
BRANCH  13  20
ATOM     20  O   UNL A   1      34.508  21.799  26.096  1.00  0.00    -0.406 OA
BRANCH  20  21
ATOM     21  C   UNL A   1      35.256  21.025  25.193  1.00  0.00     0.573 C 
ATOM     22  F   UNL A   1      36.509  20.826  25.644  1.00  0.00    -0.132 F 
ATOM     23  F   UNL A   1      34.655  19.843  24.957  1.00  0.00    -0.132 F 
ATOM     24  F   UNL A   1      35.329  21.705  24.025  1.00  0.00    -0.132 F 
ENDBRANCH  20  21
ENDBRANCH  13  20
ENDBRANCH   4   6
ENDBRANCH   3   4
ENDBRANCH   2   3
ENDBRANCH   1   2
BRANCH   1  25
ATOM     25  O   UNL A   1      33.257  33.428  27.749  1.00  0.00    -0.458 OA
BRANCH  25  26
ATOM     26  C   UNL A   1      33.445  34.337  28.757  1.00  0.00     0.338 C 
ATOM     27  O   UNL A   1      32.683  35.174  29.203  1.00  0.00    -0.246 OA
BRANCH  26  28
ATOM     28  C   UNL A   1      34.651  33.834  29.487  1.00  0.00     0.060 A 
ATOM     29  C   UNL A   1      34.491  32.783  30.407  1.00  0.00     0.016 A 
ATOM     30  C   UNL A   1      35.916  34.115  28.964  1.00  0.00     0.016 A 
ATOM     31  C   UNL A   1      35.558  31.895  30.640  1.00  0.00     0.010 A 
ATOM     32  C   UNL A   1      36.970  33.226  29.190  1.00  0.00     0.010 A 
ATOM     33  C   UNL A   1      36.789  32.082  29.990  1.00  0.00    -0.014 A 
BRANCH  33  34
ATOM     34  C   UNL A   1      37.984  31.310  30.424  1.00  0.00     0.031 A 
ATOM     35  C   UNL A   1      38.466  31.653  31.804  1.00  0.00     0.074 A 
ATOM     36  C   UNL A   1      38.634  30.402  29.665  1.00  0.00     0.049 A 
ATOM     37  N   UNL A   1      39.471  31.184  32.487  1.00  0.00    -0.248 NA
ATOM     38  C   UNL A   1      37.707  32.715  32.493  1.00  0.00     0.031 C 
ATOM     39  C   UNL A   1      38.279  30.001  28.302  1.00  0.00     0.029 A 
ATOM     40  N   UNL A   1      39.752  29.647  29.942  1.00  0.00    -0.354 N 
ATOM     41  C   UNL A   1      39.447  31.881  33.689  1.00  0.00     0.074 A 
ATOM     42  C   UNL A   1      38.408  32.876  33.596  1.00  0.00     0.031 C 
ATOM     43  C   UNL A   1      39.155  29.069  27.871  1.00  0.00     0.029 A 
ATOM     44  C   UNL A   1      40.142  28.806  28.917  1.00  0.00     0.049 A 
ATOM     45  H   UNL A   1      40.233  29.700  30.800  1.00  0.00     0.167 HD
ATOM     46  C   UNL A   1      40.194  31.683  34.797  1.00  0.00     0.034 A 
ATOM     47  C   UNL A   1      41.170  27.927  28.856  1.00  0.00     0.034 A 
ATOM     48  C   UNL A   1      41.258  30.724  34.855  1.00  0.00     0.049 A 
ATOM     49  C   UNL A   1      42.059  27.783  30.081  1.00  0.00     0.074 A 
ATOM     50  C   UNL A   1      42.114  30.444  35.900  1.00  0.00     0.029 A 
ATOM     51  N   UNL A   1      41.623  29.900  33.797  1.00  0.00    -0.354 N 
ATOM     52  N   UNL A   1      41.985  28.399  31.241  1.00  0.00    -0.248 NA
ATOM     53  C   UNL A   1      43.156  26.807  29.997  1.00  0.00     0.031 C 
ATOM     54  C   UNL A   1      43.043  29.500  35.451  1.00  0.00     0.029 A 
ATOM     55  C   UNL A   1      42.709  29.124  34.156  1.00  0.00     0.049 A 
ATOM     56  H   UNL A   1      41.176  29.873  32.920  1.00  0.00     0.167 HD
ATOM     57  C   UNL A   1      42.985  27.841  32.039  1.00  0.00     0.074 A 
ATOM     58  C   UNL A   1      43.643  26.837  31.228  1.00  0.00     0.031 C 
ATOM     59  C   UNL A   1      43.327  28.118  33.325  1.00  0.00     0.034 A 
BRANCH  46  60
ATOM     60  C   UNL A   1      39.884  32.575  35.973  1.00  0.00     0.023 A 
ATOM     61  C   UNL A   1      39.042  32.137  37.016  1.00  0.00     0.031 A 
ATOM     62  C   UNL A   1      40.296  33.916  35.974  1.00  0.00     0.131 A 
ATOM     63  C   UNL A   1      38.545  33.062  37.944  1.00  0.00     0.055 A 
ATOM     64  C   UNL A   1      39.879  34.807  36.964  1.00  0.00     0.041 A 
ATOM     65  F   UNL A   1      41.063  34.397  34.984  1.00  0.00    -0.206 F 
ATOM     66  C   UNL A   1      38.979  34.389  37.942  1.00  0.00     0.022 A 
BRANCH  63  67
ATOM     67  S   UNL A   1      37.165  32.559  39.011  1.00  0.00     0.124 S 
ATOM     68  O   UNL A   1      37.352  33.435  40.166  1.00  0.00    -0.237 OA
ATOM     69  O   UNL A   1      36.001  32.840  38.179  1.00  0.00    -0.237 OA
ATOM     70  O   UNL A   1      37.426  31.144  39.263  1.00  0.00    -0.744 OA
ENDBRANCH  63  67
ENDBRANCH  46  60
BRANCH  47  71
ATOM     71  C   UNL A   1      41.447  27.099  27.633  1.00  0.00     0.023 A 
ATOM     72  C   UNL A   1      41.122  25.729  27.587  1.00  0.00     0.031 A 
ATOM     73  C   UNL A   1      42.150  27.631  26.537  1.00  0.00     0.131 A 
ATOM     74  C   UNL A   1      41.552  24.929  26.510  1.00  0.00     0.055 A 
ATOM     75  C   UNL A   1      42.527  26.844  25.441  1.00  0.00     0.041 A 
ATOM     76  F   UNL A   1      42.503  28.925  26.521  1.00  0.00    -0.206 F 
ATOM     77  C   UNL A   1      42.243  25.482  25.431  1.00  0.00     0.022 A 
BRANCH  74  78
ATOM     78  S   UNL A   1      41.295  23.131  26.589  1.00  0.00     0.124 S 
ATOM     79  O   UNL A   1      39.859  23.026  26.363  1.00  0.00    -0.237 OA
ATOM     80  O   UNL A   1      42.154  22.654  25.509  1.00  0.00    -0.237 OA
ATOM     81  O   UNL A   1      41.742  22.781  27.936  1.00  0.00    -0.744 OA
ENDBRANCH  74  78
ENDBRANCH  47  71
BRANCH  59  82
ATOM     82  C   UNL A   1      44.401  27.267  33.958  1.00  0.00     0.023 A 
ATOM     83  C   UNL A   1      44.139  25.985  34.465  1.00  0.00     0.031 A 
ATOM     84  C   UNL A   1      45.721  27.753  34.034  1.00  0.00     0.131 A 
ATOM     85  C   UNL A   1      45.166  25.258  35.083  1.00  0.00     0.055 A 
ATOM     86  C   UNL A   1      46.754  26.993  34.579  1.00  0.00     0.041 A 
ATOM     87  F   UNL A   1      46.028  28.973  33.563  1.00  0.00    -0.206 F 
ATOM     88  C   UNL A   1      46.476  25.743  35.122  1.00  0.00     0.022 A 
BRANCH  85  89
ATOM     89  S   UNL A   1      44.745  23.713  35.934  1.00  0.00     0.124 S 
ATOM     90  O   UNL A   1      43.371  23.490  35.497  1.00  0.00    -0.237 OA
ATOM     91  O   UNL A   1      45.739  22.785  35.405  1.00  0.00    -0.237 OA
ATOM     92  O   UNL A   1      44.900  24.048  37.348  1.00  0.00    -0.744 OA
ENDBRANCH  85  89
ENDBRANCH  59  82
ENDBRANCH  33  34
ENDBRANCH  26  28
ENDBRANCH  25  26
ENDBRANCH   1  25
TORSDOF 17
ENDMDL
MODEL 3
REMARK VINA RESULT:     -13.9      4.668     10.555
REMARK SMILES O=C(OCCOC(=O)c1ccc(-c2c3nc(c(-c4cc(S(=O)(=O)[O-])ccc4F)c4ccc([nH]4)c(-c4cc(S(=O)(=O)[O-])ccc4F)c4nc(c(-c5cc(S(=O)(=O)[O-])ccc5F)c5ccc2[nH]5)C=C4)C=C3)cc1)C1=Cc2cc(OC(F)(F)F)ccc2O[C@@H]1C(F)(F)F
REMARK SMILES IDX 5 1 4 2 3 3 2 4 1 5 72 6 73 7 86 8 74 9 85 10 75 11 84 12
REMARK SMILES IDX 76 13 83 14 82 15 87 16 88 17 89 18 90 19 77 20 78 21 79 22
REMARK SMILES IDX 80 23 81 24 6 25 7 26 8 27 9 28 10 29 71 30 11 31 70 32
REMARK SMILES IDX 12 33 13 34 14 35 64 36 15 37 69 38 63 39 65 40 16 41 68 42
REMARK SMILES IDX 62 43 61 44 17 46 49 47 29 48 48 49 30 50 33 51 47 52 66 53
REMARK SMILES IDX 31 54 32 55 46 57 67 58 34 59 18 60 19 61 27 62 20 63 26 64
REMARK SMILES IDX 28 65 25 66 21 67 22 68 23 69 24 70 50 71 51 72 59 73 52 74
REMARK SMILES IDX 58 75 60 76 57 77 53 78 54 79 55 80 56 81 35 82 36 83 44 84
REMARK SMILES IDX 37 85 43 86 45 87 42 88 38 89 39 90 40 91 41 92
REMARK H PARENT 65 45 33 56
REMARK Flexibility Score: inf
ROOT
ATOM      1  C   UNL A   1      37.803  19.866  24.713  1.00  0.00     0.275 C 
ENDROOT
BRANCH   1   2
ATOM      2  C   UNL A   1      37.030  21.802  24.068  1.00  0.00     0.275 C 
BRANCH   2   3
ATOM      3  O   UNL A   1      35.929  22.631  24.776  1.00  0.00    -0.459 OA
BRANCH   3   4
ATOM      4  C   UNL A   1      34.971  23.053  23.945  1.00  0.00     0.338 C 
ATOM      5  O   UNL A   1      35.050  23.595  22.874  1.00  0.00    -0.246 OA
BRANCH   4   6
ATOM      6  C   UNL A   1      33.895  22.906  24.894  1.00  0.00     0.087 C 
ATOM      7  C   UNL A   1      33.674  24.143  25.643  1.00  0.00     0.027 C 
ATOM      8  C   UNL A   1      32.637  22.089  23.678  1.00  0.00     0.316 C 
ATOM      9  C   UNL A   1      32.253  25.206  25.377  1.00  0.00     0.021 A 
ATOM     10  O   UNL A   1      31.121  23.247  23.347  1.00  0.00    -0.475 OA
ATOM     11  C   UNL A   1      32.305  26.442  25.940  1.00  0.00     0.058 A 
ATOM     12  C   UNL A   1      31.028  24.862  24.202  1.00  0.00     0.128 A 
ATOM     13  C   UNL A   1      31.360  27.370  25.476  1.00  0.00     0.130 A 
ATOM     14  C   UNL A   1      30.128  25.812  23.807  1.00  0.00     0.051 A 
ATOM     15  C   UNL A   1      30.336  27.075  24.469  1.00  0.00     0.050 A 
BRANCH   8  16
ATOM     16  C   UNL A   1      32.821  20.624  24.252  1.00  0.00     0.430 C 
ATOM     17  F   UNL A   1      32.167  20.454  25.406  1.00  0.00    -0.167 F 
ATOM     18  F   UNL A   1      32.197  19.751  23.397  1.00  0.00    -0.167 F 
ATOM     19  F   UNL A   1      34.067  20.131  24.303  1.00  0.00    -0.167 F 
ENDBRANCH   8  16
BRANCH  13  20
ATOM     20  O   UNL A   1      31.591  28.567  26.108  1.00  0.00    -0.406 OA
BRANCH  20  21
ATOM     21  C   UNL A   1      32.050  29.693  25.405  1.00  0.00     0.573 C 
ATOM     22  F   UNL A   1      33.016  30.335  26.091  1.00  0.00    -0.132 F 
ATOM     23  F   UNL A   1      32.499  29.349  24.183  1.00  0.00    -0.132 F 
ATOM     24  F   UNL A   1      31.007  30.541  25.251  1.00  0.00    -0.132 F 
ENDBRANCH  20  21
ENDBRANCH  13  20
ENDBRANCH   4   6
ENDBRANCH   3   4
ENDBRANCH   2   3
ENDBRANCH   1   2
BRANCH   1  25
ATOM     25  O   UNL A   1      39.023  19.633  25.889  1.00  0.00    -0.458 OA
BRANCH  25  26
ATOM     26  C   UNL A   1      40.354  19.816  26.162  1.00  0.00     0.338 C 
ATOM     27  O   UNL A   1      41.327  19.238  25.718  1.00  0.00    -0.246 OA
BRANCH  26  28
ATOM     28  C   UNL A   1      40.412  21.155  26.829  1.00  0.00     0.060 A 
ATOM     29  C   UNL A   1      41.368  21.364  27.838  1.00  0.00     0.016 A 
ATOM     30  C   UNL A   1      39.828  22.250  26.185  1.00  0.00     0.016 A 
ATOM     31  C   UNL A   1      41.881  22.656  28.053  1.00  0.00     0.010 A 
ATOM     32  C   UNL A   1      40.347  23.531  26.395  1.00  0.00     0.010 A 
ATOM     33  C   UNL A   1      41.410  23.740  27.294  1.00  0.00    -0.014 A 
BRANCH  33  34
ATOM     34  C   UNL A   1      41.756  25.131  27.688  1.00  0.00     0.031 A 
ATOM     35  C   UNL A   1      43.145  25.549  27.302  1.00  0.00     0.074 A 
ATOM     36  C   UNL A   1      40.941  25.966  28.368  1.00  0.00     0.049 A 
ATOM     37  N   UNL A   1      43.770  26.677  27.492  1.00  0.00    -0.248 NA
ATOM     38  C   UNL A   1      43.953  24.514  26.630  1.00  0.00     0.031 C 
ATOM     39  C   UNL A   1      39.580  25.669  28.821  1.00  0.00     0.029 A 
ATOM     40  N   UNL A   1      41.151  27.255  28.806  1.00  0.00    -0.354 N 
ATOM     41  C   UNL A   1      45.032  26.486  26.942  1.00  0.00     0.074 A 
ATOM     42  C   UNL A   1      45.122  25.111  26.521  1.00  0.00     0.031 C 
ATOM     43  C   UNL A   1      39.079  26.747  29.460  1.00  0.00     0.029 A 
ATOM     44  C   UNL A   1      40.080  27.814  29.475  1.00  0.00     0.049 A 
ATOM     45  H   UNL A   1      41.995  27.739  28.653  1.00  0.00     0.167 HD
ATOM     46  C   UNL A   1      46.022  27.388  26.761  1.00  0.00     0.034 A 
ATOM     47  C   UNL A   1      39.938  29.047  30.017  1.00  0.00     0.034 A 
ATOM     48  C   UNL A   1      45.937  28.739  27.235  1.00  0.00     0.049 A 
ATOM     49  C   UNL A   1      41.097  30.021  29.885  1.00  0.00     0.074 A 
ATOM     50  C   UNL A   1      46.875  29.746  27.148  1.00  0.00     0.029 A 
ATOM     51  N   UNL A   1      44.840  29.261  27.910  1.00  0.00    -0.354 N 
ATOM     52  N   UNL A   1      42.265  29.853  29.301  1.00  0.00    -0.248 NA
ATOM     53  C   UNL A   1      40.911  31.360  30.463  1.00  0.00     0.031 C 
ATOM     54  C   UNL A   1      46.375  30.858  27.834  1.00  0.00     0.029 A 
ATOM     55  C   UNL A   1      45.086  30.572  28.268  1.00  0.00     0.049 A 
ATOM     56  H   UNL A   1      44.010  28.769  28.106  1.00  0.00     0.167 HD
ATOM     57  C   UNL A   1      42.921  31.080  29.391  1.00  0.00     0.074 A 
ATOM     58  C   UNL A   1      42.019  31.979  30.081  1.00  0.00     0.031 C 
ATOM     59  C   UNL A   1      44.151  31.444  28.940  1.00  0.00     0.034 A 
BRANCH  46  60
ATOM     60  C   UNL A   1      47.264  26.880  26.074  1.00  0.00     0.023 A 
ATOM     61  C   UNL A   1      48.266  26.197  26.793  1.00  0.00     0.031 A 
ATOM     62  C   UNL A   1      47.522  27.217  24.737  1.00  0.00     0.131 A 
ATOM     63  C   UNL A   1      49.520  25.984  26.207  1.00  0.00     0.055 A 
ATOM     64  C   UNL A   1      48.739  26.906  24.128  1.00  0.00     0.041 A 
ATOM     65  F   UNL A   1      46.621  27.901  24.017  1.00  0.00    -0.206 F 
ATOM     66  C   UNL A   1      49.756  26.308  24.870  1.00  0.00     0.022 A 
BRANCH  63  67
ATOM     67  S   UNL A   1      50.899  25.479  27.276  1.00  0.00     0.124 S 
ATOM     68  O   UNL A   1      51.374  26.769  27.772  1.00  0.00    -0.237 OA
ATOM     69  O   UNL A   1      50.244  24.620  28.255  1.00  0.00    -0.237 OA
ATOM     70  O   UNL A   1      51.811  24.799  26.359  1.00  0.00    -0.744 OA
ENDBRANCH  63  67
ENDBRANCH  46  60
BRANCH  47  71
ATOM     71  C   UNL A   1      38.684  29.473  30.727  1.00  0.00     0.023 A 
ATOM     72  C   UNL A   1      37.731  30.299  30.100  1.00  0.00     0.031 A 
ATOM     73  C   UNL A   1      38.474  29.163  32.084  1.00  0.00     0.131 A 
ATOM     74  C   UNL A   1      36.657  30.836  30.836  1.00  0.00     0.055 A 
ATOM     75  C   UNL A   1      37.374  29.655  32.797  1.00  0.00     0.041 A 
ATOM     76  F   UNL A   1      39.349  28.392  32.746  1.00  0.00    -0.206 F 
ATOM     77  C   UNL A   1      36.467  30.509  32.179  1.00  0.00     0.022 A 
BRANCH  74  78
ATOM     78  S   UNL A   1      35.572  32.063  30.045  1.00  0.00     0.124 S 
ATOM     79  O   UNL A   1      35.140  31.349  28.850  1.00  0.00    -0.237 OA
ATOM     80  O   UNL A   1      34.556  32.275  31.071  1.00  0.00    -0.237 OA
ATOM     81  O   UNL A   1      36.459  33.200  29.807  1.00  0.00    -0.744 OA
ENDBRANCH  74  78
ENDBRANCH  47  71
BRANCH  59  82
ATOM     82  C   UNL A   1      44.553  32.890  29.101  1.00  0.00     0.023 A 
ATOM     83  C   UNL A   1      44.195  33.874  28.166  1.00  0.00     0.031 A 
ATOM     84  C   UNL A   1      45.294  33.287  30.230  1.00  0.00     0.131 A 
ATOM     85  C   UNL A   1      44.633  35.194  28.344  1.00  0.00     0.055 A 
ATOM     86  C   UNL A   1      45.660  34.614  30.441  1.00  0.00     0.041 A 
ATOM     87  F   UNL A   1      45.662  32.386  31.157  1.00  0.00    -0.206 F 
ATOM     88  C   UNL A   1      45.343  35.576  29.486  1.00  0.00     0.022 A 
BRANCH  85  89
ATOM     89  S   UNL A   1      44.358  36.388  27.007  1.00  0.00     0.124 S 
ATOM     90  O   UNL A   1      43.300  35.742  26.237  1.00  0.00    -0.237 OA
ATOM     91  O   UNL A   1      43.970  37.590  27.737  1.00  0.00    -0.237 OA
ATOM     92  O   UNL A   1      45.656  36.460  26.340  1.00  0.00    -0.744 OA
ENDBRANCH  85  89
ENDBRANCH  59  82
ENDBRANCH  33  34
ENDBRANCH  26  28
ENDBRANCH  25  26
ENDBRANCH   1  25
TORSDOF 17
ENDMDL
