MODEL 1
REMARK VINA RESULT:     -11.7      0.000      0.000
REMARK SMILES COc1ccc(-c2nc3ccc(C)cc3[nH]2)c(C(=O)OCCOC(=O)c2ccc(-c3c4nc(c(-c5cc(S(=O)(=O)[O-])ccc5F)c5ccc([nH]5)c(-c5cc(S(=O)(=O)[O-])ccc5F)c5nc(c(-c6cc(S(=O)(=O)[O-])ccc6F)c6ccc3[nH]6)C=C5)C=C4)cc2)c1OC
REMARK SMILES IDX 22 1 21 2 20 3 18 4 19 5 17 6 3 7 4 8 89 9 5 10 6 11 2 12
REMARK SMILES IDX 1 13 90 14 91 15 7 16 8 17 16 18 9 19 15 20 10 22 14 23
REMARK SMILES IDX 11 24 12 25 13 26 23 27 24 28 25 29 26 30 27 31 88 32 28 33
REMARK SMILES IDX 87 34 29 35 30 36 31 37 81 38 32 39 86 40 80 41 82 42 33 43
REMARK SMILES IDX 85 44 79 45 78 46 34 48 66 49 46 50 65 51 47 52 50 53 64 54
REMARK SMILES IDX 83 55 48 56 49 57 63 59 84 60 51 61 35 62 36 63 44 64 37 65
REMARK SMILES IDX 43 66 45 67 42 68 38 69 39 70 40 71 41 72 67 73 68 74 76 75
REMARK SMILES IDX 69 76 75 77 77 78 74 79 70 80 71 81 72 82 73 83 52 84 53 85
REMARK SMILES IDX 61 86 54 87 60 88 62 89 59 90 55 91 56 92 57 93 58 94
REMARK H PARENT 16 21 82 47 50 58
REMARK Flexibility Score: inf
ROOT
ATOM      1  C   UNL A   1      32.989  29.857  25.760  1.00  0.00     0.275 C 
ENDROOT
BRANCH   1   2
ATOM      2  C   UNL A   1      33.428  28.391  25.709  1.00  0.00     0.275 C 
BRANCH   2   3
ATOM      3  O   UNL A   1      32.443  27.678  24.967  1.00  0.00    -0.458 OA
BRANCH   3   4
ATOM      4  C   UNL A   1      31.665  26.838  25.684  1.00  0.00     0.342 C 
ATOM      5  O   UNL A   1      31.079  27.046  26.723  1.00  0.00    -0.246 OA
BRANCH   4   6
ATOM      6  C   UNL A   1      31.586  25.586  24.912  1.00  0.00     0.116 A 
ATOM      7  C   UNL A   1      32.331  23.322  24.613  1.00  0.00     0.161 A 
ATOM      8  C   UNL A   1      31.439  23.194  23.537  1.00  0.00     0.051 A 
ATOM      9  C   UNL A   1      32.443  24.540  25.279  1.00  0.00     0.176 A 
ATOM     10  C   UNL A   1      30.632  24.276  23.132  1.00  0.00     0.017 A 
ATOM     11  C   UNL A   1      30.688  25.497  23.820  1.00  0.00     0.036 A 
BRANCH   7  12
ATOM     12  O   UNL A   1      33.165  22.273  24.895  1.00  0.00    -0.493 OA
ATOM     13  C   UNL A   1      32.523  21.321  25.745  1.00  0.00     0.278 C 
ENDBRANCH   7  12
BRANCH   9  14
ATOM     14  O   UNL A   1      33.510  24.850  26.082  1.00  0.00    -0.492 OA
ATOM     15  C   UNL A   1      34.767  24.939  25.440  1.00  0.00     0.278 C 
ENDBRANCH   9  14
BRANCH  11  16
ATOM     16  C   UNL A   1      30.062  26.736  23.315  1.00  0.00     0.139 A 
ATOM     17  N   UNL A   1      28.794  27.015  23.550  1.00  0.00    -0.228 NA
ATOM     18  N   UNL A   1      30.636  27.787  22.626  1.00  0.00    -0.338 N 
ATOM     19  C   UNL A   1      28.566  28.284  23.129  1.00  0.00     0.089 A 
ATOM     20  C   UNL A   1      29.695  28.798  22.520  1.00  0.00     0.066 A 
ATOM     21  H   UNL A   1      31.554  27.813  22.272  1.00  0.00     0.168 HD
ATOM     22  C   UNL A   1      27.422  29.072  23.299  1.00  0.00     0.031 A 
ATOM     23  C   UNL A   1      29.731  30.110  22.040  1.00  0.00     0.031 A 
ATOM     24  C   UNL A   1      27.500  30.426  22.987  1.00  0.00     0.006 A 
ATOM     25  C   UNL A   1      28.657  30.951  22.406  1.00  0.00    -0.049 A 
ATOM     26  C   UNL A   1      28.773  32.441  22.271  1.00  0.00     0.044 C 
ENDBRANCH  11  16
ENDBRANCH   4   6
ENDBRANCH   3   4
ENDBRANCH   2   3
ENDBRANCH   1   2
BRANCH   1  27
ATOM     27  O   UNL A   1      32.912  30.346  27.119  1.00  0.00    -0.458 OA
BRANCH  27  28
ATOM     28  C   UNL A   1      33.638  31.462  27.415  1.00  0.00     0.338 C 
ATOM     29  O   UNL A   1      33.287  32.619  27.248  1.00  0.00    -0.246 OA
BRANCH  28  30
ATOM     30  C   UNL A   1      34.929  31.085  28.059  1.00  0.00     0.060 A 
ATOM     31  C   UNL A   1      36.005  31.983  28.004  1.00  0.00     0.016 A 
ATOM     32  C   UNL A   1      35.084  29.883  28.753  1.00  0.00     0.016 A 
ATOM     33  C   UNL A   1      37.199  31.722  28.699  1.00  0.00     0.010 A 
ATOM     34  C   UNL A   1      36.279  29.621  29.443  1.00  0.00     0.010 A 
ATOM     35  C   UNL A   1      37.346  30.543  29.439  1.00  0.00    -0.014 A 
BRANCH  35  36
ATOM     36  C   UNL A   1      38.638  30.158  30.086  1.00  0.00     0.031 A 
ATOM     37  C   UNL A   1      39.420  29.027  29.491  1.00  0.00     0.074 A 
ATOM     38  C   UNL A   1      39.145  30.770  31.178  1.00  0.00     0.049 A 
ATOM     39  N   UNL A   1      40.520  28.476  29.928  1.00  0.00    -0.248 NA
ATOM     40  C   UNL A   1      38.941  28.501  28.205  1.00  0.00     0.031 C 
ATOM     41  C   UNL A   1      38.677  32.028  31.728  1.00  0.00     0.029 A 
ATOM     42  N   UNL A   1      40.147  30.401  32.050  1.00  0.00    -0.354 N 
ATOM     43  C   UNL A   1      40.910  27.590  28.937  1.00  0.00     0.074 A 
ATOM     44  C   UNL A   1      39.883  27.616  27.916  1.00  0.00     0.031 C 
ATOM     45  C   UNL A   1      39.262  32.251  32.920  1.00  0.00     0.029 A 
ATOM     46  C   UNL A   1      40.173  31.155  33.208  1.00  0.00     0.049 A 
ATOM     47  H   UNL A   1      40.783  29.672  31.866  1.00  0.00     0.167 HD
ATOM     48  C   UNL A   1      42.048  26.860  28.870  1.00  0.00     0.034 A 
ATOM     49  C   UNL A   1      40.834  30.974  34.371  1.00  0.00     0.034 A 
ATOM     50  C   UNL A   1      43.036  26.808  29.917  1.00  0.00     0.049 A 
ATOM     51  C   UNL A   1      41.895  29.912  34.419  1.00  0.00     0.074 A 
ATOM     52  C   UNL A   1      44.225  26.101  29.942  1.00  0.00     0.029 A 
ATOM     53  N   UNL A   1      42.936  27.455  31.143  1.00  0.00    -0.354 N 
ATOM     54  N   UNL A   1      42.276  29.103  33.461  1.00  0.00    -0.248 NA
ATOM     55  C   UNL A   1      42.668  29.792  35.660  1.00  0.00     0.031 C 
ATOM     56  C   UNL A   1      44.791  26.238  31.215  1.00  0.00     0.029 A 
ATOM     57  C   UNL A   1      44.002  27.102  31.957  1.00  0.00     0.049 A 
ATOM     58  H   UNL A   1      42.214  28.074  31.396  1.00  0.00     0.167 HD
ATOM     59  C   UNL A   1      43.398  28.446  33.951  1.00  0.00     0.074 A 
ATOM     60  C   UNL A   1      43.605  28.925  35.303  1.00  0.00     0.031 C 
ATOM     61  C   UNL A   1      44.205  27.565  33.311  1.00  0.00     0.034 A 
BRANCH  48  62
ATOM     62  C   UNL A   1      42.236  26.016  27.640  1.00  0.00     0.023 A 
ATOM     63  C   UNL A   1      41.804  24.678  27.589  1.00  0.00     0.031 A 
ATOM     64  C   UNL A   1      42.901  26.544  26.522  1.00  0.00     0.131 A 
ATOM     65  C   UNL A   1      42.103  23.894  26.467  1.00  0.00     0.055 A 
ATOM     66  C   UNL A   1      43.130  25.779  25.379  1.00  0.00     0.041 A 
ATOM     67  F   UNL A   1      43.359  27.806  26.533  1.00  0.00    -0.206 F 
ATOM     68  C   UNL A   1      42.742  24.443  25.352  1.00  0.00     0.022 A 
BRANCH  65  69
ATOM     69  S   UNL A   1      41.770  22.113  26.537  1.00  0.00     0.124 S 
ATOM     70  O   UNL A   1      42.548  21.621  25.403  1.00  0.00    -0.237 OA
ATOM     71  O   UNL A   1      42.267  21.750  27.858  1.00  0.00    -0.237 OA
ATOM     72  O   UNL A   1      40.320  22.028  26.371  1.00  0.00    -0.744 OA
ENDBRANCH  65  69
ENDBRANCH  48  62
BRANCH  49  73
ATOM     73  C   UNL A   1      40.536  31.782  35.593  1.00  0.00     0.023 A 
ATOM     74  C   UNL A   1      39.380  31.574  36.361  1.00  0.00     0.031 A 
ATOM     75  C   UNL A   1      41.343  32.887  35.923  1.00  0.00     0.131 A 
ATOM     76  C   UNL A   1      39.055  32.470  37.397  1.00  0.00     0.055 A 
ATOM     77  C   UNL A   1      41.059  33.730  37.001  1.00  0.00     0.041 A 
ATOM     78  F   UNL A   1      42.389  33.211  35.150  1.00  0.00    -0.206 F 
ATOM     79  C   UNL A   1      39.900  33.529  37.740  1.00  0.00     0.022 A 
BRANCH  76  80
ATOM     80  S   UNL A   1      37.434  32.320  38.201  1.00  0.00     0.124 S 
ATOM     81  O   UNL A   1      37.693  32.929  39.500  1.00  0.00    -0.237 OA
ATOM     82  O   UNL A   1      36.579  33.076  37.293  1.00  0.00    -0.237 OA
ATOM     83  O   UNL A   1      37.197  30.877  38.224  1.00  0.00    -0.744 OA
ENDBRANCH  76  80
ENDBRANCH  49  73
BRANCH  61  84
ATOM     84  C   UNL A   1      45.432  27.103  34.051  1.00  0.00     0.023 A 
ATOM     85  C   UNL A   1      45.431  25.933  34.829  1.00  0.00     0.031 A 
ATOM     86  C   UNL A   1      46.621  27.853  33.983  1.00  0.00     0.131 A 
ATOM     87  C   UNL A   1      46.580  25.576  35.550  1.00  0.00     0.055 A 
ATOM     88  C   UNL A   1      47.781  27.454  34.647  1.00  0.00     0.041 A 
ATOM     89  F   UNL A   1      46.674  28.986  33.265  1.00  0.00    -0.206 F 
ATOM     90  C   UNL A   1      47.761  26.315  35.445  1.00  0.00     0.022 A 
BRANCH  87  91
ATOM     91  S   UNL A   1      46.481  24.175  36.696  1.00  0.00     0.124 S 
ATOM     92  O   UNL A   1      46.523  24.844  37.993  1.00  0.00    -0.237 OA
ATOM     93  O   UNL A   1      45.205  23.564  36.336  1.00  0.00    -0.237 OA
ATOM     94  O   UNL A   1      47.663  23.380  36.368  1.00  0.00    -0.744 OA
ENDBRANCH  87  91
ENDBRANCH  61  84
ENDBRANCH  35  36
ENDBRANCH  28  30
ENDBRANCH  27  28
ENDBRANCH   1  27
TORSDOF 17
ENDMDL
MODEL 2
REMARK VINA RESULT:     -11.1      1.994      2.301
REMARK SMILES COc1ccc(-c2nc3ccc(C)cc3[nH]2)c(C(=O)OCCOC(=O)c2ccc(-c3c4nc(c(-c5cc(S(=O)(=O)[O-])ccc5F)c5ccc([nH]5)c(-c5cc(S(=O)(=O)[O-])ccc5F)c5nc(c(-c6cc(S(=O)(=O)[O-])ccc6F)c6ccc3[nH]6)C=C5)C=C4)cc2)c1OC
REMARK SMILES IDX 22 1 21 2 20 3 18 4 19 5 17 6 3 7 4 8 89 9 5 10 6 11 2 12
REMARK SMILES IDX 1 13 90 14 91 15 7 16 8 17 16 18 9 19 15 20 10 22 14 23
REMARK SMILES IDX 11 24 12 25 13 26 23 27 24 28 25 29 26 30 27 31 88 32 28 33
REMARK SMILES IDX 87 34 29 35 30 36 31 37 81 38 32 39 86 40 80 41 82 42 33 43
REMARK SMILES IDX 85 44 79 45 78 46 34 48 66 49 46 50 65 51 47 52 50 53 64 54
REMARK SMILES IDX 83 55 48 56 49 57 63 59 84 60 51 61 35 62 36 63 44 64 37 65
REMARK SMILES IDX 43 66 45 67 42 68 38 69 39 70 40 71 41 72 67 73 68 74 76 75
REMARK SMILES IDX 69 76 75 77 77 78 74 79 70 80 71 81 72 82 73 83 52 84 53 85
REMARK SMILES IDX 61 86 54 87 60 88 62 89 59 90 55 91 56 92 57 93 58 94
REMARK H PARENT 16 21 82 47 50 58
REMARK Flexibility Score: inf
ROOT
ATOM      1  C   UNL A   1      32.487  29.810  25.344  1.00  0.00     0.275 C 
ENDROOT
BRANCH   1   2
ATOM      2  C   UNL A   1      33.166  28.440  25.403  1.00  0.00     0.275 C 
BRANCH   2   3
ATOM      3  O   UNL A   1      32.295  27.507  24.770  1.00  0.00    -0.458 OA
BRANCH   3   4
ATOM      4  C   UNL A   1      31.660  26.647  25.595  1.00  0.00     0.342 C 
ATOM      5  O   UNL A   1      31.225  26.843  26.708  1.00  0.00    -0.246 OA
BRANCH   4   6
ATOM      6  C   UNL A   1      31.512  25.387  24.847  1.00  0.00     0.116 A 
ATOM      7  C   UNL A   1      32.177  23.097  24.554  1.00  0.00     0.161 A 
ATOM      8  C   UNL A   1      31.239  22.980  23.518  1.00  0.00     0.051 A 
ATOM      9  C   UNL A   1      32.352  24.320  25.196  1.00  0.00     0.176 A 
ATOM     10  C   UNL A   1      30.449  24.080  23.127  1.00  0.00     0.017 A 
ATOM     11  C   UNL A   1      30.569  25.309  23.793  1.00  0.00     0.036 A 
BRANCH   7  12
ATOM     12  O   UNL A   1      32.990  22.027  24.821  1.00  0.00    -0.493 OA
ATOM     13  C   UNL A   1      33.264  21.281  23.634  1.00  0.00     0.278 C 
ENDBRANCH   7  12
BRANCH   9  14
ATOM     14  O   UNL A   1      33.459  24.610  25.951  1.00  0.00    -0.492 OA
ATOM     15  C   UNL A   1      34.643  24.900  25.234  1.00  0.00     0.278 C 
ENDBRANCH   9  14
BRANCH  11  16
ATOM     16  C   UNL A   1      29.960  26.558  23.293  1.00  0.00     0.139 A 
ATOM     17  N   UNL A   1      28.703  26.866  23.551  1.00  0.00    -0.228 NA
ATOM     18  N   UNL A   1      30.544  27.593  22.588  1.00  0.00    -0.338 N 
ATOM     19  C   UNL A   1      28.495  28.137  23.128  1.00  0.00     0.089 A 
ATOM     20  C   UNL A   1      29.623  28.624  22.495  1.00  0.00     0.066 A 
ATOM     21  H   UNL A   1      31.455  27.597  22.217  1.00  0.00     0.168 HD
ATOM     22  C   UNL A   1      27.372  28.951  23.316  1.00  0.00     0.031 A 
ATOM     23  C   UNL A   1      29.678  29.932  22.008  1.00  0.00     0.031 A 
ATOM     24  C   UNL A   1      27.473  30.302  22.996  1.00  0.00     0.006 A 
ATOM     25  C   UNL A   1      28.630  30.798  22.390  1.00  0.00    -0.049 A 
ATOM     26  C   UNL A   1      28.775  32.285  22.245  1.00  0.00     0.044 C 
ENDBRANCH  11  16
ENDBRANCH   4   6
ENDBRANCH   3   4
ENDBRANCH   2   3
ENDBRANCH   1   2
BRANCH   1  27
ATOM     27  O   UNL A   1      32.175  30.310  26.666  1.00  0.00    -0.458 OA
BRANCH  27  28
ATOM     28  C   UNL A   1      32.763  31.483  27.035  1.00  0.00     0.338 C 
ATOM     29  O   UNL A   1      32.306  32.604  26.875  1.00  0.00    -0.246 OA
BRANCH  28  30
ATOM     30  C   UNL A   1      34.044  31.218  27.753  1.00  0.00     0.060 A 
ATOM     31  C   UNL A   1      34.930  32.282  27.977  1.00  0.00     0.016 A 
ATOM     32  C   UNL A   1      34.365  29.952  28.244  1.00  0.00     0.016 A 
ATOM     33  C   UNL A   1      36.090  32.102  28.752  1.00  0.00     0.010 A 
ATOM     34  C   UNL A   1      35.526  29.773  29.015  1.00  0.00     0.010 A 
ATOM     35  C   UNL A   1      36.395  30.848  29.292  1.00  0.00    -0.014 A 
BRANCH  35  36
ATOM     36  C   UNL A   1      37.679  30.576  30.011  1.00  0.00     0.031 A 
ATOM     37  C   UNL A   1      38.562  29.481  29.495  1.00  0.00     0.074 A 
ATOM     38  C   UNL A   1      38.091  31.258  31.101  1.00  0.00     0.049 A 
ATOM     39  N   UNL A   1      39.674  29.021  30.002  1.00  0.00    -0.248 NA
ATOM     40  C   UNL A   1      38.180  28.879  28.209  1.00  0.00     0.031 C 
ATOM     41  C   UNL A   1      37.514  32.499  31.581  1.00  0.00     0.029 A 
ATOM     42  N   UNL A   1      39.073  30.988  32.030  1.00  0.00    -0.354 N 
ATOM     43  C   UNL A   1      40.169  28.131  29.063  1.00  0.00     0.074 A 
ATOM     44  C   UNL A   1      39.192  28.051  27.996  1.00  0.00     0.031 C 
ATOM     45  C   UNL A   1      38.026  32.803  32.789  1.00  0.00     0.029 A 
ATOM     46  C   UNL A   1      38.993  31.782  33.159  1.00  0.00     0.049 A 
ATOM     47  H   UNL A   1      39.764  30.299  31.902  1.00  0.00     0.167 HD
ATOM     48  C   UNL A   1      41.355  27.478  29.075  1.00  0.00     0.034 A 
ATOM     49  C   UNL A   1      39.609  31.688  34.357  1.00  0.00     0.034 A 
ATOM     50  C   UNL A   1      42.294  27.531  30.166  1.00  0.00     0.049 A 
ATOM     51  C   UNL A   1      40.736  30.702  34.492  1.00  0.00     0.074 A 
ATOM     52  C   UNL A   1      43.525  26.908  30.271  1.00  0.00     0.029 A 
ATOM     53  N   UNL A   1      42.093  28.211  31.361  1.00  0.00    -0.354 N 
ATOM     54  N   UNL A   1      41.215  29.889  33.583  1.00  0.00    -0.248 NA
ATOM     55  C   UNL A   1      41.455  30.679  35.771  1.00  0.00     0.031 C 
ATOM     56  C   UNL A   1      44.019  27.127  31.562  1.00  0.00     0.029 A 
ATOM     57  C   UNL A   1      43.140  27.960  32.235  1.00  0.00     0.049 A 
ATOM     58  H   UNL A   1      41.319  28.788  31.558  1.00  0.00     0.167 HD
ATOM     59  C   UNL A   1      42.353  29.328  34.148  1.00  0.00     0.074 A 
ATOM     60  C   UNL A   1      42.464  29.867  35.488  1.00  0.00     0.031 C 
ATOM     61  C   UNL A   1      43.247  28.482  33.578  1.00  0.00     0.034 A 
BRANCH  48  62
ATOM     62  C   UNL A   1      41.657  26.608  27.886  1.00  0.00     0.023 A 
ATOM     63  C   UNL A   1      41.353  25.234  27.881  1.00  0.00     0.031 A 
ATOM     64  C   UNL A   1      42.304  27.150  26.765  1.00  0.00     0.131 A 
ATOM     65  C   UNL A   1      41.756  24.437  26.802  1.00  0.00     0.055 A 
ATOM     66  C   UNL A   1      42.637  26.366  25.662  1.00  0.00     0.041 A 
ATOM     67  F   UNL A   1      42.642  28.450  26.734  1.00  0.00    -0.206 F 
ATOM     68  C   UNL A   1      42.375  24.999  25.682  1.00  0.00     0.022 A 
BRANCH  65  69
ATOM     69  S   UNL A   1      41.588  22.637  26.939  1.00  0.00     0.124 S 
ATOM     70  O   UNL A   1      42.588  22.323  27.957  1.00  0.00    -0.237 OA
ATOM     71  O   UNL A   1      40.196  22.479  27.342  1.00  0.00    -0.237 OA
ATOM     72  O   UNL A   1      41.907  22.159  25.595  1.00  0.00    -0.744 OA
ENDBRANCH  65  69
ENDBRANCH  48  62
BRANCH  49  73
ATOM     73  C   UNL A   1      39.200  32.515  35.533  1.00  0.00     0.023 A 
ATOM     74  C   UNL A   1      39.626  33.841  35.697  1.00  0.00     0.031 A 
ATOM     75  C   UNL A   1      38.488  31.926  36.595  1.00  0.00     0.131 A 
ATOM     76  C   UNL A   1      39.360  34.520  36.901  1.00  0.00     0.055 A 
ATOM     77  C   UNL A   1      38.158  32.628  37.758  1.00  0.00     0.041 A 
ATOM     78  F   UNL A   1      38.164  30.626  36.550  1.00  0.00    -0.206 F 
ATOM     79  C   UNL A   1      38.606  33.933  37.920  1.00  0.00     0.022 A 
BRANCH  76  80
ATOM     80  S   UNL A   1      40.140  36.136  37.179  1.00  0.00     0.124 S 
ATOM     81  O   UNL A   1      39.300  36.689  38.236  1.00  0.00    -0.237 OA
ATOM     82  O   UNL A   1      41.493  35.753  37.564  1.00  0.00    -0.237 OA
ATOM     83  O   UNL A   1      40.025  36.798  35.880  1.00  0.00    -0.744 OA
ENDBRANCH  76  80
ENDBRANCH  49  73
BRANCH  61  84
ATOM     84  C   UNL A   1      44.466  28.131  34.389  1.00  0.00     0.023 A 
ATOM     85  C   UNL A   1      45.650  28.883  34.310  1.00  0.00     0.031 A 
ATOM     86  C   UNL A   1      44.444  27.017  35.249  1.00  0.00     0.131 A 
ATOM     87  C   UNL A   1      46.779  28.482  35.039  1.00  0.00     0.055 A 
ATOM     88  C   UNL A   1      45.549  26.665  36.024  1.00  0.00     0.041 A 
ATOM     89  F   UNL A   1      43.343  26.256  35.354  1.00  0.00    -0.206 F 
ATOM     90  C   UNL A   1      46.729  27.393  35.913  1.00  0.00     0.022 A 
BRANCH  87  91
ATOM     91  S   UNL A   1      48.342  29.357  34.761  1.00  0.00     0.124 S 
ATOM     92  O   UNL A   1      49.290  28.518  35.490  1.00  0.00    -0.237 OA
ATOM     93  O   UNL A   1      48.461  29.334  33.307  1.00  0.00    -0.237 OA
ATOM     94  O   UNL A   1      48.105  30.676  35.343  1.00  0.00    -0.744 OA
ENDBRANCH  87  91
ENDBRANCH  61  84
ENDBRANCH  35  36
ENDBRANCH  28  30
ENDBRANCH  27  28
ENDBRANCH   1  27
TORSDOF 17
ENDMDL
MODEL 3
REMARK VINA RESULT:     -11.1      1.856      7.657
REMARK SMILES COc1ccc(-c2nc3ccc(C)cc3[nH]2)c(C(=O)OCCOC(=O)c2ccc(-c3c4nc(c(-c5cc(S(=O)(=O)[O-])ccc5F)c5ccc([nH]5)c(-c5cc(S(=O)(=O)[O-])ccc5F)c5nc(c(-c6cc(S(=O)(=O)[O-])ccc6F)c6ccc3[nH]6)C=C5)C=C4)cc2)c1OC
REMARK SMILES IDX 22 1 21 2 20 3 18 4 19 5 17 6 3 7 4 8 89 9 5 10 6 11 2 12
REMARK SMILES IDX 1 13 90 14 91 15 7 16 8 17 16 18 9 19 15 20 10 22 14 23
REMARK SMILES IDX 11 24 12 25 13 26 23 27 24 28 25 29 26 30 27 31 88 32 28 33
REMARK SMILES IDX 87 34 29 35 30 36 31 37 81 38 32 39 86 40 80 41 82 42 33 43
REMARK SMILES IDX 85 44 79 45 78 46 34 48 66 49 46 50 65 51 47 52 50 53 64 54
REMARK SMILES IDX 83 55 48 56 49 57 63 59 84 60 51 61 35 62 36 63 44 64 37 65
REMARK SMILES IDX 43 66 45 67 42 68 38 69 39 70 40 71 41 72 67 73 68 74 76 75
REMARK SMILES IDX 69 76 75 77 77 78 74 79 70 80 71 81 72 82 73 83 52 84 53 85
REMARK SMILES IDX 61 86 54 87 60 88 62 89 59 90 55 91 56 92 57 93 58 94
REMARK H PARENT 16 21 82 47 50 58
REMARK Flexibility Score: inf
ROOT
ATOM      1  C   UNL A   1      32.918  29.775  25.797  1.00  0.00     0.275 C 
ENDROOT
BRANCH   1   2
ATOM      2  C   UNL A   1      33.421  28.331  25.730  1.00  0.00     0.275 C 
BRANCH   2   3
ATOM      3  O   UNL A   1      32.457  27.580  24.997  1.00  0.00    -0.458 OA
BRANCH   3   4
ATOM      4  C   UNL A   1      31.632  26.808  25.737  1.00  0.00     0.342 C 
ATOM      5  O   UNL A   1      31.040  27.089  26.756  1.00  0.00    -0.246 OA
BRANCH   4   6
ATOM      6  C   UNL A   1      31.506  25.528  25.020  1.00  0.00     0.116 A 
ATOM      7  C   UNL A   1      32.184  23.233  24.808  1.00  0.00     0.161 A 
ATOM      8  C   UNL A   1      31.273  23.085  23.750  1.00  0.00     0.051 A 
ATOM      9  C   UNL A   1      32.339  24.474  25.420  1.00  0.00     0.176 A 
ATOM     10  C   UNL A   1      30.492  24.172  23.309  1.00  0.00     0.017 A 
ATOM     11  C   UNL A   1      30.591  25.419  23.945  1.00  0.00     0.036 A 
BRANCH   7  12
ATOM     12  O   UNL A   1      32.991  22.173  25.125  1.00  0.00    -0.493 OA
ATOM     13  C   UNL A   1      32.332  20.931  24.873  1.00  0.00     0.278 C 
ENDBRANCH   7  12
BRANCH   9  14
ATOM     14  O   UNL A   1      33.425  24.787  26.196  1.00  0.00    -0.492 OA
ATOM     15  C   UNL A   1      34.671  24.838  25.530  1.00  0.00     0.278 C 
ENDBRANCH   9  14
BRANCH  11  16
ATOM     16  C   UNL A   1      29.993  26.653  23.394  1.00  0.00     0.139 A 
ATOM     17  N   UNL A   1      28.726  26.958  23.601  1.00  0.00    -0.228 NA
ATOM     18  N   UNL A   1      30.596  27.674  22.687  1.00  0.00    -0.338 N 
ATOM     19  C   UNL A   1      28.526  28.218  23.141  1.00  0.00     0.089 A 
ATOM     20  C   UNL A   1      29.673  28.697  22.537  1.00  0.00     0.066 A 
ATOM     21  H   UNL A   1      31.519  27.676  22.347  1.00  0.00     0.168 HD
ATOM     22  C   UNL A   1      27.392  29.028  23.271  1.00  0.00     0.031 A 
ATOM     23  C   UNL A   1      29.737  29.994  22.022  1.00  0.00     0.031 A 
ATOM     24  C   UNL A   1      27.497  30.372  22.923  1.00  0.00     0.006 A 
ATOM     25  C   UNL A   1      28.671  30.862  22.346  1.00  0.00    -0.049 A 
ATOM     26  C   UNL A   1      28.813  32.346  22.173  1.00  0.00     0.044 C 
ENDBRANCH  11  16
ENDBRANCH   4   6
ENDBRANCH   3   4
ENDBRANCH   2   3
ENDBRANCH   1   2
BRANCH   1  27
ATOM     27  O   UNL A   1      32.893  30.271  27.157  1.00  0.00    -0.458 OA
BRANCH  27  28
ATOM     28  C   UNL A   1      33.671  31.355  27.432  1.00  0.00     0.338 C 
ATOM     29  O   UNL A   1      33.365  32.525  27.268  1.00  0.00    -0.246 OA
BRANCH  28  30
ATOM     30  C   UNL A   1      34.958  30.926  28.050  1.00  0.00     0.060 A 
ATOM     31  C   UNL A   1      36.067  31.783  27.978  1.00  0.00     0.016 A 
ATOM     32  C   UNL A   1      35.080  29.716  28.736  1.00  0.00     0.016 A 
ATOM     33  C   UNL A   1      37.263  31.473  28.649  1.00  0.00     0.010 A 
ATOM     34  C   UNL A   1      36.277  29.405  29.403  1.00  0.00     0.010 A 
ATOM     35  C   UNL A   1      37.378  30.286  29.382  1.00  0.00    -0.014 A 
BRANCH  35  36
ATOM     36  C   UNL A   1      38.667  29.850  30.003  1.00  0.00     0.031 A 
ATOM     37  C   UNL A   1      39.127  30.546  31.246  1.00  0.00     0.074 A 
ATOM     38  C   UNL A   1      39.445  28.863  29.508  1.00  0.00     0.049 A 
ATOM     39  N   UNL A   1      40.243  30.388  31.907  1.00  0.00    -0.248 NA
ATOM     40  C   UNL A   1      38.180  31.486  31.862  1.00  0.00     0.031 C 
ATOM     41  C   UNL A   1      39.047  27.914  28.485  1.00  0.00     0.029 A 
ATOM     42  N   UNL A   1      40.752  28.511  29.771  1.00  0.00    -0.354 N 
ATOM     43  C   UNL A   1      40.104  31.148  33.056  1.00  0.00     0.074 A 
ATOM     44  C   UNL A   1      38.832  31.835  32.962  1.00  0.00     0.031 C 
ATOM     45  C   UNL A   1      40.116  27.199  28.086  1.00  0.00     0.029 A 
ATOM     46  C   UNL A   1      41.278  27.625  28.848  1.00  0.00     0.049 A 
ATOM     47  H   UNL A   1      41.261  28.855  30.540  1.00  0.00     0.167 HD
ATOM     48  C   UNL A   1      40.946  31.225  34.113  1.00  0.00     0.034 A 
ATOM     49  C   UNL A   1      42.548  27.221  28.630  1.00  0.00     0.034 A 
ATOM     50  C   UNL A   1      42.231  30.574  34.171  1.00  0.00     0.049 A 
ATOM     51  C   UNL A   1      43.589  27.594  29.646  1.00  0.00     0.074 A 
ATOM     52  C   UNL A   1      43.155  30.588  35.200  1.00  0.00     0.029 A 
ATOM     53  N   UNL A   1      42.794  29.828  33.143  1.00  0.00    -0.354 N 
ATOM     54  N   UNL A   1      43.436  28.287  30.748  1.00  0.00    -0.248 NA
ATOM     55  C   UNL A   1      44.944  27.067  29.441  1.00  0.00     0.031 C 
ATOM     56  C   UNL A   1      44.313  29.939  34.757  1.00  0.00     0.029 A 
ATOM     57  C   UNL A   1      44.082  29.442  33.485  1.00  0.00     0.049 A 
ATOM     58  H   UNL A   1      42.345  29.606  32.296  1.00  0.00     0.167 HD
ATOM     59  C   UNL A   1      44.649  28.196  31.418  1.00  0.00     0.074 A 
ATOM     60  C   UNL A   1      45.534  27.417  30.575  1.00  0.00     0.031 C 
ATOM     61  C   UNL A   1      44.974  28.679  32.643  1.00  0.00     0.034 A 
BRANCH  48  62
ATOM     62  C   UNL A   1      40.512  32.096  35.259  1.00  0.00     0.023 A 
ATOM     63  C   UNL A   1      39.565  31.657  36.203  1.00  0.00     0.031 A 
ATOM     64  C   UNL A   1      41.014  33.402  35.378  1.00  0.00     0.131 A 
ATOM     65  C   UNL A   1      39.102  32.541  37.186  1.00  0.00     0.055 A 
ATOM     66  C   UNL A   1      40.603  34.253  36.404  1.00  0.00     0.041 A 
ATOM     67  F   UNL A   1      41.896  33.878  34.485  1.00  0.00    -0.206 F 
ATOM     68  C   UNL A   1      39.632  33.829  37.306  1.00  0.00     0.022 A 
BRANCH  65  69
ATOM     69  S   UNL A   1      37.698  32.037  38.218  1.00  0.00     0.124 S 
ATOM     70  O   UNL A   1      38.269  32.130  39.559  1.00  0.00    -0.237 OA
ATOM     71  O   UNL A   1      36.687  33.033  37.884  1.00  0.00    -0.237 OA
ATOM     72  O   UNL A   1      37.411  30.678  37.764  1.00  0.00    -0.744 OA
ENDBRANCH  65  69
ENDBRANCH  48  62
BRANCH  49  73
ATOM     73  C   UNL A   1      42.938  26.436  27.419  1.00  0.00     0.023 A 
ATOM     74  C   UNL A   1      42.809  25.041  27.361  1.00  0.00     0.031 A 
ATOM     75  C   UNL A   1      43.594  27.071  26.348  1.00  0.00     0.131 A 
ATOM     76  C   UNL A   1      43.349  24.330  26.273  1.00  0.00     0.055 A 
ATOM     77  C   UNL A   1      44.061  26.371  25.232  1.00  0.00     0.041 A 
ATOM     78  F   UNL A   1      43.860  28.385  26.404  1.00  0.00    -0.206 F 
ATOM     79  C   UNL A   1      43.949  24.988  25.196  1.00  0.00     0.022 A 
BRANCH  76  80
ATOM     80  S   UNL A   1      43.389  22.517  26.351  1.00  0.00     0.124 S 
ATOM     81  O   UNL A   1      42.433  22.157  25.309  1.00  0.00    -0.237 OA
ATOM     82  O   UNL A   1      44.791  22.236  26.065  1.00  0.00    -0.237 OA
ATOM     83  O   UNL A   1      42.961  22.225  27.718  1.00  0.00    -0.744 OA
ENDBRANCH  76  80
ENDBRANCH  49  73
BRANCH  61  84
ATOM     84  C   UNL A   1      46.335  28.321  33.177  1.00  0.00     0.023 A 
ATOM     85  C   UNL A   1      47.452  29.148  32.971  1.00  0.00     0.031 A 
ATOM     86  C   UNL A   1      46.519  27.125  33.897  1.00  0.00     0.131 A 
ATOM     87  C   UNL A   1      48.712  28.744  33.435  1.00  0.00     0.055 A 
ATOM     88  C   UNL A   1      47.762  26.763  34.416  1.00  0.00     0.041 A 
ATOM     89  F   UNL A   1      45.489  26.292  34.111  1.00  0.00    -0.206 F 
ATOM     90  C   UNL A   1      48.870  27.570  34.176  1.00  0.00     0.022 A 
BRANCH  87  91
ATOM     91  S   UNL A   1      50.160  29.736  32.981  1.00  0.00     0.124 S 
ATOM     92  O   UNL A   1      51.061  29.485  34.102  1.00  0.00    -0.237 OA
ATOM     93  O   UNL A   1      50.554  29.150  31.704  1.00  0.00    -0.237 OA
ATOM     94  O   UNL A   1      49.632  31.096  32.901  1.00  0.00    -0.744 OA
ENDBRANCH  87  91
ENDBRANCH  61  84
ENDBRANCH  35  36
ENDBRANCH  28  30
ENDBRANCH  27  28
ENDBRANCH   1  27
TORSDOF 17
ENDMDL
