MODEL 1
REMARK VINA RESULT:     -11.8      0.000      0.000
REMARK SMILES O=C1NC(=S)S/C1=C\c1ccc(OCc2cn(-c3ccc(C(=O)OCCOC(=O)c4ccc(-c5c6nc(c(-c7cc(S(=O)(=O)[O-])ccc7F)c7ccc([nH]7)c(-c7cc(S(=O)(=O)[O-])ccc7F)c7nc(c(-c8cc(S(=O)(=O)[O-])ccc8F)c8ccc5[nH]8)C=C7)C=C6)cc4)cc3)nn2)cc1
REMARK SMILES IDX 25 1 24 2 22 3 23 4 21 5 18 6 19 7 94 8 20 9 93 10 17 11
REMARK SMILES IDX 15 12 16 13 96 14 95 15 14 16 13 17 12 18 9 19 10 20 98 21
REMARK SMILES IDX 11 22 97 23 8 24 1 25 2 26 3 27 7 28 4 29 6 31 5 32 26 33
REMARK SMILES IDX 27 34 28 35 29 36 30 37 31 38 92 39 32 40 91 41 33 42 34 43
REMARK SMILES IDX 35 44 85 45 36 46 90 47 84 48 86 49 37 50 89 51 83 52 82 53
REMARK SMILES IDX 38 55 70 56 50 57 69 58 51 59 54 60 68 61 87 62 52 63 53 64
REMARK SMILES IDX 67 66 88 67 55 68 39 69 40 70 48 71 41 72 47 73 49 74 46 75
REMARK SMILES IDX 42 76 43 77 44 78 45 79 71 80 72 81 80 82 73 83 79 84 81 85
REMARK SMILES IDX 78 86 74 87 75 88 76 89 77 90 56 91 57 92 65 93 58 94 64 95
REMARK SMILES IDX 66 96 63 97 59 98 60 99 61 100 62 101
REMARK H PARENT 3 30 86 54 54 65
REMARK Flexibility Score: inf
ROOT
ATOM      1  C   UNL A   1      41.678  21.995  27.603  1.00  0.00     0.275 C 
ENDROOT
BRANCH   1   2
ATOM      2  O   UNL A   1      40.337  22.238  27.155  1.00  0.00    -0.458 OA
BRANCH   2   3
ATOM      3  C   UNL A   1      39.831  21.296  26.322  1.00  0.00     0.338 C 
ATOM      4  O   UNL A   1      40.324  20.203  26.073  1.00  0.00    -0.246 OA
BRANCH   3   5
ATOM      5  C   UNL A   1      38.522  21.730  25.787  1.00  0.00     0.060 A 
ATOM      6  C   UNL A   1      36.117  22.487  24.597  1.00  0.00     0.066 A 
ATOM      7  C   UNL A   1      36.475  21.132  24.646  1.00  0.00     0.029 A 
ATOM      8  C   UNL A   1      36.920  23.453  25.217  1.00  0.00     0.029 A 
ATOM      9  C   UNL A   1      37.691  20.760  25.215  1.00  0.00     0.018 A 
ATOM     10  C   UNL A   1      38.115  23.069  25.830  1.00  0.00     0.018 A 
BRANCH   6  11
ATOM     11  N   UNL A   1      34.979  22.864  23.850  1.00  0.00    -0.220 N 
ATOM     12  C   UNL A   1      32.952  23.373  23.214  1.00  0.00     0.120 A 
ATOM     13  C   UNL A   1      33.652  22.635  24.145  1.00  0.00     0.144 A 
ATOM     14  N   UNL A   1      33.848  23.994  22.388  1.00  0.00    -0.131 NA
ATOM     15  N   UNL A   1      35.070  23.686  22.783  1.00  0.00    -0.062 NA
BRANCH  12  16
ATOM     16  C   UNL A   1      31.492  23.659  23.092  1.00  0.00     0.289 C 
BRANCH  16  17
ATOM     17  O   UNL A   1      31.153  24.881  22.416  1.00  0.00    -0.487 OA
BRANCH  17  18
ATOM     18  C   UNL A   1      31.069  26.027  23.159  1.00  0.00     0.119 A 
ATOM     19  C   UNL A   1      31.285  28.445  24.571  1.00  0.00    -0.024 A 
ATOM     20  C   UNL A   1      31.626  28.391  23.217  1.00  0.00     0.012 A 
ATOM     21  C   UNL A   1      30.749  27.311  25.184  1.00  0.00     0.012 A 
ATOM     22  C   UNL A   1      31.520  27.183  22.518  1.00  0.00     0.047 A 
ATOM     23  C   UNL A   1      30.617  26.117  24.473  1.00  0.00     0.047 A 
BRANCH  19  24
ATOM     24  C   UNL A   1      31.505  29.663  25.353  1.00  0.00     0.029 C 
ATOM     25  O   UNL A   1      31.876  32.016  27.020  1.00  0.00    -0.268 OA
ATOM     26  C   UNL A   1      32.682  31.099  26.991  1.00  0.00     0.263 C 
ATOM     27  N   UNL A   1      33.824  31.031  27.738  1.00  0.00    -0.307 N 
ATOM     28  C   UNL A   1      32.556  29.873  26.158  1.00  0.00     0.080 C 
ATOM     29  C   UNL A   1      34.615  29.931  27.605  1.00  0.00     0.145 C 
ATOM     30  H   UNL A   1      34.069  31.759  28.355  1.00  0.00     0.171 HD
ATOM     31  S   UNL A   1      33.915  28.841  26.432  1.00  0.00    -0.055 SA
ATOM     32  S   UNL A   1      36.012  29.701  28.456  1.00  0.00    -0.052 S 
ENDBRANCH  19  24
ENDBRANCH  17  18
ENDBRANCH  16  17
ENDBRANCH  12  16
ENDBRANCH   6  11
ENDBRANCH   3   5
ENDBRANCH   2   3
ENDBRANCH   1   2
BRANCH   1  33
ATOM     33  C   UNL A   1      42.670  22.888  26.871  1.00  0.00     0.275 C 
BRANCH  33  34
ATOM     34  O   UNL A   1      42.034  23.988  26.216  1.00  0.00    -0.458 OA
BRANCH  34  35
ATOM     35  C   UNL A   1      42.881  24.800  25.538  1.00  0.00     0.338 C 
ATOM     36  O   UNL A   1      43.664  24.474  24.662  1.00  0.00    -0.246 OA
BRANCH  35  37
ATOM     37  C   UNL A   1      42.921  26.111  26.194  1.00  0.00     0.060 A 
ATOM     38  C   UNL A   1      43.823  26.300  27.246  1.00  0.00     0.016 A 
ATOM     39  C   UNL A   1      41.897  27.031  25.931  1.00  0.00     0.016 A 
ATOM     40  C   UNL A   1      43.627  27.370  28.102  1.00  0.00     0.010 A 
ATOM     41  C   UNL A   1      41.686  28.076  26.801  1.00  0.00     0.010 A 
ATOM     42  C   UNL A   1      42.524  28.213  27.906  1.00  0.00    -0.014 A 
BRANCH  42  43
ATOM     43  C   UNL A   1      42.389  29.401  28.733  1.00  0.00     0.031 A 
ATOM     44  C   UNL A   1      43.455  30.389  28.437  1.00  0.00     0.074 A 
ATOM     45  C   UNL A   1      41.333  29.651  29.533  1.00  0.00     0.049 A 
ATOM     46  N   UNL A   1      44.443  30.725  29.196  1.00  0.00    -0.248 NA
ATOM     47  C   UNL A   1      43.573  30.892  27.056  1.00  0.00     0.031 C 
ATOM     48  C   UNL A   1      40.112  28.855  29.674  1.00  0.00     0.029 A 
ATOM     49  N   UNL A   1      41.077  30.732  30.322  1.00  0.00    -0.354 N 
ATOM     50  C   UNL A   1      45.138  31.696  28.486  1.00  0.00     0.074 A 
ATOM     51  C   UNL A   1      44.727  31.555  27.119  1.00  0.00     0.031 C 
ATOM     52  C   UNL A   1      39.169  29.589  30.310  1.00  0.00     0.029 A 
ATOM     53  C   UNL A   1      39.746  30.861  30.723  1.00  0.00     0.049 A 
ATOM     54  H   UNL A   1      41.776  31.373  30.588  1.00  0.00     0.167 HD
ATOM     55  C   UNL A   1      45.737  32.728  29.139  1.00  0.00     0.034 A 
ATOM     56  C   UNL A   1      39.153  31.951  31.291  1.00  0.00     0.034 A 
ATOM     57  C   UNL A   1      45.914  32.409  30.541  1.00  0.00     0.049 A 
ATOM     58  C   UNL A   1      40.241  32.783  31.865  1.00  0.00     0.074 A 
ATOM     59  C   UNL A   1      46.531  31.374  31.222  1.00  0.00     0.029 A 
ATOM     60  N   UNL A   1      45.064  32.997  31.453  1.00  0.00    -0.354 N 
ATOM     61  N   UNL A   1      40.973  32.403  32.876  1.00  0.00    -0.248 NA
ATOM     62  C   UNL A   1      40.846  33.794  31.011  1.00  0.00     0.031 C 
ATOM     63  C   UNL A   1      45.666  31.088  32.319  1.00  0.00     0.029 A 
ATOM     64  C   UNL A   1      44.629  32.023  32.317  1.00  0.00     0.049 A 
ATOM     65  H   UNL A   1      44.812  33.949  31.480  1.00  0.00     0.167 HD
ATOM     66  C   UNL A   1      42.267  32.765  32.535  1.00  0.00     0.074 A 
ATOM     67  C   UNL A   1      42.116  33.701  31.421  1.00  0.00     0.031 C 
ATOM     68  C   UNL A   1      43.341  32.051  32.987  1.00  0.00     0.034 A 
BRANCH  55  69
ATOM     69  C   UNL A   1      45.753  34.158  28.627  1.00  0.00     0.023 A 
ATOM     70  C   UNL A   1      44.498  34.753  28.400  1.00  0.00     0.031 A 
ATOM     71  C   UNL A   1      46.859  34.842  28.071  1.00  0.00     0.131 A 
ATOM     72  C   UNL A   1      44.367  35.857  27.542  1.00  0.00     0.055 A 
ATOM     73  C   UNL A   1      46.728  35.983  27.275  1.00  0.00     0.041 A 
ATOM     74  F   UNL A   1      48.121  34.417  28.185  1.00  0.00    -0.206 F 
ATOM     75  C   UNL A   1      45.473  36.474  26.971  1.00  0.00     0.022 A 
BRANCH  72  76
ATOM     76  S   UNL A   1      42.699  36.338  27.033  1.00  0.00     0.124 S 
ATOM     77  O   UNL A   1      42.431  35.363  25.981  1.00  0.00    -0.237 OA
ATOM     78  O   UNL A   1      41.949  36.173  28.273  1.00  0.00    -0.237 OA
ATOM     79  O   UNL A   1      42.869  37.718  26.585  1.00  0.00    -0.744 OA
ENDBRANCH  72  76
ENDBRANCH  55  69
BRANCH  56  80
ATOM     80  C   UNL A   1      37.761  32.467  31.090  1.00  0.00     0.023 A 
ATOM     81  C   UNL A   1      36.859  32.712  32.157  1.00  0.00     0.031 A 
ATOM     82  C   UNL A   1      37.382  32.974  29.827  1.00  0.00     0.131 A 
ATOM     83  C   UNL A   1      35.658  33.434  31.932  1.00  0.00     0.055 A 
ATOM     84  C   UNL A   1      36.198  33.683  29.612  1.00  0.00     0.041 A 
ATOM     85  F   UNL A   1      38.197  32.877  28.766  1.00  0.00    -0.206 F 
ATOM     86  C   UNL A   1      35.335  33.926  30.666  1.00  0.00     0.022 A 
BRANCH  83  87
ATOM     87  S   UNL A   1      34.521  33.834  33.305  1.00  0.00     0.124 S 
ATOM     88  O   UNL A   1      34.376  35.280  33.181  1.00  0.00    -0.237 OA
ATOM     89  O   UNL A   1      33.346  33.032  32.988  1.00  0.00    -0.237 OA
ATOM     90  O   UNL A   1      35.252  33.394  34.496  1.00  0.00    -0.744 OA
ENDBRANCH  83  87
ENDBRANCH  56  80
BRANCH  68  91
ATOM     91  C   UNL A   1      43.145  31.091  34.144  1.00  0.00     0.023 A 
ATOM     92  C   UNL A   1      42.640  29.774  34.050  1.00  0.00     0.031 A 
ATOM     93  C   UNL A   1      43.594  31.525  35.406  1.00  0.00     0.131 A 
ATOM     94  C   UNL A   1      42.588  28.956  35.199  1.00  0.00     0.055 A 
ATOM     95  C   UNL A   1      43.566  30.705  36.531  1.00  0.00     0.041 A 
ATOM     96  F   UNL A   1      44.100  32.761  35.561  1.00  0.00    -0.206 F 
ATOM     97  C   UNL A   1      43.055  29.419  36.433  1.00  0.00     0.022 A 
BRANCH  94  98
ATOM     98  S   UNL A   1      41.868  27.282  35.128  1.00  0.00     0.124 S 
ATOM     99  O   UNL A   1      40.780  27.413  34.168  1.00  0.00    -0.237 OA
ATOM    100  O   UNL A   1      43.003  26.468  34.700  1.00  0.00    -0.237 OA
ATOM    101  O   UNL A   1      41.437  27.041  36.507  1.00  0.00    -0.744 OA
ENDBRANCH  94  98
ENDBRANCH  68  91
ENDBRANCH  42  43
ENDBRANCH  35  37
ENDBRANCH  34  35
ENDBRANCH  33  34
ENDBRANCH   1  33
TORSDOF 19
ENDMDL
MODEL 2
REMARK VINA RESULT:     -11.8      4.172     10.511
REMARK SMILES O=C1NC(=S)S/C1=C\c1ccc(OCc2cn(-c3ccc(C(=O)OCCOC(=O)c4ccc(-c5c6nc(c(-c7cc(S(=O)(=O)[O-])ccc7F)c7ccc([nH]7)c(-c7cc(S(=O)(=O)[O-])ccc7F)c7nc(c(-c8cc(S(=O)(=O)[O-])ccc8F)c8ccc5[nH]8)C=C7)C=C6)cc4)cc3)nn2)cc1
REMARK SMILES IDX 25 1 24 2 22 3 23 4 21 5 18 6 19 7 94 8 20 9 93 10 17 11
REMARK SMILES IDX 15 12 16 13 96 14 95 15 14 16 13 17 12 18 9 19 10 20 98 21
REMARK SMILES IDX 11 22 97 23 8 24 1 25 2 26 3 27 7 28 4 29 6 31 5 32 26 33
REMARK SMILES IDX 27 34 28 35 29 36 30 37 31 38 92 39 32 40 91 41 33 42 34 43
REMARK SMILES IDX 35 44 85 45 36 46 90 47 84 48 86 49 37 50 89 51 83 52 82 53
REMARK SMILES IDX 38 55 70 56 50 57 69 58 51 59 54 60 68 61 87 62 52 63 53 64
REMARK SMILES IDX 67 66 88 67 55 68 39 69 40 70 48 71 41 72 47 73 49 74 46 75
REMARK SMILES IDX 42 76 43 77 44 78 45 79 71 80 72 81 80 82 73 83 79 84 81 85
REMARK SMILES IDX 78 86 74 87 75 88 76 89 77 90 56 91 57 92 65 93 58 94 64 95
REMARK SMILES IDX 66 96 63 97 59 98 60 99 61 100 62 101
REMARK H PARENT 3 30 86 54 54 65
REMARK Flexibility Score: inf
ROOT
ATOM      1  C   UNL A   1      35.436  34.645  28.813  1.00  0.00     0.275 C 
ENDROOT
BRANCH   1   2
ATOM      2  O   UNL A   1      34.427  34.417  27.819  1.00  0.00    -0.458 OA
BRANCH   2   3
ATOM      3  C   UNL A   1      33.275  33.877  28.284  1.00  0.00     0.338 C 
ATOM      4  O   UNL A   1      32.530  34.364  29.125  1.00  0.00    -0.246 OA
BRANCH   3   5
ATOM      5  C   UNL A   1      32.973  32.616  27.573  1.00  0.00     0.060 A 
ATOM      6  C   UNL A   1      32.243  30.219  26.350  1.00  0.00     0.066 A 
ATOM      7  C   UNL A   1      31.409  31.341  26.237  1.00  0.00     0.029 A 
ATOM      8  C   UNL A   1      33.479  30.319  27.001  1.00  0.00     0.029 A 
ATOM      9  C   UNL A   1      31.763  32.529  26.874  1.00  0.00     0.018 A 
ATOM     10  C   UNL A   1      33.852  31.527  27.595  1.00  0.00     0.018 A 
BRANCH   6  11
ATOM     11  N   UNL A   1      31.780  28.976  25.864  1.00  0.00    -0.220 N 
ATOM     12  C   UNL A   1      30.971  26.954  25.686  1.00  0.00     0.120 A 
ATOM     13  C   UNL A   1      31.646  27.789  26.553  1.00  0.00     0.144 A 
ATOM     14  N   UNL A   1      30.741  27.632  24.520  1.00  0.00    -0.131 NA
ATOM     15  N   UNL A   1      31.227  28.853  24.639  1.00  0.00    -0.062 NA
BRANCH  12  16
ATOM     16  C   UNL A   1      30.399  25.591  25.891  1.00  0.00     0.289 C 
BRANCH  16  17
ATOM     17  O   UNL A   1      30.298  24.777  24.711  1.00  0.00    -0.487 OA
BRANCH  17  18
ATOM     18  C   UNL A   1      31.110  23.680  24.612  1.00  0.00     0.119 A 
ATOM     19  C   UNL A   1      33.056  21.655  24.611  1.00  0.00    -0.024 A 
ATOM     20  C   UNL A   1      32.699  22.283  25.806  1.00  0.00     0.012 A 
ATOM     21  C   UNL A   1      32.370  21.980  23.439  1.00  0.00     0.012 A 
ATOM     22  C   UNL A   1      31.731  23.293  25.802  1.00  0.00     0.047 A 
ATOM     23  C   UNL A   1      31.383  22.968  23.447  1.00  0.00     0.047 A 
BRANCH  19  24
ATOM     24  C   UNL A   1      34.151  20.684  24.569  1.00  0.00     0.029 C 
ATOM     25  O   UNL A   1      36.335  18.766  24.631  1.00  0.00    -0.268 OA
ATOM     26  C   UNL A   1      35.167  18.434  24.758  1.00  0.00     0.263 C 
ATOM     27  N   UNL A   1      34.730  17.157  24.975  1.00  0.00    -0.307 N 
ATOM     28  C   UNL A   1      34.004  19.361  24.730  1.00  0.00     0.080 C 
ATOM     29  C   UNL A   1      33.392  16.950  25.113  1.00  0.00     0.145 C 
ATOM     30  H   UNL A   1      35.367  16.408  25.028  1.00  0.00     0.171 HD
ATOM     31  S   UNL A   1      32.541  18.469  24.955  1.00  0.00    -0.055 SA
ATOM     32  S   UNL A   1      32.721  15.468  25.398  1.00  0.00    -0.052 S 
ENDBRANCH  19  24
ENDBRANCH  17  18
ENDBRANCH  16  17
ENDBRANCH  12  16
ENDBRANCH   6  11
ENDBRANCH   3   5
ENDBRANCH   2   3
ENDBRANCH   1   2
BRANCH   1  33
ATOM     33  C   UNL A   1      36.587  33.661  28.661  1.00  0.00     0.275 C 
BRANCH  33  34
ATOM     34  O   UNL A   1      37.042  33.154  29.917  1.00  0.00    -0.458 OA
BRANCH  34  35
ATOM     35  C   UNL A   1      36.685  31.870  30.164  1.00  0.00     0.338 C 
ATOM     36  O   UNL A   1      35.642  31.483  30.665  1.00  0.00    -0.246 OA
BRANCH  35  37
ATOM     37  C   UNL A   1      37.853  31.002  29.986  1.00  0.00     0.060 A 
ATOM     38  C   UNL A   1      37.645  29.626  29.858  1.00  0.00     0.016 A 
ATOM     39  C   UNL A   1      39.131  31.533  30.211  1.00  0.00     0.016 A 
ATOM     40  C   UNL A   1      38.714  28.771  30.061  1.00  0.00     0.010 A 
ATOM     41  C   UNL A   1      40.186  30.681  30.442  1.00  0.00     0.010 A 
ATOM     42  C   UNL A   1      39.963  29.306  30.411  1.00  0.00    -0.014 A 
BRANCH  42  43
ATOM     43  C   UNL A   1      41.109  28.416  30.506  1.00  0.00     0.031 A 
ATOM     44  C   UNL A   1      41.496  28.182  31.918  1.00  0.00     0.074 A 
ATOM     45  C   UNL A   1      41.637  27.748  29.460  1.00  0.00     0.049 A 
ATOM     46  N   UNL A   1      42.555  28.607  32.520  1.00  0.00    -0.248 NA
ATOM     47  C   UNL A   1      40.487  27.610  32.829  1.00  0.00     0.031 C 
ATOM     48  C   UNL A   1      41.144  27.713  28.082  1.00  0.00     0.029 A 
ATOM     49  N   UNL A   1      42.678  26.869  29.428  1.00  0.00    -0.354 N 
ATOM     50  C   UNL A   1      42.470  28.103  33.812  1.00  0.00     0.074 A 
ATOM     51  C   UNL A   1      41.094  27.749  34.008  1.00  0.00     0.031 C 
ATOM     52  C   UNL A   1      41.739  26.693  27.419  1.00  0.00     0.029 A 
ATOM     53  C   UNL A   1      42.734  26.073  28.282  1.00  0.00     0.049 A 
ATOM     54  H   UNL A   1      43.338  26.800  30.155  1.00  0.00     0.167 HD
ATOM     55  C   UNL A   1      43.595  27.729  34.480  1.00  0.00     0.034 A 
ATOM     56  C   UNL A   1      43.493  24.956  28.084  1.00  0.00     0.034 A 
ATOM     57  C   UNL A   1      44.768  28.326  33.873  1.00  0.00     0.049 A 
ATOM     58  C   UNL A   1      44.601  25.009  29.072  1.00  0.00     0.074 A 
ATOM     59  C   UNL A   1      45.147  29.625  33.584  1.00  0.00     0.029 A 
ATOM     60  N   UNL A   1      45.577  27.523  33.098  1.00  0.00    -0.354 N 
ATOM     61  N   UNL A   1      45.549  25.904  29.036  1.00  0.00    -0.248 NA
ATOM     62  C   UNL A   1      44.380  24.397  30.375  1.00  0.00     0.031 C 
ATOM     63  C   UNL A   1      45.788  29.547  32.313  1.00  0.00     0.029 A 
ATOM     64  C   UNL A   1      45.866  28.204  31.940  1.00  0.00     0.049 A 
ATOM     65  H   UNL A   1      45.893  26.620  33.332  1.00  0.00     0.167 HD
ATOM     66  C   UNL A   1      45.720  26.295  30.355  1.00  0.00     0.074 A 
ATOM     67  C   UNL A   1      45.041  25.268  31.145  1.00  0.00     0.031 C 
ATOM     68  C   UNL A   1      46.135  27.560  30.668  1.00  0.00     0.034 A 
BRANCH  55  69
ATOM     69  C   UNL A   1      43.681  26.503  35.371  1.00  0.00     0.023 A 
ATOM     70  C   UNL A   1      44.044  26.731  36.712  1.00  0.00     0.031 A 
ATOM     71  C   UNL A   1      43.740  25.155  34.947  1.00  0.00     0.131 A 
ATOM     72  C   UNL A   1      44.577  25.699  37.501  1.00  0.00     0.055 A 
ATOM     73  C   UNL A   1      44.206  24.119  35.760  1.00  0.00     0.041 A 
ATOM     74  F   UNL A   1      43.435  24.759  33.706  1.00  0.00    -0.206 F 
ATOM     75  C   UNL A   1      44.668  24.393  37.033  1.00  0.00     0.022 A 
BRANCH  72  76
ATOM     76  S   UNL A   1      45.335  26.148  39.080  1.00  0.00     0.124 S 
ATOM     77  O   UNL A   1      46.471  26.947  38.633  1.00  0.00    -0.237 OA
ATOM     78  O   UNL A   1      44.253  26.874  39.735  1.00  0.00    -0.237 OA
ATOM     79  O   UNL A   1      45.669  24.856  39.673  1.00  0.00    -0.744 OA
ENDBRANCH  72  76
ENDBRANCH  55  69
BRANCH  56  80
ATOM     80  C   UNL A   1      43.144  23.712  27.326  1.00  0.00     0.023 A 
ATOM     81  C   UNL A   1      43.980  23.145  26.332  1.00  0.00     0.031 A 
ATOM     82  C   UNL A   1      42.068  22.910  27.765  1.00  0.00     0.131 A 
ATOM     83  C   UNL A   1      43.723  21.841  25.833  1.00  0.00     0.055 A 
ATOM     84  C   UNL A   1      41.819  21.627  27.270  1.00  0.00     0.041 A 
ATOM     85  F   UNL A   1      41.264  23.308  28.764  1.00  0.00    -0.206 F 
ATOM     86  C   UNL A   1      42.653  21.082  26.309  1.00  0.00     0.022 A 
BRANCH  83  87
ATOM     87  S   UNL A   1      44.834  21.057  24.612  1.00  0.00     0.124 S 
ATOM     88  O   UNL A   1      46.053  20.851  25.384  1.00  0.00    -0.237 OA
ATOM     89  O   UNL A   1      44.093  19.861  24.233  1.00  0.00    -0.237 OA
ATOM     90  O   UNL A   1      44.945  22.063  23.553  1.00  0.00    -0.744 OA
ENDBRANCH  83  87
ENDBRANCH  56  80
BRANCH  68  91
ATOM     91  C   UNL A   1      46.753  28.415  29.579  1.00  0.00     0.023 A 
ATOM     92  C   UNL A   1      46.055  29.308  28.733  1.00  0.00     0.031 A 
ATOM     93  C   UNL A   1      48.155  28.381  29.469  1.00  0.00     0.131 A 
ATOM     94  C   UNL A   1      46.766  30.109  27.814  1.00  0.00     0.055 A 
ATOM     95  C   UNL A   1      48.855  29.193  28.581  1.00  0.00     0.041 A 
ATOM     96  F   UNL A   1      48.880  27.566  30.255  1.00  0.00    -0.206 F 
ATOM     97  C   UNL A   1      48.162  30.055  27.744  1.00  0.00     0.022 A 
BRANCH  94  98
ATOM     98  S   UNL A   1      45.892  31.210  26.654  1.00  0.00     0.124 S 
ATOM     99  O   UNL A   1      44.529  31.247  27.171  1.00  0.00    -0.237 OA
ATOM    100  O   UNL A   1      46.650  32.454  26.766  1.00  0.00    -0.237 OA
ATOM    101  O   UNL A   1      46.035  30.528  25.366  1.00  0.00    -0.744 OA
ENDBRANCH  94  98
ENDBRANCH  68  91
ENDBRANCH  42  43
ENDBRANCH  35  37
ENDBRANCH  34  35
ENDBRANCH  33  34
ENDBRANCH   1  33
TORSDOF 19
ENDMDL
MODEL 3
REMARK VINA RESULT:     -11.7      3.695      9.914
REMARK SMILES O=C1NC(=S)S/C1=C\c1ccc(OCc2cn(-c3ccc(C(=O)OCCOC(=O)c4ccc(-c5c6nc(c(-c7cc(S(=O)(=O)[O-])ccc7F)c7ccc([nH]7)c(-c7cc(S(=O)(=O)[O-])ccc7F)c7nc(c(-c8cc(S(=O)(=O)[O-])ccc8F)c8ccc5[nH]8)C=C7)C=C6)cc4)cc3)nn2)cc1
REMARK SMILES IDX 25 1 24 2 22 3 23 4 21 5 18 6 19 7 94 8 20 9 93 10 17 11
REMARK SMILES IDX 15 12 16 13 96 14 95 15 14 16 13 17 12 18 9 19 10 20 98 21
REMARK SMILES IDX 11 22 97 23 8 24 1 25 2 26 3 27 7 28 4 29 6 31 5 32 26 33
REMARK SMILES IDX 27 34 28 35 29 36 30 37 31 38 92 39 32 40 91 41 33 42 34 43
REMARK SMILES IDX 35 44 85 45 36 46 90 47 84 48 86 49 37 50 89 51 83 52 82 53
REMARK SMILES IDX 38 55 70 56 50 57 69 58 51 59 54 60 68 61 87 62 52 63 53 64
REMARK SMILES IDX 67 66 88 67 55 68 39 69 40 70 48 71 41 72 47 73 49 74 46 75
REMARK SMILES IDX 42 76 43 77 44 78 45 79 71 80 72 81 80 82 73 83 79 84 81 85
REMARK SMILES IDX 78 86 74 87 75 88 76 89 77 90 56 91 57 92 65 93 58 94 64 95
REMARK SMILES IDX 66 96 63 97 59 98 60 99 61 100 62 101
REMARK H PARENT 3 30 86 54 54 65
REMARK Flexibility Score: inf
ROOT
ATOM      1  C   UNL A   1      35.896  33.810  28.675  1.00  0.00     0.275 C 
ENDROOT
BRANCH   1   2
ATOM      2  O   UNL A   1      34.939  32.859  28.188  1.00  0.00    -0.458 OA
BRANCH   2   3
ATOM      3  C   UNL A   1      35.464  31.687  27.755  1.00  0.00     0.338 C 
ATOM      4  O   UNL A   1      36.654  31.417  27.651  1.00  0.00    -0.246 OA
BRANCH   3   5
ATOM      5  C   UNL A   1      34.388  30.709  27.485  1.00  0.00     0.060 A 
ATOM      6  C   UNL A   1      32.464  28.807  26.814  1.00  0.00     0.066 A 
ATOM      7  C   UNL A   1      33.752  28.394  27.183  1.00  0.00     0.029 A 
ATOM      8  C   UNL A   1      32.114  30.162  26.863  1.00  0.00     0.029 A 
ATOM      9  C   UNL A   1      34.720  29.349  27.489  1.00  0.00     0.018 A 
ATOM     10  C   UNL A   1      33.074  31.112  27.219  1.00  0.00     0.018 A 
BRANCH   6  11
ATOM     11  N   UNL A   1      31.556  27.842  26.323  1.00  0.00    -0.220 N 
ATOM     12  C   UNL A   1      30.481  26.404  25.078  1.00  0.00     0.120 A 
ATOM     13  C   UNL A   1      31.265  27.537  25.010  1.00  0.00     0.144 A 
ATOM     14  N   UNL A   1      30.304  26.076  26.394  1.00  0.00    -0.131 NA
ATOM     15  N   UNL A   1      30.961  26.945  27.139  1.00  0.00    -0.062 NA
BRANCH  12  16
ATOM     16  C   UNL A   1      29.968  25.505  24.002  1.00  0.00     0.289 C 
BRANCH  16  17
ATOM     17  O   UNL A   1      30.867  25.277  22.904  1.00  0.00    -0.487 OA
BRANCH  17  18
ATOM     18  C   UNL A   1      31.864  24.354  23.068  1.00  0.00     0.119 A 
ATOM     19  C   UNL A   1      33.900  22.564  23.803  1.00  0.00    -0.024 A 
ATOM     20  C   UNL A   1      32.680  22.556  24.483  1.00  0.00     0.012 A 
ATOM     21  C   UNL A   1      34.059  23.404  22.699  1.00  0.00     0.012 A 
ATOM     22  C   UNL A   1      31.670  23.451  24.116  1.00  0.00     0.047 A 
ATOM     23  C   UNL A   1      33.035  24.274  22.318  1.00  0.00     0.047 A 
BRANCH  19  24
ATOM     24  C   UNL A   1      35.015  21.725  24.246  1.00  0.00     0.029 C 
ATOM     25  O   UNL A   1      37.299  20.095  25.007  1.00  0.00    -0.268 OA
ATOM     26  C   UNL A   1      37.222  21.283  25.278  1.00  0.00     0.263 C 
ATOM     27  N   UNL A   1      38.181  22.005  25.930  1.00  0.00    -0.307 N 
ATOM     28  C   UNL A   1      36.082  22.170  24.926  1.00  0.00     0.080 C 
ATOM     29  C   UNL A   1      37.954  23.330  26.145  1.00  0.00     0.145 C 
ATOM     30  H   UNL A   1      39.014  21.579  26.237  1.00  0.00     0.171 HD
ATOM     31  S   UNL A   1      36.392  23.772  25.497  1.00  0.00    -0.055 SA
ATOM     32  S   UNL A   1      39.029  24.332  26.899  1.00  0.00    -0.052 S 
ENDBRANCH  19  24
ENDBRANCH  17  18
ENDBRANCH  16  17
ENDBRANCH  12  16
ENDBRANCH   6  11
ENDBRANCH   3   5
ENDBRANCH   2   3
ENDBRANCH   1   2
BRANCH   1  33
ATOM     33  C   UNL A   1      36.019  33.737  30.191  1.00  0.00     0.275 C 
BRANCH  33  34
ATOM     34  O   UNL A   1      37.073  32.868  30.611  1.00  0.00    -0.458 OA
BRANCH  34  35
ATOM     35  C   UNL A   1      36.655  31.658  31.055  1.00  0.00     0.338 C 
ATOM     36  O   UNL A   1      35.528  31.356  31.408  1.00  0.00    -0.246 OA
BRANCH  35  37
ATOM     37  C   UNL A   1      37.823  30.808  31.310  1.00  0.00     0.060 A 
ATOM     38  C   UNL A   1      39.050  31.425  31.571  1.00  0.00     0.016 A 
ATOM     39  C   UNL A   1      37.735  29.437  31.031  1.00  0.00     0.016 A 
ATOM     40  C   UNL A   1      40.208  30.678  31.447  1.00  0.00     0.010 A 
ATOM     41  C   UNL A   1      38.890  28.703  30.878  1.00  0.00     0.010 A 
ATOM     42  C   UNL A   1      40.119  29.337  31.042  1.00  0.00    -0.014 A 
BRANCH  42  43
ATOM     43  C   UNL A   1      41.324  28.524  31.029  1.00  0.00     0.031 A 
ATOM     44  C   UNL A   1      41.810  28.254  32.404  1.00  0.00     0.074 A 
ATOM     45  C   UNL A   1      41.832  27.941  29.923  1.00  0.00     0.049 A 
ATOM     46  N   UNL A   1      42.873  28.722  32.964  1.00  0.00    -0.248 NA
ATOM     47  C   UNL A   1      40.897  27.575  33.342  1.00  0.00     0.031 C 
ATOM     48  C   UNL A   1      41.261  27.935  28.575  1.00  0.00     0.029 A 
ATOM     49  N   UNL A   1      42.924  27.137  29.790  1.00  0.00    -0.354 N 
ATOM     50  C   UNL A   1      42.899  28.157  34.233  1.00  0.00     0.074 A 
ATOM     51  C   UNL A   1      41.563  27.701  34.489  1.00  0.00     0.031 C 
ATOM     52  C   UNL A   1      41.879  26.988  27.831  1.00  0.00     0.029 A 
ATOM     53  C   UNL A   1      42.963  26.399  28.605  1.00  0.00     0.049 A 
ATOM     54  H   UNL A   1      43.629  27.080  30.474  1.00  0.00     0.167 HD
ATOM     55  C   UNL A   1      44.084  27.830  34.817  1.00  0.00     0.034 A 
ATOM     56  C   UNL A   1      43.780  25.346  28.311  1.00  0.00     0.034 A 
ATOM     57  C   UNL A   1      45.177  28.531  34.174  1.00  0.00     0.049 A 
ATOM     58  C   UNL A   1      44.939  25.429  29.235  1.00  0.00     0.074 A 
ATOM     59  C   UNL A   1      45.452  29.865  33.928  1.00  0.00     0.029 A 
ATOM     60  N   UNL A   1      45.989  27.821  33.317  1.00  0.00    -0.354 N 
ATOM     61  N   UNL A   1      45.823  26.387  29.189  1.00  0.00    -0.248 NA
ATOM     62  C   UNL A   1      44.836  24.746  30.517  1.00  0.00     0.031 C 
ATOM     63  C   UNL A   1      46.020  29.888  32.621  1.00  0.00     0.029 A 
ATOM     64  C   UNL A   1      46.163  28.571  32.179  1.00  0.00     0.049 A 
ATOM     65  H   UNL A   1      46.376  26.932  33.488  1.00  0.00     0.167 HD
ATOM     66  C   UNL A   1      46.047  26.730  30.514  1.00  0.00     0.074 A 
ATOM     67  C   UNL A   1      45.485  25.624  31.290  1.00  0.00     0.031 C 
ATOM     68  C   UNL A   1      46.396  28.004  30.864  1.00  0.00     0.034 A 
BRANCH  55  69
ATOM     69  C   UNL A   1      44.303  26.574  35.642  1.00  0.00     0.023 A 
ATOM     70  C   UNL A   1      44.954  26.744  36.877  1.00  0.00     0.031 A 
ATOM     71  C   UNL A   1      44.208  25.238  35.184  1.00  0.00     0.131 A 
ATOM     72  C   UNL A   1      45.596  25.668  37.510  1.00  0.00     0.055 A 
ATOM     73  C   UNL A   1      44.789  24.160  35.855  1.00  0.00     0.041 A 
ATOM     74  F   UNL A   1      43.626  24.895  34.030  1.00  0.00    -0.206 F 
ATOM     75  C   UNL A   1      45.525  24.375  37.004  1.00  0.00     0.022 A 
BRANCH  72  76
ATOM     76  S   UNL A   1      46.694  26.036  38.899  1.00  0.00     0.124 S 
ATOM     77  O   UNL A   1      46.462  24.881  39.759  1.00  0.00    -0.237 OA
ATOM     78  O   UNL A   1      47.995  26.100  38.242  1.00  0.00    -0.237 OA
ATOM     79  O   UNL A   1      46.185  27.309  39.403  1.00  0.00    -0.744 OA
ENDBRANCH  72  76
ENDBRANCH  55  69
BRANCH  56  80
ATOM     80  C   UNL A   1      43.468  24.116  27.514  1.00  0.00     0.023 A 
ATOM     81  C   UNL A   1      44.236  23.694  26.400  1.00  0.00     0.031 A 
ATOM     82  C   UNL A   1      42.530  23.185  28.012  1.00  0.00     0.131 A 
ATOM     83  C   UNL A   1      44.050  22.400  25.847  1.00  0.00     0.055 A 
ATOM     84  C   UNL A   1      42.351  21.913  27.463  1.00  0.00     0.041 A 
ATOM     85  F   UNL A   1      41.811  23.443  29.115  1.00  0.00    -0.206 F 
ATOM     86  C   UNL A   1      43.118  21.510  26.384  1.00  0.00     0.022 A 
BRANCH  83  87
ATOM     87  S   UNL A   1      45.085  21.802  24.463  1.00  0.00     0.124 S 
ATOM     88  O   UNL A   1      46.386  21.629  25.098  1.00  0.00    -0.237 OA
ATOM     89  O   UNL A   1      44.393  20.587  24.053  1.00  0.00    -0.237 OA
ATOM     90  O   UNL A   1      45.021  22.895  23.490  1.00  0.00    -0.744 OA
ENDBRANCH  83  87
ENDBRANCH  56  80
BRANCH  68  91
ATOM     91  C   UNL A   1      46.891  28.948  29.784  1.00  0.00     0.023 A 
ATOM     92  C   UNL A   1      46.077  29.696  28.903  1.00  0.00     0.031 A 
ATOM     93  C   UNL A   1      48.280  29.162  29.723  1.00  0.00     0.131 A 
ATOM     94  C   UNL A   1      46.666  30.603  27.998  1.00  0.00     0.055 A 
ATOM     95  C   UNL A   1      48.856  30.079  28.847  1.00  0.00     0.041 A 
ATOM     96  F   UNL A   1      49.110  28.496  30.544  1.00  0.00    -0.206 F 
ATOM     97  C   UNL A   1      48.051  30.798  27.975  1.00  0.00     0.022 A 
BRANCH  94  98
ATOM     98  S   UNL A   1      45.652  31.522  26.793  1.00  0.00     0.124 S 
ATOM     99  O   UNL A   1      45.996  32.916  27.044  1.00  0.00    -0.237 OA
ATOM    100  O   UNL A   1      46.102  30.973  25.517  1.00  0.00    -0.237 OA
ATOM    101  O   UNL A   1      44.281  31.159  27.158  1.00  0.00    -0.744 OA
ENDBRANCH  94  98
ENDBRANCH  68  91
ENDBRANCH  42  43
ENDBRANCH  35  37
ENDBRANCH  34  35
ENDBRANCH  33  34
ENDBRANCH   1  33
TORSDOF 19
ENDMDL
