MODEL 1
REMARK VINA RESULT:     -11.4      0.000      0.000
REMARK SMILES C/C(=N\Nc1nc(-c2ccc(Cl)cc2)cs1)c1nnn(-c2ccc(C(=O)OCCOC(=O)c3ccc(-c4c5nc(c(-c6cc(S(=O)(=O)[O-])ccc6F)c6ccc([nH]6)c(-c6cc(S(=O)(=O)[O-])ccc6F)c6nc(c(-c7cc(S(=O)(=O)[O-])ccc7F)c7ccc4[nH]7)C=C6)C=C5)cc3)cc2)c1C
REMARK SMILES IDX 28 1 27 2 25 3 26 4 24 5 21 6 22 7 97 8 23 9 96 10 20 11
REMARK SMILES IDX 17 12 18 13 98 14 19 15 99 16 2 17 1 18 3 19 4 20 5 22 6 23
REMARK SMILES IDX 16 24 7 25 15 26 8 27 9 28 14 29 10 30 13 31 11 32 12 33
REMARK SMILES IDX 29 34 30 35 31 36 32 37 33 38 34 39 95 40 35 41 94 42 36 43
REMARK SMILES IDX 37 44 38 45 88 46 39 47 93 48 87 49 89 50 40 51 92 52 86 53
REMARK SMILES IDX 85 54 41 56 73 57 53 58 72 59 54 60 57 61 71 62 90 63 55 64
REMARK SMILES IDX 56 65 70 67 91 68 58 69 42 70 43 71 51 72 44 73 50 74 52 75
REMARK SMILES IDX 49 76 45 77 46 78 47 79 48 80 74 81 75 82 83 83 76 84 82 85
REMARK SMILES IDX 84 86 81 87 77 88 78 89 79 90 80 91 59 92 60 93 68 94 61 95
REMARK SMILES IDX 67 96 69 97 66 98 62 99 63 100 64 101 65 102
REMARK H PARENT 4 21 89 55 57 66
REMARK Flexibility Score: inf
ROOT
ATOM      1  C   UNL A   1      34.184  34.551  27.856  1.00  0.00     0.275 C 
ENDROOT
BRANCH   1   2
ATOM      2  O   UNL A   1      34.625  35.132  29.093  1.00  0.00    -0.458 OA
BRANCH   2   3
ATOM      3  C   UNL A   1      34.023  34.669  30.226  1.00  0.00     0.338 C 
ATOM      4  O   UNL A   1      32.871  34.838  30.552  1.00  0.00    -0.246 OA
BRANCH   3   5
ATOM      5  C   UNL A   1      34.997  33.860  31.015  1.00  0.00     0.060 A 
ATOM      6  C   UNL A   1      36.717  32.537  32.746  1.00  0.00     0.067 A 
ATOM      7  C   UNL A   1      35.391  32.106  32.657  1.00  0.00     0.029 A 
ATOM      8  C   UNL A   1      37.221  33.501  31.865  1.00  0.00     0.029 A 
ATOM      9  C   UNL A   1      34.525  32.790  31.796  1.00  0.00     0.018 A 
ATOM     10  C   UNL A   1      36.361  34.164  31.001  1.00  0.00     0.018 A 
BRANCH   6  11
ATOM     11  N   UNL A   1      37.487  32.200  33.876  1.00  0.00    -0.217 N 
ATOM     12  C   UNL A   1      38.235  32.098  35.922  1.00  0.00     0.132 A 
ATOM     13  N   UNL A   1      38.665  30.994  35.243  1.00  0.00    -0.128 NA
ATOM     14  C   UNL A   1      37.469  32.887  35.080  1.00  0.00     0.071 A 
ATOM     15  N   UNL A   1      38.116  31.017  34.031  1.00  0.00    -0.061 NA
ATOM     16  C   UNL A   1      36.613  34.072  35.367  1.00  0.00     0.069 C 
BRANCH  12  17
ATOM     17  C   UNL A   1      38.392  32.305  37.354  1.00  0.00     0.087 C 
ATOM     18  C   UNL A   1      39.526  33.226  37.734  1.00  0.00     0.071 C 
ATOM     19  N   UNL A   1      37.603  31.614  38.129  1.00  0.00    -0.176 NA
BRANCH  19  20
ATOM     20  N   UNL A   1      37.721  31.535  39.498  1.00  0.00    -0.252 N 
ATOM     21  H   UNL A   1      38.642  31.425  39.826  1.00  0.00     0.193 HD
BRANCH  20  22
ATOM     22  C   UNL A   1      36.777  31.583  40.472  1.00  0.00     0.203 A 
ATOM     23  N   UNL A   1      35.568  32.076  40.350  1.00  0.00    -0.219 NA
ATOM     24  S   UNL A   1      37.146  31.057  42.078  1.00  0.00    -0.103 S 
ATOM     25  C   UNL A   1      35.046  32.385  41.587  1.00  0.00     0.084 A 
ATOM     26  C   UNL A   1      35.765  31.906  42.660  1.00  0.00     0.097 A 
BRANCH  25  27
ATOM     27  C   UNL A   1      33.899  33.268  41.668  1.00  0.00     0.001 A 
ATOM     28  C   UNL A   1      33.404  33.865  40.502  1.00  0.00     0.012 A 
ATOM     29  C   UNL A   1      33.388  33.661  42.913  1.00  0.00     0.012 A 
ATOM     30  C   UNL A   1      32.393  34.825  40.575  1.00  0.00     0.021 A 
ATOM     31  C   UNL A   1      32.384  34.632  42.987  1.00  0.00     0.021 A 
ATOM     32  C   UNL A   1      31.888  35.206  41.817  1.00  0.00     0.041 A 
ATOM     33  Cl  UNL A   1      30.661  36.407  41.909  1.00  0.00    -0.084 Cl
ENDBRANCH  25  27
ENDBRANCH  20  22
ENDBRANCH  19  20
ENDBRANCH  12  17
ENDBRANCH   6  11
ENDBRANCH   3   5
ENDBRANCH   2   3
ENDBRANCH   1   2
BRANCH   1  34
ATOM     34  C   UNL A   1      33.980  33.049  28.001  1.00  0.00     0.275 C 
BRANCH  34  35
ATOM     35  O   UNL A   1      35.228  32.364  27.928  1.00  0.00    -0.458 OA
BRANCH  35  36
ATOM     36  C   UNL A   1      35.136  31.052  27.617  1.00  0.00     0.338 C 
ATOM     37  O   UNL A   1      34.285  30.519  26.922  1.00  0.00    -0.246 OA
BRANCH  36  38
ATOM     38  C   UNL A   1      36.113  30.301  28.405  1.00  0.00     0.060 A 
ATOM     39  C   UNL A   1      36.902  31.032  29.296  1.00  0.00     0.016 A 
ATOM     40  C   UNL A   1      36.444  28.999  28.002  1.00  0.00     0.016 A 
ATOM     41  C   UNL A   1      38.146  30.537  29.615  1.00  0.00     0.010 A 
ATOM     42  C   UNL A   1      37.691  28.516  28.308  1.00  0.00     0.010 A 
ATOM     43  C   UNL A   1      38.554  29.333  29.033  1.00  0.00    -0.014 A 
BRANCH  43  44
ATOM     44  C   UNL A   1      39.914  28.897  29.256  1.00  0.00     0.031 A 
ATOM     45  C   UNL A   1      40.265  28.819  30.691  1.00  0.00     0.074 A 
ATOM     46  C   UNL A   1      40.700  28.477  28.248  1.00  0.00     0.049 A 
ATOM     47  N   UNL A   1      41.144  29.509  31.336  1.00  0.00    -0.248 NA
ATOM     48  C   UNL A   1      39.395  27.999  31.552  1.00  0.00     0.031 C 
ATOM     49  C   UNL A   1      40.329  28.237  26.850  1.00  0.00     0.029 A 
ATOM     50  N   UNL A   1      41.985  28.047  28.298  1.00  0.00    -0.354 N 
ATOM     51  C   UNL A   1      41.091  29.047  32.647  1.00  0.00     0.074 A 
ATOM     52  C   UNL A   1      39.870  28.299  32.759  1.00  0.00     0.031 C 
ATOM     53  C   UNL A   1      41.284  27.478  26.264  1.00  0.00     0.029 A 
ATOM     54  C   UNL A   1      42.380  27.291  27.201  1.00  0.00     0.049 A 
ATOM     55  H   UNL A   1      42.588  28.253  29.049  1.00  0.00     0.167 HD
ATOM     56  C   UNL A   1      42.179  29.107  33.458  1.00  0.00     0.034 A 
ATOM     57  C   UNL A   1      43.477  26.490  27.128  1.00  0.00     0.034 A 
ATOM     58  C   UNL A   1      43.137  30.072  32.965  1.00  0.00     0.049 A 
ATOM     59  C   UNL A   1      44.408  26.944  28.198  1.00  0.00     0.074 A 
ATOM     60  C   UNL A   1      43.082  31.429  32.709  1.00  0.00     0.029 A 
ATOM     61  N   UNL A   1      44.237  29.610  32.276  1.00  0.00    -0.354 N 
ATOM     62  N   UNL A   1      44.967  28.126  28.208  1.00  0.00    -0.248 NA
ATOM     63  C   UNL A   1      44.318  26.295  29.499  1.00  0.00     0.031 C 
ATOM     64  C   UNL A   1      43.819  31.604  31.502  1.00  0.00     0.029 A 
ATOM     65  C   UNL A   1      44.349  30.366  31.134  1.00  0.00     0.049 A 
ATOM     66  H   UNL A   1      44.833  28.876  32.552  1.00  0.00     0.167 HD
ATOM     67  C   UNL A   1      44.914  28.542  29.532  1.00  0.00     0.074 A 
ATOM     68  C   UNL A   1      44.585  27.338  30.294  1.00  0.00     0.031 C 
ATOM     69  C   UNL A   1      44.853  29.866  29.866  1.00  0.00     0.034 A 
BRANCH  56  70
ATOM     70  C   UNL A   1      42.538  28.041  34.471  1.00  0.00     0.023 A 
ATOM     71  C   UNL A   1      43.322  26.968  34.012  1.00  0.00     0.031 A 
ATOM     72  C   UNL A   1      41.940  27.862  35.741  1.00  0.00     0.131 A 
ATOM     73  C   UNL A   1      43.388  25.763  34.731  1.00  0.00     0.055 A 
ATOM     74  C   UNL A   1      42.067  26.688  36.485  1.00  0.00     0.041 A 
ATOM     75  F   UNL A   1      41.126  28.764  36.301  1.00  0.00    -0.206 F 
ATOM     76  C   UNL A   1      42.765  25.614  35.966  1.00  0.00     0.022 A 
BRANCH  73  77
ATOM     77  S   UNL A   1      44.145  24.329  33.927  1.00  0.00     0.124 S 
ATOM     78  O   UNL A   1      43.220  23.263  34.295  1.00  0.00    -0.237 OA
ATOM     79  O   UNL A   1      44.139  24.736  32.526  1.00  0.00    -0.237 OA
ATOM     80  O   UNL A   1      45.465  24.252  34.549  1.00  0.00    -0.744 OA
ENDBRANCH  73  77
ENDBRANCH  56  70
BRANCH  57  81
ATOM     81  C   UNL A   1      43.541  25.151  26.471  1.00  0.00     0.023 A 
ATOM     82  C   UNL A   1      42.673  24.088  26.798  1.00  0.00     0.031 A 
ATOM     83  C   UNL A   1      44.354  24.969  25.327  1.00  0.00     0.131 A 
ATOM     84  C   UNL A   1      42.657  22.911  26.008  1.00  0.00     0.055 A 
ATOM     85  C   UNL A   1      44.340  23.804  24.557  1.00  0.00     0.041 A 
ATOM     86  F   UNL A   1      45.140  25.955  24.866  1.00  0.00    -0.206 F 
ATOM     87  C   UNL A   1      43.484  22.770  24.891  1.00  0.00     0.022 A 
BRANCH  84  88
ATOM     88  S   UNL A   1      41.491  21.559  26.379  1.00  0.00     0.124 S 
ATOM     89  O   UNL A   1      41.510  21.524  27.836  1.00  0.00    -0.237 OA
ATOM     90  O   UNL A   1      40.259  22.029  25.757  1.00  0.00    -0.237 OA
ATOM     91  O   UNL A   1      42.097  20.395  25.730  1.00  0.00    -0.744 OA
ENDBRANCH  84  88
ENDBRANCH  57  81
BRANCH  69  92
ATOM     92  C   UNL A   1      45.115  30.906  28.794  1.00  0.00     0.023 A 
ATOM     93  C   UNL A   1      46.389  31.424  28.462  1.00  0.00     0.031 A 
ATOM     94  C   UNL A   1      44.034  31.251  27.964  1.00  0.00     0.131 A 
ATOM     95  C   UNL A   1      46.537  32.252  27.329  1.00  0.00     0.055 A 
ATOM     96  C   UNL A   1      44.189  32.052  26.834  1.00  0.00     0.041 A 
ATOM     97  F   UNL A   1      42.806  30.766  28.212  1.00  0.00    -0.206 F 
ATOM     98  C   UNL A   1      45.443  32.557  26.513  1.00  0.00     0.022 A 
BRANCH  95  99
ATOM     99  S   UNL A   1      48.164  32.948  26.887  1.00  0.00     0.124 S 
ATOM    100  O   UNL A   1      47.887  33.716  25.679  1.00  0.00    -0.237 OA
ATOM    101  O   UNL A   1      48.514  33.723  28.073  1.00  0.00    -0.237 OA
ATOM    102  O   UNL A   1      48.997  31.761  26.672  1.00  0.00    -0.744 OA
ENDBRANCH  95  99
ENDBRANCH  69  92
ENDBRANCH  43  44
ENDBRANCH  36  38
ENDBRANCH  35  36
ENDBRANCH  34  35
ENDBRANCH   1  34
TORSDOF 19
ENDMDL
MODEL 2
REMARK VINA RESULT:     -11.4      4.537      9.510
REMARK SMILES C/C(=N\Nc1nc(-c2ccc(Cl)cc2)cs1)c1nnn(-c2ccc(C(=O)OCCOC(=O)c3ccc(-c4c5nc(c(-c6cc(S(=O)(=O)[O-])ccc6F)c6ccc([nH]6)c(-c6cc(S(=O)(=O)[O-])ccc6F)c6nc(c(-c7cc(S(=O)(=O)[O-])ccc7F)c7ccc4[nH]7)C=C6)C=C5)cc3)cc2)c1C
REMARK SMILES IDX 28 1 27 2 25 3 26 4 24 5 21 6 22 7 97 8 23 9 96 10 20 11
REMARK SMILES IDX 17 12 18 13 98 14 19 15 99 16 2 17 1 18 3 19 4 20 5 22 6 23
REMARK SMILES IDX 16 24 7 25 15 26 8 27 9 28 14 29 10 30 13 31 11 32 12 33
REMARK SMILES IDX 29 34 30 35 31 36 32 37 33 38 34 39 95 40 35 41 94 42 36 43
REMARK SMILES IDX 37 44 38 45 88 46 39 47 93 48 87 49 89 50 40 51 92 52 86 53
REMARK SMILES IDX 85 54 41 56 73 57 53 58 72 59 54 60 57 61 71 62 90 63 55 64
REMARK SMILES IDX 56 65 70 67 91 68 58 69 42 70 43 71 51 72 44 73 50 74 52 75
REMARK SMILES IDX 49 76 45 77 46 78 47 79 48 80 74 81 75 82 83 83 76 84 82 85
REMARK SMILES IDX 84 86 81 87 77 88 78 89 79 90 80 91 59 92 60 93 68 94 61 95
REMARK SMILES IDX 67 96 69 97 66 98 62 99 63 100 64 101 65 102
REMARK H PARENT 4 21 89 55 57 66
REMARK Flexibility Score: inf
ROOT
ATOM      1  C   UNL A   1      45.126  26.527  38.480  1.00  0.00     0.275 C 
ENDROOT
BRANCH   1   2
ATOM      2  O   UNL A   1      44.240  27.606  38.143  1.00  0.00    -0.458 OA
BRANCH   2   3
ATOM      3  C   UNL A   1      44.660  28.445  37.152  1.00  0.00     0.338 C 
ATOM      4  O   UNL A   1      45.794  28.587  36.760  1.00  0.00    -0.246 OA
BRANCH   3   5
ATOM      5  C   UNL A   1      43.485  29.153  36.566  1.00  0.00     0.060 A 
ATOM      6  C   UNL A   1      41.164  30.454  35.777  1.00  0.00     0.067 A 
ATOM      7  C   UNL A   1      42.196  31.207  36.342  1.00  0.00     0.029 A 
ATOM      8  C   UNL A   1      41.349  29.104  35.455  1.00  0.00     0.029 A 
ATOM      9  C   UNL A   1      43.357  30.541  36.754  1.00  0.00     0.018 A 
ATOM     10  C   UNL A   1      42.509  28.453  35.851  1.00  0.00     0.018 A 
BRANCH   6  11
ATOM     11  N   UNL A   1      39.852  30.969  35.761  1.00  0.00    -0.217 N 
ATOM     12  C   UNL A   1      38.007  31.929  35.105  1.00  0.00     0.132 A 
ATOM     13  N   UNL A   1      37.724  31.112  36.163  1.00  0.00    -0.128 NA
ATOM     14  C   UNL A   1      39.360  31.853  34.814  1.00  0.00     0.071 A 
ATOM     15  N   UNL A   1      38.836  30.455  36.484  1.00  0.00    -0.061 NA
ATOM     16  C   UNL A   1      40.137  32.375  33.656  1.00  0.00     0.069 C 
BRANCH  12  17
ATOM     17  C   UNL A   1      37.011  32.610  34.293  1.00  0.00     0.087 C 
ATOM     18  C   UNL A   1      36.427  33.850  34.927  1.00  0.00     0.071 C 
ATOM     19  N   UNL A   1      36.684  32.031  33.171  1.00  0.00    -0.176 NA
BRANCH  19  20
ATOM     20  N   UNL A   1      35.640  32.422  32.363  1.00  0.00    -0.252 N 
ATOM     21  H   UNL A   1      34.802  32.621  32.839  1.00  0.00     0.193 HD
BRANCH  20  22
ATOM     22  C   UNL A   1      35.575  32.577  31.016  1.00  0.00     0.203 A 
ATOM     23  N   UNL A   1      34.732  31.979  30.211  1.00  0.00    -0.219 NA
ATOM     24  S   UNL A   1      36.734  33.561  30.190  1.00  0.00    -0.103 S 
ATOM     25  C   UNL A   1      35.207  31.991  28.918  1.00  0.00     0.084 A 
ATOM     26  C   UNL A   1      36.297  32.806  28.705  1.00  0.00     0.097 A 
BRANCH  25  27
ATOM     27  C   UNL A   1      34.633  31.081  27.946  1.00  0.00     0.001 A 
ATOM     28  C   UNL A   1      33.344  31.321  27.454  1.00  0.00     0.012 A 
ATOM     29  C   UNL A   1      35.281  29.881  27.622  1.00  0.00     0.012 A 
ATOM     30  C   UNL A   1      32.719  30.385  26.627  1.00  0.00     0.021 A 
ATOM     31  C   UNL A   1      34.650  28.939  26.805  1.00  0.00     0.021 A 
ATOM     32  C   UNL A   1      33.373  29.198  26.307  1.00  0.00     0.041 A 
ATOM     33  Cl  UNL A   1      32.592  28.033  25.311  1.00  0.00    -0.084 Cl
ENDBRANCH  25  27
ENDBRANCH  20  22
ENDBRANCH  19  20
ENDBRANCH  12  17
ENDBRANCH   6  11
ENDBRANCH   3   5
ENDBRANCH   2   3
ENDBRANCH   1   2
BRANCH   1  34
ATOM     34  C   UNL A   1      44.505  25.182  38.128  1.00  0.00     0.275 C 
BRANCH  34  35
ATOM     35  O   UNL A   1      44.227  25.108  36.733  1.00  0.00    -0.458 OA
BRANCH  35  36
ATOM     36  C   UNL A   1      44.812  24.071  36.093  1.00  0.00     0.338 C 
ATOM     37  O   UNL A   1      45.043  22.962  36.549  1.00  0.00    -0.246 OA
BRANCH  36  38
ATOM     38  C   UNL A   1      45.321  24.527  34.801  1.00  0.00     0.060 A 
ATOM     39  C   UNL A   1      44.944  25.808  34.389  1.00  0.00     0.016 A 
ATOM     40  C   UNL A   1      45.850  23.579  33.913  1.00  0.00     0.016 A 
ATOM     41  C   UNL A   1      44.892  26.064  33.038  1.00  0.00     0.010 A 
ATOM     42  C   UNL A   1      45.781  23.831  32.567  1.00  0.00     0.010 A 
ATOM     43  C   UNL A   1      45.219  25.036  32.150  1.00  0.00    -0.014 A 
BRANCH  43  44
ATOM     44  C   UNL A   1      45.021  25.268  30.738  1.00  0.00     0.031 A 
ATOM     45  C   UNL A   1      46.064  26.132  30.145  1.00  0.00     0.074 A 
ATOM     46  C   UNL A   1      44.061  24.631  30.041  1.00  0.00     0.049 A 
ATOM     47  N   UNL A   1      45.926  27.304  29.622  1.00  0.00    -0.248 NA
ATOM     48  C   UNL A   1      47.466  25.717  30.328  1.00  0.00     0.031 C 
ATOM     49  C   UNL A   1      43.191  23.539  30.487  1.00  0.00     0.029 A 
ATOM     50  N   UNL A   1      43.752  24.747  28.725  1.00  0.00    -0.354 N 
ATOM     51  C   UNL A   1      47.200  27.677  29.206  1.00  0.00     0.074 A 
ATOM     52  C   UNL A   1      48.113  26.780  29.857  1.00  0.00     0.031 C 
ATOM     53  C   UNL A   1      42.646  22.938  29.404  1.00  0.00     0.029 A 
ATOM     54  C   UNL A   1      43.026  23.679  28.212  1.00  0.00     0.049 A 
ATOM     55  H   UNL A   1      44.020  25.522  28.180  1.00  0.00     0.167 HD
ATOM     56  C   UNL A   1      47.377  28.532  28.165  1.00  0.00     0.034 A 
ATOM     57  C   UNL A   1      42.853  23.382  26.895  1.00  0.00     0.034 A 
ATOM     58  C   UNL A   1      46.174  29.294  27.913  1.00  0.00     0.049 A 
ATOM     59  C   UNL A   1      43.136  24.632  26.136  1.00  0.00     0.074 A 
ATOM     60  C   UNL A   1      45.415  30.162  28.675  1.00  0.00     0.029 A 
ATOM     61  N   UNL A   1      45.360  28.908  26.871  1.00  0.00    -0.354 N 
ATOM     62  N   UNL A   1      42.411  25.715  26.240  1.00  0.00    -0.248 NA
ATOM     63  C   UNL A   1      44.497  24.846  25.661  1.00  0.00     0.031 C 
ATOM     64  C   UNL A   1      44.063  29.849  28.348  1.00  0.00     0.029 A 
ATOM     65  C   UNL A   1      44.073  28.871  27.351  1.00  0.00     0.049 A 
ATOM     66  H   UNL A   1      45.647  28.698  25.953  1.00  0.00     0.167 HD
ATOM     67  C   UNL A   1      43.323  26.762  26.256  1.00  0.00     0.074 A 
ATOM     68  C   UNL A   1      44.584  26.173  25.807  1.00  0.00     0.031 C 
ATOM     69  C   UNL A   1      43.055  27.937  26.902  1.00  0.00     0.034 A 
BRANCH  56  70
ATOM     70  C   UNL A   1      48.496  28.411  27.153  1.00  0.00     0.023 A 
ATOM     71  C   UNL A   1      48.133  28.042  25.845  1.00  0.00     0.031 A 
ATOM     72  C   UNL A   1      49.880  28.349  27.443  1.00  0.00     0.131 A 
ATOM     73  C   UNL A   1      49.086  27.533  24.948  1.00  0.00     0.055 A 
ATOM     74  C   UNL A   1      50.834  27.909  26.523  1.00  0.00     0.041 A 
ATOM     75  F   UNL A   1      50.388  28.619  28.651  1.00  0.00    -0.206 F 
ATOM     76  C   UNL A   1      50.436  27.462  25.277  1.00  0.00     0.022 A 
BRANCH  73  77
ATOM     77  S   UNL A   1      48.495  26.783  23.410  1.00  0.00     0.124 S 
ATOM     78  O   UNL A   1      47.406  27.681  23.044  1.00  0.00    -0.237 OA
ATOM     79  O   UNL A   1      49.689  26.839  22.575  1.00  0.00    -0.237 OA
ATOM     80  O   UNL A   1      48.086  25.443  23.825  1.00  0.00    -0.744 OA
ENDBRANCH  73  77
ENDBRANCH  56  70
BRANCH  57  81
ATOM     81  C   UNL A   1      42.866  22.015  26.297  1.00  0.00     0.023 A 
ATOM     82  C   UNL A   1      44.032  21.406  25.786  1.00  0.00     0.031 A 
ATOM     83  C   UNL A   1      41.726  21.184  26.418  1.00  0.00     0.131 A 
ATOM     84  C   UNL A   1      44.018  20.038  25.412  1.00  0.00     0.055 A 
ATOM     85  C   UNL A   1      41.715  19.840  26.040  1.00  0.00     0.041 A 
ATOM     86  F   UNL A   1      40.595  21.632  26.988  1.00  0.00    -0.206 F 
ATOM     87  C   UNL A   1      42.866  19.258  25.540  1.00  0.00     0.022 A 
BRANCH  84  88
ATOM     88  S   UNL A   1      45.536  19.223  24.816  1.00  0.00     0.124 S 
ATOM     89  O   UNL A   1      45.268  19.071  23.391  1.00  0.00    -0.237 OA
ATOM     90  O   UNL A   1      46.571  20.182  25.184  1.00  0.00    -0.237 OA
ATOM     91  O   UNL A   1      45.570  17.969  25.570  1.00  0.00    -0.744 OA
ENDBRANCH  84  88
ENDBRANCH  57  81
BRANCH  69  92
ATOM     92  C   UNL A   1      41.642  28.204  27.382  1.00  0.00     0.023 A 
ATOM     93  C   UNL A   1      41.196  28.049  28.715  1.00  0.00     0.031 A 
ATOM     94  C   UNL A   1      40.762  28.808  26.466  1.00  0.00     0.131 A 
ATOM     95  C   UNL A   1      39.909  28.497  29.082  1.00  0.00     0.055 A 
ATOM     96  C   UNL A   1      39.501  29.268  26.838  1.00  0.00     0.041 A 
ATOM     97  F   UNL A   1      41.142  29.008  25.193  1.00  0.00    -0.206 F 
ATOM     98  C   UNL A   1      39.068  29.113  28.149  1.00  0.00     0.022 A 
BRANCH  95  99
ATOM     99  S   UNL A   1      39.301  28.294  30.790  1.00  0.00     0.124 S 
ATOM    100  O   UNL A   1      38.553  27.043  30.737  1.00  0.00    -0.237 OA
ATOM    101  O   UNL A   1      40.535  28.270  31.569  1.00  0.00    -0.237 OA
ATOM    102  O   UNL A   1      38.475  29.485  31.003  1.00  0.00    -0.744 OA
ENDBRANCH  95  99
ENDBRANCH  69  92
ENDBRANCH  43  44
ENDBRANCH  36  38
ENDBRANCH  35  36
ENDBRANCH  34  35
ENDBRANCH   1  34
TORSDOF 19
ENDMDL
MODEL 3
REMARK VINA RESULT:     -11.3      4.988     12.724
REMARK SMILES C/C(=N\Nc1nc(-c2ccc(Cl)cc2)cs1)c1nnn(-c2ccc(C(=O)OCCOC(=O)c3ccc(-c4c5nc(c(-c6cc(S(=O)(=O)[O-])ccc6F)c6ccc([nH]6)c(-c6cc(S(=O)(=O)[O-])ccc6F)c6nc(c(-c7cc(S(=O)(=O)[O-])ccc7F)c7ccc4[nH]7)C=C6)C=C5)cc3)cc2)c1C
REMARK SMILES IDX 28 1 27 2 25 3 26 4 24 5 21 6 22 7 97 8 23 9 96 10 20 11
REMARK SMILES IDX 17 12 18 13 98 14 19 15 99 16 2 17 1 18 3 19 4 20 5 22 6 23
REMARK SMILES IDX 16 24 7 25 15 26 8 27 9 28 14 29 10 30 13 31 11 32 12 33
REMARK SMILES IDX 29 34 30 35 31 36 32 37 33 38 34 39 95 40 35 41 94 42 36 43
REMARK SMILES IDX 37 44 38 45 88 46 39 47 93 48 87 49 89 50 40 51 92 52 86 53
REMARK SMILES IDX 85 54 41 56 73 57 53 58 72 59 54 60 57 61 71 62 90 63 55 64
REMARK SMILES IDX 56 65 70 67 91 68 58 69 42 70 43 71 51 72 44 73 50 74 52 75
REMARK SMILES IDX 49 76 45 77 46 78 47 79 48 80 74 81 75 82 83 83 76 84 82 85
REMARK SMILES IDX 84 86 81 87 77 88 78 89 79 90 80 91 59 92 60 93 68 94 61 95
REMARK SMILES IDX 67 96 69 97 66 98 62 99 63 100 64 101 65 102
REMARK H PARENT 4 21 89 55 57 66
REMARK Flexibility Score: inf
ROOT
ATOM      1  C   UNL A   1      41.915  21.390  26.152  1.00  0.00     0.275 C 
ENDROOT
BRANCH   1   2
ATOM      2  O   UNL A   1      42.528  22.039  25.027  1.00  0.00    -0.458 OA
BRANCH   2   3
ATOM      3  C   UNL A   1      43.882  21.910  24.918  1.00  0.00     0.338 C 
ATOM      4  O   UNL A   1      44.484  20.948  24.502  1.00  0.00    -0.246 OA
BRANCH   3   5
ATOM      5  C   UNL A   1      44.541  23.176  25.353  1.00  0.00     0.060 A 
ATOM      6  C   UNL A   1      45.876  25.559  25.847  1.00  0.00     0.067 A 
ATOM      7  C   UNL A   1      44.574  25.610  25.345  1.00  0.00     0.029 A 
ATOM      8  C   UNL A   1      46.444  24.345  26.255  1.00  0.00     0.029 A 
ATOM      9  C   UNL A   1      43.913  24.404  25.081  1.00  0.00     0.018 A 
ATOM     10  C   UNL A   1      45.777  23.154  26.005  1.00  0.00     0.018 A 
BRANCH   6  11
ATOM     11  N   UNL A   1      46.722  26.677  25.710  1.00  0.00    -0.217 N 
ATOM     12  C   UNL A   1      47.899  28.456  26.162  1.00  0.00     0.132 A 
ATOM     13  N   UNL A   1      48.376  27.896  25.011  1.00  0.00    -0.128 NA
ATOM     14  C   UNL A   1      46.846  27.696  26.642  1.00  0.00     0.071 A 
ATOM     15  N   UNL A   1      47.720  26.757  24.806  1.00  0.00    -0.061 NA
ATOM     16  C   UNL A   1      46.119  27.749  27.941  1.00  0.00     0.069 C 
BRANCH  12  17
ATOM     17  C   UNL A   1      48.528  29.561  26.870  1.00  0.00     0.087 C 
ATOM     18  C   UNL A   1      49.777  29.188  27.632  1.00  0.00     0.071 C 
ATOM     19  N   UNL A   1      47.901  30.704  26.833  1.00  0.00    -0.176 NA
BRANCH  19  20
ATOM     20  N   UNL A   1      48.237  31.807  27.584  1.00  0.00    -0.252 N 
ATOM     21  H   UNL A   1      48.130  31.693  28.555  1.00  0.00     0.193 HD
BRANCH  20  22
ATOM     22  C   UNL A   1      48.693  33.029  27.206  1.00  0.00     0.203 A 
ATOM     23  N   UNL A   1      48.076  34.171  27.386  1.00  0.00    -0.219 NA
ATOM     24  S   UNL A   1      50.168  33.177  26.314  1.00  0.00    -0.103 S 
ATOM     25  C   UNL A   1      48.560  35.123  26.516  1.00  0.00     0.084 A 
ATOM     26  C   UNL A   1      49.707  34.767  25.840  1.00  0.00     0.097 A 
BRANCH  25  27
ATOM     27  C   UNL A   1      47.785  36.327  26.285  1.00  0.00     0.001 A 
ATOM     28  C   UNL A   1      48.274  37.303  25.408  1.00  0.00     0.012 A 
ATOM     29  C   UNL A   1      46.643  36.599  27.051  1.00  0.00     0.012 A 
ATOM     30  C   UNL A   1      47.615  38.528  25.278  1.00  0.00     0.021 A 
ATOM     31  C   UNL A   1      45.991  37.830  26.930  1.00  0.00     0.021 A 
ATOM     32  C   UNL A   1      46.478  38.787  26.041  1.00  0.00     0.041 A 
ATOM     33  Cl  UNL A   1      45.683  40.306  25.901  1.00  0.00    -0.084 Cl
ENDBRANCH  25  27
ENDBRANCH  20  22
ENDBRANCH  19  20
ENDBRANCH  12  17
ENDBRANCH   6  11
ENDBRANCH   3   5
ENDBRANCH   2   3
ENDBRANCH   1   2
BRANCH   1  34
ATOM     34  C   UNL A   1      40.464  21.823  26.308  1.00  0.00     0.275 C 
BRANCH  34  35
ATOM     35  O   UNL A   1      40.274  22.504  27.545  1.00  0.00    -0.458 OA
BRANCH  35  36
ATOM     36  C   UNL A   1      41.414  22.881  28.165  1.00  0.00     0.338 C 
ATOM     37  O   UNL A   1      42.118  22.195  28.890  1.00  0.00    -0.246 OA
BRANCH  36  38
ATOM     38  C   UNL A   1      41.598  24.322  28.001  1.00  0.00     0.060 A 
ATOM     39  C   UNL A   1      42.763  24.876  28.539  1.00  0.00     0.016 A 
ATOM     40  C   UNL A   1      40.492  25.106  27.641  1.00  0.00     0.016 A 
ATOM     41  C   UNL A   1      42.735  26.197  28.922  1.00  0.00     0.010 A 
ATOM     42  C   UNL A   1      40.461  26.417  28.039  1.00  0.00     0.010 A 
ATOM     43  C   UNL A   1      41.548  26.916  28.753  1.00  0.00    -0.014 A 
BRANCH  43  44
ATOM     44  C   UNL A   1      41.481  28.255  29.291  1.00  0.00     0.031 A 
ATOM     45  C   UNL A   1      42.419  29.188  28.629  1.00  0.00     0.074 A 
ATOM     46  C   UNL A   1      40.551  28.612  30.196  1.00  0.00     0.049 A 
ATOM     47  N   UNL A   1      43.428  29.805  29.146  1.00  0.00    -0.248 NA
ATOM     48  C   UNL A   1      42.334  29.300  27.163  1.00  0.00     0.031 C 
ATOM     49  C   UNL A   1      39.403  27.834  30.671  1.00  0.00     0.029 A 
ATOM     50  N   UNL A   1      40.368  29.817  30.792  1.00  0.00    -0.354 N 
ATOM     51  C   UNL A   1      43.970  30.562  28.113  1.00  0.00     0.074 A 
ATOM     52  C   UNL A   1      43.405  30.044  26.899  1.00  0.00     0.031 C 
ATOM     53  C   UNL A   1      38.523  28.668  31.272  1.00  0.00     0.029 A 
ATOM     54  C   UNL A   1      39.102  30.000  31.335  1.00  0.00     0.049 A 
ATOM     55  H   UNL A   1      41.072  30.504  30.834  1.00  0.00     0.167 HD
ATOM     56  C   UNL A   1      44.645  31.714  28.364  1.00  0.00     0.034 A 
ATOM     57  C   UNL A   1      38.548  31.187  31.704  1.00  0.00     0.034 A 
ATOM     58  C   UNL A   1      45.092  31.760  29.739  1.00  0.00     0.049 A 
ATOM     59  C   UNL A   1      39.674  32.143  31.890  1.00  0.00     0.074 A 
ATOM     60  C   UNL A   1      45.911  30.952  30.506  1.00  0.00     0.029 A 
ATOM     61  N   UNL A   1      44.372  32.515  30.637  1.00  0.00    -0.354 N 
ATOM     62  N   UNL A   1      40.590  32.003  32.811  1.00  0.00    -0.248 NA
ATOM     63  C   UNL A   1      40.071  32.958  30.748  1.00  0.00     0.031 C 
ATOM     64  C   UNL A   1      45.279  30.899  31.783  1.00  0.00     0.029 A 
ATOM     65  C   UNL A   1      44.163  31.736  31.750  1.00  0.00     0.049 A 
ATOM     66  H   UNL A   1      44.065  33.442  30.508  1.00  0.00     0.167 HD
ATOM     67  C   UNL A   1      41.786  32.341  32.191  1.00  0.00     0.074 A 
ATOM     68  C   UNL A   1      41.392  33.006  30.949  1.00  0.00     0.031 C 
ATOM     69  C   UNL A   1      42.978  31.803  32.588  1.00  0.00     0.034 A 
BRANCH  56  70
ATOM     70  C   UNL A   1      44.575  32.943  27.485  1.00  0.00     0.023 A 
ATOM     71  C   UNL A   1      43.872  34.050  27.996  1.00  0.00     0.031 A 
ATOM     72  C   UNL A   1      44.888  33.002  26.107  1.00  0.00     0.131 A 
ATOM     73  C   UNL A   1      43.418  35.072  27.146  1.00  0.00     0.055 A 
ATOM     74  C   UNL A   1      44.495  34.056  25.279  1.00  0.00     0.041 A 
ATOM     75  F   UNL A   1      45.509  32.013  25.453  1.00  0.00    -0.206 F 
ATOM     76  C   UNL A   1      43.724  35.083  25.788  1.00  0.00     0.022 A 
BRANCH  73  77
ATOM     77  S   UNL A   1      42.254  36.285  27.815  1.00  0.00     0.124 S 
ATOM     78  O   UNL A   1      42.014  37.135  26.654  1.00  0.00    -0.237 OA
ATOM     79  O   UNL A   1      41.146  35.435  28.234  1.00  0.00    -0.237 OA
ATOM     80  O   UNL A   1      43.007  36.910  28.901  1.00  0.00    -0.744 OA
ENDBRANCH  73  77
ENDBRANCH  56  70
BRANCH  57  81
ATOM     81  C   UNL A   1      37.127  31.593  31.493  1.00  0.00     0.023 A 
ATOM     82  C   UNL A   1      36.363  32.267  32.469  1.00  0.00     0.031 A 
ATOM     83  C   UNL A   1      36.556  31.502  30.201  1.00  0.00     0.131 A 
ATOM     84  C   UNL A   1      35.090  32.797  32.138  1.00  0.00     0.055 A 
ATOM     85  C   UNL A   1      35.298  32.017  29.883  1.00  0.00     0.041 A 
ATOM     86  F   UNL A   1      37.239  30.973  29.173  1.00  0.00    -0.206 F 
ATOM     87  C   UNL A   1      34.560  32.675  30.851  1.00  0.00     0.022 A 
BRANCH  84  88
ATOM     88  S   UNL A   1      34.124  33.730  33.372  1.00  0.00     0.124 S 
ATOM     89  O   UNL A   1      34.961  33.632  34.561  1.00  0.00    -0.237 OA
ATOM     90  O   UNL A   1      34.020  35.047  32.756  1.00  0.00    -0.237 OA
ATOM     91  O   UNL A   1      32.862  32.992  33.448  1.00  0.00    -0.744 OA
ENDBRANCH  84  88
ENDBRANCH  57  81
BRANCH  69  92
ATOM     92  C   UNL A   1      43.036  31.032  33.893  1.00  0.00     0.023 A 
ATOM     93  C   UNL A   1      42.628  29.687  34.057  1.00  0.00     0.031 A 
ATOM     94  C   UNL A   1      43.697  31.650  34.969  1.00  0.00     0.131 A 
ATOM     95  C   UNL A   1      42.894  29.017  35.271  1.00  0.00     0.055 A 
ATOM     96  C   UNL A   1      43.976  30.977  36.156  1.00  0.00     0.041 A 
ATOM     97  F   UNL A   1      44.133  32.916  34.860  1.00  0.00    -0.206 F 
ATOM     98  C   UNL A   1      43.573  29.656  36.313  1.00  0.00     0.022 A 
BRANCH  95  99
ATOM     99  S   UNL A   1      42.365  27.289  35.518  1.00  0.00     0.124 S 
ATOM    100  O   UNL A   1      43.481  26.514  34.987  1.00  0.00    -0.237 OA
ATOM    101  O   UNL A   1      42.165  27.218  36.962  1.00  0.00    -0.237 OA
ATOM    102  O   UNL A   1      41.132  27.192  34.732  1.00  0.00    -0.744 OA
ENDBRANCH  95  99
ENDBRANCH  69  92
ENDBRANCH  43  44
ENDBRANCH  36  38
ENDBRANCH  35  36
ENDBRANCH  34  35
ENDBRANCH   1  34
TORSDOF 19
ENDMDL
