MODEL 1
REMARK VINA RESULT:     -12.3      0.000      0.000
REMARK SMILES Cc1cc(NC(=O)N2CCO[C@@H](CC(=O)OCCOC(=O)c3ccc(-c4c5nc(c(-c6cc(S(=O)(=O)[O-])ccc6F)c6ccc([nH]6)c(-c6cc(S(=O)(=O)[O-])ccc6F)c6nc(c(-c7cc(S(=O)(=O)[O-])ccc7F)c7ccc4[nH]7)C=C6)C=C5)cc3)C2)ccc1F
REMARK SMILES IDX 17 1 16 2 14 3 15 4 13 5 12 6 8 7 9 8 85 9 10 10 11 11 6 12
REMARK SMILES IDX 5 13 7 15 4 16 1 17 2 18 3 19 88 20 87 21 89 22 86 23 18 24
REMARK SMILES IDX 19 25 20 26 21 27 22 28 23 29 84 30 24 31 83 32 25 33 26 34
REMARK SMILES IDX 27 35 77 36 28 37 82 38 76 39 78 40 29 41 81 42 75 43 74 44
REMARK SMILES IDX 30 46 62 47 42 48 61 49 43 50 46 51 60 52 79 53 44 54 45 55
REMARK SMILES IDX 59 57 80 58 47 59 31 60 32 61 40 62 33 63 39 64 41 65 38 66
REMARK SMILES IDX 34 67 35 68 36 69 37 70 63 71 64 72 72 73 65 74 71 75 73 76
REMARK SMILES IDX 70 77 66 78 67 79 68 80 69 81 48 82 49 83 57 84 50 85 56 86
REMARK SMILES IDX 58 87 55 88 51 89 52 90 53 91 54 92
REMARK H PARENT 5 14 78 45 46 56
REMARK Flexibility Score: inf
ROOT
ATOM      1  C   UNL A   1      32.701  31.036  27.190  1.00  0.00     0.274 C 
ENDROOT
BRANCH   1   2
ATOM      2  O   UNL A   1      32.483  30.078  26.131  1.00  0.00    -0.462 OA
BRANCH   2   3
ATOM      3  C   UNL A   1      31.829  28.936  26.473  1.00  0.00     0.308 C 
ATOM      4  O   UNL A   1      31.770  28.509  27.623  1.00  0.00    -0.252 OA
BRANCH   3   5
ATOM      5  C   UNL A   1      31.323  28.141  25.290  1.00  0.00     0.156 C 
BRANCH   5   6
ATOM      6  C   UNL A   1      31.676  26.665  25.096  1.00  0.00     0.149 C 
ATOM      7  N   UNL A   1      31.148  24.238  25.599  1.00  0.00    -0.320 N 
ATOM      8  C   UNL A   1      30.936  24.039  24.162  1.00  0.00     0.150 C 
ATOM      9  C   UNL A   1      30.992  25.644  26.037  1.00  0.00     0.154 C 
ATOM     10  C   UNL A   1      31.748  25.048  23.357  1.00  0.00     0.182 C 
ATOM     11  O   UNL A   1      31.315  26.370  23.715  1.00  0.00    -0.374 OA
BRANCH   7  12
ATOM     12  C   UNL A   1      30.995  23.246  26.533  1.00  0.00     0.322 C 
ATOM     13  N   UNL A   1      31.711  22.091  26.485  1.00  0.00    -0.308 N 
ATOM     14  H   UNL A   1      31.219  21.317  26.844  1.00  0.00     0.171 HD
ATOM     15  O   UNL A   1      30.146  23.330  27.429  1.00  0.00    -0.248 OA
BRANCH  13  16
ATOM     16  C   UNL A   1      33.005  21.759  26.033  1.00  0.00     0.043 A 
ATOM     17  C   UNL A   1      36.434  23.458  26.011  1.00  0.00     0.047 C 
ATOM     18  C   UNL A   1      35.334  22.468  25.785  1.00  0.00    -0.013 A 
ATOM     19  C   UNL A   1      34.023  22.704  26.237  1.00  0.00     0.032 A 
ATOM     20  C   UNL A   1      35.609  21.269  25.124  1.00  0.00     0.126 A 
ATOM     21  C   UNL A   1      34.611  20.335  24.894  1.00  0.00     0.041 A 
ATOM     22  F   UNL A   1      36.856  21.016  24.701  1.00  0.00    -0.207 F 
ATOM     23  C   UNL A   1      33.313  20.591  25.339  1.00  0.00     0.029 A 
ENDBRANCH  13  16
ENDBRANCH   7  12
ENDBRANCH   5   6
ENDBRANCH   3   5
ENDBRANCH   2   3
ENDBRANCH   1   2
BRANCH   1  24
ATOM     24  C   UNL A   1      34.182  31.217  27.536  1.00  0.00     0.275 C 
BRANCH  24  25
ATOM     25  O   UNL A   1      34.729  30.142  28.319  1.00  0.00    -0.458 OA
BRANCH  25  26
ATOM     26  C   UNL A   1      35.620  29.392  27.630  1.00  0.00     0.338 C 
ATOM     27  O   UNL A   1      35.341  28.446  26.905  1.00  0.00    -0.246 OA
BRANCH  26  28
ATOM     28  C   UNL A   1      37.004  29.616  28.057  1.00  0.00     0.060 A 
ATOM     29  C   UNL A   1      37.946  29.858  27.047  1.00  0.00     0.016 A 
ATOM     30  C   UNL A   1      37.387  29.105  29.298  1.00  0.00     0.016 A 
ATOM     31  C   UNL A   1      39.242  29.379  27.194  1.00  0.00     0.010 A 
ATOM     32  C   UNL A   1      38.678  28.634  29.442  1.00  0.00     0.010 A 
ATOM     33  C   UNL A   1      39.571  28.688  28.359  1.00  0.00    -0.014 A 
BRANCH  33  34
ATOM     34  C   UNL A   1      40.781  27.883  28.480  1.00  0.00     0.031 A 
ATOM     35  C   UNL A   1      40.758  26.420  28.327  1.00  0.00     0.074 A 
ATOM     36  C   UNL A   1      41.951  28.483  28.791  1.00  0.00     0.049 A 
ATOM     37  N   UNL A   1      41.642  25.631  28.842  1.00  0.00    -0.248 NA
ATOM     38  C   UNL A   1      39.699  25.732  27.602  1.00  0.00     0.031 C 
ATOM     39  C   UNL A   1      43.295  27.938  28.656  1.00  0.00     0.029 A 
ATOM     40  N   UNL A   1      42.128  29.651  29.534  1.00  0.00    -0.354 N 
ATOM     41  C   UNL A   1      41.449  24.393  28.281  1.00  0.00     0.074 A 
ATOM     42  C   UNL A   1      40.173  24.481  27.597  1.00  0.00     0.031 C 
ATOM     43  C   UNL A   1      44.115  28.596  29.490  1.00  0.00     0.029 A 
ATOM     44  C   UNL A   1      43.293  29.471  30.306  1.00  0.00     0.049 A 
ATOM     45  H   UNL A   1      41.550  30.447  29.520  1.00  0.00     0.167 HD
ATOM     46  C   UNL A   1      42.458  23.477  28.303  1.00  0.00     0.034 A 
ATOM     47  C   UNL A   1      43.354  29.591  31.666  1.00  0.00     0.034 A 
ATOM     48  C   UNL A   1      43.628  23.946  29.051  1.00  0.00     0.049 A 
ATOM     49  C   UNL A   1      43.921  28.381  32.376  1.00  0.00     0.074 A 
ATOM     50  C   UNL A   1      44.829  24.528  28.675  1.00  0.00     0.029 A 
ATOM     51  N   UNL A   1      43.548  24.101  30.427  1.00  0.00    -0.354 N 
ATOM     52  N   UNL A   1      44.308  27.295  31.774  1.00  0.00    -0.248 NA
ATOM     53  C   UNL A   1      43.928  28.247  33.835  1.00  0.00     0.031 C 
ATOM     54  C   UNL A   1      45.482  25.014  29.838  1.00  0.00     0.029 A 
ATOM     55  C   UNL A   1      44.678  24.734  30.925  1.00  0.00     0.049 A 
ATOM     56  H   UNL A   1      42.788  23.801  30.977  1.00  0.00     0.167 HD
ATOM     57  C   UNL A   1      44.497  26.309  32.705  1.00  0.00     0.074 A 
ATOM     58  C   UNL A   1      44.261  26.955  33.981  1.00  0.00     0.031 C 
ATOM     59  C   UNL A   1      44.768  25.021  32.350  1.00  0.00     0.034 A 
BRANCH  46  60
ATOM     60  C   UNL A   1      42.465  22.295  27.358  1.00  0.00     0.023 A 
ATOM     61  C   UNL A   1      43.435  22.122  26.348  1.00  0.00     0.031 A 
ATOM     62  C   UNL A   1      41.548  21.235  27.509  1.00  0.00     0.131 A 
ATOM     63  C   UNL A   1      43.580  20.892  25.680  1.00  0.00     0.055 A 
ATOM     64  C   UNL A   1      41.640  20.043  26.782  1.00  0.00     0.041 A 
ATOM     65  F   UNL A   1      40.552  21.281  28.405  1.00  0.00    -0.206 F 
ATOM     66  C   UNL A   1      42.683  19.850  25.891  1.00  0.00     0.022 A 
BRANCH  63  67
ATOM     67  S   UNL A   1      45.032  20.560  24.640  1.00  0.00     0.124 S 
ATOM     68  O   UNL A   1      45.039  19.098  24.575  1.00  0.00    -0.237 OA
ATOM     69  O   UNL A   1      44.690  21.237  23.394  1.00  0.00    -0.237 OA
ATOM     70  O   UNL A   1      46.140  21.138  25.396  1.00  0.00    -0.744 OA
ENDBRANCH  63  67
ENDBRANCH  46  60
BRANCH  47  71
ATOM     71  C   UNL A   1      42.244  30.394  32.233  1.00  0.00     0.023 A 
ATOM     72  C   UNL A   1      41.113  29.722  32.719  1.00  0.00     0.031 A 
ATOM     73  C   UNL A   1      42.133  31.743  31.846  1.00  0.00     0.131 A 
ATOM     74  C   UNL A   1      39.871  30.344  32.634  1.00  0.00     0.055 A 
ATOM     75  C   UNL A   1      40.885  32.333  31.702  1.00  0.00     0.041 A 
ATOM     76  F   UNL A   1      43.212  32.427  31.431  1.00  0.00    -0.206 F 
ATOM     77  C   UNL A   1      39.751  31.602  32.044  1.00  0.00     0.022 A 
BRANCH  74  78
ATOM     78  S   UNL A   1      38.408  29.450  33.213  1.00  0.00     0.124 S 
ATOM     79  O   UNL A   1      38.793  28.074  32.904  1.00  0.00    -0.237 OA
ATOM     80  O   UNL A   1      38.350  29.775  34.635  1.00  0.00    -0.237 OA
ATOM     81  O   UNL A   1      37.341  30.019  32.407  1.00  0.00    -0.744 OA
ENDBRANCH  74  78
ENDBRANCH  47  71
BRANCH  59  82
ATOM     82  C   UNL A   1      45.118  23.919  33.316  1.00  0.00     0.023 A 
ATOM     83  C   UNL A   1      46.419  23.862  33.868  1.00  0.00     0.031 A 
ATOM     84  C   UNL A   1      44.182  23.008  33.840  1.00  0.00     0.131 A 
ATOM     85  C   UNL A   1      46.753  22.916  34.844  1.00  0.00     0.055 A 
ATOM     86  C   UNL A   1      44.531  22.029  34.777  1.00  0.00     0.041 A 
ATOM     87  F   UNL A   1      42.882  23.078  33.519  1.00  0.00    -0.206 F 
ATOM     88  C   UNL A   1      45.822  21.979  35.284  1.00  0.00     0.022 A 
BRANCH  85  89
ATOM     89  S   UNL A   1      48.376  22.940  35.653  1.00  0.00     0.124 S 
ATOM     90  O   UNL A   1      49.229  23.493  34.602  1.00  0.00    -0.237 OA
ATOM     91  O   UNL A   1      48.132  23.826  36.787  1.00  0.00    -0.237 OA
ATOM     92  O   UNL A   1      48.625  21.543  35.984  1.00  0.00    -0.744 OA
ENDBRANCH  85  89
ENDBRANCH  59  82
ENDBRANCH  33  34
ENDBRANCH  26  28
ENDBRANCH  25  26
ENDBRANCH  24  25
ENDBRANCH   1  24
TORSDOF 17
ENDMDL
MODEL 2
REMARK VINA RESULT:     -12.2      4.244     10.046
REMARK SMILES Cc1cc(NC(=O)N2CCO[C@@H](CC(=O)OCCOC(=O)c3ccc(-c4c5nc(c(-c6cc(S(=O)(=O)[O-])ccc6F)c6ccc([nH]6)c(-c6cc(S(=O)(=O)[O-])ccc6F)c6nc(c(-c7cc(S(=O)(=O)[O-])ccc7F)c7ccc4[nH]7)C=C6)C=C5)cc3)C2)ccc1F
REMARK SMILES IDX 17 1 16 2 14 3 15 4 13 5 12 6 8 7 9 8 85 9 10 10 11 11 6 12
REMARK SMILES IDX 5 13 7 15 4 16 1 17 2 18 3 19 88 20 87 21 89 22 86 23 18 24
REMARK SMILES IDX 19 25 20 26 21 27 22 28 23 29 84 30 24 31 83 32 25 33 26 34
REMARK SMILES IDX 27 35 77 36 28 37 82 38 76 39 78 40 29 41 81 42 75 43 74 44
REMARK SMILES IDX 30 46 62 47 42 48 61 49 43 50 46 51 60 52 79 53 44 54 45 55
REMARK SMILES IDX 59 57 80 58 47 59 31 60 32 61 40 62 33 63 39 64 41 65 38 66
REMARK SMILES IDX 34 67 35 68 36 69 37 70 63 71 64 72 72 73 65 74 71 75 73 76
REMARK SMILES IDX 70 77 66 78 67 79 68 80 69 81 48 82 49 83 57 84 50 85 56 86
REMARK SMILES IDX 58 87 55 88 51 89 52 90 53 91 54 92
REMARK H PARENT 5 14 78 45 46 56
REMARK Flexibility Score: inf
ROOT
ATOM      1  C   UNL A   1      38.193  21.150  25.709  1.00  0.00     0.274 C 
ENDROOT
BRANCH   1   2
ATOM      2  O   UNL A   1      37.599  22.458  25.550  1.00  0.00    -0.462 OA
BRANCH   2   3
ATOM      3  C   UNL A   1      36.266  22.488  25.285  1.00  0.00     0.308 C 
ATOM      4  O   UNL A   1      35.473  21.649  25.706  1.00  0.00    -0.252 OA
BRANCH   3   5
ATOM      5  C   UNL A   1      35.864  23.548  24.284  1.00  0.00     0.156 C 
BRANCH   5   6
ATOM      6  C   UNL A   1      34.400  23.922  24.045  1.00  0.00     0.149 C 
ATOM      7  N   UNL A   1      32.361  25.232  24.784  1.00  0.00    -0.320 N 
ATOM      8  C   UNL A   1      32.411  25.937  23.500  1.00  0.00     0.150 C 
ATOM      9  C   UNL A   1      33.657  24.644  25.193  1.00  0.00     0.154 C 
ATOM     10  C   UNL A   1      33.078  25.070  22.438  1.00  0.00     0.182 C 
ATOM     11  O   UNL A   1      34.417  24.777  22.865  1.00  0.00    -0.374 OA
BRANCH   7  12
ATOM     12  C   UNL A   1      31.429  25.490  25.756  1.00  0.00     0.322 C 
ATOM     13  N   UNL A   1      31.638  26.419  26.729  1.00  0.00    -0.308 N 
ATOM     14  H   UNL A   1      31.199  26.190  27.580  1.00  0.00     0.171 HD
ATOM     15  O   UNL A   1      30.380  24.841  25.833  1.00  0.00    -0.248 OA
BRANCH  13  16
ATOM     16  C   UNL A   1      32.347  27.636  26.783  1.00  0.00     0.043 A 
ATOM     17  C   UNL A   1      31.457  31.353  26.579  1.00  0.00     0.047 C 
ATOM     18  C   UNL A   1      32.237  30.078  26.680  1.00  0.00    -0.013 A 
ATOM     19  C   UNL A   1      31.604  28.823  26.671  1.00  0.00     0.032 A 
ATOM     20  C   UNL A   1      33.627  30.128  26.804  1.00  0.00     0.126 A 
ATOM     21  C   UNL A   1      34.378  28.967  26.893  1.00  0.00     0.041 A 
ATOM     22  F   UNL A   1      34.249  31.316  26.833  1.00  0.00    -0.207 F 
ATOM     23  C   UNL A   1      33.735  27.728  26.870  1.00  0.00     0.029 A 
ENDBRANCH  13  16
ENDBRANCH   7  12
ENDBRANCH   5   6
ENDBRANCH   3   5
ENDBRANCH   2   3
ENDBRANCH   1   2
BRANCH   1  24
ATOM     24  C   UNL A   1      39.693  21.208  26.012  1.00  0.00     0.275 C 
BRANCH  24  25
ATOM     25  O   UNL A   1      40.025  22.055  27.127  1.00  0.00    -0.458 OA
BRANCH  25  26
ATOM     26  C   UNL A   1      40.742  23.144  26.763  1.00  0.00     0.338 C 
ATOM     27  O   UNL A   1      41.947  23.160  26.547  1.00  0.00    -0.246 OA
BRANCH  26  28
ATOM     28  C   UNL A   1      40.001  24.396  26.936  1.00  0.00     0.060 A 
ATOM     29  C   UNL A   1      40.551  25.542  26.346  1.00  0.00     0.016 A 
ATOM     30  C   UNL A   1      39.133  24.487  28.026  1.00  0.00     0.016 A 
ATOM     31  C   UNL A   1      40.415  26.770  26.982  1.00  0.00     0.010 A 
ATOM     32  C   UNL A   1      38.997  25.711  28.653  1.00  0.00     0.010 A 
ATOM     33  C   UNL A   1      39.712  26.825  28.185  1.00  0.00    -0.014 A 
BRANCH  33  34
ATOM     34  C   UNL A   1      39.777  27.973  29.081  1.00  0.00     0.031 A 
ATOM     35  C   UNL A   1      38.955  29.175  28.863  1.00  0.00     0.074 A 
ATOM     36  C   UNL A   1      40.649  27.965  30.113  1.00  0.00     0.049 A 
ATOM     37  N   UNL A   1      39.265  30.346  29.311  1.00  0.00    -0.248 NA
ATOM     38  C   UNL A   1      37.728  29.144  28.082  1.00  0.00     0.031 C 
ATOM     39  C   UNL A   1      40.660  28.838  31.278  1.00  0.00     0.029 A 
ATOM     40  N   UNL A   1      41.869  27.290  30.179  1.00  0.00    -0.354 N 
ATOM     41  C   UNL A   1      38.160  31.144  29.144  1.00  0.00     0.074 A 
ATOM     42  C   UNL A   1      37.270  30.383  28.289  1.00  0.00     0.031 C 
ATOM     43  C   UNL A   1      41.897  28.856  31.795  1.00  0.00     0.029 A 
ATOM     44  C   UNL A   1      42.760  28.125  30.884  1.00  0.00     0.049 A 
ATOM     45  H   UNL A   1      42.069  26.402  29.807  1.00  0.00     0.167 HD
ATOM     46  C   UNL A   1      38.033  32.284  29.880  1.00  0.00     0.034 A 
ATOM     47  C   UNL A   1      43.970  28.548  30.413  1.00  0.00     0.034 A 
ATOM     48  C   UNL A   1      39.209  32.551  30.713  1.00  0.00     0.049 A 
ATOM     49  C   UNL A   1      44.156  30.050  30.422  1.00  0.00     0.074 A 
ATOM     50  C   UNL A   1      39.507  32.312  32.045  1.00  0.00     0.029 A 
ATOM     51  N   UNL A   1      40.410  32.901  30.115  1.00  0.00    -0.354 N 
ATOM     52  N   UNL A   1      43.252  30.895  30.821  1.00  0.00    -0.248 NA
ATOM     53  C   UNL A   1      45.315  30.711  29.819  1.00  0.00     0.031 C 
ATOM     54  C   UNL A   1      40.892  32.544  32.251  1.00  0.00     0.029 A 
ATOM     55  C   UNL A   1      41.444  32.920  31.041  1.00  0.00     0.049 A 
ATOM     56  H   UNL A   1      40.516  33.110  29.158  1.00  0.00     0.167 HD
ATOM     57  C   UNL A   1      43.621  32.159  30.441  1.00  0.00     0.074 A 
ATOM     58  C   UNL A   1      44.926  31.995  29.831  1.00  0.00     0.031 C 
ATOM     59  C   UNL A   1      42.796  33.232  30.600  1.00  0.00     0.034 A 
BRANCH  46  60
ATOM     60  C   UNL A   1      36.690  32.957  30.057  1.00  0.00     0.023 A 
ATOM     61  C   UNL A   1      36.048  33.080  31.308  1.00  0.00     0.031 A 
ATOM     62  C   UNL A   1      36.048  33.600  28.978  1.00  0.00     0.131 A 
ATOM     63  C   UNL A   1      34.953  33.945  31.483  1.00  0.00     0.055 A 
ATOM     64  C   UNL A   1      34.905  34.391  29.139  1.00  0.00     0.041 A 
ATOM     65  F   UNL A   1      36.526  33.535  27.728  1.00  0.00    -0.206 F 
ATOM     66  C   UNL A   1      34.375  34.601  30.401  1.00  0.00     0.022 A 
BRANCH  63  67
ATOM     67  S   UNL A   1      34.351  34.365  33.146  1.00  0.00     0.124 S 
ATOM     68  O   UNL A   1      35.102  35.584  33.448  1.00  0.00    -0.237 OA
ATOM     69  O   UNL A   1      32.922  34.552  32.926  1.00  0.00    -0.237 OA
ATOM     70  O   UNL A   1      34.724  33.206  33.953  1.00  0.00    -0.744 OA
ENDBRANCH  63  67
ENDBRANCH  46  60
BRANCH  47  71
ATOM     71  C   UNL A   1      44.509  27.690  29.330  1.00  0.00     0.023 A 
ATOM     72  C   UNL A   1      44.272  28.066  27.999  1.00  0.00     0.031 A 
ATOM     73  C   UNL A   1      44.796  26.344  29.627  1.00  0.00     0.131 A 
ATOM     74  C   UNL A   1      44.144  27.075  27.031  1.00  0.00     0.055 A 
ATOM     75  C   UNL A   1      44.602  25.356  28.671  1.00  0.00     0.041 A 
ATOM     76  F   UNL A   1      45.082  25.967  30.883  1.00  0.00    -0.206 F 
ATOM     77  C   UNL A   1      44.217  25.728  27.387  1.00  0.00     0.022 A 
BRANCH  74  78
ATOM     78  S   UNL A   1      43.785  27.564  25.326  1.00  0.00     0.124 S 
ATOM     79  O   UNL A   1      42.902  28.707  25.554  1.00  0.00    -0.237 OA
ATOM     80  O   UNL A   1      45.100  27.892  24.781  1.00  0.00    -0.237 OA
ATOM     81  O   UNL A   1      43.168  26.372  24.770  1.00  0.00    -0.744 OA
ENDBRANCH  74  78
ENDBRANCH  47  71
BRANCH  59  82
ATOM     82  C   UNL A   1      43.185  34.662  30.331  1.00  0.00     0.023 A 
ATOM     83  C   UNL A   1      43.072  35.181  29.022  1.00  0.00     0.031 A 
ATOM     84  C   UNL A   1      43.518  35.587  31.339  1.00  0.00     0.131 A 
ATOM     85  C   UNL A   1      43.326  36.531  28.750  1.00  0.00     0.055 A 
ATOM     86  C   UNL A   1      43.823  36.924  31.059  1.00  0.00     0.041 A 
ATOM     87  F   UNL A   1      43.489  35.250  32.637  1.00  0.00    -0.206 F 
ATOM     88  C   UNL A   1      43.729  37.402  29.760  1.00  0.00     0.022 A 
BRANCH  85  89
ATOM     89  S   UNL A   1      43.040  37.224  27.100  1.00  0.00     0.124 S 
ATOM     90  O   UNL A   1      44.156  38.159  26.967  1.00  0.00    -0.237 OA
ATOM     91  O   UNL A   1      43.121  36.034  26.258  1.00  0.00    -0.237 OA
ATOM     92  O   UNL A   1      41.722  37.840  27.200  1.00  0.00    -0.744 OA
ENDBRANCH  85  89
ENDBRANCH  59  82
ENDBRANCH  33  34
ENDBRANCH  26  28
ENDBRANCH  25  26
ENDBRANCH  24  25
ENDBRANCH   1  24
TORSDOF 17
ENDMDL
MODEL 3
REMARK VINA RESULT:     -12.2      1.573      2.129
REMARK SMILES Cc1cc(NC(=O)N2CCO[C@@H](CC(=O)OCCOC(=O)c3ccc(-c4c5nc(c(-c6cc(S(=O)(=O)[O-])ccc6F)c6ccc([nH]6)c(-c6cc(S(=O)(=O)[O-])ccc6F)c6nc(c(-c7cc(S(=O)(=O)[O-])ccc7F)c7ccc4[nH]7)C=C6)C=C5)cc3)C2)ccc1F
REMARK SMILES IDX 17 1 16 2 14 3 15 4 13 5 12 6 8 7 9 8 85 9 10 10 11 11 6 12
REMARK SMILES IDX 5 13 7 15 4 16 1 17 2 18 3 19 88 20 87 21 89 22 86 23 18 24
REMARK SMILES IDX 19 25 20 26 21 27 22 28 23 29 84 30 24 31 83 32 25 33 26 34
REMARK SMILES IDX 27 35 77 36 28 37 82 38 76 39 78 40 29 41 81 42 75 43 74 44
REMARK SMILES IDX 30 46 62 47 42 48 61 49 43 50 46 51 60 52 79 53 44 54 45 55
REMARK SMILES IDX 59 57 80 58 47 59 31 60 32 61 40 62 33 63 39 64 41 65 38 66
REMARK SMILES IDX 34 67 35 68 36 69 37 70 63 71 64 72 72 73 65 74 71 75 73 76
REMARK SMILES IDX 70 77 66 78 67 79 68 80 69 81 48 82 49 83 57 84 50 85 56 86
REMARK SMILES IDX 58 87 55 88 51 89 52 90 53 91 54 92
REMARK H PARENT 5 14 78 45 46 56
REMARK Flexibility Score: inf
ROOT
ATOM      1  C   UNL A   1      32.543  31.184  26.832  1.00  0.00     0.274 C 
ENDROOT
BRANCH   1   2
ATOM      2  O   UNL A   1      32.425  29.744  26.796  1.00  0.00    -0.462 OA
BRANCH   2   3
ATOM      3  C   UNL A   1      33.157  29.101  25.848  1.00  0.00     0.308 C 
ATOM      4  O   UNL A   1      33.290  29.516  24.699  1.00  0.00    -0.252 OA
BRANCH   3   5
ATOM      5  C   UNL A   1      33.654  27.739  26.276  1.00  0.00     0.156 C 
BRANCH   5   6
ATOM      6  C   UNL A   1      33.120  26.448  25.653  1.00  0.00     0.149 C 
ATOM      7  N   UNL A   1      31.463  24.533  25.746  1.00  0.00    -0.320 N 
ATOM      8  C   UNL A   1      30.942  24.988  24.454  1.00  0.00     0.150 C 
ATOM      9  C   UNL A   1      32.163  25.590  26.513  1.00  0.00     0.154 C 
ATOM     10  C   UNL A   1      32.022  25.730  23.672  1.00  0.00     0.182 C 
ATOM     11  O   UNL A   1      32.434  26.872  24.439  1.00  0.00    -0.374 OA
BRANCH   7  12
ATOM     12  C   UNL A   1      30.959  23.459  26.432  1.00  0.00     0.322 C 
ATOM     13  N   UNL A   1      31.406  22.192  26.221  1.00  0.00    -0.308 N 
ATOM     14  H   UNL A   1      30.709  21.509  26.357  1.00  0.00     0.171 HD
ATOM     15  O   UNL A   1      30.023  23.585  27.231  1.00  0.00    -0.248 OA
BRANCH  13  16
ATOM     16  C   UNL A   1      32.650  21.642  25.849  1.00  0.00     0.043 A 
ATOM     17  C   UNL A   1      33.848  18.391  24.223  1.00  0.00     0.047 C 
ATOM     18  C   UNL A   1      33.841  19.737  24.880  1.00  0.00    -0.013 A 
ATOM     19  C   UNL A   1      32.643  20.373  25.249  1.00  0.00     0.032 A 
ATOM     20  C   UNL A   1      35.050  20.393  25.121  1.00  0.00     0.126 A 
ATOM     21  C   UNL A   1      35.078  21.637  25.733  1.00  0.00     0.041 A 
ATOM     22  F   UNL A   1      36.204  19.813  24.761  1.00  0.00    -0.207 F 
ATOM     23  C   UNL A   1      33.879  22.248  26.104  1.00  0.00     0.029 A 
ENDBRANCH  13  16
ENDBRANCH   7  12
ENDBRANCH   5   6
ENDBRANCH   3   5
ENDBRANCH   2   3
ENDBRANCH   1   2
BRANCH   1  24
ATOM     24  C   UNL A   1      33.395  31.684  28.003  1.00  0.00     0.275 C 
BRANCH  24  25
ATOM     25  O   UNL A   1      34.769  31.930  27.655  1.00  0.00    -0.458 OA
BRANCH  25  26
ATOM     26  C   UNL A   1      35.626  31.625  28.656  1.00  0.00     0.338 C 
ATOM     27  O   UNL A   1      36.042  32.411  29.498  1.00  0.00    -0.246 OA
BRANCH  26  28
ATOM     28  C   UNL A   1      36.267  30.319  28.480  1.00  0.00     0.060 A 
ATOM     29  C   UNL A   1      36.658  29.644  29.644  1.00  0.00     0.016 A 
ATOM     30  C   UNL A   1      36.881  30.062  27.252  1.00  0.00     0.016 A 
ATOM     31  C   UNL A   1      37.814  28.874  29.632  1.00  0.00     0.010 A 
ATOM     32  C   UNL A   1      38.028  29.292  27.243  1.00  0.00     0.010 A 
ATOM     33  C   UNL A   1      38.541  28.780  28.446  1.00  0.00    -0.014 A 
BRANCH  33  34
ATOM     34  C   UNL A   1      39.907  28.273  28.401  1.00  0.00     0.031 A 
ATOM     35  C   UNL A   1      40.198  26.833  28.328  1.00  0.00     0.074 A 
ATOM     36  C   UNL A   1      40.943  29.139  28.478  1.00  0.00     0.049 A 
ATOM     37  N   UNL A   1      41.309  26.305  28.725  1.00  0.00    -0.248 NA
ATOM     38  C   UNL A   1      39.228  25.870  27.830  1.00  0.00     0.031 C 
ATOM     39  C   UNL A   1      42.338  28.891  28.145  1.00  0.00     0.029 A 
ATOM     40  N   UNL A   1      40.958  30.378  29.120  1.00  0.00    -0.354 N 
ATOM     41  C   UNL A   1      41.322  25.010  28.268  1.00  0.00     0.074 A 
ATOM     42  C   UNL A   1      39.970  24.757  27.808  1.00  0.00     0.031 C 
ATOM     43  C   UNL A   1      43.103  29.782  28.793  1.00  0.00     0.029 A 
ATOM     44  C   UNL A   1      42.239  30.526  29.692  1.00  0.00     0.049 A 
ATOM     45  H   UNL A   1      40.218  31.025  29.164  1.00  0.00     0.167 HD
ATOM     46  C   UNL A   1      42.505  24.342  28.165  1.00  0.00     0.034 A 
ATOM     47  C   UNL A   1      42.479  30.774  31.013  1.00  0.00     0.034 A 
ATOM     48  C   UNL A   1      43.637  25.118  28.679  1.00  0.00     0.049 A 
ATOM     49  C   UNL A   1      43.410  29.785  31.678  1.00  0.00     0.074 A 
ATOM     50  C   UNL A   1      44.599  25.914  28.076  1.00  0.00     0.029 A 
ATOM     51  N   UNL A   1      43.736  25.372  30.039  1.00  0.00    -0.354 N 
ATOM     52  N   UNL A   1      43.939  28.761  31.074  1.00  0.00    -0.248 NA
ATOM     53  C   UNL A   1      43.673  29.784  33.118  1.00  0.00     0.031 C 
ATOM     54  C   UNL A   1      45.294  26.630  29.085  1.00  0.00     0.029 A 
ATOM     55  C   UNL A   1      44.753  26.278  30.306  1.00  0.00     0.049 A 
ATOM     56  H   UNL A   1      43.159  24.963  30.725  1.00  0.00     0.167 HD
ATOM     57  C   UNL A   1      44.491  27.925  32.009  1.00  0.00     0.074 A 
ATOM     58  C   UNL A   1      44.312  28.613  33.272  1.00  0.00     0.031 C 
ATOM     59  C   UNL A   1      44.993  26.702  31.678  1.00  0.00     0.034 A 
BRANCH  46  60
ATOM     60  C   UNL A   1      42.637  23.112  27.294  1.00  0.00     0.023 A 
ATOM     61  C   UNL A   1      43.475  23.058  26.160  1.00  0.00     0.031 A 
ATOM     62  C   UNL A   1      42.001  21.901  27.638  1.00  0.00     0.131 A 
ATOM     63  C   UNL A   1      43.789  21.833  25.544  1.00  0.00     0.055 A 
ATOM     64  C   UNL A   1      42.248  20.697  26.969  1.00  0.00     0.041 A 
ATOM     65  F   UNL A   1      41.150  21.817  28.671  1.00  0.00    -0.206 F 
ATOM     66  C   UNL A   1      43.176  20.649  25.942  1.00  0.00     0.022 A 
BRANCH  63  67
ATOM     67  S   UNL A   1      45.124  21.721  24.315  1.00  0.00     0.124 S 
ATOM     68  O   UNL A   1      44.641  20.661  23.429  1.00  0.00    -0.237 OA
ATOM     69  O   UNL A   1      45.133  23.060  23.736  1.00  0.00    -0.237 OA
ATOM     70  O   UNL A   1      46.297  21.362  25.107  1.00  0.00    -0.744 OA
ENDBRANCH  63  67
ENDBRANCH  46  60
BRANCH  47  71
ATOM     71  C   UNL A   1      41.315  31.363  31.719  1.00  0.00     0.023 A 
ATOM     72  C   UNL A   1      40.455  30.505  32.421  1.00  0.00     0.031 A 
ATOM     73  C   UNL A   1      40.839  32.617  31.290  1.00  0.00     0.131 A 
ATOM     74  C   UNL A   1      39.106  30.831  32.517  1.00  0.00     0.055 A 
ATOM     75  C   UNL A   1      39.483  32.906  31.330  1.00  0.00     0.041 A 
ATOM     76  F   UNL A   1      41.656  33.480  30.665  1.00  0.00    -0.206 F 
ATOM     77  C   UNL A   1      38.612  31.977  31.894  1.00  0.00     0.022 A 
BRANCH  74  78
ATOM     78  S   UNL A   1      37.994  29.693  33.378  1.00  0.00     0.124 S 
ATOM     79  O   UNL A   1      38.580  28.408  33.004  1.00  0.00    -0.237 OA
ATOM     80  O   UNL A   1      38.147  30.063  34.783  1.00  0.00    -0.237 OA
ATOM     81  O   UNL A   1      36.698  30.006  32.797  1.00  0.00    -0.744 OA
ENDBRANCH  74  78
ENDBRANCH  47  71
BRANCH  59  82
ATOM     82  C   UNL A   1      45.731  25.792  32.625  1.00  0.00     0.023 A 
ATOM     83  C   UNL A   1      45.006  24.868  33.412  1.00  0.00     0.031 A 
ATOM     84  C   UNL A   1      47.134  25.684  32.677  1.00  0.00     0.131 A 
ATOM     85  C   UNL A   1      45.661  23.937  34.228  1.00  0.00     0.055 A 
ATOM     86  C   UNL A   1      47.787  24.789  33.532  1.00  0.00     0.041 A 
ATOM     87  F   UNL A   1      47.921  26.389  31.851  1.00  0.00    -0.206 F 
ATOM     88  C   UNL A   1      47.051  23.910  34.314  1.00  0.00     0.022 A 
BRANCH  85  89
ATOM     89  S   UNL A   1      44.734  22.661  35.122  1.00  0.00     0.124 S 
ATOM     90  O   UNL A   1      45.063  22.968  36.513  1.00  0.00    -0.237 OA
ATOM     91  O   UNL A   1      43.360  22.958  34.727  1.00  0.00    -0.237 OA
ATOM     92  O   UNL A   1      45.281  21.408  34.616  1.00  0.00    -0.744 OA
ENDBRANCH  85  89
ENDBRANCH  59  82
ENDBRANCH  33  34
ENDBRANCH  26  28
ENDBRANCH  25  26
ENDBRANCH  24  25
ENDBRANCH   1  24
TORSDOF 17
ENDMDL
