MODEL 1
REMARK VINA RESULT:     -12.7      0.000      0.000
REMARK SMILES Cc1ccc2c(=O)c3cccc(CC(=O)OCCOC(=O)c4ccc(-c5c6nc(c(-c7cc(S(=O)(=O)[O-])ccc7F)c7ccc([nH]7)c(-c7cc(S(=O)(=O)[O-])ccc7F)c7nc(c(-c8cc(S(=O)(=O)[O-])ccc8F)c8ccc5[nH]8)C=C7)C=C6)cc4)c3oc2c1C
REMARK SMILES IDX 18 1 17 2 16 3 14 4 15 5 13 6 12 7 1 8 2 9 3 10 88 11 4 12
REMARK SMILES IDX 87 13 89 14 5 15 86 16 6 17 85 18 7 19 8 20 9 21 11 22 10 23
REMARK SMILES IDX 19 24 20 25 21 26 22 27 23 28 84 29 24 30 83 31 25 32 26 33
REMARK SMILES IDX 27 34 77 35 28 36 82 37 76 38 78 39 29 40 81 41 75 42 74 43
REMARK SMILES IDX 30 45 62 46 42 47 61 48 43 49 46 50 60 51 79 52 44 53 45 54
REMARK SMILES IDX 59 56 80 57 47 58 31 59 32 60 40 61 33 62 39 63 41 64 38 65
REMARK SMILES IDX 34 66 35 67 36 68 37 69 63 70 64 71 72 72 65 73 71 74 73 75
REMARK SMILES IDX 70 76 66 77 67 78 68 79 69 80 48 81 49 82 57 83 50 84 56 85
REMARK SMILES IDX 58 86 55 87 51 88 52 89 53 90 54 91
REMARK H PARENT 78 44 46 55
REMARK Flexibility Score: inf
ROOT
ATOM      1  C   UNL A   1      31.782  30.682  26.123  1.00  0.00     0.275 C 
ENDROOT
BRANCH   1   2
ATOM      2  C   UNL A   1      32.125  29.706  24.991  1.00  0.00     0.274 C 
BRANCH   2   3
ATOM      3  O   UNL A   1      33.482  29.222  25.084  1.00  0.00    -0.462 OA
BRANCH   3   4
ATOM      4  C   UNL A   1      33.666  27.912  24.776  1.00  0.00     0.310 C 
ATOM      5  O   UNL A   1      33.938  27.503  23.650  1.00  0.00    -0.252 OA
BRANCH   4   6
ATOM      6  C   UNL A   1      33.618  26.974  25.961  1.00  0.00     0.162 C 
BRANCH   6   7
ATOM      7  C   UNL A   1      32.575  25.885  25.965  1.00  0.00     0.007 A 
ATOM      8  C   UNL A   1      37.805  20.870  24.941  1.00  0.00     0.045 C 
ATOM      9  C   UNL A   1      36.345  21.241  25.011  1.00  0.00    -0.044 A 
ATOM     10  C   UNL A   1      35.382  20.224  25.003  1.00  0.00     0.005 A 
ATOM     11  C   UNL A   1      35.927  22.593  25.061  1.00  0.00    -0.005 A 
ATOM     12  C   UNL A   1      34.027  20.535  25.086  1.00  0.00     0.016 A 
ATOM     13  C   UNL A   1      34.561  22.901  25.225  1.00  0.00     0.141 A 
ATOM     14  C   UNL A   1      36.960  23.675  24.947  1.00  0.00     0.049 C 
ATOM     15  C   UNL A   1      33.627  21.868  25.216  1.00  0.00     0.066 A 
ATOM     16  O   UNL A   1      34.205  24.225  25.396  1.00  0.00    -0.455 OA
ATOM     17  C   UNL A   1      32.204  22.196  25.352  1.00  0.00     0.200 A 
ATOM     18  C   UNL A   1      32.891  24.543  25.668  1.00  0.00     0.142 A 
ATOM     19  O   UNL A   1      31.333  21.337  25.273  1.00  0.00    -0.288 OA
ATOM     20  C   UNL A   1      31.867  23.599  25.621  1.00  0.00     0.066 A 
ATOM     21  C   UNL A   1      30.535  23.967  25.838  1.00  0.00     0.016 A 
ATOM     22  C   UNL A   1      31.235  26.242  26.205  1.00  0.00     0.008 A 
ATOM     23  C   UNL A   1      30.220  25.291  26.131  1.00  0.00     0.001 A 
ENDBRANCH   6   7
ENDBRANCH   4   6
ENDBRANCH   3   4
ENDBRANCH   2   3
ENDBRANCH   1   2
BRANCH   1  24
ATOM     24  O   UNL A   1      32.649  30.521  27.264  1.00  0.00    -0.458 OA
BRANCH  24  25
ATOM     25  C   UNL A   1      33.475  31.570  27.457  1.00  0.00     0.338 C 
ATOM     26  O   UNL A   1      33.165  32.754  27.392  1.00  0.00    -0.246 OA
BRANCH  25  27
ATOM     27  C   UNL A   1      34.834  31.152  27.819  1.00  0.00     0.060 A 
ATOM     28  C   UNL A   1      35.830  32.114  27.996  1.00  0.00     0.016 A 
ATOM     29  C   UNL A   1      35.036  29.839  28.253  1.00  0.00     0.016 A 
ATOM     30  C   UNL A   1      37.029  31.755  28.624  1.00  0.00     0.010 A 
ATOM     31  C   UNL A   1      36.202  29.499  28.932  1.00  0.00     0.010 A 
ATOM     32  C   UNL A   1      37.213  30.451  29.110  1.00  0.00    -0.014 A 
BRANCH  32  33
ATOM     33  C   UNL A   1      38.494  30.047  29.734  1.00  0.00     0.031 A 
ATOM     34  C   UNL A   1      38.855  30.619  31.070  1.00  0.00     0.074 A 
ATOM     35  C   UNL A   1      39.337  29.204  29.106  1.00  0.00     0.049 A 
ATOM     36  N   UNL A   1      39.821  30.270  31.877  1.00  0.00    -0.248 NA
ATOM     37  C   UNL A   1      38.026  31.732  31.564  1.00  0.00     0.031 C 
ATOM     38  C   UNL A   1      39.137  28.655  27.768  1.00  0.00     0.029 A 
ATOM     39  N   UNL A   1      40.537  28.671  29.507  1.00  0.00    -0.354 N 
ATOM     40  C   UNL A   1      39.677  31.078  32.996  1.00  0.00     0.074 A 
ATOM     41  C   UNL A   1      38.601  32.002  32.725  1.00  0.00     0.031 C 
ATOM     42  C   UNL A   1      40.173  27.859  27.456  1.00  0.00     0.029 A 
ATOM     43  C   UNL A   1      41.105  27.824  28.582  1.00  0.00     0.049 A 
ATOM     44  H   UNL A   1      40.954  28.875  30.376  1.00  0.00     0.167 HD
ATOM     45  C   UNL A   1      40.351  31.018  34.166  1.00  0.00     0.034 A 
ATOM     46  C   UNL A   1      42.228  27.080  28.651  1.00  0.00     0.034 A 
ATOM     47  C   UNL A   1      41.453  30.127  34.402  1.00  0.00     0.049 A 
ATOM     48  C   UNL A   1      43.003  27.062  29.949  1.00  0.00     0.074 A 
ATOM     49  C   UNL A   1      42.185  29.956  35.560  1.00  0.00     0.029 A 
ATOM     50  N   UNL A   1      41.993  29.275  33.450  1.00  0.00    -0.354 N 
ATOM     51  N   UNL A   1      42.743  27.688  31.073  1.00  0.00    -0.248 NA
ATOM     52  C   UNL A   1      44.202  26.213  30.003  1.00  0.00     0.031 C 
ATOM     53  C   UNL A   1      43.201  29.036  35.294  1.00  0.00     0.029 A 
ATOM     54  C   UNL A   1      43.072  28.595  33.984  1.00  0.00     0.049 A 
ATOM     55  H   UNL A   1      41.658  29.170  32.530  1.00  0.00     0.167 HD
ATOM     56  C   UNL A   1      43.718  27.277  31.979  1.00  0.00     0.074 A 
ATOM     57  C   UNL A   1      44.569  26.341  31.273  1.00  0.00     0.031 C 
ATOM     58  C   UNL A   1      43.890  27.640  33.275  1.00  0.00     0.034 A 
BRANCH  45  59
ATOM     59  C   UNL A   1      39.882  31.907  35.284  1.00  0.00     0.023 A 
ATOM     60  C   UNL A   1      38.987  31.432  36.256  1.00  0.00     0.031 A 
ATOM     61  C   UNL A   1      40.295  33.252  35.348  1.00  0.00     0.131 A 
ATOM     62  C   UNL A   1      38.531  32.302  37.255  1.00  0.00     0.055 A 
ATOM     63  C   UNL A   1      39.858  34.105  36.361  1.00  0.00     0.041 A 
ATOM     64  F   UNL A   1      41.157  33.744  34.444  1.00  0.00    -0.206 F 
ATOM     65  C   UNL A   1      38.967  33.631  37.317  1.00  0.00     0.022 A 
BRANCH  62  66
ATOM     66  S   UNL A   1      37.345  31.750  38.509  1.00  0.00     0.124 S 
ATOM     67  O   UNL A   1      38.116  31.905  39.741  1.00  0.00    -0.237 OA
ATOM     68  O   UNL A   1      36.252  32.703  38.333  1.00  0.00    -0.237 OA
ATOM     69  O   UNL A   1      37.050  30.372  38.131  1.00  0.00    -0.744 OA
ENDBRANCH  62  66
ENDBRANCH  45  59
BRANCH  46  70
ATOM     70  C   UNL A   1      42.608  26.205  27.504  1.00  0.00     0.023 A 
ATOM     71  C   UNL A   1      42.147  24.879  27.405  1.00  0.00     0.031 A 
ATOM     72  C   UNL A   1      43.498  26.669  26.519  1.00  0.00     0.131 A 
ATOM     73  C   UNL A   1      42.600  24.060  26.361  1.00  0.00     0.055 A 
ATOM     74  C   UNL A   1      43.909  25.864  25.454  1.00  0.00     0.041 A 
ATOM     75  F   UNL A   1      43.978  27.921  26.579  1.00  0.00    -0.206 F 
ATOM     76  C   UNL A   1      43.467  24.548  25.377  1.00  0.00     0.022 A 
BRANCH  73  77
ATOM     77  S   UNL A   1      42.152  22.302  26.284  1.00  0.00     0.124 S 
ATOM     78  O   UNL A   1      40.700  22.365  26.155  1.00  0.00    -0.237 OA
ATOM     79  O   UNL A   1      42.872  21.862  25.091  1.00  0.00    -0.237 OA
ATOM     80  O   UNL A   1      42.653  21.766  27.545  1.00  0.00    -0.744 OA
ENDBRANCH  73  77
ENDBRANCH  46  70
BRANCH  58  81
ATOM     81  C   UNL A   1      45.026  27.026  34.054  1.00  0.00     0.023 A 
ATOM     82  C   UNL A   1      44.795  25.880  34.838  1.00  0.00     0.031 A 
ATOM     83  C   UNL A   1      46.267  27.673  34.165  1.00  0.00     0.131 A 
ATOM     84  C   UNL A   1      45.774  25.445  35.739  1.00  0.00     0.055 A 
ATOM     85  C   UNL A   1      47.258  27.210  35.032  1.00  0.00     0.041 A 
ATOM     86  F   UNL A   1      46.527  28.776  33.446  1.00  0.00    -0.206 F 
ATOM     87  C   UNL A   1      47.006  26.100  35.836  1.00  0.00     0.022 A 
BRANCH  84  88
ATOM     88  S   UNL A   1      45.446  24.082  36.891  1.00  0.00     0.124 S 
ATOM     89  O   UNL A   1      44.952  23.041  35.992  1.00  0.00    -0.237 OA
ATOM     90  O   UNL A   1      46.766  23.839  37.463  1.00  0.00    -0.237 OA
ATOM     91  O   UNL A   1      44.455  24.629  37.812  1.00  0.00    -0.744 OA
ENDBRANCH  84  88
ENDBRANCH  58  81
ENDBRANCH  32  33
ENDBRANCH  25  27
ENDBRANCH  24  25
ENDBRANCH   1  24
TORSDOF 15
ENDMDL
MODEL 2
REMARK VINA RESULT:     -12.5      4.835     10.129
REMARK SMILES Cc1ccc2c(=O)c3cccc(CC(=O)OCCOC(=O)c4ccc(-c5c6nc(c(-c7cc(S(=O)(=O)[O-])ccc7F)c7ccc([nH]7)c(-c7cc(S(=O)(=O)[O-])ccc7F)c7nc(c(-c8cc(S(=O)(=O)[O-])ccc8F)c8ccc5[nH]8)C=C7)C=C6)cc4)c3oc2c1C
REMARK SMILES IDX 18 1 17 2 16 3 14 4 15 5 13 6 12 7 1 8 2 9 3 10 88 11 4 12
REMARK SMILES IDX 87 13 89 14 5 15 86 16 6 17 85 18 7 19 8 20 9 21 11 22 10 23
REMARK SMILES IDX 19 24 20 25 21 26 22 27 23 28 84 29 24 30 83 31 25 32 26 33
REMARK SMILES IDX 27 34 77 35 28 36 82 37 76 38 78 39 29 40 81 41 75 42 74 43
REMARK SMILES IDX 30 45 62 46 42 47 61 48 43 49 46 50 60 51 79 52 44 53 45 54
REMARK SMILES IDX 59 56 80 57 47 58 31 59 32 60 40 61 33 62 39 63 41 64 38 65
REMARK SMILES IDX 34 66 35 67 36 68 37 69 63 70 64 71 72 72 65 73 71 74 73 75
REMARK SMILES IDX 70 76 66 77 67 78 68 79 69 80 48 81 49 82 57 83 50 84 56 85
REMARK SMILES IDX 58 86 55 87 51 88 52 89 53 90 54 91
REMARK H PARENT 78 44 46 55
REMARK Flexibility Score: inf
ROOT
ATOM      1  C   UNL A   1      37.995  20.701  25.068  1.00  0.00     0.275 C 
ENDROOT
BRANCH   1   2
ATOM      2  C   UNL A   1      36.919  21.196  24.095  1.00  0.00     0.274 C 
BRANCH   2   3
ATOM      3  O   UNL A   1      37.145  22.562  23.684  1.00  0.00    -0.462 OA
BRANCH   3   4
ATOM      4  C   UNL A   1      36.081  23.398  23.793  1.00  0.00     0.310 C 
ATOM      5  O   UNL A   1      35.295  23.633  22.879  1.00  0.00    -0.252 OA
BRANCH   4   6
ATOM      6  C   UNL A   1      35.859  23.956  25.181  1.00  0.00     0.162 C 
BRANCH   6   7
ATOM      7  C   UNL A   1      34.658  23.478  25.957  1.00  0.00     0.007 A 
ATOM      8  C   UNL A   1      30.434  28.250  22.360  1.00  0.00     0.045 C 
ATOM      9  C   UNL A   1      30.618  27.243  23.467  1.00  0.00    -0.044 A 
ATOM     10  C   UNL A   1      29.499  26.813  24.191  1.00  0.00     0.005 A 
ATOM     11  C   UNL A   1      31.898  26.741  23.804  1.00  0.00    -0.005 A 
ATOM     12  C   UNL A   1      29.635  25.869  25.205  1.00  0.00     0.016 A 
ATOM     13  C   UNL A   1      32.022  25.727  24.777  1.00  0.00     0.141 A 
ATOM     14  C   UNL A   1      33.103  27.298  23.104  1.00  0.00     0.049 C 
ATOM     15  C   UNL A   1      30.891  25.319  25.478  1.00  0.00     0.066 A 
ATOM     16  O   UNL A   1      33.270  25.174  24.989  1.00  0.00    -0.455 OA
ATOM     17  C   UNL A   1      31.031  24.289  26.514  1.00  0.00     0.200 A 
ATOM     18  C   UNL A   1      33.400  24.107  25.853  1.00  0.00     0.142 A 
ATOM     19  O   UNL A   1      30.085  23.946  27.215  1.00  0.00    -0.288 OA
ATOM     20  C   UNL A   1      32.349  23.659  26.652  1.00  0.00     0.066 A 
ATOM     21  C   UNL A   1      32.531  22.616  27.567  1.00  0.00     0.016 A 
ATOM     22  C   UNL A   1      34.826  22.415  26.864  1.00  0.00     0.008 A 
ATOM     23  C   UNL A   1      33.772  21.994  27.671  1.00  0.00     0.001 A 
ENDBRANCH   6   7
ENDBRANCH   4   6
ENDBRANCH   3   4
ENDBRANCH   2   3
ENDBRANCH   1   2
BRANCH   1  24
ATOM     24  O   UNL A   1      38.256  21.649  26.122  1.00  0.00    -0.458 OA
BRANCH  24  25
ATOM     25  C   UNL A   1      39.557  21.710  26.474  1.00  0.00     0.338 C 
ATOM     26  O   UNL A   1      40.403  20.849  26.259  1.00  0.00    -0.246 OA
BRANCH  25  27
ATOM     27  C   UNL A   1      39.902  22.979  27.124  1.00  0.00     0.060 A 
ATOM     28  C   UNL A   1      40.951  23.023  28.044  1.00  0.00     0.016 A 
ATOM     29  C   UNL A   1      39.368  24.162  26.605  1.00  0.00     0.016 A 
ATOM     30  C   UNL A   1      41.472  24.262  28.434  1.00  0.00     0.010 A 
ATOM     31  C   UNL A   1      39.927  25.390  26.947  1.00  0.00     0.010 A 
ATOM     32  C   UNL A   1      40.974  25.450  27.874  1.00  0.00    -0.014 A 
BRANCH  32  33
ATOM     33  C   UNL A   1      41.485  26.769  28.313  1.00  0.00     0.031 A 
ATOM     34  C   UNL A   1      42.911  27.121  28.021  1.00  0.00     0.074 A 
ATOM     35  C   UNL A   1      40.698  27.630  28.987  1.00  0.00     0.049 A 
ATOM     36  N   UNL A   1      43.512  28.274  28.143  1.00  0.00    -0.248 NA
ATOM     37  C   UNL A   1      43.779  26.035  27.531  1.00  0.00     0.031 C 
ATOM     38  C   UNL A   1      39.325  27.363  29.406  1.00  0.00     0.029 A 
ATOM     39  N   UNL A   1      40.944  28.900  29.447  1.00  0.00    -0.354 N 
ATOM     40  C   UNL A   1      44.807  28.066  27.689  1.00  0.00     0.074 A 
ATOM     41  C   UNL A   1      44.937  26.659  27.388  1.00  0.00     0.031 C 
ATOM     42  C   UNL A   1      38.845  28.434  30.058  1.00  0.00     0.029 A 
ATOM     43  C   UNL A   1      39.870  29.476  30.087  1.00  0.00     0.049 A 
ATOM     44  H   UNL A   1      41.808  29.357  29.330  1.00  0.00     0.167 HD
ATOM     45  C   UNL A   1      45.785  28.979  27.493  1.00  0.00     0.034 A 
ATOM     46  C   UNL A   1      39.722  30.713  30.604  1.00  0.00     0.034 A 
ATOM     47  C   UNL A   1      45.656  30.365  27.846  1.00  0.00     0.049 A 
ATOM     48  C   UNL A   1      40.843  31.710  30.424  1.00  0.00     0.074 A 
ATOM     49  C   UNL A   1      46.569  31.385  27.660  1.00  0.00     0.029 A 
ATOM     50  N   UNL A   1      44.553  30.917  28.480  1.00  0.00    -0.354 N 
ATOM     51  N   UNL A   1      41.996  31.553  29.817  1.00  0.00    -0.248 NA
ATOM     52  C   UNL A   1      40.635  33.060  30.968  1.00  0.00     0.031 C 
ATOM     53  C   UNL A   1      46.037  32.545  28.226  1.00  0.00     0.029 A 
ATOM     54  C   UNL A   1      44.772  32.261  28.721  1.00  0.00     0.049 A 
ATOM     55  H   UNL A   1      43.735  30.425  28.722  1.00  0.00     0.167 HD
ATOM     56  C   UNL A   1      42.631  32.792  29.867  1.00  0.00     0.074 A 
ATOM     57  C   UNL A   1      41.729  33.690  30.557  1.00  0.00     0.031 C 
ATOM     58  C   UNL A   1      43.847  33.151  29.383  1.00  0.00     0.034 A 
BRANCH  45  59
ATOM     59  C   UNL A   1      47.050  28.509  26.831  1.00  0.00     0.023 A 
ATOM     60  C   UNL A   1      47.100  28.295  25.445  1.00  0.00     0.031 A 
ATOM     61  C   UNL A   1      48.196  28.229  27.599  1.00  0.00     0.131 A 
ATOM     62  C   UNL A   1      48.280  27.809  24.866  1.00  0.00     0.055 A 
ATOM     63  C   UNL A   1      49.377  27.771  27.013  1.00  0.00     0.041 A 
ATOM     64  F   UNL A   1      48.194  28.429  28.926  1.00  0.00    -0.206 F 
ATOM     65  C   UNL A   1      49.419  27.554  25.641  1.00  0.00     0.022 A 
BRANCH  62  66
ATOM     66  S   UNL A   1      48.386  27.477  23.088  1.00  0.00     0.124 S 
ATOM     67  O   UNL A   1      47.214  28.186  22.579  1.00  0.00    -0.237 OA
ATOM     68  O   UNL A   1      49.674  28.071  22.743  1.00  0.00    -0.237 OA
ATOM     69  O   UNL A   1      48.316  26.022  22.998  1.00  0.00    -0.744 OA
ENDBRANCH  62  66
ENDBRANCH  45  59
BRANCH  46  70
ATOM     70  C   UNL A   1      38.421  31.106  31.223  1.00  0.00     0.023 A 
ATOM     71  C   UNL A   1      37.389  31.685  30.463  1.00  0.00     0.031 A 
ATOM     72  C   UNL A   1      38.221  30.962  32.608  1.00  0.00     0.131 A 
ATOM     73  C   UNL A   1      36.218  32.125  31.098  1.00  0.00     0.055 A 
ATOM     74  C   UNL A   1      37.034  31.358  33.228  1.00  0.00     0.041 A 
ATOM     75  F   UNL A   1      39.182  30.429  33.378  1.00  0.00    -0.206 F 
ATOM     76  C   UNL A   1      36.028  31.952  32.473  1.00  0.00     0.022 A 
BRANCH  73  77
ATOM     77  S   UNL A   1      34.930  33.017  30.180  1.00  0.00     0.124 S 
ATOM     78  O   UNL A   1      33.986  33.359  31.238  1.00  0.00    -0.237 OA
ATOM     79  O   UNL A   1      35.684  34.137  29.621  1.00  0.00    -0.237 OA
ATOM     80  O   UNL A   1      34.462  32.036  29.207  1.00  0.00    -0.744 OA
ENDBRANCH  73  77
ENDBRANCH  46  70
BRANCH  58  81
ATOM     81  C   UNL A   1      44.300  34.579  29.550  1.00  0.00     0.023 A 
ATOM     82  C   UNL A   1      43.861  35.561  28.642  1.00  0.00     0.031 A 
ATOM     83  C   UNL A   1      45.295  34.925  30.478  1.00  0.00     0.131 A 
ATOM     84  C   UNL A   1      44.454  36.829  28.648  1.00  0.00     0.055 A 
ATOM     85  C   UNL A   1      45.852  36.204  30.511  1.00  0.00     0.041 A 
ATOM     86  F   UNL A   1      45.753  34.017  31.356  1.00  0.00    -0.206 F 
ATOM     87  C   UNL A   1      45.443  37.157  29.581  1.00  0.00     0.022 A 
BRANCH  84  88
ATOM     88  S   UNL A   1      44.041  38.061  27.382  1.00  0.00     0.124 S 
ATOM     89  O   UNL A   1      45.326  38.245  26.710  1.00  0.00    -0.237 OA
ATOM     90  O   UNL A   1      43.022  37.368  26.600  1.00  0.00    -0.237 OA
ATOM     91  O   UNL A   1      43.570  39.210  28.148  1.00  0.00    -0.744 OA
ENDBRANCH  84  88
ENDBRANCH  58  81
ENDBRANCH  32  33
ENDBRANCH  25  27
ENDBRANCH  24  25
ENDBRANCH   1  24
TORSDOF 15
ENDMDL
MODEL 3
REMARK VINA RESULT:     -12.3      1.447      2.143
REMARK SMILES Cc1ccc2c(=O)c3cccc(CC(=O)OCCOC(=O)c4ccc(-c5c6nc(c(-c7cc(S(=O)(=O)[O-])ccc7F)c7ccc([nH]7)c(-c7cc(S(=O)(=O)[O-])ccc7F)c7nc(c(-c8cc(S(=O)(=O)[O-])ccc8F)c8ccc5[nH]8)C=C7)C=C6)cc4)c3oc2c1C
REMARK SMILES IDX 18 1 17 2 16 3 14 4 15 5 13 6 12 7 1 8 2 9 3 10 88 11 4 12
REMARK SMILES IDX 87 13 89 14 5 15 86 16 6 17 85 18 7 19 8 20 9 21 11 22 10 23
REMARK SMILES IDX 19 24 20 25 21 26 22 27 23 28 84 29 24 30 83 31 25 32 26 33
REMARK SMILES IDX 27 34 77 35 28 36 82 37 76 38 78 39 29 40 81 41 75 42 74 43
REMARK SMILES IDX 30 45 62 46 42 47 61 48 43 49 46 50 60 51 79 52 44 53 45 54
REMARK SMILES IDX 59 56 80 57 47 58 31 59 32 60 40 61 33 62 39 63 41 64 38 65
REMARK SMILES IDX 34 66 35 67 36 68 37 69 63 70 64 71 72 72 65 73 71 74 73 75
REMARK SMILES IDX 70 76 66 77 67 78 68 79 69 80 48 81 49 82 57 83 50 84 56 85
REMARK SMILES IDX 58 86 55 87 51 88 52 89 53 90 54 91
REMARK H PARENT 78 44 46 55
REMARK Flexibility Score: inf
ROOT
ATOM      1  C   UNL A   1      32.107  31.704  26.820  1.00  0.00     0.275 C 
ENDROOT
BRANCH   1   2
ATOM      2  C   UNL A   1      31.771  30.243  26.495  1.00  0.00     0.274 C 
BRANCH   2   3
ATOM      3  O   UNL A   1      32.283  29.333  27.493  1.00  0.00    -0.462 OA
BRANCH   3   4
ATOM      4  C   UNL A   1      32.365  28.030  27.120  1.00  0.00     0.310 C 
ATOM      5  O   UNL A   1      31.468  27.208  27.294  1.00  0.00    -0.252 OA
BRANCH   4   6
ATOM      6  C   UNL A   1      33.621  27.670  26.361  1.00  0.00     0.162 C 
BRANCH   6   7
ATOM      7  C   UNL A   1      33.551  27.603  24.856  1.00  0.00     0.007 A 
ATOM      8  C   UNL A   1      32.356  20.394  25.229  1.00  0.00     0.045 C 
ATOM      9  C   UNL A   1      32.650  21.630  24.417  1.00  0.00    -0.044 A 
ATOM     10  C   UNL A   1      32.593  21.557  23.020  1.00  0.00     0.005 A 
ATOM     11  C   UNL A   1      33.003  22.853  25.035  1.00  0.00    -0.005 A 
ATOM     12  C   UNL A   1      32.840  22.687  22.244  1.00  0.00     0.016 A 
ATOM     13  C   UNL A   1      33.174  24.014  24.251  1.00  0.00     0.141 A 
ATOM     14  C   UNL A   1      33.178  22.889  26.525  1.00  0.00     0.049 C 
ATOM     15  C   UNL A   1      33.109  23.910  22.864  1.00  0.00     0.066 A 
ATOM     16  O   UNL A   1      33.393  25.214  24.899  1.00  0.00    -0.455 OA
ATOM     17  C   UNL A   1      33.323  25.112  22.051  1.00  0.00     0.200 A 
ATOM     18  C   UNL A   1      33.454  26.378  24.163  1.00  0.00     0.142 A 
ATOM     19  O   UNL A   1      33.354  25.067  20.827  1.00  0.00    -0.288 OA
ATOM     20  C   UNL A   1      33.464  26.384  22.770  1.00  0.00     0.066 A 
ATOM     21  C   UNL A   1      33.593  27.579  22.053  1.00  0.00     0.016 A 
ATOM     22  C   UNL A   1      33.657  28.803  24.127  1.00  0.00     0.008 A 
ATOM     23  C   UNL A   1      33.689  28.789  22.734  1.00  0.00     0.001 A 
ENDBRANCH   6   7
ENDBRANCH   4   6
ENDBRANCH   3   4
ENDBRANCH   2   3
ENDBRANCH   1   2
BRANCH   1  24
ATOM     24  O   UNL A   1      32.967  31.823  27.972  1.00  0.00    -0.458 OA
BRANCH  24  25
ATOM     25  C   UNL A   1      33.996  32.674  27.783  1.00  0.00     0.338 C 
ATOM     26  O   UNL A   1      33.909  33.845  27.433  1.00  0.00    -0.246 OA
BRANCH  25  27
ATOM     27  C   UNL A   1      35.292  32.062  28.097  1.00  0.00     0.060 A 
ATOM     28  C   UNL A   1      36.441  32.855  28.132  1.00  0.00     0.016 A 
ATOM     29  C   UNL A   1      35.310  30.769  28.627  1.00  0.00     0.016 A 
ATOM     30  C   UNL A   1      37.608  32.347  28.714  1.00  0.00     0.010 A 
ATOM     31  C   UNL A   1      36.452  30.289  29.261  1.00  0.00     0.010 A 
ATOM     32  C   UNL A   1      37.614  31.070  29.297  1.00  0.00    -0.014 A 
BRANCH  32  33
ATOM     33  C   UNL A   1      38.855  30.504  29.874  1.00  0.00     0.031 A 
ATOM     34  C   UNL A   1      39.283  30.951  31.238  1.00  0.00     0.074 A 
ATOM     35  C   UNL A   1      39.606  29.624  29.182  1.00  0.00     0.049 A 
ATOM     36  N   UNL A   1      40.217  30.460  32.006  1.00  0.00    -0.248 NA
ATOM     37  C   UNL A   1      38.572  32.106  31.813  1.00  0.00     0.031 C 
ATOM     38  C   UNL A   1      39.340  29.184  27.816  1.00  0.00     0.029 A 
ATOM     39  N   UNL A   1      40.751  28.952  29.530  1.00  0.00    -0.354 N 
ATOM     40  C   UNL A   1      40.164  31.205  33.176  1.00  0.00     0.074 A 
ATOM     41  C   UNL A   1      39.182  32.245  32.980  1.00  0.00     0.031 C 
ATOM     42  C   UNL A   1      40.289  28.312  27.439  1.00  0.00     0.029 A 
ATOM     43  C   UNL A   1      41.224  28.115  28.546  1.00  0.00     0.049 A 
ATOM     44  H   UNL A   1      41.194  29.059  30.403  1.00  0.00     0.167 HD
ATOM     45  C   UNL A   1      40.840  31.005  34.329  1.00  0.00     0.034 A 
ATOM     46  C   UNL A   1      42.270  27.262  28.551  1.00  0.00     0.034 A 
ATOM     47  C   UNL A   1      41.851  29.997  34.491  1.00  0.00     0.049 A 
ATOM     48  C   UNL A   1      43.050  27.086  29.832  1.00  0.00     0.074 A 
ATOM     49  C   UNL A   1      42.573  29.683  35.626  1.00  0.00     0.029 A 
ATOM     50  N   UNL A   1      42.296  29.159  33.480  1.00  0.00    -0.354 N 
ATOM     51  N   UNL A   1      42.864  27.661  30.998  1.00  0.00    -0.248 NA
ATOM     52  C   UNL A   1      44.162  26.122  29.815  1.00  0.00     0.031 C 
ATOM     53  C   UNL A   1      43.492  28.687  35.286  1.00  0.00     0.029 A 
ATOM     54  C   UNL A   1      43.308  28.345  33.954  1.00  0.00     0.049 A 
ATOM     55  H   UNL A   1      41.944  29.146  32.561  1.00  0.00     0.167 HD
ATOM     56  C   UNL A   1      43.803  27.100  31.860  1.00  0.00     0.074 A 
ATOM     57  C   UNL A   1      44.550  26.133  31.085  1.00  0.00     0.031 C 
ATOM     58  C   UNL A   1      44.021  27.361  33.174  1.00  0.00     0.034 A 
BRANCH  45  59
ATOM     59  C   UNL A   1      40.471  31.863  35.507  1.00  0.00     0.023 A 
ATOM     60  C   UNL A   1      39.362  31.547  36.309  1.00  0.00     0.031 A 
ATOM     61  C   UNL A   1      41.204  33.029  35.799  1.00  0.00     0.131 A 
ATOM     62  C   UNL A   1      39.016  32.395  37.370  1.00  0.00     0.055 A 
ATOM     63  C   UNL A   1      40.870  33.855  36.872  1.00  0.00     0.041 A 
ATOM     64  F   UNL A   1      42.276  33.362  35.063  1.00  0.00    -0.206 F 
ATOM     65  C   UNL A   1      39.768  33.541  37.659  1.00  0.00     0.022 A 
BRANCH  62  66
ATOM     66  S   UNL A   1      37.572  32.056  38.409  1.00  0.00     0.124 S 
ATOM     67  O   UNL A   1      37.239  30.687  38.024  1.00  0.00    -0.237 OA
ATOM     68  O   UNL A   1      38.122  32.210  39.754  1.00  0.00    -0.237 OA
ATOM     69  O   UNL A   1      36.602  33.067  38.003  1.00  0.00    -0.744 OA
ENDBRANCH  62  66
ENDBRANCH  45  59
BRANCH  46  70
ATOM     70  C   UNL A   1      42.551  26.428  27.345  1.00  0.00     0.023 A 
ATOM     71  C   UNL A   1      42.179  25.073  27.284  1.00  0.00     0.031 A 
ATOM     72  C   UNL A   1      43.260  26.968  26.257  1.00  0.00     0.131 A 
ATOM     73  C   UNL A   1      42.543  24.300  26.172  1.00  0.00     0.055 A 
ATOM     74  C   UNL A   1      43.579  26.206  25.131  1.00  0.00     0.041 A 
ATOM     75  F   UNL A   1      43.651  28.251  26.276  1.00  0.00    -0.206 F 
ATOM     76  C   UNL A   1      43.228  24.861  25.089  1.00  0.00     0.022 A 
BRANCH  73  77
ATOM     77  S   UNL A   1      42.218  22.514  26.123  1.00  0.00     0.124 S 
ATOM     78  O   UNL A   1      42.790  22.067  27.389  1.00  0.00    -0.237 OA
ATOM     79  O   UNL A   1      40.759  22.479  26.043  1.00  0.00    -0.237 OA
ATOM     80  O   UNL A   1      42.917  22.072  24.921  1.00  0.00    -0.744 OA
ENDBRANCH  73  77
ENDBRANCH  46  70
BRANCH  58  81
ATOM     81  C   UNL A   1      45.098  26.592  33.896  1.00  0.00     0.023 A 
ATOM     82  C   UNL A   1      44.784  25.369  34.518  1.00  0.00     0.031 A 
ATOM     83  C   UNL A   1      46.367  27.150  34.122  1.00  0.00     0.131 A 
ATOM     84  C   UNL A   1      45.710  24.769  35.380  1.00  0.00     0.055 A 
ATOM     85  C   UNL A   1      47.304  26.526  34.945  1.00  0.00     0.041 A 
ATOM     86  F   UNL A   1      46.706  28.321  33.558  1.00  0.00    -0.206 F 
ATOM     87  C   UNL A   1      46.970  25.338  35.592  1.00  0.00     0.022 A 
BRANCH  84  88
ATOM     88  S   UNL A   1      45.276  23.290  36.336  1.00  0.00     0.124 S 
ATOM     89  O   UNL A   1      46.522  22.527  36.293  1.00  0.00    -0.237 OA
ATOM     90  O   UNL A   1      44.934  23.854  37.638  1.00  0.00    -0.237 OA
ATOM     91  O   UNL A   1      44.164  22.704  35.594  1.00  0.00    -0.744 OA
ENDBRANCH  84  88
ENDBRANCH  58  81
ENDBRANCH  32  33
ENDBRANCH  25  27
ENDBRANCH  24  25
ENDBRANCH   1  24
TORSDOF 15
ENDMDL
