MODEL 1
REMARK VINA RESULT:     -11.9      0.000      0.000
REMARK SMILES C[C@@H]1[C@@H](C(=O)OCCOC(=O)c2ccc(-c3c4nc(c(-c5cc(S(=O)(=O)[O-])ccc5F)c5ccc([nH]5)c(-c5cc(S(=O)(=O)[O-])ccc5F)c5nc(c(-c6cc(S(=O)(=O)[O-])ccc6F)c6ccc3[nH]6)C=C5)C=C4)cc2)CC[N@H+]1[C@H]1CC[C@@H](C(F)(F)F)CC1
REMARK SMILES IDX 8 1 7 2 6 3 4 4 5 5 3 6 1 7 2 8 77 9 75 10 76 11 78 13 79 14
REMARK SMILES IDX 87 15 80 16 86 17 81 18 82 19 83 20 84 21 85 22 9 23 10 24
REMARK SMILES IDX 11 25 12 26 13 27 74 28 14 29 73 30 15 31 16 32 17 33 67 34
REMARK SMILES IDX 18 35 72 36 66 37 68 38 19 39 71 40 65 41 64 42 20 44 52 45
REMARK SMILES IDX 32 46 51 47 33 48 36 49 50 50 69 51 34 52 35 53 49 55 70 56
REMARK SMILES IDX 37 57 21 58 22 59 30 60 23 61 29 62 31 63 28 64 24 65 25 66
REMARK SMILES IDX 26 67 27 68 53 69 54 70 62 71 55 72 61 73 63 74 60 75 56 76
REMARK SMILES IDX 57 77 58 78 59 79 38 80 39 81 47 82 40 83 46 84 48 85 45 86
REMARK SMILES IDX 41 87 42 88 43 89 44 90
REMARK H PARENT 77 12 68 43 36 54
REMARK Flexibility Score: inf
ROOT
ATOM      1  C   UNL A   1      36.853  20.443  25.036  1.00  0.00     0.275 C 
ENDROOT
BRANCH   1   2
ATOM      2  C   UNL A   1      35.356  20.732  25.122  1.00  0.00     0.274 C 
BRANCH   2   3
ATOM      3  O   UNL A   1      35.117  21.854  25.992  1.00  0.00    -0.462 OA
BRANCH   3   4
ATOM      4  C   UNL A   1      33.891  21.922  26.588  1.00  0.00     0.315 C 
ATOM      5  O   UNL A   1      33.673  21.699  27.769  1.00  0.00    -0.252 OA
BRANCH   4   6
ATOM      6  C   UNL A   1      32.842  22.284  25.555  1.00  0.00     0.162 C 
ATOM      7  C   UNL A   1      33.183  23.238  23.258  1.00  0.00     0.076 C 
ATOM      8  C   UNL A   1      33.200  23.557  24.757  1.00  0.00     0.195 C 
ATOM      9  N   UNL A   1      32.132  24.493  25.084  1.00  0.00    -0.330 N 
ATOM     10  C   UNL A   1      31.515  22.607  26.231  1.00  0.00     0.083 C 
ATOM     11  C   UNL A   1      31.525  24.122  26.346  1.00  0.00     0.263 C 
ATOM     12  H   UNL A   1      31.473  24.357  24.318  1.00  0.00     0.348 HD
BRANCH   9  13
ATOM     13  C   UNL A   1      32.199  25.913  24.751  1.00  0.00     0.184 C 
ATOM     14  C   UNL A   1      31.050  26.829  25.230  1.00  0.00     0.066 C 
ATOM     15  C   UNL A   1      33.565  26.364  25.291  1.00  0.00     0.066 C 
ATOM     16  C   UNL A   1      31.367  28.323  25.069  1.00  0.00     0.019 C 
ATOM     17  C   UNL A   1      33.830  27.848  25.093  1.00  0.00     0.019 C 
ATOM     18  C   UNL A   1      32.722  28.740  25.660  1.00  0.00     0.095 C 
BRANCH  18  19
ATOM     19  C   UNL A   1      32.723  28.778  27.190  1.00  0.00     0.391 C 
ATOM     20  F   UNL A   1      33.981  28.619  27.664  1.00  0.00    -0.171 F 
ATOM     21  F   UNL A   1      32.269  29.964  27.641  1.00  0.00    -0.171 F 
ATOM     22  F   UNL A   1      31.963  27.811  27.737  1.00  0.00    -0.171 F 
ENDBRANCH  18  19
ENDBRANCH   9  13
ENDBRANCH   4   6
ENDBRANCH   3   4
ENDBRANCH   2   3
ENDBRANCH   1   2
BRANCH   1  23
ATOM     23  O   UNL A   1      37.604  21.555  25.558  1.00  0.00    -0.458 OA
BRANCH  23  24
ATOM     24  C   UNL A   1      38.855  21.272  25.982  1.00  0.00     0.338 C 
ATOM     25  O   UNL A   1      39.473  20.226  25.831  1.00  0.00    -0.246 OA
BRANCH  24  26
ATOM     26  C   UNL A   1      39.445  22.471  26.592  1.00  0.00     0.060 A 
ATOM     27  C   UNL A   1      38.988  23.713  26.161  1.00  0.00     0.016 A 
ATOM     28  C   UNL A   1      40.510  22.388  27.484  1.00  0.00     0.016 A 
ATOM     29  C   UNL A   1      39.625  24.884  26.565  1.00  0.00     0.010 A 
ATOM     30  C   UNL A   1      41.110  23.569  27.944  1.00  0.00     0.010 A 
ATOM     31  C   UNL A   1      40.692  24.831  27.471  1.00  0.00    -0.014 A 
BRANCH  31  32
ATOM     32  C   UNL A   1      41.412  26.075  27.870  1.00  0.00     0.031 A 
ATOM     33  C   UNL A   1      40.695  27.127  28.677  1.00  0.00     0.074 A 
ATOM     34  C   UNL A   1      42.706  26.268  27.539  1.00  0.00     0.049 A 
ATOM     35  N   UNL A   1      41.053  28.356  28.949  1.00  0.00    -0.248 NA
ATOM     36  C   UNL A   1      39.393  26.741  29.242  1.00  0.00     0.031 C 
ATOM     37  C   UNL A   1      43.554  25.304  26.835  1.00  0.00     0.029 A 
ATOM     38  N   UNL A   1      43.536  27.342  27.754  1.00  0.00    -0.354 N 
ATOM     39  C   UNL A   1      40.004  28.906  29.680  1.00  0.00     0.074 A 
ATOM     40  C   UNL A   1      38.990  27.877  29.791  1.00  0.00     0.031 C 
ATOM     41  C   UNL A   1      44.785  25.822  26.697  1.00  0.00     0.029 A 
ATOM     42  C   UNL A   1      44.794  27.184  27.219  1.00  0.00     0.049 A 
ATOM     43  H   UNL A   1      43.256  28.147  28.245  1.00  0.00     0.167 HD
ATOM     44  C   UNL A   1      39.896  30.152  30.206  1.00  0.00     0.034 A 
ATOM     45  C   UNL A   1      45.821  28.052  27.111  1.00  0.00     0.034 A 
ATOM     46  C   UNL A   1      40.928  31.158  30.118  1.00  0.00     0.049 A 
ATOM     47  C   UNL A   1      45.650  29.459  27.628  1.00  0.00     0.074 A 
ATOM     48  C   UNL A   1      40.916  32.456  30.600  1.00  0.00     0.029 A 
ATOM     49  N   UNL A   1      42.168  30.974  29.519  1.00  0.00    -0.354 N 
ATOM     50  N   UNL A   1      44.615  29.998  28.229  1.00  0.00    -0.248 NA
ATOM     51  C   UNL A   1      46.781  30.377  27.437  1.00  0.00     0.031 C 
ATOM     52  C   UNL A   1      42.121  33.072  30.247  1.00  0.00     0.029 A 
ATOM     53  C   UNL A   1      42.916  32.140  29.602  1.00  0.00     0.049 A 
ATOM     54  H   UNL A   1      42.472  30.139  29.096  1.00  0.00     0.167 HD
ATOM     55  C   UNL A   1      44.981  31.313  28.506  1.00  0.00     0.074 A 
ATOM     56  C   UNL A   1      46.336  31.480  28.021  1.00  0.00     0.031 C 
ATOM     57  C   UNL A   1      44.263  32.295  29.107  1.00  0.00     0.034 A 
BRANCH  44  58
ATOM     58  C   UNL A   1      38.587  30.514  30.867  1.00  0.00     0.023 A 
ATOM     59  C   UNL A   1      37.542  31.138  30.165  1.00  0.00     0.031 A 
ATOM     60  C   UNL A   1      38.398  30.257  32.238  1.00  0.00     0.131 A 
ATOM     61  C   UNL A   1      36.387  31.547  30.848  1.00  0.00     0.055 A 
ATOM     62  C   UNL A   1      37.215  30.595  32.895  1.00  0.00     0.041 A 
ATOM     63  F   UNL A   1      39.369  29.682  32.965  1.00  0.00    -0.206 F 
ATOM     64  C   UNL A   1      36.205  31.258  32.204  1.00  0.00     0.022 A 
BRANCH  61  65
ATOM     65  S   UNL A   1      35.181  32.585  29.977  1.00  0.00     0.124 S 
ATOM     66  O   UNL A   1      36.025  33.677  29.497  1.00  0.00    -0.237 OA
ATOM     67  O   UNL A   1      34.664  31.679  28.958  1.00  0.00    -0.237 OA
ATOM     68  O   UNL A   1      34.229  32.956  31.023  1.00  0.00    -0.744 OA
ENDBRANCH  61  65
ENDBRANCH  44  58
BRANCH  45  69
ATOM     69  C   UNL A   1      47.081  27.655  26.416  1.00  0.00     0.023 A 
ATOM     70  C   UNL A   1      47.251  27.877  25.040  1.00  0.00     0.031 A 
ATOM     71  C   UNL A   1      48.108  26.988  27.108  1.00  0.00     0.131 A 
ATOM     72  C   UNL A   1      48.402  27.399  24.393  1.00  0.00     0.055 A 
ATOM     73  C   UNL A   1      49.276  26.565  26.471  1.00  0.00     0.041 A 
ATOM     74  F   UNL A   1      47.995  26.743  28.424  1.00  0.00    -0.206 F 
ATOM     75  C   UNL A   1      49.420  26.758  25.101  1.00  0.00     0.022 A 
BRANCH  72  76
ATOM     76  S   UNL A   1      48.508  27.544  22.587  1.00  0.00     0.124 S 
ATOM     77  O   UNL A   1      47.289  28.282  22.276  1.00  0.00    -0.237 OA
ATOM     78  O   UNL A   1      49.761  28.271  22.415  1.00  0.00    -0.237 OA
ATOM     79  O   UNL A   1      48.529  26.154  22.134  1.00  0.00    -0.744 OA
ENDBRANCH  72  76
ENDBRANCH  45  69
BRANCH  57  80
ATOM     80  C   UNL A   1      44.957  33.619  29.313  1.00  0.00     0.023 A 
ATOM     81  C   UNL A   1      44.978  34.608  28.315  1.00  0.00     0.031 A 
ATOM     82  C   UNL A   1      45.623  33.882  30.523  1.00  0.00     0.131 A 
ATOM     83  C   UNL A   1      45.697  35.795  28.525  1.00  0.00     0.055 A 
ATOM     84  C   UNL A   1      46.292  35.087  30.746  1.00  0.00     0.041 A 
ATOM     85  F   UNL A   1      45.634  32.971  31.509  1.00  0.00    -0.206 F 
ATOM     86  C   UNL A   1      46.342  36.046  29.739  1.00  0.00     0.022 A 
BRANCH  83  87
ATOM     87  S   UNL A   1      45.845  36.980  27.158  1.00  0.00     0.124 S 
ATOM     88  O   UNL A   1      46.230  36.116  26.047  1.00  0.00    -0.237 OA
ATOM     89  O   UNL A   1      44.502  37.547  27.089  1.00  0.00    -0.237 OA
ATOM     90  O   UNL A   1      46.883  37.904  27.615  1.00  0.00    -0.744 OA
ENDBRANCH  83  87
ENDBRANCH  57  80
ENDBRANCH  31  32
ENDBRANCH  24  26
ENDBRANCH  23  24
ENDBRANCH   1  23
TORSDOF 16
ENDMDL
MODEL 2
REMARK VINA RESULT:     -11.7      5.193     10.073
REMARK SMILES C[C@@H]1[C@@H](C(=O)OCCOC(=O)c2ccc(-c3c4nc(c(-c5cc(S(=O)(=O)[O-])ccc5F)c5ccc([nH]5)c(-c5cc(S(=O)(=O)[O-])ccc5F)c5nc(c(-c6cc(S(=O)(=O)[O-])ccc6F)c6ccc3[nH]6)C=C5)C=C4)cc2)CC[N@H+]1[C@H]1CC[C@@H](C(F)(F)F)CC1
REMARK SMILES IDX 8 1 7 2 6 3 4 4 5 5 3 6 1 7 2 8 77 9 75 10 76 11 78 13 79 14
REMARK SMILES IDX 87 15 80 16 86 17 81 18 82 19 83 20 84 21 85 22 9 23 10 24
REMARK SMILES IDX 11 25 12 26 13 27 74 28 14 29 73 30 15 31 16 32 17 33 67 34
REMARK SMILES IDX 18 35 72 36 66 37 68 38 19 39 71 40 65 41 64 42 20 44 52 45
REMARK SMILES IDX 32 46 51 47 33 48 36 49 50 50 69 51 34 52 35 53 49 55 70 56
REMARK SMILES IDX 37 57 21 58 22 59 30 60 23 61 29 62 31 63 28 64 24 65 25 66
REMARK SMILES IDX 26 67 27 68 53 69 54 70 62 71 55 72 61 73 63 74 60 75 56 76
REMARK SMILES IDX 57 77 58 78 59 79 38 80 39 81 47 82 40 83 46 84 48 85 45 86
REMARK SMILES IDX 41 87 42 88 43 89 44 90
REMARK H PARENT 77 12 68 43 36 54
REMARK Flexibility Score: inf
ROOT
ATOM      1  C   UNL A   1      31.675  30.070  25.549  1.00  0.00     0.275 C 
ENDROOT
BRANCH   1   2
ATOM      2  C   UNL A   1      32.047  28.692  25.005  1.00  0.00     0.274 C 
BRANCH   2   3
ATOM      3  O   UNL A   1      30.935  27.787  25.145  1.00  0.00    -0.462 OA
BRANCH   3   4
ATOM      4  C   UNL A   1      31.031  26.840  26.123  1.00  0.00     0.315 C 
ATOM      5  O   UNL A   1      31.480  27.033  27.243  1.00  0.00    -0.252 OA
BRANCH   4   6
ATOM      6  C   UNL A   1      30.524  25.511  25.596  1.00  0.00     0.162 C 
ATOM      7  C   UNL A   1      30.080  23.397  26.873  1.00  0.00     0.076 C 
ATOM      8  C   UNL A   1      31.176  24.300  26.297  1.00  0.00     0.195 C 
ATOM      9  N   UNL A   1      31.886  23.610  25.227  1.00  0.00    -0.330 N 
ATOM     10  C   UNL A   1      30.881  25.350  24.124  1.00  0.00     0.083 C 
ATOM     11  C   UNL A   1      32.165  24.536  24.148  1.00  0.00     0.263 C 
ATOM     12  H   UNL A   1      31.210  22.907  24.928  1.00  0.00     0.348 HD
BRANCH   9  13
ATOM     13  C   UNL A   1      32.853  22.547  25.481  1.00  0.00     0.184 C 
ATOM     14  C   UNL A   1      33.372  21.729  24.276  1.00  0.00     0.066 C 
ATOM     15  C   UNL A   1      33.992  23.245  26.242  1.00  0.00     0.066 C 
ATOM     16  C   UNL A   1      34.578  20.845  24.625  1.00  0.00     0.019 C 
ATOM     17  C   UNL A   1      35.152  22.319  26.571  1.00  0.00     0.019 C 
ATOM     18  C   UNL A   1      35.710  21.592  25.345  1.00  0.00     0.095 C 
BRANCH  18  19
ATOM     19  C   UNL A   1      36.501  22.520  24.420  1.00  0.00     0.391 C 
ATOM     20  F   UNL A   1      37.769  22.069  24.272  1.00  0.00    -0.171 F 
ATOM     21  F   UNL A   1      35.943  22.563  23.193  1.00  0.00    -0.171 F 
ATOM     22  F   UNL A   1      36.575  23.781  24.884  1.00  0.00    -0.171 F 
ENDBRANCH  18  19
ENDBRANCH   9  13
ENDBRANCH   4   6
ENDBRANCH   3   4
ENDBRANCH   2   3
ENDBRANCH   1   2
BRANCH   1  23
ATOM     23  O   UNL A   1      32.238  30.254  26.862  1.00  0.00    -0.458 OA
BRANCH  23  24
ATOM     24  C   UNL A   1      32.851  31.438  27.077  1.00  0.00     0.338 C 
ATOM     25  O   UNL A   1      32.377  32.559  26.933  1.00  0.00    -0.246 OA
BRANCH  24  26
ATOM     26  C   UNL A   1      34.193  31.200  27.625  1.00  0.00     0.060 A 
ATOM     27  C   UNL A   1      34.551  29.888  27.922  1.00  0.00     0.016 A 
ATOM     28  C   UNL A   1      35.045  32.250  27.955  1.00  0.00     0.016 A 
ATOM     29  C   UNL A   1      35.733  29.611  28.605  1.00  0.00     0.010 A 
ATOM     30  C   UNL A   1      36.266  31.967  28.583  1.00  0.00     0.010 A 
ATOM     31  C   UNL A   1      36.614  30.647  28.939  1.00  0.00    -0.014 A 
BRANCH  31  32
ATOM     32  C   UNL A   1      37.857  30.365  29.714  1.00  0.00     0.031 A 
ATOM     33  C   UNL A   1      38.932  29.497  29.113  1.00  0.00     0.074 A 
ATOM     34  C   UNL A   1      38.047  30.895  30.941  1.00  0.00     0.049 A 
ATOM     35  N   UNL A   1      39.982  28.958  29.680  1.00  0.00    -0.248 NA
ATOM     36  C   UNL A   1      38.796  29.186  27.683  1.00  0.00     0.031 C 
ATOM     37  C   UNL A   1      37.137  31.820  31.617  1.00  0.00     0.029 A 
ATOM     38  N   UNL A   1      39.075  30.731  31.839  1.00  0.00    -0.354 N 
ATOM     39  C   UNL A   1      40.609  28.210  28.688  1.00  0.00     0.074 A 
ATOM     40  C   UNL A   1      39.808  28.353  27.490  1.00  0.00     0.031 C 
ATOM     41  C   UNL A   1      37.655  32.157  32.809  1.00  0.00     0.029 A 
ATOM     42  C   UNL A   1      38.888  31.406  33.023  1.00  0.00     0.049 A 
ATOM     43  H   UNL A   1      39.870  30.182  31.651  1.00  0.00     0.167 HD
ATOM     44  C   UNL A   1      41.744  27.471  28.771  1.00  0.00     0.034 A 
ATOM     45  C   UNL A   1      39.596  31.384  34.171  1.00  0.00     0.034 A 
ATOM     46  C   UNL A   1      42.553  27.364  29.962  1.00  0.00     0.049 A 
ATOM     47  C   UNL A   1      40.808  30.491  34.270  1.00  0.00     0.074 A 
ATOM     48  C   UNL A   1      43.711  26.630  30.159  1.00  0.00     0.029 A 
ATOM     49  N   UNL A   1      42.297  28.022  31.158  1.00  0.00    -0.354 N 
ATOM     50  N   UNL A   1      41.335  29.710  33.356  1.00  0.00    -0.248 NA
ATOM     51  C   UNL A   1      41.510  30.466  35.560  1.00  0.00     0.031 C 
ATOM     52  C   UNL A   1      44.124  26.800  31.485  1.00  0.00     0.029 A 
ATOM     53  C   UNL A   1      43.263  27.694  32.100  1.00  0.00     0.049 A 
ATOM     54  H   UNL A   1      41.541  28.632  31.316  1.00  0.00     0.167 HD
ATOM     55  C   UNL A   1      42.442  29.118  33.957  1.00  0.00     0.074 A 
ATOM     56  C   UNL A   1      42.517  29.644  35.304  1.00  0.00     0.031 C 
ATOM     57  C   UNL A   1      43.320  28.220  33.443  1.00  0.00     0.034 A 
BRANCH  44  58
ATOM     58  C   UNL A   1      42.138  26.669  27.553  1.00  0.00     0.023 A 
ATOM     59  C   UNL A   1      41.808  25.311  27.413  1.00  0.00     0.031 A 
ATOM     60  C   UNL A   1      42.890  27.273  26.528  1.00  0.00     0.131 A 
ATOM     61  C   UNL A   1      42.287  24.585  26.311  1.00  0.00     0.055 A 
ATOM     62  C   UNL A   1      43.297  26.566  25.397  1.00  0.00     0.041 A 
ATOM     63  F   UNL A   1      43.254  28.563  26.617  1.00  0.00    -0.206 F 
ATOM     64  C   UNL A   1      43.008  25.208  25.290  1.00  0.00     0.022 A 
BRANCH  61  65
ATOM     65  S   UNL A   1      42.074  22.784  26.297  1.00  0.00     0.124 S 
ATOM     66  O   UNL A   1      42.854  22.385  27.466  1.00  0.00    -0.237 OA
ATOM     67  O   UNL A   1      40.628  22.636  26.411  1.00  0.00    -0.237 OA
ATOM     68  O   UNL A   1      42.642  22.381  25.011  1.00  0.00    -0.744 OA
ENDBRANCH  61  65
ENDBRANCH  44  58
BRANCH  45  69
ATOM     69  C   UNL A   1      39.142  32.167  35.358  1.00  0.00     0.023 A 
ATOM     70  C   UNL A   1      39.592  33.479  35.578  1.00  0.00     0.031 A 
ATOM     71  C   UNL A   1      38.300  31.589  36.326  1.00  0.00     0.131 A 
ATOM     72  C   UNL A   1      39.233  34.153  36.757  1.00  0.00     0.055 A 
ATOM     73  C   UNL A   1      37.901  32.284  37.469  1.00  0.00     0.041 A 
ATOM     74  F   UNL A   1      37.847  30.334  36.171  1.00  0.00    -0.206 F 
ATOM     75  C   UNL A   1      38.379  33.569  37.695  1.00  0.00     0.022 A 
BRANCH  72  76
ATOM     76  S   UNL A   1      39.975  35.774  37.092  1.00  0.00     0.124 S 
ATOM     77  O   UNL A   1      41.379  35.426  37.278  1.00  0.00    -0.237 OA
ATOM     78  O   UNL A   1      39.651  36.512  35.875  1.00  0.00    -0.237 OA
ATOM     79  O   UNL A   1      39.279  36.225  38.295  1.00  0.00    -0.744 OA
ENDBRANCH  72  76
ENDBRANCH  45  69
BRANCH  57  80
ATOM     80  C   UNL A   1      44.462  27.795  34.333  1.00  0.00     0.023 A 
ATOM     81  C   UNL A   1      44.353  26.698  35.205  1.00  0.00     0.031 A 
ATOM     82  C   UNL A   1      45.670  28.515  34.319  1.00  0.00     0.131 A 
ATOM     83  C   UNL A   1      45.416  26.383  36.066  1.00  0.00     0.055 A 
ATOM     84  C   UNL A   1      46.742  28.165  35.141  1.00  0.00     0.041 A 
ATOM     85  F   UNL A   1      45.826  29.572  33.506  1.00  0.00    -0.206 F 
ATOM     86  C   UNL A   1      46.614  27.101  36.029  1.00  0.00     0.022 A 
BRANCH  83  87
ATOM     87  S   UNL A   1      45.185  25.067  37.294  1.00  0.00     0.124 S 
ATOM     88  O   UNL A   1      46.141  25.447  38.329  1.00  0.00    -0.237 OA
ATOM     89  O   UNL A   1      43.775  25.211  37.645  1.00  0.00    -0.237 OA
ATOM     90  O   UNL A   1      45.517  23.848  36.559  1.00  0.00    -0.744 OA
ENDBRANCH  83  87
ENDBRANCH  57  80
ENDBRANCH  31  32
ENDBRANCH  24  26
ENDBRANCH  23  24
ENDBRANCH   1  23
TORSDOF 16
ENDMDL
MODEL 3
REMARK VINA RESULT:     -11.6      5.316     10.133
REMARK SMILES C[C@@H]1[C@@H](C(=O)OCCOC(=O)c2ccc(-c3c4nc(c(-c5cc(S(=O)(=O)[O-])ccc5F)c5ccc([nH]5)c(-c5cc(S(=O)(=O)[O-])ccc5F)c5nc(c(-c6cc(S(=O)(=O)[O-])ccc6F)c6ccc3[nH]6)C=C5)C=C4)cc2)CC[N@H+]1[C@H]1CC[C@@H](C(F)(F)F)CC1
REMARK SMILES IDX 8 1 7 2 6 3 4 4 5 5 3 6 1 7 2 8 77 9 75 10 76 11 78 13 79 14
REMARK SMILES IDX 87 15 80 16 86 17 81 18 82 19 83 20 84 21 85 22 9 23 10 24
REMARK SMILES IDX 11 25 12 26 13 27 74 28 14 29 73 30 15 31 16 32 17 33 67 34
REMARK SMILES IDX 18 35 72 36 66 37 68 38 19 39 71 40 65 41 64 42 20 44 52 45
REMARK SMILES IDX 32 46 51 47 33 48 36 49 50 50 69 51 34 52 35 53 49 55 70 56
REMARK SMILES IDX 37 57 21 58 22 59 30 60 23 61 29 62 31 63 28 64 24 65 25 66
REMARK SMILES IDX 26 67 27 68 53 69 54 70 62 71 55 72 61 73 63 74 60 75 56 76
REMARK SMILES IDX 57 77 58 78 59 79 38 80 39 81 47 82 40 83 46 84 48 85 45 86
REMARK SMILES IDX 41 87 42 88 43 89 44 90
REMARK H PARENT 77 12 68 43 36 54
REMARK Flexibility Score: inf
ROOT
ATOM      1  C   UNL A   1      32.574  29.707  25.416  1.00  0.00     0.275 C 
ENDROOT
BRANCH   1   2
ATOM      2  C   UNL A   1      31.328  28.926  25.002  1.00  0.00     0.274 C 
BRANCH   2   3
ATOM      3  O   UNL A   1      31.702  27.779  24.216  1.00  0.00    -0.462 OA
BRANCH   3   4
ATOM      4  C   UNL A   1      31.294  27.765  22.913  1.00  0.00     0.315 C 
ATOM      5  O   UNL A   1      30.883  28.738  22.298  1.00  0.00    -0.252 OA
BRANCH   4   6
ATOM      6  C   UNL A   1      31.400  26.357  22.361  1.00  0.00     0.162 C 
ATOM      7  C   UNL A   1      30.352  24.255  23.245  1.00  0.00     0.076 C 
ATOM      8  C   UNL A   1      31.467  25.282  23.468  1.00  0.00     0.195 C 
ATOM      9  N   UNL A   1      32.771  24.659  23.279  1.00  0.00    -0.330 N 
ATOM     10  C   UNL A   1      32.693  26.189  21.573  1.00  0.00     0.083 C 
ATOM     11  C   UNL A   1      33.652  25.570  22.577  1.00  0.00     0.263 C 
ATOM     12  H   UNL A   1      32.550  23.854  22.692  1.00  0.00     0.348 HD
BRANCH   9  13
ATOM     13  C   UNL A   1      33.363  23.758  24.262  1.00  0.00     0.184 C 
ATOM     14  C   UNL A   1      33.827  22.362  23.787  1.00  0.00     0.066 C 
ATOM     15  C   UNL A   1      34.512  24.572  24.877  1.00  0.00     0.066 C 
ATOM     16  C   UNL A   1      34.679  21.625  24.831  1.00  0.00     0.019 C 
ATOM     17  C   UNL A   1      35.313  23.798  25.911  1.00  0.00     0.019 C 
ATOM     18  C   UNL A   1      35.842  22.460  25.387  1.00  0.00     0.095 C 
BRANCH  18  19
ATOM     19  C   UNL A   1      36.989  22.632  24.389  1.00  0.00     0.391 C 
ATOM     20  F   UNL A   1      37.866  21.606  24.499  1.00  0.00    -0.171 F 
ATOM     21  F   UNL A   1      36.527  22.633  23.123  1.00  0.00    -0.171 F 
ATOM     22  F   UNL A   1      37.679  23.772  24.577  1.00  0.00    -0.171 F 
ENDBRANCH  18  19
ENDBRANCH   9  13
ENDBRANCH   4   6
ENDBRANCH   3   4
ENDBRANCH   2   3
ENDBRANCH   1   2
BRANCH   1  23
ATOM     23  O   UNL A   1      32.471  30.114  26.793  1.00  0.00    -0.458 OA
BRANCH  23  24
ATOM     24  C   UNL A   1      33.038  31.301  27.100  1.00  0.00     0.338 C 
ATOM     25  O   UNL A   1      32.518  32.409  27.049  1.00  0.00    -0.246 OA
BRANCH  24  26
ATOM     26  C   UNL A   1      34.393  31.075  27.619  1.00  0.00     0.060 A 
ATOM     27  C   UNL A   1      34.742  29.778  27.982  1.00  0.00     0.016 A 
ATOM     28  C   UNL A   1      35.270  32.129  27.859  1.00  0.00     0.016 A 
ATOM     29  C   UNL A   1      35.941  29.524  28.644  1.00  0.00     0.010 A 
ATOM     30  C   UNL A   1      36.506  31.865  28.465  1.00  0.00     0.010 A 
ATOM     31  C   UNL A   1      36.847  30.564  28.889  1.00  0.00    -0.014 A 
BRANCH  31  32
ATOM     32  C   UNL A   1      38.110  30.309  29.641  1.00  0.00     0.031 A 
ATOM     33  C   UNL A   1      39.171  29.423  29.041  1.00  0.00     0.074 A 
ATOM     34  C   UNL A   1      38.330  30.878  30.844  1.00  0.00     0.049 A 
ATOM     35  N   UNL A   1      40.237  28.904  29.598  1.00  0.00    -0.248 NA
ATOM     36  C   UNL A   1      38.999  29.065  27.625  1.00  0.00     0.031 C 
ATOM     37  C   UNL A   1      37.435  31.824  31.512  1.00  0.00     0.029 A 
ATOM     38  N   UNL A   1      39.381  30.745  31.720  1.00  0.00    -0.354 N 
ATOM     39  C   UNL A   1      40.839  28.125  28.615  1.00  0.00     0.074 A 
ATOM     40  C   UNL A   1      40.008  28.228  27.434  1.00  0.00     0.031 C 
ATOM     41  C   UNL A   1      37.983  32.200  32.679  1.00  0.00     0.029 A 
ATOM     42  C   UNL A   1      39.222  31.458  32.887  1.00  0.00     0.049 A 
ATOM     43  H   UNL A   1      40.172  30.191  31.530  1.00  0.00     0.167 HD
ATOM     44  C   UNL A   1      41.978  27.390  28.693  1.00  0.00     0.034 A 
ATOM     45  C   UNL A   1      39.959  31.475  34.016  1.00  0.00     0.034 A 
ATOM     46  C   UNL A   1      42.817  27.323  29.866  1.00  0.00     0.049 A 
ATOM     47  C   UNL A   1      41.176  30.587  34.112  1.00  0.00     0.074 A 
ATOM     48  C   UNL A   1      43.981  26.598  30.057  1.00  0.00     0.029 A 
ATOM     49  N   UNL A   1      42.590  28.020  31.046  1.00  0.00    -0.354 N 
ATOM     50  N   UNL A   1      41.680  29.777  33.211  1.00  0.00    -0.248 NA
ATOM     51  C   UNL A   1      41.910  30.606  35.385  1.00  0.00     0.031 C 
ATOM     52  C   UNL A   1      44.427  26.812  31.366  1.00  0.00     0.029 A 
ATOM     53  C   UNL A   1      43.580  27.724  31.973  1.00  0.00     0.049 A 
ATOM     54  H   UNL A   1      41.837  28.633  31.203  1.00  0.00     0.167 HD
ATOM     55  C   UNL A   1      42.805  29.207  33.803  1.00  0.00     0.074 A 
ATOM     56  C   UNL A   1      42.912  29.777  35.130  1.00  0.00     0.031 C 
ATOM     57  C   UNL A   1      43.671  28.294  33.296  1.00  0.00     0.034 A 
BRANCH  44  58
ATOM     58  C   UNL A   1      42.342  26.549  27.492  1.00  0.00     0.023 A 
ATOM     59  C   UNL A   1      41.922  25.215  27.358  1.00  0.00     0.031 A 
ATOM     60  C   UNL A   1      43.157  27.089  26.479  1.00  0.00     0.131 A 
ATOM     61  C   UNL A   1      42.374  24.447  26.275  1.00  0.00     0.055 A 
ATOM     62  C   UNL A   1      43.539  26.343  25.364  1.00  0.00     0.041 A 
ATOM     63  F   UNL A   1      43.606  28.352  26.564  1.00  0.00    -0.206 F 
ATOM     64  C   UNL A   1      43.159  25.007  25.264  1.00  0.00     0.022 A 
BRANCH  61  65
ATOM     65  S   UNL A   1      42.038  22.664  26.273  1.00  0.00     0.124 S 
ATOM     66  O   UNL A   1      40.578  22.639  26.248  1.00  0.00    -0.237 OA
ATOM     67  O   UNL A   1      42.707  22.218  25.056  1.00  0.00    -0.237 OA
ATOM     68  O   UNL A   1      42.642  22.200  27.521  1.00  0.00    -0.744 OA
ENDBRANCH  61  65
ENDBRANCH  44  58
BRANCH  45  69
ATOM     69  C   UNL A   1      39.535  32.296  35.188  1.00  0.00     0.023 A 
ATOM     70  C   UNL A   1      38.834  31.722  36.261  1.00  0.00     0.031 A 
ATOM     71  C   UNL A   1      39.767  33.683  35.220  1.00  0.00     0.131 A 
ATOM     72  C   UNL A   1      38.355  32.537  37.299  1.00  0.00     0.055 A 
ATOM     73  C   UNL A   1      39.338  34.481  36.283  1.00  0.00     0.041 A 
ATOM     74  F   UNL A   1      40.425  34.287  34.217  1.00  0.00    -0.206 F 
ATOM     75  C   UNL A   1      38.615  33.909  37.323  1.00  0.00     0.022 A 
BRANCH  72  76
ATOM     76  S   UNL A   1      37.303  31.792  38.575  1.00  0.00     0.124 S 
ATOM     77  O   UNL A   1      37.095  30.450  38.044  1.00  0.00    -0.237 OA
ATOM     78  O   UNL A   1      38.148  31.890  39.760  1.00  0.00    -0.237 OA
ATOM     79  O   UNL A   1      36.119  32.649  38.584  1.00  0.00    -0.744 OA
ENDBRANCH  72  76
ENDBRANCH  45  69
BRANCH  57  80
ATOM     80  C   UNL A   1      44.836  27.899  34.170  1.00  0.00     0.023 A 
ATOM     81  C   UNL A   1      44.767  26.802  35.046  1.00  0.00     0.031 A 
ATOM     82  C   UNL A   1      46.025  28.649  34.137  1.00  0.00     0.131 A 
ATOM     83  C   UNL A   1      45.850  26.516  35.892  1.00  0.00     0.055 A 
ATOM     84  C   UNL A   1      47.118  28.328  34.944  1.00  0.00     0.041 A 
ATOM     85  F   UNL A   1      46.143  29.707  33.319  1.00  0.00    -0.206 F 
ATOM     86  C   UNL A   1      47.030  27.264  35.836  1.00  0.00     0.022 A 
BRANCH  83  87
ATOM     87  S   UNL A   1      45.670  25.199  37.127  1.00  0.00     0.124 S 
ATOM     88  O   UNL A   1      46.882  25.361  37.924  1.00  0.00    -0.237 OA
ATOM     89  O   UNL A   1      44.420  25.559  37.788  1.00  0.00    -0.237 OA
ATOM     90  O   UNL A   1      45.614  23.979  36.323  1.00  0.00    -0.744 OA
ENDBRANCH  83  87
ENDBRANCH  57  80
ENDBRANCH  31  32
ENDBRANCH  24  26
ENDBRANCH  23  24
ENDBRANCH   1  23
TORSDOF 16
ENDMDL
