MODEL 1
REMARK VINA RESULT:     -11.6      0.000      0.000
REMARK SMILES CC[C@H](C)c1ccccc1Oc1cccc(F)c1C(=O)OCCOC(=O)c1ccc(-c2c3nc(c(-c4cc(S(=O)(=O)[O-])ccc4F)c4ccc([nH]4)c(-c4cc(S(=O)(=O)[O-])ccc4F)c4nc(c(-c5cc(S(=O)(=O)[O-])ccc5F)c5ccc2[nH]5)C=C4)C=C3)cc1
REMARK SMILES IDX 22 1 21 2 19 3 20 4 18 5 12 6 13 7 14 8 16 9 15 10 17 11
REMARK SMILES IDX 11 12 10 13 5 14 6 15 7 16 9 17 8 18 3 19 4 20 2 21 1 22
REMARK SMILES IDX 23 23 24 24 25 25 26 26 27 27 28 28 89 29 29 30 88 31 30 32
REMARK SMILES IDX 31 33 32 34 82 35 33 36 87 37 81 38 83 39 34 40 86 41 80 42
REMARK SMILES IDX 79 43 35 45 67 46 47 47 66 48 48 49 51 50 65 51 84 52 49 53
REMARK SMILES IDX 50 54 64 56 85 57 52 58 36 59 37 60 45 61 38 62 44 63 46 64
REMARK SMILES IDX 43 65 39 66 40 67 41 68 42 69 68 70 69 71 77 72 70 73 76 74
REMARK SMILES IDX 78 75 75 76 71 77 72 78 73 79 74 80 53 81 54 82 62 83 55 84
REMARK SMILES IDX 61 85 63 86 60 87 56 88 57 89 58 90 59 91
REMARK H PARENT 83 44 51 55
REMARK Flexibility Score: inf
ROOT
ATOM      1  C   UNL A   1      36.669  22.806  23.616  1.00  0.00     0.275 C 
ENDROOT
BRANCH   1   2
ATOM      2  O   UNL A   1      35.865  23.719  24.387  1.00  0.00    -0.458 OA
BRANCH   2   3
ATOM      3  C   UNL A   1      34.655  23.974  23.835  1.00  0.00     0.345 C 
ATOM      4  O   UNL A   1      34.406  24.177  22.657  1.00  0.00    -0.246 OA
BRANCH   3   5
ATOM      5  C   UNL A   1      33.629  23.981  24.871  1.00  0.00     0.138 A 
ATOM      6  C   UNL A   1      32.996  25.139  25.335  1.00  0.00     0.144 A 
ATOM      7  C   UNL A   1      31.918  25.006  26.227  1.00  0.00     0.048 A 
ATOM      8  C   UNL A   1      31.452  23.748  26.617  1.00  0.00     0.007 A 
ATOM      9  C   UNL A   1      33.165  22.726  25.275  1.00  0.00     0.141 A 
ATOM     10  C   UNL A   1      32.076  22.603  26.134  1.00  0.00     0.040 A 
ATOM     11  F   UNL A   1      33.734  21.607  24.805  1.00  0.00    -0.206 F 
BRANCH   6  12
ATOM     12  O   UNL A   1      33.182  26.450  24.933  1.00  0.00    -0.456 OA
BRANCH  12  13
ATOM     13  C   UNL A   1      32.170  27.139  24.319  1.00  0.00     0.130 A 
ATOM     14  C   UNL A   1      31.810  28.451  24.699  1.00  0.00    -0.002 A 
ATOM     15  C   UNL A   1      30.861  29.084  23.856  1.00  0.00     0.008 A 
ATOM     16  C   UNL A   1      30.290  28.458  22.741  1.00  0.00     0.001 A 
ATOM     17  C   UNL A   1      31.610  26.515  23.184  1.00  0.00     0.047 A 
ATOM     18  C   UNL A   1      30.662  27.167  22.406  1.00  0.00     0.004 A 
BRANCH  14  19
ATOM     19  C   UNL A   1      32.424  29.281  25.857  1.00  0.00     0.019 C 
ATOM     20  C   UNL A   1      31.791  30.687  25.989  1.00  0.00     0.013 C 
BRANCH  19  21
ATOM     21  C   UNL A   1      32.619  28.669  27.280  1.00  0.00     0.005 C 
ATOM     22  C   UNL A   1      31.401  28.075  27.990  1.00  0.00     0.004 C 
ENDBRANCH  19  21
ENDBRANCH  14  19
ENDBRANCH  12  13
ENDBRANCH   6  12
ENDBRANCH   3   5
ENDBRANCH   2   3
ENDBRANCH   1   2
BRANCH   1  23
ATOM     23  C   UNL A   1      36.907  21.510  24.387  1.00  0.00     0.275 C 
BRANCH  23  24
ATOM     24  O   UNL A   1      37.321  21.812  25.728  1.00  0.00    -0.458 OA
BRANCH  24  25
ATOM     25  C   UNL A   1      38.646  21.683  25.964  1.00  0.00     0.338 C 
ATOM     26  O   UNL A   1      39.317  20.686  25.745  1.00  0.00    -0.246 OA
BRANCH  25  27
ATOM     27  C   UNL A   1      39.189  22.913  26.591  1.00  0.00     0.060 A 
ATOM     28  C   UNL A   1      38.627  24.177  26.381  1.00  0.00     0.016 A 
ATOM     29  C   UNL A   1      40.349  22.794  27.359  1.00  0.00     0.016 A 
ATOM     30  C   UNL A   1      39.255  25.322  26.884  1.00  0.00     0.010 A 
ATOM     31  C   UNL A   1      40.945  23.932  27.907  1.00  0.00     0.010 A 
ATOM     32  C   UNL A   1      40.427  25.211  27.645  1.00  0.00    -0.014 A 
BRANCH  32  33
ATOM     33  C   UNL A   1      41.190  26.410  28.089  1.00  0.00     0.031 A 
ATOM     34  C   UNL A   1      40.477  27.481  28.873  1.00  0.00     0.074 A 
ATOM     35  C   UNL A   1      42.492  26.566  27.782  1.00  0.00     0.049 A 
ATOM     36  N   UNL A   1      40.848  28.707  29.141  1.00  0.00    -0.248 NA
ATOM     37  C   UNL A   1      39.152  27.122  29.402  1.00  0.00     0.031 C 
ATOM     38  C   UNL A   1      43.324  25.591  27.079  1.00  0.00     0.029 A 
ATOM     39  N   UNL A   1      43.341  27.620  28.017  1.00  0.00    -0.354 N 
ATOM     40  C   UNL A   1      39.779  29.286  29.818  1.00  0.00     0.074 A 
ATOM     41  C   UNL A   1      38.746  28.274  29.915  1.00  0.00     0.031 C 
ATOM     42  C   UNL A   1      44.566  26.087  26.949  1.00  0.00     0.029 A 
ATOM     43  C   UNL A   1      44.601  27.440  27.497  1.00  0.00     0.049 A 
ATOM     44  H   UNL A   1      43.073  28.429  28.512  1.00  0.00     0.167 HD
ATOM     45  C   UNL A   1      39.665  30.548  30.303  1.00  0.00     0.034 A 
ATOM     46  C   UNL A   1      45.650  28.283  27.429  1.00  0.00     0.034 A 
ATOM     47  C   UNL A   1      40.715  31.535  30.229  1.00  0.00     0.049 A 
ATOM     48  C   UNL A   1      45.504  29.683  27.968  1.00  0.00     0.074 A 
ATOM     49  C   UNL A   1      40.703  32.849  30.667  1.00  0.00     0.029 A 
ATOM     50  N   UNL A   1      41.977  31.308  29.697  1.00  0.00    -0.354 N 
ATOM     51  N   UNL A   1      44.454  30.255  28.513  1.00  0.00    -0.248 NA
ATOM     52  C   UNL A   1      46.681  30.556  27.868  1.00  0.00     0.031 C 
ATOM     53  C   UNL A   1      41.945  33.425  30.369  1.00  0.00     0.029 A 
ATOM     54  C   UNL A   1      42.749  32.456  29.792  1.00  0.00     0.049 A 
ATOM     55  H   UNL A   1      42.280  30.456  29.309  1.00  0.00     0.167 HD
ATOM     56  C   UNL A   1      44.847  31.554  28.818  1.00  0.00     0.074 A 
ATOM     57  C   UNL A   1      46.235  31.674  28.422  1.00  0.00     0.031 C 
ATOM     58  C   UNL A   1      44.126  32.561  29.372  1.00  0.00     0.034 A 
BRANCH  45  59
ATOM     59  C   UNL A   1      38.332  30.940  30.888  1.00  0.00     0.023 A 
ATOM     60  C   UNL A   1      37.304  31.487  30.100  1.00  0.00     0.031 A 
ATOM     61  C   UNL A   1      38.107  30.814  32.270  1.00  0.00     0.131 A 
ATOM     62  C   UNL A   1      36.130  31.955  30.710  1.00  0.00     0.055 A 
ATOM     63  C   UNL A   1      36.908  31.215  32.861  1.00  0.00     0.041 A 
ATOM     64  F   UNL A   1      39.061  30.317  33.074  1.00  0.00    -0.206 F 
ATOM     65  C   UNL A   1      35.917  31.804  32.082  1.00  0.00     0.022 A 
BRANCH  62  66
ATOM     66  S   UNL A   1      34.944  32.892  29.706  1.00  0.00     0.124 S 
ATOM     67  O   UNL A   1      34.021  33.390  30.724  1.00  0.00    -0.237 OA
ATOM     68  O   UNL A   1      35.791  33.892  29.068  1.00  0.00    -0.237 OA
ATOM     69  O   UNL A   1      34.383  31.884  28.808  1.00  0.00    -0.744 OA
ENDBRANCH  62  66
ENDBRANCH  45  59
BRANCH  46  70
ATOM     70  C   UNL A   1      46.914  27.859  26.768  1.00  0.00     0.023 A 
ATOM     71  C   UNL A   1      47.060  27.933  25.374  1.00  0.00     0.031 A 
ATOM     72  C   UNL A   1      47.982  27.339  27.520  1.00  0.00     0.131 A 
ATOM     73  C   UNL A   1      48.237  27.461  24.771  1.00  0.00     0.055 A 
ATOM     74  C   UNL A   1      49.165  26.911  26.920  1.00  0.00     0.041 A 
ATOM     75  F   UNL A   1      47.889  27.250  28.857  1.00  0.00    -0.206 F 
ATOM     76  C   UNL A   1      49.295  26.962  25.536  1.00  0.00     0.022 A 
BRANCH  73  77
ATOM     77  S   UNL A   1      48.345  27.455  22.961  1.00  0.00     0.124 S 
ATOM     78  O   UNL A   1      48.316  26.026  22.663  1.00  0.00    -0.237 OA
ATOM     79  O   UNL A   1      47.155  28.212  22.583  1.00  0.00    -0.237 OA
ATOM     80  O   UNL A   1      49.616  28.123  22.692  1.00  0.00    -0.744 OA
ENDBRANCH  73  77
ENDBRANCH  46  70
BRANCH  58  81
ATOM     81  C   UNL A   1      44.846  33.863  29.599  1.00  0.00     0.023 A 
ATOM     82  C   UNL A   1      44.839  34.884  28.633  1.00  0.00     0.031 A 
ATOM     83  C   UNL A   1      45.573  34.070  30.784  1.00  0.00     0.131 A 
ATOM     84  C   UNL A   1      45.586  36.052  28.851  1.00  0.00     0.055 A 
ATOM     85  C   UNL A   1      46.280  35.251  31.011  1.00  0.00     0.041 A 
ATOM     86  F   UNL A   1      45.611  33.123  31.735  1.00  0.00    -0.206 F 
ATOM     87  C   UNL A   1      46.298  36.246  30.037  1.00  0.00     0.022 A 
BRANCH  84  88
ATOM     88  S   UNL A   1      45.678  37.288  27.524  1.00  0.00     0.124 S 
ATOM     89  O   UNL A   1      44.268  37.530  27.234  1.00  0.00    -0.237 OA
ATOM     90  O   UNL A   1      46.394  38.384  28.169  1.00  0.00    -0.237 OA
ATOM     91  O   UNL A   1      46.419  36.602  26.467  1.00  0.00    -0.744 OA
ENDBRANCH  84  88
ENDBRANCH  58  81
ENDBRANCH  32  33
ENDBRANCH  25  27
ENDBRANCH  24  25
ENDBRANCH  23  24
ENDBRANCH   1  23
TORSDOF 18
ENDMDL
MODEL 2
REMARK VINA RESULT:     -11.3      5.062      9.953
REMARK SMILES CC[C@H](C)c1ccccc1Oc1cccc(F)c1C(=O)OCCOC(=O)c1ccc(-c2c3nc(c(-c4cc(S(=O)(=O)[O-])ccc4F)c4ccc([nH]4)c(-c4cc(S(=O)(=O)[O-])ccc4F)c4nc(c(-c5cc(S(=O)(=O)[O-])ccc5F)c5ccc2[nH]5)C=C4)C=C3)cc1
REMARK SMILES IDX 22 1 21 2 19 3 20 4 18 5 12 6 13 7 14 8 16 9 15 10 17 11
REMARK SMILES IDX 11 12 10 13 5 14 6 15 7 16 9 17 8 18 3 19 4 20 2 21 1 22
REMARK SMILES IDX 23 23 24 24 25 25 26 26 27 27 28 28 89 29 29 30 88 31 30 32
REMARK SMILES IDX 31 33 32 34 82 35 33 36 87 37 81 38 83 39 34 40 86 41 80 42
REMARK SMILES IDX 79 43 35 45 67 46 47 47 66 48 48 49 51 50 65 51 84 52 49 53
REMARK SMILES IDX 50 54 64 56 85 57 52 58 36 59 37 60 45 61 38 62 44 63 46 64
REMARK SMILES IDX 43 65 39 66 40 67 41 68 42 69 68 70 69 71 77 72 70 73 76 74
REMARK SMILES IDX 78 75 75 76 71 77 72 78 73 79 74 80 53 81 54 82 62 83 55 84
REMARK SMILES IDX 61 85 63 86 60 87 56 88 57 89 58 90 59 91
REMARK H PARENT 83 44 51 55
REMARK Flexibility Score: inf
ROOT
ATOM      1  C   UNL A   1      32.380  28.278  25.323  1.00  0.00     0.275 C 
ENDROOT
BRANCH   1   2
ATOM      2  O   UNL A   1      31.078  27.680  25.186  1.00  0.00    -0.458 OA
BRANCH   2   3
ATOM      3  C   UNL A   1      31.113  26.335  25.030  1.00  0.00     0.345 C 
ATOM      4  O   UNL A   1      30.628  25.492  25.767  1.00  0.00    -0.246 OA
BRANCH   3   5
ATOM      5  C   UNL A   1      31.838  25.995  23.812  1.00  0.00     0.138 A 
ATOM      6  C   UNL A   1      32.913  25.100  23.768  1.00  0.00     0.144 A 
ATOM      7  C   UNL A   1      33.435  24.737  22.514  1.00  0.00     0.048 A 
ATOM      8  C   UNL A   1      32.876  25.221  21.329  1.00  0.00     0.007 A 
ATOM      9  C   UNL A   1      31.292  26.484  22.623  1.00  0.00     0.141 A 
ATOM     10  C   UNL A   1      31.796  26.095  21.384  1.00  0.00     0.040 A 
ATOM     11  F   UNL A   1      30.236  27.309  22.648  1.00  0.00    -0.206 F 
BRANCH   6  12
ATOM     12  O   UNL A   1      33.482  24.375  24.800  1.00  0.00    -0.456 OA
BRANCH  12  13
ATOM     13  C   UNL A   1      33.434  23.006  24.798  1.00  0.00     0.130 A 
ATOM     14  C   UNL A   1      34.596  22.209  24.883  1.00  0.00    -0.002 A 
ATOM     15  C   UNL A   1      34.364  20.819  25.040  1.00  0.00     0.008 A 
ATOM     16  C   UNL A   1      33.081  20.258  25.081  1.00  0.00     0.001 A 
ATOM     17  C   UNL A   1      32.141  22.444  24.861  1.00  0.00     0.047 A 
ATOM     18  C   UNL A   1      31.965  21.072  24.986  1.00  0.00     0.004 A 
BRANCH  14  19
ATOM     19  C   UNL A   1      36.063  22.713  24.931  1.00  0.00     0.019 C 
ATOM     20  C   UNL A   1      36.634  23.032  23.528  1.00  0.00     0.013 C 
BRANCH  19  21
ATOM     21  C   UNL A   1      36.507  23.826  25.932  1.00  0.00     0.005 C 
ATOM     22  C   UNL A   1      38.004  24.077  26.125  1.00  0.00     0.004 C 
ENDBRANCH  19  21
ENDBRANCH  14  19
ENDBRANCH  12  13
ENDBRANCH   6  12
ENDBRANCH   3   5
ENDBRANCH   2   3
ENDBRANCH   1   2
BRANCH   1  23
ATOM     23  C   UNL A   1      32.268  29.793  25.476  1.00  0.00     0.275 C 
BRANCH  23  24
ATOM     24  O   UNL A   1      32.235  30.138  26.869  1.00  0.00    -0.458 OA
BRANCH  24  25
ATOM     25  C   UNL A   1      32.915  31.259  27.200  1.00  0.00     0.338 C 
ATOM     26  O   UNL A   1      32.515  32.404  27.063  1.00  0.00    -0.246 OA
BRANCH  25  27
ATOM     27  C   UNL A   1      34.266  30.920  27.710  1.00  0.00     0.060 A 
ATOM     28  C   UNL A   1      34.656  29.608  27.999  1.00  0.00     0.016 A 
ATOM     29  C   UNL A   1      35.145  31.974  27.975  1.00  0.00     0.016 A 
ATOM     30  C   UNL A   1      35.892  29.354  28.606  1.00  0.00     0.010 A 
ATOM     31  C   UNL A   1      36.400  31.715  28.529  1.00  0.00     0.010 A 
ATOM     32  C   UNL A   1      36.773  30.408  28.886  1.00  0.00    -0.014 A 
BRANCH  32  33
ATOM     33  C   UNL A   1      38.038  30.193  29.641  1.00  0.00     0.031 A 
ATOM     34  C   UNL A   1      39.092  29.288  29.059  1.00  0.00     0.074 A 
ATOM     35  C   UNL A   1      38.244  30.768  30.841  1.00  0.00     0.049 A 
ATOM     36  N   UNL A   1      40.139  28.750  29.629  1.00  0.00    -0.248 NA
ATOM     37  C   UNL A   1      38.922  28.923  27.644  1.00  0.00     0.031 C 
ATOM     38  C   UNL A   1      37.339  31.707  31.502  1.00  0.00     0.029 A 
ATOM     39  N   UNL A   1      39.287  30.631  31.725  1.00  0.00    -0.354 N 
ATOM     40  C   UNL A   1      40.720  27.934  28.662  1.00  0.00     0.074 A 
ATOM     41  C   UNL A   1      39.904  28.050  27.471  1.00  0.00     0.031 C 
ATOM     42  C   UNL A   1      37.871  32.071  32.682  1.00  0.00     0.029 A 
ATOM     43  C   UNL A   1      39.117  31.339  32.892  1.00  0.00     0.049 A 
ATOM     44  H   UNL A   1      40.081  30.078  31.542  1.00  0.00     0.167 HD
ATOM     45  C   UNL A   1      41.825  27.153  28.763  1.00  0.00     0.034 A 
ATOM     46  C   UNL A   1      39.857  31.363  34.018  1.00  0.00     0.034 A 
ATOM     47  C   UNL A   1      42.648  27.075  29.945  1.00  0.00     0.049 A 
ATOM     48  C   UNL A   1      41.078  30.485  34.114  1.00  0.00     0.074 A 
ATOM     49  C   UNL A   1      43.777  26.303  30.167  1.00  0.00     0.029 A 
ATOM     50  N   UNL A   1      42.442  27.814  31.103  1.00  0.00    -0.354 N 
ATOM     51  N   UNL A   1      41.560  29.639  33.233  1.00  0.00    -0.248 NA
ATOM     52  C   UNL A   1      41.845  30.555  35.365  1.00  0.00     0.031 C 
ATOM     53  C   UNL A   1      44.231  26.549  31.469  1.00  0.00     0.029 A 
ATOM     54  C   UNL A   1      43.417  27.513  32.042  1.00  0.00     0.049 A 
ATOM     55  H   UNL A   1      41.709  28.457  31.237  1.00  0.00     0.167 HD
ATOM     56  C   UNL A   1      42.686  29.076  33.826  1.00  0.00     0.074 A 
ATOM     57  C   UNL A   1      42.826  29.697  35.127  1.00  0.00     0.031 C 
ATOM     58  C   UNL A   1      43.528  28.128  33.342  1.00  0.00     0.034 A 
BRANCH  45  59
ATOM     59  C   UNL A   1      42.153  26.275  27.582  1.00  0.00     0.023 A 
ATOM     60  C   UNL A   1      41.803  24.914  27.546  1.00  0.00     0.031 A 
ATOM     61  C   UNL A   1      42.879  26.798  26.498  1.00  0.00     0.131 A 
ATOM     62  C   UNL A   1      42.243  24.108  26.485  1.00  0.00     0.055 A 
ATOM     63  C   UNL A   1      43.251  26.008  25.410  1.00  0.00     0.041 A 
ATOM     64  F   UNL A   1      43.258  28.087  26.489  1.00  0.00    -0.206 F 
ATOM     65  C   UNL A   1      42.947  24.650  25.407  1.00  0.00     0.022 A 
BRANCH  62  66
ATOM     66  S   UNL A   1      42.004  22.313  26.601  1.00  0.00     0.124 S 
ATOM     67  O   UNL A   1      42.639  21.848  25.370  1.00  0.00    -0.237 OA
ATOM     68  O   UNL A   1      42.696  21.982  27.841  1.00  0.00    -0.237 OA
ATOM     69  O   UNL A   1      40.550  22.162  26.639  1.00  0.00    -0.744 OA
ENDBRANCH  62  66
ENDBRANCH  45  59
BRANCH  46  70
ATOM     70  C   UNL A   1      39.434  32.195  35.178  1.00  0.00     0.023 A 
ATOM     71  C   UNL A   1      38.725  31.631  36.250  1.00  0.00     0.031 A 
ATOM     72  C   UNL A   1      39.701  33.575  35.211  1.00  0.00     0.131 A 
ATOM     73  C   UNL A   1      38.278  32.452  37.298  1.00  0.00     0.055 A 
ATOM     74  C   UNL A   1      39.291  34.378  36.275  1.00  0.00     0.041 A 
ATOM     75  F   UNL A   1      40.377  34.158  34.208  1.00  0.00    -0.206 F 
ATOM     76  C   UNL A   1      38.567  33.819  37.323  1.00  0.00     0.022 A 
BRANCH  73  77
ATOM     77  S   UNL A   1      37.260  31.716  38.605  1.00  0.00     0.124 S 
ATOM     78  O   UNL A   1      37.034  30.370  38.087  1.00  0.00    -0.237 OA
ATOM     79  O   UNL A   1      38.138  31.815  39.767  1.00  0.00    -0.237 OA
ATOM     80  O   UNL A   1      36.079  32.576  38.644  1.00  0.00    -0.744 OA
ENDBRANCH  73  77
ENDBRANCH  46  70
BRANCH  58  81
ATOM     81  C   UNL A   1      44.683  27.736  34.225  1.00  0.00     0.023 A 
ATOM     82  C   UNL A   1      44.599  26.637  35.098  1.00  0.00     0.031 A 
ATOM     83  C   UNL A   1      45.869  28.489  34.211  1.00  0.00     0.131 A 
ATOM     84  C   UNL A   1      45.669  26.350  35.959  1.00  0.00     0.055 A 
ATOM     85  C   UNL A   1      46.944  28.174  35.041  1.00  0.00     0.041 A 
ATOM     86  F   UNL A   1      45.995  29.548  33.396  1.00  0.00    -0.206 F 
ATOM     87  C   UNL A   1      46.845  27.105  35.929  1.00  0.00     0.022 A 
BRANCH  84  88
ATOM     88  S   UNL A   1      45.475  25.019  37.178  1.00  0.00     0.124 S 
ATOM     89  O   UNL A   1      44.949  25.738  38.334  1.00  0.00    -0.237 OA
ATOM     90  O   UNL A   1      44.543  24.117  36.509  1.00  0.00    -0.237 OA
ATOM     91  O   UNL A   1      46.833  24.501  37.337  1.00  0.00    -0.744 OA
ENDBRANCH  84  88
ENDBRANCH  58  81
ENDBRANCH  32  33
ENDBRANCH  25  27
ENDBRANCH  24  25
ENDBRANCH  23  24
ENDBRANCH   1  23
TORSDOF 18
ENDMDL
MODEL 3
REMARK VINA RESULT:     -11.1      4.897      9.720
REMARK SMILES CC[C@H](C)c1ccccc1Oc1cccc(F)c1C(=O)OCCOC(=O)c1ccc(-c2c3nc(c(-c4cc(S(=O)(=O)[O-])ccc4F)c4ccc([nH]4)c(-c4cc(S(=O)(=O)[O-])ccc4F)c4nc(c(-c5cc(S(=O)(=O)[O-])ccc5F)c5ccc2[nH]5)C=C4)C=C3)cc1
REMARK SMILES IDX 22 1 21 2 19 3 20 4 18 5 12 6 13 7 14 8 16 9 15 10 17 11
REMARK SMILES IDX 11 12 10 13 5 14 6 15 7 16 9 17 8 18 3 19 4 20 2 21 1 22
REMARK SMILES IDX 23 23 24 24 25 25 26 26 27 27 28 28 89 29 29 30 88 31 30 32
REMARK SMILES IDX 31 33 32 34 82 35 33 36 87 37 81 38 83 39 34 40 86 41 80 42
REMARK SMILES IDX 79 43 35 45 67 46 47 47 66 48 48 49 51 50 65 51 84 52 49 53
REMARK SMILES IDX 50 54 64 56 85 57 52 58 36 59 37 60 45 61 38 62 44 63 46 64
REMARK SMILES IDX 43 65 39 66 40 67 41 68 42 69 68 70 69 71 77 72 70 73 76 74
REMARK SMILES IDX 78 75 75 76 71 77 72 78 73 79 74 80 53 81 54 82 62 83 55 84
REMARK SMILES IDX 61 85 63 86 60 87 56 88 57 89 58 90 59 91
REMARK H PARENT 83 44 51 55
REMARK Flexibility Score: inf
ROOT
ATOM      1  C   UNL A   1      32.874  29.040  24.842  1.00  0.00     0.275 C 
ENDROOT
BRANCH   1   2
ATOM      2  O   UNL A   1      33.123  27.896  25.679  1.00  0.00    -0.458 OA
BRANCH   2   3
ATOM      3  C   UNL A   1      32.265  26.870  25.465  1.00  0.00     0.345 C 
ATOM      4  O   UNL A   1      31.290  26.569  26.136  1.00  0.00    -0.246 OA
BRANCH   3   5
ATOM      5  C   UNL A   1      32.665  26.127  24.277  1.00  0.00     0.138 A 
ATOM      6  C   UNL A   1      33.710  25.196  24.254  1.00  0.00     0.144 A 
ATOM      7  C   UNL A   1      33.905  24.432  23.090  1.00  0.00     0.048 A 
ATOM      8  C   UNL A   1      33.057  24.562  21.988  1.00  0.00     0.007 A 
ATOM      9  C   UNL A   1      31.828  26.259  23.166  1.00  0.00     0.141 A 
ATOM     10  C   UNL A   1      32.010  25.476  22.029  1.00  0.00     0.040 A 
ATOM     11  F   UNL A   1      30.798  27.116  23.190  1.00  0.00    -0.206 F 
BRANCH   6  12
ATOM     12  O   UNL A   1      34.534  24.790  25.289  1.00  0.00    -0.456 OA
BRANCH  12  13
ATOM     13  C   UNL A   1      35.185  23.587  25.228  1.00  0.00     0.130 A 
ATOM     14  C   UNL A   1      34.563  22.372  25.592  1.00  0.00    -0.002 A 
ATOM     15  C   UNL A   1      35.314  21.202  25.310  1.00  0.00     0.008 A 
ATOM     16  C   UNL A   1      36.594  21.233  24.742  1.00  0.00     0.001 A 
ATOM     17  C   UNL A   1      36.465  23.617  24.636  1.00  0.00     0.047 A 
ATOM     18  C   UNL A   1      37.175  22.445  24.407  1.00  0.00     0.004 A 
BRANCH  14  19
ATOM     19  C   UNL A   1      33.127  22.198  26.151  1.00  0.00     0.019 C 
ATOM     20  C   UNL A   1      32.880  23.024  27.436  1.00  0.00     0.013 C 
BRANCH  19  21
ATOM     21  C   UNL A   1      31.875  22.305  25.223  1.00  0.00     0.005 C 
ATOM     22  C   UNL A   1      30.627  23.007  25.761  1.00  0.00     0.004 C 
ENDBRANCH  19  21
ENDBRANCH  14  19
ENDBRANCH  12  13
ENDBRANCH   6  12
ENDBRANCH   3   5
ENDBRANCH   2   3
ENDBRANCH   1   2
BRANCH   1  23
ATOM     23  C   UNL A   1      31.870  29.984  25.499  1.00  0.00     0.275 C 
BRANCH  23  24
ATOM     24  O   UNL A   1      32.203  30.158  26.884  1.00  0.00    -0.458 OA
BRANCH  24  25
ATOM     25  C   UNL A   1      32.852  31.307  27.180  1.00  0.00     0.338 C 
ATOM     26  O   UNL A   1      32.415  32.436  27.022  1.00  0.00    -0.246 OA
BRANCH  25  27
ATOM     27  C   UNL A   1      34.219  31.022  27.681  1.00  0.00     0.060 A 
ATOM     28  C   UNL A   1      34.661  29.726  27.970  1.00  0.00     0.016 A 
ATOM     29  C   UNL A   1      35.058  32.109  27.936  1.00  0.00     0.016 A 
ATOM     30  C   UNL A   1      35.910  29.522  28.567  1.00  0.00     0.010 A 
ATOM     31  C   UNL A   1      36.326  31.900  28.481  1.00  0.00     0.010 A 
ATOM     32  C   UNL A   1      36.752  30.609  28.838  1.00  0.00    -0.014 A 
BRANCH  32  33
ATOM     33  C   UNL A   1      38.030  30.445  29.584  1.00  0.00     0.031 A 
ATOM     34  C   UNL A   1      39.124  29.601  28.983  1.00  0.00     0.074 A 
ATOM     35  C   UNL A   1      38.215  31.012  30.792  1.00  0.00     0.049 A 
ATOM     36  N   UNL A   1      40.199  29.107  29.541  1.00  0.00    -0.248 NA
ATOM     37  C   UNL A   1      38.964  29.249  27.564  1.00  0.00     0.031 C 
ATOM     38  C   UNL A   1      37.268  31.895  31.471  1.00  0.00     0.029 A 
ATOM     39  N   UNL A   1      39.267  30.912  31.669  1.00  0.00    -0.354 N 
ATOM     40  C   UNL A   1      40.814  28.335  28.559  1.00  0.00     0.074 A 
ATOM     41  C   UNL A   1      39.986  28.429  27.373  1.00  0.00     0.031 C 
ATOM     42  C   UNL A   1      37.787  32.267  32.654  1.00  0.00     0.029 A 
ATOM     43  C   UNL A   1      39.069  31.594  32.847  1.00  0.00     0.049 A 
ATOM     44  H   UNL A   1      40.086  30.402  31.473  1.00  0.00     0.167 HD
ATOM     45  C   UNL A   1      41.956  27.608  28.643  1.00  0.00     0.034 A 
ATOM     46  C   UNL A   1      39.813  31.637  33.970  1.00  0.00     0.034 A 
ATOM     47  C   UNL A   1      42.789  27.552  29.819  1.00  0.00     0.049 A 
ATOM     48  C   UNL A   1      41.076  30.818  34.047  1.00  0.00     0.074 A 
ATOM     49  C   UNL A   1      43.954  26.833  30.025  1.00  0.00     0.029 A 
ATOM     50  N   UNL A   1      42.552  28.262  30.989  1.00  0.00    -0.354 N 
ATOM     51  N   UNL A   1      41.594  30.010  33.151  1.00  0.00    -0.248 NA
ATOM     52  C   UNL A   1      41.845  30.907  35.295  1.00  0.00     0.031 C 
ATOM     53  C   UNL A   1      44.403  27.081  31.328  1.00  0.00     0.029 A 
ATOM     54  C   UNL A   1      43.546  27.996  31.919  1.00  0.00     0.049 A 
ATOM     55  H   UNL A   1      41.790  28.867  31.137  1.00  0.00     0.167 HD
ATOM     56  C   UNL A   1      42.749  29.494  33.730  1.00  0.00     0.074 A 
ATOM     57  C   UNL A   1      42.866  30.102  35.040  1.00  0.00     0.031 C 
ATOM     58  C   UNL A   1      43.634  28.596  33.228  1.00  0.00     0.034 A 
BRANCH  45  59
ATOM     59  C   UNL A   1      42.320  26.764  27.447  1.00  0.00     0.023 A 
ATOM     60  C   UNL A   1      41.924  25.420  27.335  1.00  0.00     0.031 A 
ATOM     61  C   UNL A   1      43.126  27.301  26.428  1.00  0.00     0.131 A 
ATOM     62  C   UNL A   1      42.395  24.640  26.268  1.00  0.00     0.055 A 
ATOM     63  C   UNL A   1      43.532  26.540  25.332  1.00  0.00     0.041 A 
ATOM     64  F   UNL A   1      43.551  28.574  26.493  1.00  0.00    -0.206 F 
ATOM     65  C   UNL A   1      43.180  25.196  25.255  1.00  0.00     0.022 A 
BRANCH  62  66
ATOM     66  S   UNL A   1      42.085  22.852  26.296  1.00  0.00     0.124 S 
ATOM     67  O   UNL A   1      42.817  22.442  27.492  1.00  0.00    -0.237 OA
ATOM     68  O   UNL A   1      40.631  22.786  26.384  1.00  0.00    -0.237 OA
ATOM     69  O   UNL A   1      42.656  22.385  25.034  1.00  0.00    -0.744 OA
ENDBRANCH  62  66
ENDBRANCH  45  59
BRANCH  46  70
ATOM     70  C   UNL A   1      39.357  32.430  35.144  1.00  0.00     0.023 A 
ATOM     71  C   UNL A   1      39.821  33.738  35.358  1.00  0.00     0.031 A 
ATOM     72  C   UNL A   1      38.478  31.874  36.091  1.00  0.00     0.131 A 
ATOM     73  C   UNL A   1      39.428  34.436  36.511  1.00  0.00     0.055 A 
ATOM     74  C   UNL A   1      38.058  32.588  37.212  1.00  0.00     0.041 A 
ATOM     75  F   UNL A   1      38.007  30.627  35.928  1.00  0.00    -0.206 F 
ATOM     76  C   UNL A   1      38.540  33.874  37.432  1.00  0.00     0.022 A 
BRANCH  73  77
ATOM     77  S   UNL A   1      40.141  36.074  36.820  1.00  0.00     0.124 S 
ATOM     78  O   UNL A   1      39.376  36.520  37.981  1.00  0.00    -0.237 OA
ATOM     79  O   UNL A   1      41.544  35.754  37.062  1.00  0.00    -0.237 OA
ATOM     80  O   UNL A   1      39.875  36.802  35.581  1.00  0.00    -0.744 OA
ENDBRANCH  73  77
ENDBRANCH  46  70
BRANCH  58  81
ATOM     81  C   UNL A   1      44.811  28.247  34.099  1.00  0.00     0.023 A 
ATOM     82  C   UNL A   1      44.764  27.169  35.000  1.00  0.00     0.031 A 
ATOM     83  C   UNL A   1      45.982  29.022  34.046  1.00  0.00     0.131 A 
ATOM     84  C   UNL A   1      45.854  26.924  35.848  1.00  0.00     0.055 A 
ATOM     85  C   UNL A   1      47.078  28.748  34.864  1.00  0.00     0.041 A 
ATOM     86  F   UNL A   1      46.074  30.063  33.203  1.00  0.00    -0.206 F 
ATOM     87  C   UNL A   1      47.014  27.700  35.780  1.00  0.00     0.022 A 
BRANCH  84  88
ATOM     88  S   UNL A   1      45.707  25.620  37.103  1.00  0.00     0.124 S 
ATOM     89  O   UNL A   1      46.329  24.481  36.434  1.00  0.00    -0.237 OA
ATOM     90  O   UNL A   1      46.450  26.184  38.226  1.00  0.00    -0.237 OA
ATOM     91  O   UNL A   1      44.265  25.505  37.310  1.00  0.00    -0.744 OA
ENDBRANCH  84  88
ENDBRANCH  58  81
ENDBRANCH  32  33
ENDBRANCH  25  27
ENDBRANCH  24  25
ENDBRANCH  23  24
ENDBRANCH   1  23
TORSDOF 18
ENDMDL
