MODEL 1
REMARK VINA RESULT:     -11.0      0.000      0.000
REMARK SMILES C=CCOc1ccc(C(=O)N2CCC[C@H]2C(=O)OCCOC(=O)c2ccc(-c3c4nc(c(-c5cc(S(=O)(=O)[O-])ccc5F)c5ccc([nH]5)c(-c5cc(S(=O)(=O)[O-])ccc5F)c5nc(c(-c6cc(S(=O)(=O)[O-])ccc6F)c6ccc3[nH]6)C=C5)C=C4)cc2)cc1
REMARK SMILES IDX 19 1 18 2 16 3 17 4 15 5 11 6 12 7 13 8 14 9 9 10 10 11 8 12
REMARK SMILES IDX 5 13 6 14 88 15 7 16 87 17 4 18 3 19 2 20 1 21 20 22 21 23
REMARK SMILES IDX 22 24 23 25 24 26 25 27 86 28 26 29 85 30 27 31 28 32 29 33
REMARK SMILES IDX 79 34 30 35 84 36 78 37 80 38 31 39 83 40 77 41 76 42 32 44
REMARK SMILES IDX 64 45 44 46 63 47 45 48 48 49 62 50 81 51 46 52 47 53 61 55
REMARK SMILES IDX 82 56 49 57 33 58 34 59 42 60 35 61 41 62 43 63 40 64 36 65
REMARK SMILES IDX 37 66 38 67 39 68 65 69 66 70 74 71 67 72 73 73 75 74 72 75
REMARK SMILES IDX 68 76 69 77 70 78 71 79 50 80 51 81 59 82 52 83 58 84 60 85
REMARK SMILES IDX 57 86 53 87 54 88 55 89 56 90
REMARK H PARENT 80 43 48 54
REMARK Flexibility Score: inf
ROOT
ATOM      1  C   UNL A   1      36.520  19.636  24.987  1.00  0.00     0.274 C 
ENDROOT
BRANCH   1   2
ATOM      2  O   UNL A   1      35.554  20.700  25.036  1.00  0.00    -0.461 OA
BRANCH   2   3
ATOM      3  C   UNL A   1      34.250  20.333  24.926  1.00  0.00     0.328 C 
ATOM      4  O   UNL A   1      33.844  19.191  25.124  1.00  0.00    -0.250 OA
BRANCH   3   5
ATOM      5  C   UNL A   1      33.332  21.545  24.691  1.00  0.00     0.195 C 
ATOM      6  N   UNL A   1      33.959  22.861  24.724  1.00  0.00    -0.325 N 
ATOM      7  C   UNL A   1      34.272  23.295  23.376  1.00  0.00     0.121 C 
ATOM      8  C   UNL A   1      33.133  22.741  22.543  1.00  0.00     0.024 C 
ATOM      9  C   UNL A   1      32.664  21.497  23.298  1.00  0.00     0.039 C 
BRANCH   6  10
ATOM     10  C   UNL A   1      33.967  23.600  25.894  1.00  0.00     0.254 C 
ATOM     11  O   UNL A   1      34.404  23.172  26.957  1.00  0.00    -0.269 OA
BRANCH  10  12
ATOM     12  C   UNL A   1      33.292  24.926  25.901  1.00  0.00     0.040 A 
ATOM     13  C   UNL A   1      32.033  27.424  26.123  1.00  0.00     0.119 A 
ATOM     14  C   UNL A   1      33.394  27.348  25.810  1.00  0.00     0.047 A 
ATOM     15  C   UNL A   1      31.308  26.253  26.318  1.00  0.00     0.047 A 
ATOM     16  C   UNL A   1      34.028  26.100  25.712  1.00  0.00     0.017 A 
ATOM     17  C   UNL A   1      31.941  25.016  26.247  1.00  0.00     0.017 A 
BRANCH  13  18
ATOM     18  O   UNL A   1      31.462  28.667  26.161  1.00  0.00    -0.490 OA
BRANCH  18  19
ATOM     19  C   UNL A   1      31.600  29.430  24.951  1.00  0.00     0.257 C 
BRANCH  19  20
ATOM     20  C   UNL A   1      30.674  28.929  23.876  1.00  0.00     0.006 C 
ATOM     21  C   UNL A   1      29.728  29.679  23.291  1.00  0.00     0.007 C 
ENDBRANCH  19  20
ENDBRANCH  18  19
ENDBRANCH  13  18
ENDBRANCH  10  12
ENDBRANCH   6  10
ENDBRANCH   3   5
ENDBRANCH   2   3
ENDBRANCH   1   2
BRANCH   1  22
ATOM     22  C   UNL A   1      37.944  20.177  24.805  1.00  0.00     0.275 C 
BRANCH  22  23
ATOM     23  O   UNL A   1      38.255  21.227  25.744  1.00  0.00    -0.458 OA
BRANCH  23  24
ATOM     24  C   UNL A   1      39.473  21.122  26.330  1.00  0.00     0.338 C 
ATOM     25  O   UNL A   1      40.204  20.146  26.320  1.00  0.00    -0.246 OA
BRANCH  24  26
ATOM     26  C   UNL A   1      39.912  22.423  26.870  1.00  0.00     0.060 A 
ATOM     27  C   UNL A   1      39.388  23.569  26.267  1.00  0.00     0.016 A 
ATOM     28  C   UNL A   1      40.876  22.539  27.874  1.00  0.00     0.016 A 
ATOM     29  C   UNL A   1      39.805  24.834  26.665  1.00  0.00     0.010 A 
ATOM     30  C   UNL A   1      41.312  23.814  28.262  1.00  0.00     0.010 A 
ATOM     31  C   UNL A   1      40.785  24.968  27.653  1.00  0.00    -0.014 A 
BRANCH  31  32
ATOM     32  C   UNL A   1      41.311  26.322  27.956  1.00  0.00     0.031 A 
ATOM     33  C   UNL A   1      42.705  26.687  27.528  1.00  0.00     0.074 A 
ATOM     34  C   UNL A   1      40.518  27.244  28.534  1.00  0.00     0.049 A 
ATOM     35  N   UNL A   1      43.364  27.801  27.708  1.00  0.00    -0.248 NA
ATOM     36  C   UNL A   1      43.452  25.654  26.795  1.00  0.00     0.031 C 
ATOM     37  C   UNL A   1      39.125  27.027  28.924  1.00  0.00     0.029 A 
ATOM     38  N   UNL A   1      40.766  28.548  28.883  1.00  0.00    -0.354 N 
ATOM     39  C   UNL A   1      44.610  27.605  27.120  1.00  0.00     0.074 A 
ATOM     40  C   UNL A   1      44.619  26.252  26.603  1.00  0.00     0.031 C 
ATOM     41  C   UNL A   1      38.640  28.162  29.457  1.00  0.00     0.029 A 
ATOM     42  C   UNL A   1      39.698  29.168  29.489  1.00  0.00     0.049 A 
ATOM     43  H   UNL A   1      41.626  28.996  28.715  1.00  0.00     0.167 HD
ATOM     44  C   UNL A   1      45.646  28.475  27.019  1.00  0.00     0.034 A 
ATOM     45  C   UNL A   1      39.597  30.397  30.035  1.00  0.00     0.034 A 
ATOM     46  C   UNL A   1      45.622  29.819  27.547  1.00  0.00     0.049 A 
ATOM     47  C   UNL A   1      40.794  31.316  29.992  1.00  0.00     0.074 A 
ATOM     48  C   UNL A   1      46.620  30.779  27.512  1.00  0.00     0.029 A 
ATOM     49  N   UNL A   1      44.545  30.394  28.213  1.00  0.00    -0.354 N 
ATOM     50  N   UNL A   1      41.977  31.107  29.461  1.00  0.00    -0.248 NA
ATOM     51  C   UNL A   1      40.639  32.635  30.619  1.00  0.00     0.031 C 
ATOM     52  C   UNL A   1      46.171  31.905  28.210  1.00  0.00     0.029 A 
ATOM     53  C   UNL A   1      44.866  31.681  28.618  1.00  0.00     0.049 A 
ATOM     54  H   UNL A   1      43.682  29.950  28.375  1.00  0.00     0.167 HD
ATOM     55  C   UNL A   1      42.698  32.281  29.670  1.00  0.00     0.074 A 
ATOM     56  C   UNL A   1      41.812  33.196  30.360  1.00  0.00     0.031 C 
ATOM     57  C   UNL A   1      43.975  32.578  29.317  1.00  0.00     0.034 A 
BRANCH  44  58
ATOM     58  C   UNL A   1      46.910  27.967  26.371  1.00  0.00     0.023 A 
ATOM     59  C   UNL A   1      47.156  28.125  24.995  1.00  0.00     0.031 A 
ATOM     60  C   UNL A   1      47.866  27.273  27.134  1.00  0.00     0.131 A 
ATOM     61  C   UNL A   1      48.290  27.535  24.415  1.00  0.00     0.055 A 
ATOM     62  C   UNL A   1      49.031  26.756  26.564  1.00  0.00     0.041 A 
ATOM     63  F   UNL A   1      47.676  27.072  28.448  1.00  0.00    -0.206 F 
ATOM     64  C   UNL A   1      49.240  26.871  25.194  1.00  0.00     0.022 A 
BRANCH  61  65
ATOM     65  S   UNL A   1      48.430  27.520  22.606  1.00  0.00     0.124 S 
ATOM     66  O   UNL A   1      47.197  28.196  22.208  1.00  0.00    -0.237 OA
ATOM     67  O   UNL A   1      49.667  28.258  22.379  1.00  0.00    -0.237 OA
ATOM     68  O   UNL A   1      48.485  26.097  22.278  1.00  0.00    -0.744 OA
ENDBRANCH  61  65
ENDBRANCH  44  58
BRANCH  45  69
ATOM     69  C   UNL A   1      38.340  30.818  30.717  1.00  0.00     0.023 A 
ATOM     70  C   UNL A   1      37.313  31.473  30.019  1.00  0.00     0.031 A 
ATOM     71  C   UNL A   1      38.172  30.614  32.099  1.00  0.00     0.131 A 
ATOM     72  C   UNL A   1      36.183  31.936  30.711  1.00  0.00     0.055 A 
ATOM     73  C   UNL A   1      37.023  31.031  32.774  1.00  0.00     0.041 A 
ATOM     74  F   UNL A   1      39.125  29.997  32.815  1.00  0.00    -0.206 F 
ATOM     75  C   UNL A   1      36.025  31.707  32.080  1.00  0.00     0.022 A 
BRANCH  72  76
ATOM     76  S   UNL A   1      34.950  32.916  29.809  1.00  0.00     0.124 S 
ATOM     77  O   UNL A   1      34.035  33.300  30.878  1.00  0.00    -0.237 OA
ATOM     78  O   UNL A   1      35.768  33.986  29.247  1.00  0.00    -0.237 OA
ATOM     79  O   UNL A   1      34.411  31.969  28.834  1.00  0.00    -0.744 OA
ENDBRANCH  72  76
ENDBRANCH  45  69
BRANCH  57  80
ATOM     80  C   UNL A   1      44.467  33.970  29.633  1.00  0.00     0.023 A 
ATOM     81  C   UNL A   1      44.293  35.040  28.738  1.00  0.00     0.031 A 
ATOM     82  C   UNL A   1      45.133  34.223  30.845  1.00  0.00     0.131 A 
ATOM     83  C   UNL A   1      44.824  36.302  29.047  1.00  0.00     0.055 A 
ATOM     84  C   UNL A   1      45.610  35.492  31.171  1.00  0.00     0.041 A 
ATOM     85  F   UNL A   1      45.328  33.236  31.736  1.00  0.00    -0.206 F 
ATOM     86  C   UNL A   1      45.467  36.538  30.264  1.00  0.00     0.022 A 
BRANCH  83  87
ATOM     87  S   UNL A   1      44.739  37.615  27.797  1.00  0.00     0.124 S 
ATOM     88  O   UNL A   1      44.788  38.820  28.619  1.00  0.00    -0.237 OA
ATOM     89  O   UNL A   1      45.921  37.349  26.984  1.00  0.00    -0.237 OA
ATOM     90  O   UNL A   1      43.462  37.370  27.129  1.00  0.00    -0.744 OA
ENDBRANCH  83  87
ENDBRANCH  57  80
ENDBRANCH  31  32
ENDBRANCH  24  26
ENDBRANCH  23  24
ENDBRANCH  22  23
ENDBRANCH   1  22
TORSDOF 19
ENDMDL
MODEL 2
REMARK VINA RESULT:     -10.9      1.207      7.651
REMARK SMILES C=CCOc1ccc(C(=O)N2CCC[C@H]2C(=O)OCCOC(=O)c2ccc(-c3c4nc(c(-c5cc(S(=O)(=O)[O-])ccc5F)c5ccc([nH]5)c(-c5cc(S(=O)(=O)[O-])ccc5F)c5nc(c(-c6cc(S(=O)(=O)[O-])ccc6F)c6ccc3[nH]6)C=C5)C=C4)cc2)cc1
REMARK SMILES IDX 19 1 18 2 16 3 17 4 15 5 11 6 12 7 13 8 14 9 9 10 10 11 8 12
REMARK SMILES IDX 5 13 6 14 88 15 7 16 87 17 4 18 3 19 2 20 1 21 20 22 21 23
REMARK SMILES IDX 22 24 23 25 24 26 25 27 86 28 26 29 85 30 27 31 28 32 29 33
REMARK SMILES IDX 79 34 30 35 84 36 78 37 80 38 31 39 83 40 77 41 76 42 32 44
REMARK SMILES IDX 64 45 44 46 63 47 45 48 48 49 62 50 81 51 46 52 47 53 61 55
REMARK SMILES IDX 82 56 49 57 33 58 34 59 42 60 35 61 41 62 43 63 40 64 36 65
REMARK SMILES IDX 37 66 38 67 39 68 65 69 66 70 74 71 67 72 73 73 75 74 72 75
REMARK SMILES IDX 68 76 69 77 70 78 71 79 50 80 51 81 59 82 52 83 58 84 60 85
REMARK SMILES IDX 57 86 53 87 54 88 55 89 56 90
REMARK H PARENT 80 43 48 54
REMARK Flexibility Score: inf
ROOT
ATOM      1  C   UNL A   1      35.555  20.585  25.025  1.00  0.00     0.274 C 
ENDROOT
BRANCH   1   2
ATOM      2  O   UNL A   1      35.102  21.823  25.598  1.00  0.00    -0.461 OA
BRANCH   2   3
ATOM      3  C   UNL A   1      33.851  21.817  26.131  1.00  0.00     0.328 C 
ATOM      4  O   UNL A   1      33.589  21.378  27.247  1.00  0.00    -0.250 OA
BRANCH   3   5
ATOM      5  C   UNL A   1      32.847  22.572  25.243  1.00  0.00     0.195 C 
ATOM      6  N   UNL A   1      33.383  23.633  24.399  1.00  0.00    -0.325 N 
ATOM      7  C   UNL A   1      33.630  23.126  23.062  1.00  0.00     0.121 C 
ATOM      8  C   UNL A   1      32.508  22.130  22.841  1.00  0.00     0.024 C 
ATOM      9  C   UNL A   1      32.146  21.629  24.240  1.00  0.00     0.039 C 
BRANCH   6  10
ATOM     10  C   UNL A   1      33.373  24.945  24.837  1.00  0.00     0.254 C 
ATOM     11  O   UNL A   1      33.987  25.329  25.827  1.00  0.00    -0.269 OA
BRANCH  10  12
ATOM     12  C   UNL A   1      32.467  25.913  24.160  1.00  0.00     0.040 A 
ATOM     13  C   UNL A   1      30.805  27.642  22.704  1.00  0.00     0.119 A 
ATOM     14  C   UNL A   1      30.258  26.553  23.389  1.00  0.00     0.047 A 
ATOM     15  C   UNL A   1      32.178  27.864  22.753  1.00  0.00     0.047 A 
ATOM     16  C   UNL A   1      31.089  25.680  24.107  1.00  0.00     0.017 A 
ATOM     17  C   UNL A   1      33.006  26.984  23.443  1.00  0.00     0.017 A 
BRANCH  13  18
ATOM     18  O   UNL A   1      29.938  28.482  22.059  1.00  0.00    -0.490 OA
BRANCH  18  19
ATOM     19  C   UNL A   1      28.805  28.893  22.841  1.00  0.00     0.257 C 
BRANCH  19  20
ATOM     20  C   UNL A   1      28.926  30.327  23.277  1.00  0.00     0.006 C 
ATOM     21  C   UNL A   1      27.879  31.129  23.522  1.00  0.00     0.007 C 
ENDBRANCH  19  20
ENDBRANCH  18  19
ENDBRANCH  13  18
ENDBRANCH  10  12
ENDBRANCH   6  10
ENDBRANCH   3   5
ENDBRANCH   2   3
ENDBRANCH   1   2
BRANCH   1  22
ATOM     22  C   UNL A   1      37.087  20.503  25.003  1.00  0.00     0.275 C 
BRANCH  22  23
ATOM     23  O   UNL A   1      37.705  21.611  25.688  1.00  0.00    -0.458 OA
BRANCH  23  24
ATOM     24  C   UNL A   1      38.959  21.370  26.144  1.00  0.00     0.338 C 
ATOM     25  O   UNL A   1      39.577  20.323  26.054  1.00  0.00    -0.246 OA
BRANCH  24  26
ATOM     26  C   UNL A   1      39.587  22.609  26.640  1.00  0.00     0.060 A 
ATOM     27  C   UNL A   1      39.187  23.806  26.040  1.00  0.00     0.016 A 
ATOM     28  C   UNL A   1      40.604  22.611  27.596  1.00  0.00     0.016 A 
ATOM     29  C   UNL A   1      39.783  25.011  26.395  1.00  0.00     0.010 A 
ATOM     30  C   UNL A   1      41.220  23.824  27.940  1.00  0.00     0.010 A 
ATOM     31  C   UNL A   1      40.818  25.029  27.335  1.00  0.00    -0.014 A 
BRANCH  31  32
ATOM     32  C   UNL A   1      41.528  26.307  27.588  1.00  0.00     0.031 A 
ATOM     33  C   UNL A   1      40.864  27.369  28.420  1.00  0.00     0.074 A 
ATOM     34  C   UNL A   1      42.788  26.482  27.148  1.00  0.00     0.049 A 
ATOM     35  N   UNL A   1      41.295  28.559  28.745  1.00  0.00    -0.248 NA
ATOM     36  C   UNL A   1      39.537  27.039  28.959  1.00  0.00     0.031 C 
ATOM     37  C   UNL A   1      43.560  25.493  26.396  1.00  0.00     0.029 A 
ATOM     38  N   UNL A   1      43.643  27.548  27.278  1.00  0.00    -0.354 N 
ATOM     39  C   UNL A   1      40.290  29.129  29.520  1.00  0.00     0.074 A 
ATOM     40  C   UNL A   1      39.217  28.158  29.590  1.00  0.00     0.031 C 
ATOM     41  C   UNL A   1      44.777  25.998  26.134  1.00  0.00     0.029 A 
ATOM     42  C   UNL A   1      44.856  27.360  26.656  1.00  0.00     0.049 A 
ATOM     43  H   UNL A   1      43.411  28.368  27.770  1.00  0.00     0.167 HD
ATOM     44  C   UNL A   1      40.268  30.346  30.119  1.00  0.00     0.034 A 
ATOM     45  C   UNL A   1      45.897  28.202  26.501  1.00  0.00     0.034 A 
ATOM     46  C   UNL A   1      41.345  31.304  30.033  1.00  0.00     0.049 A 
ATOM     47  C   UNL A   1      45.813  29.585  27.099  1.00  0.00     0.074 A 
ATOM     48  C   UNL A   1      41.422  32.570  30.589  1.00  0.00     0.029 A 
ATOM     49  N   UNL A   1      42.534  31.105  29.340  1.00  0.00    -0.354 N 
ATOM     50  N   UNL A   1      44.844  30.124  27.803  1.00  0.00    -0.248 NA
ATOM     51  C   UNL A   1      46.964  30.472  26.883  1.00  0.00     0.031 C 
ATOM     52  C   UNL A   1      42.624  33.158  30.180  1.00  0.00     0.029 A 
ATOM     53  C   UNL A   1      43.334  32.234  29.430  1.00  0.00     0.049 A 
ATOM     54  H   UNL A   1      42.772  30.283  28.854  1.00  0.00     0.167 HD
ATOM     55  C   UNL A   1      45.282  31.404  28.134  1.00  0.00     0.074 A 
ATOM     56  C   UNL A   1      46.607  31.549  27.566  1.00  0.00     0.031 C 
ATOM     57  C   UNL A   1      44.649  32.369  28.849  1.00  0.00     0.034 A 
BRANCH  44  58
ATOM     58  C   UNL A   1      39.009  30.725  30.859  1.00  0.00     0.023 A 
ATOM     59  C   UNL A   1      37.876  31.222  30.191  1.00  0.00     0.031 A 
ATOM     60  C   UNL A   1      38.958  30.629  32.261  1.00  0.00     0.131 A 
ATOM     61  C   UNL A   1      36.770  31.672  30.931  1.00  0.00     0.055 A 
ATOM     62  C   UNL A   1      37.824  31.005  32.984  1.00  0.00     0.041 A 
ATOM     63  F   UNL A   1      40.017  30.183  32.954  1.00  0.00    -0.206 F 
ATOM     64  C   UNL A   1      36.728  31.546  32.321  1.00  0.00     0.022 A 
BRANCH  61  65
ATOM     65  S   UNL A   1      35.448  32.560  30.061  1.00  0.00     0.124 S 
ATOM     66  O   UNL A   1      35.240  31.709  28.892  1.00  0.00    -0.237 OA
ATOM     67  O   UNL A   1      34.372  32.568  31.046  1.00  0.00    -0.237 OA
ATOM     68  O   UNL A   1      36.041  33.864  29.776  1.00  0.00    -0.744 OA
ENDBRANCH  61  65
ENDBRANCH  44  58
BRANCH  45  69
ATOM     69  C   UNL A   1      47.088  27.790  25.704  1.00  0.00     0.023 A 
ATOM     70  C   UNL A   1      47.171  28.046  24.327  1.00  0.00     0.031 A 
ATOM     71  C   UNL A   1      48.145  27.083  26.309  1.00  0.00     0.131 A 
ATOM     72  C   UNL A   1      48.266  27.564  23.591  1.00  0.00     0.055 A 
ATOM     73  C   UNL A   1      49.256  26.651  25.583  1.00  0.00     0.041 A 
ATOM     74  F   UNL A   1      48.115  26.809  27.622  1.00  0.00    -0.206 F 
ATOM     75  C   UNL A   1      49.315  26.882  24.212  1.00  0.00     0.022 A 
BRANCH  72  76
ATOM     76  S   UNL A   1      48.264  27.775  21.789  1.00  0.00     0.124 S 
ATOM     77  O   UNL A   1      46.925  28.304  21.553  1.00  0.00    -0.237 OA
ATOM     78  O   UNL A   1      49.368  28.708  21.592  1.00  0.00    -0.237 OA
ATOM     79  O   UNL A   1      48.498  26.421  21.288  1.00  0.00    -0.744 OA
ENDBRANCH  72  76
ENDBRANCH  45  69
BRANCH  57  80
ATOM     80  C   UNL A   1      45.410  33.651  29.093  1.00  0.00     0.023 A 
ATOM     81  C   UNL A   1      45.309  34.751  28.224  1.00  0.00     0.031 A 
ATOM     82  C   UNL A   1      46.259  33.763  30.208  1.00  0.00     0.131 A 
ATOM     83  C   UNL A   1      46.085  35.897  28.456  1.00  0.00     0.055 A 
ATOM     84  C   UNL A   1      46.985  34.926  30.465  1.00  0.00     0.041 A 
ATOM     85  F   UNL A   1      46.394  32.742  31.070  1.00  0.00    -0.206 F 
ATOM     86  C   UNL A   1      46.910  35.998  29.580  1.00  0.00     0.022 A 
BRANCH  83  87
ATOM     87  S   UNL A   1      46.068  37.228  27.223  1.00  0.00     0.124 S 
ATOM     88  O   UNL A   1      46.901  38.243  27.860  1.00  0.00    -0.237 OA
ATOM     89  O   UNL A   1      46.642  36.575  26.051  1.00  0.00    -0.237 OA
ATOM     90  O   UNL A   1      44.651  37.570  27.107  1.00  0.00    -0.744 OA
ENDBRANCH  83  87
ENDBRANCH  57  80
ENDBRANCH  31  32
ENDBRANCH  24  26
ENDBRANCH  23  24
ENDBRANCH  22  23
ENDBRANCH   1  22
TORSDOF 19
ENDMDL
MODEL 3
REMARK VINA RESULT:     -10.8      2.066      4.199
REMARK SMILES C=CCOc1ccc(C(=O)N2CCC[C@H]2C(=O)OCCOC(=O)c2ccc(-c3c4nc(c(-c5cc(S(=O)(=O)[O-])ccc5F)c5ccc([nH]5)c(-c5cc(S(=O)(=O)[O-])ccc5F)c5nc(c(-c6cc(S(=O)(=O)[O-])ccc6F)c6ccc3[nH]6)C=C5)C=C4)cc2)cc1
REMARK SMILES IDX 19 1 18 2 16 3 17 4 15 5 11 6 12 7 13 8 14 9 9 10 10 11 8 12
REMARK SMILES IDX 5 13 6 14 88 15 7 16 87 17 4 18 3 19 2 20 1 21 20 22 21 23
REMARK SMILES IDX 22 24 23 25 24 26 25 27 86 28 26 29 85 30 27 31 28 32 29 33
REMARK SMILES IDX 79 34 30 35 84 36 78 37 80 38 31 39 83 40 77 41 76 42 32 44
REMARK SMILES IDX 64 45 44 46 63 47 45 48 48 49 62 50 81 51 46 52 47 53 61 55
REMARK SMILES IDX 82 56 49 57 33 58 34 59 42 60 35 61 41 62 43 63 40 64 36 65
REMARK SMILES IDX 37 66 38 67 39 68 65 69 66 70 74 71 67 72 73 73 75 74 72 75
REMARK SMILES IDX 68 76 69 77 70 78 71 79 50 80 51 81 59 82 52 83 58 84 60 85
REMARK SMILES IDX 57 86 53 87 54 88 55 89 56 90
REMARK H PARENT 80 43 48 54
REMARK Flexibility Score: inf
ROOT
ATOM      1  C   UNL A   1      36.957  22.308  23.840  1.00  0.00     0.274 C 
ENDROOT
BRANCH   1   2
ATOM      2  O   UNL A   1      35.557  22.637  23.812  1.00  0.00    -0.461 OA
BRANCH   2   3
ATOM      3  C   UNL A   1      35.138  23.561  24.717  1.00  0.00     0.328 C 
ATOM      4  O   UNL A   1      35.896  24.309  25.328  1.00  0.00    -0.250 OA
BRANCH   3   5
ATOM      5  C   UNL A   1      33.604  23.668  24.756  1.00  0.00     0.195 C 
ATOM      6  N   UNL A   1      32.864  22.437  25.008  1.00  0.00    -0.325 N 
ATOM      7  C   UNL A   1      32.531  22.339  26.417  1.00  0.00     0.121 C 
ATOM      8  C   UNL A   1      32.270  23.775  26.828  1.00  0.00     0.024 C 
ATOM      9  C   UNL A   1      33.124  24.616  25.878  1.00  0.00     0.039 C 
BRANCH   6  10
ATOM     10  C   UNL A   1      32.385  21.682  23.952  1.00  0.00     0.254 C 
ATOM     11  O   UNL A   1      31.578  22.108  23.133  1.00  0.00    -0.269 OA
BRANCH  10  12
ATOM     12  C   UNL A   1      32.758  20.243  23.881  1.00  0.00     0.040 A 
ATOM     13  C   UNL A   1      33.576  17.577  23.579  1.00  0.00     0.119 A 
ATOM     14  C   UNL A   1      34.209  18.405  24.511  1.00  0.00     0.047 A 
ATOM     15  C   UNL A   1      32.536  18.083  22.807  1.00  0.00     0.047 A 
ATOM     16  C   UNL A   1      33.810  19.742  24.654  1.00  0.00     0.017 A 
ATOM     17  C   UNL A   1      32.157  19.416  22.930  1.00  0.00     0.017 A 
BRANCH  13  18
ATOM     18  O   UNL A   1      33.981  16.270  23.517  1.00  0.00    -0.490 OA
BRANCH  18  19
ATOM     19  C   UNL A   1      34.435  15.722  24.765  1.00  0.00     0.257 C 
BRANCH  19  20
ATOM     20  C   UNL A   1      33.370  14.885  25.420  1.00  0.00     0.006 C 
ATOM     21  C   UNL A   1      32.153  15.342  25.749  1.00  0.00     0.007 C 
ENDBRANCH  19  20
ENDBRANCH  18  19
ENDBRANCH  13  18
ENDBRANCH  10  12
ENDBRANCH   6  10
ENDBRANCH   3   5
ENDBRANCH   2   3
ENDBRANCH   1   2
BRANCH   1  22
ATOM     22  C   UNL A   1      37.215  21.018  24.629  1.00  0.00     0.275 C 
BRANCH  22  23
ATOM     23  O   UNL A   1      37.693  21.279  25.965  1.00  0.00    -0.458 OA
BRANCH  23  24
ATOM     24  C   UNL A   1      39.033  21.153  26.125  1.00  0.00     0.338 C 
ATOM     25  O   UNL A   1      39.725  20.221  25.751  1.00  0.00    -0.246 OA
BRANCH  24  26
ATOM     26  C   UNL A   1      39.617  22.387  26.682  1.00  0.00     0.060 A 
ATOM     27  C   UNL A   1      39.126  23.599  26.189  1.00  0.00     0.016 A 
ATOM     28  C   UNL A   1      40.677  22.380  27.590  1.00  0.00     0.016 A 
ATOM     29  C   UNL A   1      39.672  24.808  26.605  1.00  0.00     0.010 A 
ATOM     30  C   UNL A   1      41.243  23.599  27.995  1.00  0.00     0.010 A 
ATOM     31  C   UNL A   1      40.749  24.818  27.497  1.00  0.00    -0.014 A 
BRANCH  31  32
ATOM     32  C   UNL A   1      41.400  26.114  27.811  1.00  0.00     0.031 A 
ATOM     33  C   UNL A   1      42.797  26.376  27.322  1.00  0.00     0.074 A 
ATOM     34  C   UNL A   1      40.718  27.077  28.457  1.00  0.00     0.049 A 
ATOM     35  N   UNL A   1      43.556  27.426  27.500  1.00  0.00    -0.248 NA
ATOM     36  C   UNL A   1      43.418  25.311  26.521  1.00  0.00     0.031 C 
ATOM     37  C   UNL A   1      39.332  26.962  28.914  1.00  0.00     0.029 A 
ATOM     38  N   UNL A   1      41.091  28.344  28.831  1.00  0.00    -0.354 N 
ATOM     39  C   UNL A   1      44.749  27.148  26.842  1.00  0.00     0.074 A 
ATOM     40  C   UNL A   1      44.619  25.817  26.285  1.00  0.00     0.031 C 
ATOM     41  C   UNL A   1      38.971  28.115  29.504  1.00  0.00     0.029 A 
ATOM     42  C   UNL A   1      40.111  29.029  29.511  1.00  0.00     0.049 A 
ATOM     43  H   UNL A   1      41.976  28.725  28.632  1.00  0.00     0.167 HD
ATOM     44  C   UNL A   1      45.849  27.933  26.713  1.00  0.00     0.034 A 
ATOM     45  C   UNL A   1      40.140  30.243  30.097  1.00  0.00     0.034 A 
ATOM     46  C   UNL A   1      45.964  29.255  27.281  1.00  0.00     0.049 A 
ATOM     47  C   UNL A   1      41.406  31.061  30.018  1.00  0.00     0.074 A 
ATOM     48  C   UNL A   1      47.035  30.131  27.222  1.00  0.00     0.029 A 
ATOM     49  N   UNL A   1      44.974  29.894  28.019  1.00  0.00    -0.354 N 
ATOM     50  N   UNL A   1      42.540  30.774  29.420  1.00  0.00    -0.248 NA
ATOM     51  C   UNL A   1      41.394  32.367  30.691  1.00  0.00     0.031 C 
ATOM     52  C   UNL A   1      46.718  31.266  27.976  1.00  0.00     0.029 A 
ATOM     53  C   UNL A   1      45.421  31.136  28.445  1.00  0.00     0.049 A 
ATOM     54  H   UNL A   1      44.085  29.518  28.213  1.00  0.00     0.167 HD
ATOM     55  C   UNL A   1      43.366  31.877  29.626  1.00  0.00     0.074 A 
ATOM     56  C   UNL A   1      42.595  32.837  30.388  1.00  0.00     0.031 C 
ATOM     57  C   UNL A   1      44.644  32.079  29.215  1.00  0.00     0.034 A 
BRANCH  44  58
ATOM     58  C   UNL A   1      47.032  27.344  25.985  1.00  0.00     0.023 A 
ATOM     59  C   UNL A   1      48.046  26.643  26.661  1.00  0.00     0.031 A 
ATOM     60  C   UNL A   1      47.169  27.526  24.597  1.00  0.00     0.131 A 
ATOM     61  C   UNL A   1      49.186  26.214  25.960  1.00  0.00     0.055 A 
ATOM     62  C   UNL A   1      48.268  27.028  23.894  1.00  0.00     0.041 A 
ATOM     63  F   UNL A   1      46.244  28.206  23.903  1.00  0.00    -0.206 F 
ATOM     64  C   UNL A   1      49.292  26.382  24.578  1.00  0.00     0.022 A 
BRANCH  61  65
ATOM     65  S   UNL A   1      50.591  25.565  26.906  1.00  0.00     0.124 S 
ATOM     66  O   UNL A   1      49.976  24.451  27.624  1.00  0.00    -0.237 OA
ATOM     67  O   UNL A   1      51.538  25.205  25.857  1.00  0.00    -0.237 OA
ATOM     68  O   UNL A   1      50.990  26.693  27.745  1.00  0.00    -0.744 OA
ENDBRANCH  61  65
ENDBRANCH  44  58
BRANCH  45  69
ATOM     69  C   UNL A   1      38.959  30.743  30.856  1.00  0.00     0.023 A 
ATOM     70  C   UNL A   1      37.887  31.377  30.207  1.00  0.00     0.031 A 
ATOM     71  C   UNL A   1      38.910  30.637  32.259  1.00  0.00     0.131 A 
ATOM     72  C   UNL A   1      36.833  31.916  30.963  1.00  0.00     0.055 A 
ATOM     73  C   UNL A   1      37.836  31.129  33.001  1.00  0.00     0.041 A 
ATOM     74  F   UNL A   1      39.911  30.044  32.930  1.00  0.00    -0.206 F 
ATOM     75  C   UNL A   1      36.794  31.783  32.353  1.00  0.00     0.022 A 
BRANCH  72  76
ATOM     76  S   UNL A   1      35.545  32.865  30.107  1.00  0.00     0.124 S 
ATOM     77  O   UNL A   1      36.127  34.203  30.084  1.00  0.00    -0.237 OA
ATOM     78  O   UNL A   1      35.466  32.177  28.823  1.00  0.00    -0.237 OA
ATOM     79  O   UNL A   1      34.376  32.707  30.970  1.00  0.00    -0.744 OA
ENDBRANCH  72  76
ENDBRANCH  45  69
BRANCH  57  80
ATOM     80  C   UNL A   1      45.267  33.415  29.546  1.00  0.00     0.023 A 
ATOM     81  C   UNL A   1      45.138  34.525  28.694  1.00  0.00     0.031 A 
ATOM     82  C   UNL A   1      46.011  33.571  30.728  1.00  0.00     0.131 A 
ATOM     83  C   UNL A   1      45.788  35.728  29.011  1.00  0.00     0.055 A 
ATOM     84  C   UNL A   1      46.609  34.785  31.066  1.00  0.00     0.041 A 
ATOM     85  F   UNL A   1      46.167  32.542  31.578  1.00  0.00    -0.206 F 
ATOM     86  C   UNL A   1      46.509  35.869  30.200  1.00  0.00     0.022 A 
BRANCH  83  87
ATOM     87  S   UNL A   1      45.750  37.085  27.807  1.00  0.00     0.124 S 
ATOM     88  O   UNL A   1      46.908  37.878  28.208  1.00  0.00    -0.237 OA
ATOM     89  O   UNL A   1      45.871  36.378  26.536  1.00  0.00    -0.237 OA
ATOM     90  O   UNL A   1      44.453  37.716  28.042  1.00  0.00    -0.744 OA
ENDBRANCH  83  87
ENDBRANCH  57  80
ENDBRANCH  31  32
ENDBRANCH  24  26
ENDBRANCH  23  24
ENDBRANCH  22  23
ENDBRANCH   1  22
TORSDOF 19
ENDMDL
