MODEL 1
REMARK VINA RESULT:     -11.9      0.000      0.000
REMARK SMILES O=C(N[C@@H](Cc1c[nH]c2ccccc12)C(=O)N[C@@H](CO)C(=O)OCCOC(=O)c1ccc(-c2c3nc(c(-c4cc(S(=O)(=O)[O-])ccc4F)c4ccc([nH]4)c(-c4cc(S(=O)(=O)[O-])ccc4F)c4nc(c(-c5cc(S(=O)(=O)[O-])ccc5F)c5ccc2[nH]5)C=C4)C=C3)cc1)c1ccc(F)cc1
REMARK SMILES IDX 24 1 23 2 21 3 22 4 18 5 17 6 15 7 16 8 4 10 3 11 1 12 2 13
REMARK SMILES IDX 92 15 93 16 98 17 94 18 97 19 95 20 96 21 5 22 6 23 7 24
REMARK SMILES IDX 14 25 8 26 9 27 13 28 10 30 12 31 11 32 19 33 20 34 25 36
REMARK SMILES IDX 26 37 27 38 28 39 29 40 30 41 91 42 31 43 90 44 32 45 33 46
REMARK SMILES IDX 34 47 84 48 35 49 89 50 83 51 85 52 36 53 88 54 82 55 81 56
REMARK SMILES IDX 37 58 69 59 49 60 68 61 50 62 53 63 67 64 86 65 51 66 52 67
REMARK SMILES IDX 66 69 87 70 54 71 38 72 39 73 47 74 40 75 46 76 48 77 45 78
REMARK SMILES IDX 41 79 42 80 43 81 44 82 70 83 71 84 79 85 72 86 78 87 80 88
REMARK SMILES IDX 77 89 73 90 74 91 75 92 76 93 55 94 56 95 64 96 57 97 63 98
REMARK SMILES IDX 65 99 62 100 58 101 59 102 60 103 61 104
REMARK H PARENT 17 9 3 14 8 29 20 35 85 57 53 68
REMARK Flexibility Score: inf
ROOT
ATOM      1  C   UNL A   1      36.167  21.291  24.950  1.00  0.00     0.274 C 
ENDROOT
BRANCH   1   2
ATOM      2  O   UNL A   1      34.880  20.658  24.711  1.00  0.00    -0.460 OA
BRANCH   2   3
ATOM      3  C   UNL A   1      33.987  20.693  25.760  1.00  0.00     0.331 C 
ATOM      4  O   UNL A   1      34.281  21.138  26.867  1.00  0.00    -0.250 OA
BRANCH   3   5
ATOM      5  C   UNL A   1      32.542  20.262  25.354  1.00  0.00     0.218 C 
BRANCH   5   6
ATOM      6  N   UNL A   1      31.503  21.178  25.832  1.00  0.00    -0.339 N 
ATOM      7  C   UNL A   1      31.193  22.476  25.588  1.00  0.00     0.243 C 
ATOM      8  O   UNL A   1      30.108  22.832  26.073  1.00  0.00    -0.273 OA
ATOM      9  H   UNL A   1      30.890  20.756  26.477  1.00  0.00     0.164 HD
BRANCH   7  10
ATOM     10  C   UNL A   1      32.055  23.531  24.828  1.00  0.00     0.176 C 
BRANCH  10  11
ATOM     11  N   UNL A   1      33.426  23.656  25.323  1.00  0.00    -0.340 N 
ATOM     12  O   UNL A   1      35.344  24.798  25.631  1.00  0.00    -0.269 OA
ATOM     13  C   UNL A   1      34.121  24.828  25.538  1.00  0.00     0.251 C 
ATOM     14  H   UNL A   1      33.902  22.817  25.522  1.00  0.00     0.164 HD
BRANCH  13  15
ATOM     15  C   UNL A   1      33.409  26.129  25.645  1.00  0.00     0.040 A 
ATOM     16  C   UNL A   1      33.794  27.222  24.855  1.00  0.00     0.017 A 
ATOM     17  C   UNL A   1      32.298  26.236  26.494  1.00  0.00     0.017 A 
ATOM     18  C   UNL A   1      33.096  28.429  24.946  1.00  0.00     0.040 A 
ATOM     19  C   UNL A   1      31.596  27.443  26.573  1.00  0.00     0.040 A 
ATOM     20  C   UNL A   1      32.000  28.526  25.799  1.00  0.00     0.123 A 
ATOM     21  F   UNL A   1      31.313  29.673  25.857  1.00  0.00    -0.207 F 
ENDBRANCH  13  15
ENDBRANCH  10  11
BRANCH  10  22
ATOM     22  C   UNL A   1      31.988  23.582  23.294  1.00  0.00     0.072 C 
BRANCH  22  23
ATOM     23  C   UNL A   1      31.763  24.930  22.702  1.00  0.00    -0.020 A 
ATOM     24  C   UNL A   1      32.617  25.484  21.785  1.00  0.00     0.087 A 
ATOM     25  C   UNL A   1      30.765  25.921  22.965  1.00  0.00     0.003 A 
ATOM     26  N   UNL A   1      32.182  26.727  21.444  1.00  0.00    -0.361 N 
ATOM     27  C   UNL A   1      31.102  27.055  22.217  1.00  0.00     0.046 A 
ATOM     28  C   UNL A   1      29.651  26.002  23.818  1.00  0.00     0.010 A 
ATOM     29  H   UNL A   1      32.582  27.300  20.750  1.00  0.00     0.166 HD
ATOM     30  C   UNL A   1      30.429  28.274  22.316  1.00  0.00     0.026 A 
ATOM     31  C   UNL A   1      28.962  27.217  23.931  1.00  0.00     0.001 A 
ATOM     32  C   UNL A   1      29.356  28.338  23.203  1.00  0.00     0.002 A 
ENDBRANCH  22  23
ENDBRANCH  10  22
ENDBRANCH   7  10
ENDBRANCH   5   6
BRANCH   5  33
ATOM     33  C   UNL A   1      32.468  20.026  23.844  1.00  0.00     0.193 C 
BRANCH  33  34
ATOM     34  O   UNL A   1      32.938  18.727  23.489  1.00  0.00    -0.394 OA
ATOM     35  H   UNL A   1      33.891  18.764  23.316  1.00  0.00     0.210 HD
ENDBRANCH  33  34
ENDBRANCH   5  33
ENDBRANCH   3   5
ENDBRANCH   2   3
ENDBRANCH   1   2
BRANCH   1  36
ATOM     36  C   UNL A   1      37.302  20.258  25.146  1.00  0.00     0.275 C 
BRANCH  36  37
ATOM     37  O   UNL A   1      38.598  20.881  24.980  1.00  0.00    -0.458 OA
BRANCH  37  38
ATOM     38  C   UNL A   1      39.488  20.744  26.008  1.00  0.00     0.338 C 
ATOM     39  O   UNL A   1      40.070  19.707  26.297  1.00  0.00    -0.246 OA
BRANCH  38  40
ATOM     40  C   UNL A   1      39.776  22.076  26.638  1.00  0.00     0.060 A 
ATOM     41  C   UNL A   1      39.004  23.185  26.332  1.00  0.00     0.016 A 
ATOM     42  C   UNL A   1      40.905  22.286  27.430  1.00  0.00     0.016 A 
ATOM     43  C   UNL A   1      39.498  24.481  26.534  1.00  0.00     0.010 A 
ATOM     44  C   UNL A   1      41.284  23.599  27.811  1.00  0.00     0.010 A 
ATOM     45  C   UNL A   1      40.641  24.745  27.297  1.00  0.00    -0.014 A 
BRANCH  45  46
ATOM     46  C   UNL A   1      41.179  26.157  27.500  1.00  0.00     0.031 A 
ATOM     47  C   UNL A   1      42.477  26.588  26.827  1.00  0.00     0.074 A 
ATOM     48  C   UNL A   1      40.553  27.117  28.228  1.00  0.00     0.049 A 
ATOM     49  N   UNL A   1      43.316  27.542  27.158  1.00  0.00    -0.248 NA
ATOM     50  C   UNL A   1      42.895  25.825  25.644  1.00  0.00     0.031 C 
ATOM     51  C   UNL A   1      39.254  27.002  28.893  1.00  0.00     0.029 A 
ATOM     52  N   UNL A   1      40.934  28.415  28.524  1.00  0.00    -0.354 N 
ATOM     53  C   UNL A   1      44.420  27.399  26.318  1.00  0.00     0.074 A 
ATOM     54  C   UNL A   1      44.123  26.282  25.444  1.00  0.00     0.031 C 
ATOM     55  C   UNL A   1      38.906  28.185  29.418  1.00  0.00     0.029 A 
ATOM     56  C   UNL A   1      40.030  29.100  29.312  1.00  0.00     0.049 A 
ATOM     57  H   UNL A   1      41.774  28.815  28.201  1.00  0.00     0.167 HD
ATOM     58  C   UNL A   1      45.576  28.116  26.291  1.00  0.00     0.034 A 
ATOM     59  C   UNL A   1      40.103  30.279  29.969  1.00  0.00     0.034 A 
ATOM     60  C   UNL A   1      45.805  29.321  27.061  1.00  0.00     0.049 A 
ATOM     61  C   UNL A   1      41.385  31.066  29.939  1.00  0.00     0.074 A 
ATOM     62  C   UNL A   1      46.938  30.120  27.101  1.00  0.00     0.029 A 
ATOM     63  N   UNL A   1      44.871  29.933  27.885  1.00  0.00    -0.354 N 
ATOM     64  N   UNL A   1      42.506  30.798  29.313  1.00  0.00    -0.248 NA
ATOM     65  C   UNL A   1      41.420  32.299  30.738  1.00  0.00     0.031 C 
ATOM     66  C   UNL A   1      46.704  31.185  27.979  1.00  0.00     0.029 A 
ATOM     67  C   UNL A   1      45.401  31.093  28.434  1.00  0.00     0.049 A 
ATOM     68  H   UNL A   1      43.962  29.594  28.054  1.00  0.00     0.167 HD
ATOM     69  C   UNL A   1      43.378  31.833  29.646  1.00  0.00     0.074 A 
ATOM     70  C   UNL A   1      42.641  32.747  30.490  1.00  0.00     0.031 C 
ATOM     71  C   UNL A   1      44.678  32.000  29.293  1.00  0.00     0.034 A 
BRANCH  58  72
ATOM     72  C   UNL A   1      46.722  27.572  25.464  1.00  0.00     0.023 A 
ATOM     73  C   UNL A   1      47.044  28.052  24.183  1.00  0.00     0.031 A 
ATOM     74  C   UNL A   1      47.503  26.518  25.981  1.00  0.00     0.131 A 
ATOM     75  C   UNL A   1      48.057  27.427  23.437  1.00  0.00     0.055 A 
ATOM     76  C   UNL A   1      48.568  25.962  25.270  1.00  0.00     0.041 A 
ATOM     77  F   UNL A   1      47.237  26.001  27.192  1.00  0.00    -0.206 F 
ATOM     78  C   UNL A   1      48.839  26.405  23.981  1.00  0.00     0.022 A 
BRANCH  75  79
ATOM     79  S   UNL A   1      48.231  27.853  21.681  1.00  0.00     0.124 S 
ATOM     80  O   UNL A   1      46.887  28.325  21.357  1.00  0.00    -0.237 OA
ATOM     81  O   UNL A   1      49.278  28.867  21.706  1.00  0.00    -0.237 OA
ATOM     82  O   UNL A   1      48.604  26.585  21.056  1.00  0.00    -0.744 OA
ENDBRANCH  75  79
ENDBRANCH  58  72
BRANCH  59  83
ATOM     83  C   UNL A   1      38.970  30.735  30.837  1.00  0.00     0.023 A 
ATOM     84  C   UNL A   1      37.945  31.551  30.333  1.00  0.00     0.031 A 
ATOM     85  C   UNL A   1      38.933  30.406  32.206  1.00  0.00     0.131 A 
ATOM     86  C   UNL A   1      36.947  32.035  31.196  1.00  0.00     0.055 A 
ATOM     87  C   UNL A   1      37.900  30.830  33.043  1.00  0.00     0.041 A 
ATOM     88  F   UNL A   1      39.897  29.647  32.750  1.00  0.00    -0.206 F 
ATOM     89  C   UNL A   1      36.905  31.660  32.541  1.00  0.00     0.022 A 
BRANCH  86  90
ATOM     90  S   UNL A   1      35.749  33.241  30.559  1.00  0.00     0.124 S 
ATOM     91  O   UNL A   1      35.923  34.349  31.490  1.00  0.00    -0.237 OA
ATOM     92  O   UNL A   1      36.232  33.461  29.201  1.00  0.00    -0.237 OA
ATOM     93  O   UNL A   1      34.473  32.536  30.658  1.00  0.00    -0.744 OA
ENDBRANCH  86  90
ENDBRANCH  59  83
BRANCH  71  94
ATOM     94  C   UNL A   1      45.361  33.252  29.790  1.00  0.00     0.023 A 
ATOM     95  C   UNL A   1      45.343  34.449  29.049  1.00  0.00     0.031 A 
ATOM     96  C   UNL A   1      46.102  33.229  30.985  1.00  0.00     0.131 A 
ATOM     97  C   UNL A   1      46.115  35.544  29.467  1.00  0.00     0.055 A 
ATOM     98  C   UNL A   1      46.816  34.343  31.430  1.00  0.00     0.041 A 
ATOM     99  F   UNL A   1      46.160  32.114  31.731  1.00  0.00    -0.206 F 
ATOM    100  C   UNL A   1      46.841  35.503  30.660  1.00  0.00     0.022 A 
BRANCH  97 101
ATOM    101  S   UNL A   1      46.264  36.977  28.364  1.00  0.00     0.124 S 
ATOM    102  O   UNL A   1      46.356  36.343  27.053  1.00  0.00    -0.237 OA
ATOM    103  O   UNL A   1      45.030  37.708  28.634  1.00  0.00    -0.237 OA
ATOM    104  O   UNL A   1      47.487  37.636  28.822  1.00  0.00    -0.744 OA
ENDBRANCH  97 101
ENDBRANCH  71  94
ENDBRANCH  45  46
ENDBRANCH  38  40
ENDBRANCH  37  38
ENDBRANCH  36  37
ENDBRANCH   1  36
TORSDOF 22
ENDMDL
MODEL 2
REMARK VINA RESULT:     -11.7      1.746      2.444
REMARK SMILES O=C(N[C@@H](Cc1c[nH]c2ccccc12)C(=O)N[C@@H](CO)C(=O)OCCOC(=O)c1ccc(-c2c3nc(c(-c4cc(S(=O)(=O)[O-])ccc4F)c4ccc([nH]4)c(-c4cc(S(=O)(=O)[O-])ccc4F)c4nc(c(-c5cc(S(=O)(=O)[O-])ccc5F)c5ccc2[nH]5)C=C4)C=C3)cc1)c1ccc(F)cc1
REMARK SMILES IDX 24 1 23 2 21 3 22 4 18 5 17 6 15 7 16 8 4 10 3 11 1 12 2 13
REMARK SMILES IDX 92 15 93 16 98 17 94 18 97 19 95 20 96 21 5 22 6 23 7 24
REMARK SMILES IDX 14 25 8 26 9 27 13 28 10 30 12 31 11 32 19 33 20 34 25 36
REMARK SMILES IDX 26 37 27 38 28 39 29 40 30 41 91 42 31 43 90 44 32 45 33 46
REMARK SMILES IDX 34 47 84 48 35 49 89 50 83 51 85 52 36 53 88 54 82 55 81 56
REMARK SMILES IDX 37 58 69 59 49 60 68 61 50 62 53 63 67 64 86 65 51 66 52 67
REMARK SMILES IDX 66 69 87 70 54 71 38 72 39 73 47 74 40 75 46 76 48 77 45 78
REMARK SMILES IDX 41 79 42 80 43 81 44 82 70 83 71 84 79 85 72 86 78 87 80 88
REMARK SMILES IDX 77 89 73 90 74 91 75 92 76 93 55 94 56 95 64 96 57 97 63 98
REMARK SMILES IDX 65 99 62 100 58 101 59 102 60 103 61 104
REMARK H PARENT 17 9 3 14 8 29 20 35 85 57 53 68
REMARK Flexibility Score: inf
ROOT
ATOM      1  C   UNL A   1      36.156  19.775  24.944  1.00  0.00     0.274 C 
ENDROOT
BRANCH   1   2
ATOM      2  O   UNL A   1      35.876  18.361  24.751  1.00  0.00    -0.460 OA
BRANCH   2   3
ATOM      3  C   UNL A   1      34.637  18.060  24.228  1.00  0.00     0.331 C 
ATOM      4  O   UNL A   1      34.443  17.094  23.494  1.00  0.00    -0.250 OA
BRANCH   3   5
ATOM      5  C   UNL A   1      33.495  18.967  24.787  1.00  0.00     0.218 C 
BRANCH   5   6
ATOM      6  N   UNL A   1      32.733  19.658  23.743  1.00  0.00    -0.339 N 
ATOM      7  C   UNL A   1      32.373  20.948  23.525  1.00  0.00     0.243 C 
ATOM      8  O   UNL A   1      31.866  21.144  22.409  1.00  0.00    -0.273 OA
ATOM      9  H   UNL A   1      32.408  19.049  23.041  1.00  0.00     0.164 HD
BRANCH   7  10
ATOM     10  C   UNL A   1      32.485  22.146  24.517  1.00  0.00     0.176 C 
BRANCH  10  11
ATOM     11  N   UNL A   1      31.616  22.040  25.689  1.00  0.00    -0.340 N 
ATOM     12  O   UNL A   1      30.517  22.918  27.450  1.00  0.00    -0.269 OA
ATOM     13  C   UNL A   1      30.934  23.069  26.305  1.00  0.00     0.251 C 
ATOM     14  H   UNL A   1      31.509  21.143  26.079  1.00  0.00     0.164 HD
BRANCH  13  15
ATOM     15  C   UNL A   1      30.707  24.361  25.606  1.00  0.00     0.040 A 
ATOM     16  C   UNL A   1      30.259  24.386  24.277  1.00  0.00     0.017 A 
ATOM     17  C   UNL A   1      30.876  25.561  26.310  1.00  0.00     0.017 A 
ATOM     18  C   UNL A   1      30.022  25.609  23.644  1.00  0.00     0.040 A 
ATOM     19  C   UNL A   1      30.627  26.783  25.674  1.00  0.00     0.040 A 
ATOM     20  C   UNL A   1      30.202  26.794  24.350  1.00  0.00     0.123 A 
ATOM     21  F   UNL A   1      29.940  27.962  23.750  1.00  0.00    -0.207 F 
ENDBRANCH  13  15
ENDBRANCH  10  11
BRANCH  10  22
ATOM     22  C   UNL A   1      33.878  22.686  24.877  1.00  0.00     0.072 C 
BRANCH  22  23
ATOM     23  C   UNL A   1      34.024  24.168  24.846  1.00  0.00    -0.020 A 
ATOM     24  C   UNL A   1      34.340  24.901  25.960  1.00  0.00     0.087 A 
ATOM     25  C   UNL A   1      33.814  25.115  23.793  1.00  0.00     0.003 A 
ATOM     26  N   UNL A   1      34.376  26.224  25.645  1.00  0.00    -0.361 N 
ATOM     27  C   UNL A   1      33.969  26.390  24.348  1.00  0.00     0.046 A 
ATOM     28  C   UNL A   1      33.432  25.025  22.444  1.00  0.00     0.010 A 
ATOM     29  H   UNL A   1      34.651  26.947  26.253  1.00  0.00     0.166 HD
ATOM     30  C   UNL A   1      33.712  27.572  23.652  1.00  0.00     0.026 A 
ATOM     31  C   UNL A   1      33.169  26.201  21.728  1.00  0.00     0.001 A 
ATOM     32  C   UNL A   1      33.293  27.452  22.328  1.00  0.00     0.002 A 
ENDBRANCH  22  23
ENDBRANCH  10  22
ENDBRANCH   7  10
ENDBRANCH   5   6
BRANCH   5  33
ATOM     33  C   UNL A   1      32.601  18.165  25.735  1.00  0.00     0.193 C 
BRANCH  33  34
ATOM     34  O   UNL A   1      31.821  17.200  25.033  1.00  0.00    -0.394 OA
ATOM     35  H   UNL A   1      32.336  16.842  24.293  1.00  0.00     0.210 HD
ENDBRANCH  33  34
ENDBRANCH   5  33
ENDBRANCH   3   5
ENDBRANCH   2   3
ENDBRANCH   1   2
BRANCH   1  36
ATOM     36  C   UNL A   1      37.662  20.100  24.800  1.00  0.00     0.275 C 
BRANCH  36  37
ATOM     37  O   UNL A   1      38.037  21.198  25.665  1.00  0.00    -0.458 OA
BRANCH  37  38
ATOM     38  C   UNL A   1      39.302  21.176  26.184  1.00  0.00     0.338 C 
ATOM     39  O   UNL A   1      40.086  20.243  26.074  1.00  0.00    -0.246 OA
BRANCH  38  40
ATOM     40  C   UNL A   1      39.656  22.511  26.771  1.00  0.00     0.060 A 
ATOM     41  C   UNL A   1      38.948  23.649  26.419  1.00  0.00     0.016 A 
ATOM     42  C   UNL A   1      40.788  22.687  27.568  1.00  0.00     0.016 A 
ATOM     43  C   UNL A   1      39.510  24.923  26.582  1.00  0.00     0.010 A 
ATOM     44  C   UNL A   1      41.234  23.989  27.907  1.00  0.00     0.010 A 
ATOM     45  C   UNL A   1      40.659  25.150  27.348  1.00  0.00    -0.014 A 
BRANCH  45  46
ATOM     46  C   UNL A   1      41.271  26.537  27.509  1.00  0.00     0.031 A 
ATOM     47  C   UNL A   1      42.576  26.887  26.804  1.00  0.00     0.074 A 
ATOM     48  C   UNL A   1      40.707  27.544  28.225  1.00  0.00     0.049 A 
ATOM     49  N   UNL A   1      43.468  27.804  27.098  1.00  0.00    -0.248 NA
ATOM     50  C   UNL A   1      42.933  26.077  25.632  1.00  0.00     0.031 C 
ATOM     51  C   UNL A   1      39.417  27.510  28.915  1.00  0.00     0.029 A 
ATOM     52  N   UNL A   1      41.159  28.827  28.484  1.00  0.00    -0.354 N 
ATOM     53  C   UNL A   1      44.548  27.586  26.242  1.00  0.00     0.074 A 
ATOM     54  C   UNL A   1      44.179  26.466  25.400  1.00  0.00     0.031 C 
ATOM     55  C   UNL A   1      39.138  28.720  29.418  1.00  0.00     0.029 A 
ATOM     56  C   UNL A   1      40.305  29.575  29.272  1.00  0.00     0.049 A 
ATOM     57  H   UNL A   1      42.012  29.176  28.138  1.00  0.00     0.167 HD
ATOM     58  C   UNL A   1      45.737  28.243  26.178  1.00  0.00     0.034 A 
ATOM     59  C   UNL A   1      40.449  30.762  29.900  1.00  0.00     0.034 A 
ATOM     60  C   UNL A   1      46.042  29.451  26.916  1.00  0.00     0.049 A 
ATOM     61  C   UNL A   1      41.769  31.483  29.829  1.00  0.00     0.074 A 
ATOM     62  C   UNL A   1      47.214  30.192  26.918  1.00  0.00     0.029 A 
ATOM     63  N   UNL A   1      45.154  30.128  27.742  1.00  0.00    -0.354 N 
ATOM     64  N   UNL A   1      42.863  31.144  29.191  1.00  0.00    -0.248 NA
ATOM     65  C   UNL A   1      41.881  32.730  30.598  1.00  0.00     0.031 C 
ATOM     66  C   UNL A   1      47.051  31.287  27.775  1.00  0.00     0.029 A 
ATOM     67  C   UNL A   1      45.753  31.272  28.255  1.00  0.00     0.049 A 
ATOM     68  H   UNL A   1      44.233  29.840  27.935  1.00  0.00     0.167 HD
ATOM     69  C   UNL A   1      43.793  32.140  29.484  1.00  0.00     0.074 A 
ATOM     70  C   UNL A   1      43.118  33.110  30.319  1.00  0.00     0.031 C 
ATOM     71  C   UNL A   1      45.092  32.233  29.104  1.00  0.00     0.034 A 
BRANCH  58  72
ATOM     72  C   UNL A   1      46.840  27.623  25.345  1.00  0.00     0.023 A 
ATOM     73  C   UNL A   1      47.173  28.067  24.054  1.00  0.00     0.031 A 
ATOM     74  C   UNL A   1      47.564  26.531  25.866  1.00  0.00     0.131 A 
ATOM     75  C   UNL A   1      48.138  27.375  23.304  1.00  0.00     0.055 A 
ATOM     76  C   UNL A   1      48.587  25.906  25.149  1.00  0.00     0.041 A 
ATOM     77  F   UNL A   1      47.285  26.046  27.086  1.00  0.00    -0.206 F 
ATOM     78  C   UNL A   1      48.866  26.316  23.851  1.00  0.00     0.022 A 
BRANCH  75  79
ATOM     79  S   UNL A   1      48.313  27.769  21.540  1.00  0.00     0.124 S 
ATOM     80  O   UNL A   1      46.979  28.268  21.215  1.00  0.00    -0.237 OA
ATOM     81  O   UNL A   1      49.384  28.757  21.544  1.00  0.00    -0.237 OA
ATOM     82  O   UNL A   1      48.651  26.482  20.934  1.00  0.00    -0.744 OA
ENDBRANCH  75  79
ENDBRANCH  58  72
BRANCH  59  83
ATOM     83  C   UNL A   1      39.358  31.295  30.776  1.00  0.00     0.023 A 
ATOM     84  C   UNL A   1      39.433  31.203  32.176  1.00  0.00     0.031 A 
ATOM     85  C   UNL A   1      38.190  31.851  30.218  1.00  0.00     0.131 A 
ATOM     86  C   UNL A   1      38.351  31.630  32.964  1.00  0.00     0.055 A 
ATOM     87  C   UNL A   1      37.150  32.341  31.008  1.00  0.00     0.041 A 
ATOM     88  F   UNL A   1      38.053  31.946  28.886  1.00  0.00    -0.206 F 
ATOM     89  C   UNL A   1      37.222  32.220  32.390  1.00  0.00     0.022 A 
BRANCH  86  90
ATOM     90  S   UNL A   1      38.396  31.322  34.752  1.00  0.00     0.124 S 
ATOM     91  O   UNL A   1      37.225  32.062  35.209  1.00  0.00    -0.237 OA
ATOM     92  O   UNL A   1      38.302  29.868  34.813  1.00  0.00    -0.237 OA
ATOM     93  O   UNL A   1      39.685  31.878  35.160  1.00  0.00    -0.744 OA
ENDBRANCH  86  90
ENDBRANCH  59  83
BRANCH  71  94
ATOM     94  C   UNL A   1      45.846  33.460  29.561  1.00  0.00     0.023 A 
ATOM     95  C   UNL A   1      45.831  34.656  28.819  1.00  0.00     0.031 A 
ATOM     96  C   UNL A   1      46.651  33.410  30.713  1.00  0.00     0.131 A 
ATOM     97  C   UNL A   1      46.664  35.723  29.192  1.00  0.00     0.055 A 
ATOM     98  C   UNL A   1      47.429  34.497  31.115  1.00  0.00     0.041 A 
ATOM     99  F   UNL A   1      46.710  32.294  31.457  1.00  0.00    -0.206 F 
ATOM    100  C   UNL A   1      47.453  35.656  30.342  1.00  0.00     0.022 A 
BRANCH  97 101
ATOM    101  S   UNL A   1      46.804  37.150  28.079  1.00  0.00     0.124 S 
ATOM    102  O   UNL A   1      47.219  36.521  26.829  1.00  0.00    -0.237 OA
ATOM    103  O   UNL A   1      45.451  37.695  28.100  1.00  0.00    -0.237 OA
ATOM    104  O   UNL A   1      47.819  37.986  28.719  1.00  0.00    -0.744 OA
ENDBRANCH  97 101
ENDBRANCH  71  94
ENDBRANCH  45  46
ENDBRANCH  38  40
ENDBRANCH  37  38
ENDBRANCH  36  37
ENDBRANCH   1  36
TORSDOF 22
ENDMDL
MODEL 3
REMARK VINA RESULT:     -11.5      1.205      7.212
REMARK SMILES O=C(N[C@@H](Cc1c[nH]c2ccccc12)C(=O)N[C@@H](CO)C(=O)OCCOC(=O)c1ccc(-c2c3nc(c(-c4cc(S(=O)(=O)[O-])ccc4F)c4ccc([nH]4)c(-c4cc(S(=O)(=O)[O-])ccc4F)c4nc(c(-c5cc(S(=O)(=O)[O-])ccc5F)c5ccc2[nH]5)C=C4)C=C3)cc1)c1ccc(F)cc1
REMARK SMILES IDX 24 1 23 2 21 3 22 4 18 5 17 6 15 7 16 8 4 10 3 11 1 12 2 13
REMARK SMILES IDX 92 15 93 16 98 17 94 18 97 19 95 20 96 21 5 22 6 23 7 24
REMARK SMILES IDX 14 25 8 26 9 27 13 28 10 30 12 31 11 32 19 33 20 34 25 36
REMARK SMILES IDX 26 37 27 38 28 39 29 40 30 41 91 42 31 43 90 44 32 45 33 46
REMARK SMILES IDX 34 47 84 48 35 49 89 50 83 51 85 52 36 53 88 54 82 55 81 56
REMARK SMILES IDX 37 58 69 59 49 60 68 61 50 62 53 63 67 64 86 65 51 66 52 67
REMARK SMILES IDX 66 69 87 70 54 71 38 72 39 73 47 74 40 75 46 76 48 77 45 78
REMARK SMILES IDX 41 79 42 80 43 81 44 82 70 83 71 84 79 85 72 86 78 87 80 88
REMARK SMILES IDX 77 89 73 90 74 91 75 92 76 93 55 94 56 95 64 96 57 97 63 98
REMARK SMILES IDX 65 99 62 100 58 101 59 102 60 103 61 104
REMARK H PARENT 17 9 3 14 8 29 20 35 85 57 53 68
REMARK Flexibility Score: inf
ROOT
ATOM      1  C   UNL A   1      35.705  20.795  25.473  1.00  0.00     0.274 C 
ENDROOT
BRANCH   1   2
ATOM      2  O   UNL A   1      34.603  20.784  24.524  1.00  0.00    -0.460 OA
BRANCH   2   3
ATOM      3  C   UNL A   1      33.845  19.634  24.496  1.00  0.00     0.331 C 
ATOM      4  O   UNL A   1      34.293  18.535  24.815  1.00  0.00    -0.250 OA
BRANCH   3   5
ATOM      5  C   UNL A   1      32.339  19.896  24.177  1.00  0.00     0.218 C 
BRANCH   5   6
ATOM      6  N   UNL A   1      31.665  20.728  25.177  1.00  0.00    -0.339 N 
ATOM      7  C   UNL A   1      31.525  22.065  25.364  1.00  0.00     0.243 C 
ATOM      8  O   UNL A   1      30.714  22.364  26.254  1.00  0.00    -0.273 OA
ATOM      9  H   UNL A   1      31.210  20.198  25.871  1.00  0.00     0.164 HD
BRANCH   7  10
ATOM     10  C   UNL A   1      32.289  23.211  24.632  1.00  0.00     0.176 C 
BRANCH  10  11
ATOM     11  N   UNL A   1      33.668  23.399  25.084  1.00  0.00    -0.340 N 
ATOM     12  O   UNL A   1      35.518  24.648  25.395  1.00  0.00    -0.269 OA
ATOM     13  C   UNL A   1      34.292  24.601  25.348  1.00  0.00     0.251 C 
ATOM     14  H   UNL A   1      34.206  22.584  25.212  1.00  0.00     0.164 HD
BRANCH  13  15
ATOM     15  C   UNL A   1      33.502  25.841  25.563  1.00  0.00     0.040 A 
ATOM     16  C   UNL A   1      32.449  25.866  26.490  1.00  0.00     0.017 A 
ATOM     17  C   UNL A   1      33.863  27.012  24.883  1.00  0.00     0.017 A 
ATOM     18  C   UNL A   1      31.735  27.048  26.703  1.00  0.00     0.040 A 
ATOM     19  C   UNL A   1      33.151  28.196  25.108  1.00  0.00     0.040 A 
ATOM     20  C   UNL A   1      32.096  28.202  26.014  1.00  0.00     0.123 A 
ATOM     21  F   UNL A   1      31.432  29.340  26.248  1.00  0.00    -0.207 F 
ENDBRANCH  13  15
ENDBRANCH  10  11
BRANCH  10  22
ATOM     22  C   UNL A   1      32.160  23.337  23.106  1.00  0.00     0.072 C 
BRANCH  22  23
ATOM     23  C   UNL A   1      31.941  24.715  22.588  1.00  0.00    -0.020 A 
ATOM     24  C   UNL A   1      32.787  25.307  21.687  1.00  0.00     0.087 A 
ATOM     25  C   UNL A   1      30.959  25.703  22.918  1.00  0.00     0.003 A 
ATOM     26  N   UNL A   1      32.361  26.570  21.417  1.00  0.00    -0.361 N 
ATOM     27  C   UNL A   1      31.297  26.871  22.225  1.00  0.00     0.046 A 
ATOM     28  C   UNL A   1      29.860  25.752  23.793  1.00  0.00     0.010 A 
ATOM     29  H   UNL A   1      32.756  27.174  20.747  1.00  0.00     0.166 HD
ATOM     30  C   UNL A   1      30.640  28.090  22.397  1.00  0.00     0.026 A 
ATOM     31  C   UNL A   1      29.188  26.967  23.980  1.00  0.00     0.001 A 
ATOM     32  C   UNL A   1      29.583  28.119  23.304  1.00  0.00     0.002 A 
ENDBRANCH  22  23
ENDBRANCH  10  22
ENDBRANCH   7  10
ENDBRANCH   5   6
BRANCH   5  33
ATOM     33  C   UNL A   1      32.191  20.447  22.757  1.00  0.00     0.193 C 
BRANCH  33  34
ATOM     34  O   UNL A   1      31.877  19.418  21.821  1.00  0.00    -0.394 OA
ATOM     35  H   UNL A   1      31.953  18.554  22.254  1.00  0.00     0.210 HD
ENDBRANCH  33  34
ENDBRANCH   5  33
ENDBRANCH   3   5
ENDBRANCH   2   3
ENDBRANCH   1   2
BRANCH   1  36
ATOM     36  C   UNL A   1      37.069  21.040  24.785  1.00  0.00     0.275 C 
BRANCH  36  37
ATOM     37  O   UNL A   1      37.762  22.152  25.401  1.00  0.00    -0.458 OA
BRANCH  37  38
ATOM     38  C   UNL A   1      38.965  21.882  25.992  1.00  0.00     0.338 C 
ATOM     39  O   UNL A   1      39.642  20.886  25.778  1.00  0.00    -0.246 OA
BRANCH  38  40
ATOM     40  C   UNL A   1      39.420  23.048  26.822  1.00  0.00     0.060 A 
ATOM     41  C   UNL A   1      38.891  24.312  26.615  1.00  0.00     0.016 A 
ATOM     42  C   UNL A   1      40.483  22.942  27.719  1.00  0.00     0.016 A 
ATOM     43  C   UNL A   1      39.584  25.456  27.034  1.00  0.00     0.010 A 
ATOM     44  C   UNL A   1      41.049  24.102  28.306  1.00  0.00     0.010 A 
ATOM     45  C   UNL A   1      40.673  25.403  27.910  1.00  0.00    -0.014 A 
BRANCH  45  46
ATOM     46  C   UNL A   1      41.431  26.653  28.348  1.00  0.00     0.031 A 
ATOM     47  C   UNL A   1      40.747  27.699  29.219  1.00  0.00     0.074 A 
ATOM     48  C   UNL A   1      42.731  26.903  28.047  1.00  0.00     0.049 A 
ATOM     49  N   UNL A   1      41.021  28.974  29.369  1.00  0.00    -0.248 NA
ATOM     50  C   UNL A   1      39.587  27.253  30.001  1.00  0.00     0.031 C 
ATOM     51  C   UNL A   1      43.644  26.025  27.313  1.00  0.00     0.029 A 
ATOM     52  N   UNL A   1      43.529  27.996  28.343  1.00  0.00    -0.354 N 
ATOM     53  C   UNL A   1      39.989  29.506  30.142  1.00  0.00     0.074 A 
ATOM     54  C   UNL A   1      39.102  28.402  30.451  1.00  0.00     0.031 C 
ATOM     55  C   UNL A   1      44.876  26.553  27.307  1.00  0.00     0.029 A 
ATOM     56  C   UNL A   1      44.818  27.898  27.855  1.00  0.00     0.049 A 
ATOM     57  H   UNL A   1      43.207  28.773  28.855  1.00  0.00     0.167 HD
ATOM     58  C   UNL A   1      39.790  30.792  30.538  1.00  0.00     0.034 A 
ATOM     59  C   UNL A   1      45.825  28.793  27.754  1.00  0.00     0.034 A 
ATOM     60  C   UNL A   1      40.752  31.859  30.355  1.00  0.00     0.049 A 
ATOM     61  C   UNL A   1      45.598  30.216  28.191  1.00  0.00     0.074 A 
ATOM     62  C   UNL A   1      40.646  33.192  30.723  1.00  0.00     0.029 A 
ATOM     63  N   UNL A   1      42.017  31.709  29.803  1.00  0.00    -0.354 N 
ATOM     64  N   UNL A   1      44.527  30.759  28.718  1.00  0.00    -0.248 NA
ATOM     65  C   UNL A   1      46.709  31.155  27.981  1.00  0.00     0.031 C 
ATOM     66  C   UNL A   1      41.825  33.853  30.355  1.00  0.00     0.029 A 
ATOM     67  C   UNL A   1      42.696  32.921  29.821  1.00  0.00     0.049 A 
ATOM     68  H   UNL A   1      42.381  30.865  29.451  1.00  0.00     0.167 HD
ATOM     69  C   UNL A   1      44.840  32.104  28.902  1.00  0.00     0.074 A 
ATOM     70  C   UNL A   1      46.210  32.279  28.470  1.00  0.00     0.031 C 
ATOM     71  C   UNL A   1      44.056  33.106  29.374  1.00  0.00     0.034 A 
BRANCH  58  72
ATOM     72  C   UNL A   1      38.443  31.145  31.135  1.00  0.00     0.023 A 
ATOM     73  C   UNL A   1      37.362  31.614  30.371  1.00  0.00     0.031 A 
ATOM     74  C   UNL A   1      38.255  31.022  32.527  1.00  0.00     0.131 A 
ATOM     75  C   UNL A   1      36.177  32.017  31.010  1.00  0.00     0.055 A 
ATOM     76  C   UNL A   1      37.043  31.338  33.145  1.00  0.00     0.041 A 
ATOM     77  F   UNL A   1      39.254  30.597  33.317  1.00  0.00    -0.206 F 
ATOM     78  C   UNL A   1      36.000  31.857  32.387  1.00  0.00     0.022 A 
BRANCH  75  79
ATOM     79  S   UNL A   1      34.929  32.913  30.042  1.00  0.00     0.124 S 
ATOM     80  O   UNL A   1      35.750  33.898  29.342  1.00  0.00    -0.237 OA
ATOM     81  O   UNL A   1      34.353  31.856  29.219  1.00  0.00    -0.237 OA
ATOM     82  O   UNL A   1      34.039  33.467  31.061  1.00  0.00    -0.744 OA
ENDBRANCH  75  79
ENDBRANCH  58  72
BRANCH  59  83
ATOM     83  C   UNL A   1      47.111  28.417  27.085  1.00  0.00     0.023 A 
ATOM     84  C   UNL A   1      47.191  28.256  25.692  1.00  0.00     0.031 A 
ATOM     85  C   UNL A   1      48.268  28.153  27.843  1.00  0.00     0.131 A 
ATOM     86  C   UNL A   1      48.389  27.814  25.107  1.00  0.00     0.055 A 
ATOM     87  C   UNL A   1      49.476  27.786  27.249  1.00  0.00     0.041 A 
ATOM     88  F   UNL A   1      48.247  28.270  29.180  1.00  0.00    -0.206 F 
ATOM     89  C   UNL A   1      49.538  27.602  25.873  1.00  0.00     0.022 A 
BRANCH  86  90
ATOM     90  S   UNL A   1      48.407  27.429  23.333  1.00  0.00     0.124 S 
ATOM     91  O   UNL A   1      49.677  28.012  22.917  1.00  0.00    -0.237 OA
ATOM     92  O   UNL A   1      48.338  25.973  23.337  1.00  0.00    -0.237 OA
ATOM     93  O   UNL A   1      47.214  28.106  22.827  1.00  0.00    -0.744 OA
ENDBRANCH  86  90
ENDBRANCH  59  83
BRANCH  71  94
ATOM     94  C   UNL A   1      44.692  34.471  29.487  1.00  0.00     0.023 A 
ATOM     95  C   UNL A   1      44.469  35.473  28.524  1.00  0.00     0.031 A 
ATOM     96  C   UNL A   1      45.593  34.750  30.530  1.00  0.00     0.131 A 
ATOM     97  C   UNL A   1      45.195  36.673  28.580  1.00  0.00     0.055 A 
ATOM     98  C   UNL A   1      46.265  35.971  30.617  1.00  0.00     0.041 A 
ATOM     99  F   UNL A   1      45.850  33.830  31.474  1.00  0.00    -0.206 F 
ATOM    100  C   UNL A   1      46.082  36.933  29.627  1.00  0.00     0.022 A 
BRANCH  97 101
ATOM    101  S   UNL A   1      45.066  37.836  27.192  1.00  0.00     0.124 S 
ATOM    102  O   UNL A   1      43.734  37.542  26.672  1.00  0.00    -0.237 OA
ATOM    103  O   UNL A   1      45.223  39.127  27.852  1.00  0.00    -0.237 OA
ATOM    104  O   UNL A   1      46.172  37.449  26.316  1.00  0.00    -0.744 OA
ENDBRANCH  97 101
ENDBRANCH  71  94
ENDBRANCH  45  46
ENDBRANCH  38  40
ENDBRANCH  37  38
ENDBRANCH  36  37
ENDBRANCH   1  36
TORSDOF 22
ENDMDL
