MODEL 1
REMARK VINA RESULT:     -11.9      0.000      0.000
REMARK SMILES O=C(OCCOC(=O)[C@@]1(Cc2cn3ccccc3n2)CCC[NH2+]C1)c1ccc(-c2c3nc(c(-c4cc(S(=O)(=O)[O-])ccc4F)c4ccc([nH]4)c(-c4cc(S(=O)(=O)[O-])ccc4F)c4nc(c(-c5cc(S(=O)(=O)[O-])ccc5F)c5ccc2[nH]5)C=C4)C=C3)cc1
REMARK SMILES IDX 4 1 3 2 2 3 1 4 25 5 26 6 87 7 27 8 86 9 28 10 29 11 30 12
REMARK SMILES IDX 80 13 31 14 85 15 79 16 81 17 32 18 84 19 78 20 77 21 33 23
REMARK SMILES IDX 65 24 45 25 64 26 46 27 49 28 63 29 82 30 47 31 48 32 62 34
REMARK SMILES IDX 83 35 50 36 34 37 35 38 43 39 36 40 42 41 44 42 41 43 37 44
REMARK SMILES IDX 38 45 39 46 40 47 66 48 67 49 75 50 68 51 74 52 76 53 73 54
REMARK SMILES IDX 69 55 70 56 71 57 72 58 51 59 52 60 60 61 53 62 59 63 61 64
REMARK SMILES IDX 58 65 54 66 55 67 56 68 57 69 5 70 6 71 7 72 8 73 9 74 20 75
REMARK SMILES IDX 24 76 21 77 23 78 22 79 10 82 11 83 12 84 19 85 13 86 18 87
REMARK SMILES IDX 14 88 17 89 15 90 16 91
REMARK H PARENT 81 22 49 33 23 80 23 81
REMARK Flexibility Score: inf
ROOT
ATOM      1  C   UNL A   1      37.460  21.701  25.383  1.00  0.00     0.275 C 
ENDROOT
BRANCH   1   2
ATOM      2  O   UNL A   1      38.877  21.827  25.587  1.00  0.00    -0.458 OA
BRANCH   2   3
ATOM      3  C   UNL A   1      39.569  22.286  26.658  1.00  0.00     0.338 C 
ATOM      4  O   UNL A   1      40.056  21.458  27.428  1.00  0.00    -0.246 OA
BRANCH   3   5
ATOM      5  C   UNL A   1      39.669  23.736  27.027  1.00  0.00     0.060 A 
ATOM      6  C   UNL A   1      39.374  24.301  28.275  1.00  0.00     0.016 A 
ATOM      7  C   UNL A   1      40.147  24.592  26.023  1.00  0.00     0.016 A 
ATOM      8  C   UNL A   1      39.715  25.632  28.580  1.00  0.00     0.010 A 
ATOM      9  C   UNL A   1      40.487  25.917  26.320  1.00  0.00     0.010 A 
ATOM     10  C   UNL A   1      40.320  26.439  27.621  1.00  0.00    -0.014 A 
BRANCH  10  11
ATOM     11  C   UNL A   1      40.674  27.865  27.866  1.00  0.00     0.031 A 
ATOM     12  C   UNL A   1      42.136  28.178  27.976  1.00  0.00     0.074 A 
ATOM     13  C   UNL A   1      39.760  28.833  28.101  1.00  0.00     0.049 A 
ATOM     14  N   UNL A   1      42.719  29.287  28.342  1.00  0.00    -0.248 NA
ATOM     15  C   UNL A   1      43.064  27.090  27.618  1.00  0.00     0.031 C 
ATOM     16  C   UNL A   1      38.308  28.715  27.957  1.00  0.00     0.029 A 
ATOM     17  N   UNL A   1      39.919  30.095  28.635  1.00  0.00    -0.354 N 
ATOM     18  C   UNL A   1      44.073  29.054  28.159  1.00  0.00     0.074 A 
ATOM     19  C   UNL A   1      44.235  27.652  27.854  1.00  0.00     0.031 C 
ATOM     20  C   UNL A   1      37.713  29.765  28.554  1.00  0.00     0.029 A 
ATOM     21  C   UNL A   1      38.736  30.654  29.082  1.00  0.00     0.049 A 
ATOM     22  H   UNL A   1      40.789  30.553  28.692  1.00  0.00     0.167 HD
ATOM     23  C   UNL A   1      45.077  29.958  28.121  1.00  0.00     0.034 A 
ATOM     24  C   UNL A   1      38.519  31.741  29.853  1.00  0.00     0.034 A 
ATOM     25  C   UNL A   1      44.902  31.335  28.484  1.00  0.00     0.049 A 
ATOM     26  C   UNL A   1      39.689  32.651  30.124  1.00  0.00     0.074 A 
ATOM     27  C   UNL A   1      45.823  32.362  28.468  1.00  0.00     0.029 A 
ATOM     28  N   UNL A   1      43.713  31.865  28.971  1.00  0.00    -0.354 N 
ATOM     29  N   UNL A   1      40.953  32.477  29.814  1.00  0.00    -0.248 NA
ATOM     30  C   UNL A   1      39.393  33.945  30.749  1.00  0.00     0.031 C 
ATOM     31  C   UNL A   1      45.212  33.495  29.020  1.00  0.00     0.029 A 
ATOM     32  C   UNL A   1      43.888  33.195  29.306  1.00  0.00     0.049 A 
ATOM     33  H   UNL A   1      42.869  31.367  29.064  1.00  0.00     0.167 HD
ATOM     34  C   UNL A   1      41.580  33.686  30.094  1.00  0.00     0.074 A 
ATOM     35  C   UNL A   1      40.565  34.557  30.653  1.00  0.00     0.031 C 
ATOM     36  C   UNL A   1      42.863  34.056  29.849  1.00  0.00     0.034 A 
BRANCH  23  37
ATOM     37  C   UNL A   1      46.406  29.439  27.643  1.00  0.00     0.023 A 
ATOM     38  C   UNL A   1      46.596  29.116  26.284  1.00  0.00     0.031 A 
ATOM     39  C   UNL A   1      47.437  29.140  28.544  1.00  0.00     0.131 A 
ATOM     40  C   UNL A   1      47.734  28.408  25.885  1.00  0.00     0.055 A 
ATOM     41  C   UNL A   1      48.613  28.516  28.122  1.00  0.00     0.041 A 
ATOM     42  F   UNL A   1      47.298  29.401  29.853  1.00  0.00    -0.206 F 
ATOM     43  C   UNL A   1      48.757  28.125  26.791  1.00  0.00     0.022 A 
BRANCH  40  44
ATOM     44  S   UNL A   1      47.767  27.700  24.213  1.00  0.00     0.124 S 
ATOM     45  O   UNL A   1      47.316  26.332  24.462  1.00  0.00    -0.237 OA
ATOM     46  O   UNL A   1      46.837  28.555  23.487  1.00  0.00    -0.237 OA
ATOM     47  O   UNL A   1      49.169  27.824  23.817  1.00  0.00    -0.744 OA
ENDBRANCH  40  44
ENDBRANCH  23  37
BRANCH  24  48
ATOM     48  C   UNL A   1      37.171  32.072  30.408  1.00  0.00     0.023 A 
ATOM     49  C   UNL A   1      36.213  32.770  29.656  1.00  0.00     0.031 A 
ATOM     50  C   UNL A   1      36.872  31.805  31.758  1.00  0.00     0.131 A 
ATOM     51  C   UNL A   1      35.028  33.219  30.265  1.00  0.00     0.055 A 
ATOM     52  C   UNL A   1      35.672  32.214  32.349  1.00  0.00     0.041 A 
ATOM     53  F   UNL A   1      37.767  31.180  32.536  1.00  0.00    -0.206 F 
ATOM     54  C   UNL A   1      34.746  32.939  31.605  1.00  0.00     0.022 A 
BRANCH  51  55
ATOM     55  S   UNL A   1      33.898  34.266  29.304  1.00  0.00     0.124 S 
ATOM     56  O   UNL A   1      32.990  34.750  30.338  1.00  0.00    -0.237 OA
ATOM     57  O   UNL A   1      34.810  35.252  28.737  1.00  0.00    -0.237 OA
ATOM     58  O   UNL A   1      33.307  33.338  28.341  1.00  0.00    -0.744 OA
ENDBRANCH  51  55
ENDBRANCH  24  48
BRANCH  36  59
ATOM     59  C   UNL A   1      43.215  35.500  30.083  1.00  0.00     0.023 A 
ATOM     60  C   UNL A   1      43.014  36.486  29.106  1.00  0.00     0.031 A 
ATOM     61  C   UNL A   1      43.759  35.890  31.320  1.00  0.00     0.131 A 
ATOM     62  C   UNL A   1      43.405  37.807  29.363  1.00  0.00     0.055 A 
ATOM     63  C   UNL A   1      44.076  37.219  31.597  1.00  0.00     0.041 A 
ATOM     64  F   UNL A   1      43.982  34.985  32.287  1.00  0.00    -0.206 F 
ATOM     65  C   UNL A   1      43.910  38.185  30.609  1.00  0.00     0.022 A 
BRANCH  62  66
ATOM     66  S   UNL A   1      43.330  39.009  28.009  1.00  0.00     0.124 S 
ATOM     67  O   UNL A   1      44.186  40.080  28.511  1.00  0.00    -0.237 OA
ATOM     68  O   UNL A   1      43.859  38.246  26.883  1.00  0.00    -0.237 OA
ATOM     69  O   UNL A   1      41.909  39.337  27.921  1.00  0.00    -0.744 OA
ENDBRANCH  62  66
ENDBRANCH  36  59
ENDBRANCH  10  11
ENDBRANCH   3   5
ENDBRANCH   2   3
ENDBRANCH   1   2
BRANCH   1  70
ATOM     70  C   UNL A   1      36.740  22.998  25.013  1.00  0.00     0.274 C 
BRANCH  70  71
ATOM     71  O   UNL A   1      35.607  23.287  25.846  1.00  0.00    -0.461 OA
BRANCH  71  72
ATOM     72  C   UNL A   1      34.650  24.121  25.344  1.00  0.00     0.318 C 
ATOM     73  O   UNL A   1      34.810  25.334  25.200  1.00  0.00    -0.251 OA
BRANCH  72  74
ATOM     74  C   UNL A   1      33.323  23.411  25.010  1.00  0.00     0.122 C 
ATOM     75  C   UNL A   1      32.143  24.329  25.314  1.00  0.00     0.031 C 
ATOM     76  C   UNL A   1      33.293  23.249  23.473  1.00  0.00     0.279 C 
ATOM     77  C   UNL A   1      30.814  23.753  24.887  1.00  0.00     0.063 C 
ATOM     78  N   UNL A   1      32.018  22.882  22.841  1.00  0.00    -0.345 N 
ATOM     79  C   UNL A   1      30.814  23.513  23.390  1.00  0.00     0.260 C 
ATOM     80  H   UNL A   1      32.077  23.133  21.854  1.00  0.00     0.346 HD
ATOM     81  H   UNL A   1      31.905  21.884  23.017  1.00  0.00     0.346 HD
BRANCH  74  82
ATOM     82  C   UNL A   1      33.306  22.104  25.887  1.00  0.00     0.082 C 
BRANCH  82  83
ATOM     83  C   UNL A   1      33.304  20.795  25.157  1.00  0.00     0.061 A 
ATOM     84  C   UNL A   1      32.243  19.938  24.933  1.00  0.00     0.116 A 
ATOM     85  N   UNL A   1      34.471  20.216  24.703  1.00  0.00    -0.234 NA
ATOM     86  N   UNL A   1      32.840  18.705  24.800  1.00  0.00    -0.307 N 
ATOM     87  C   UNL A   1      34.188  18.936  24.557  1.00  0.00     0.136 A 
ATOM     88  C   UNL A   1      32.307  17.443  25.060  1.00  0.00     0.093 A 
ATOM     89  C   UNL A   1      35.019  17.788  24.400  1.00  0.00     0.048 A 
ATOM     90  C   UNL A   1      33.121  16.375  25.037  1.00  0.00     0.018 A 
ATOM     91  C   UNL A   1      34.512  16.562  24.648  1.00  0.00     0.005 A 
ENDBRANCH  82  83
ENDBRANCH  74  82
ENDBRANCH  72  74
ENDBRANCH  71  72
ENDBRANCH  70  71
ENDBRANCH   1  70
TORSDOF 16
ENDMDL
MODEL 2
REMARK VINA RESULT:     -11.8      1.518      1.935
REMARK SMILES O=C(OCCOC(=O)[C@@]1(Cc2cn3ccccc3n2)CCC[NH2+]C1)c1ccc(-c2c3nc(c(-c4cc(S(=O)(=O)[O-])ccc4F)c4ccc([nH]4)c(-c4cc(S(=O)(=O)[O-])ccc4F)c4nc(c(-c5cc(S(=O)(=O)[O-])ccc5F)c5ccc2[nH]5)C=C4)C=C3)cc1
REMARK SMILES IDX 4 1 3 2 2 3 1 4 25 5 26 6 87 7 27 8 86 9 28 10 29 11 30 12
REMARK SMILES IDX 80 13 31 14 85 15 79 16 81 17 32 18 84 19 78 20 77 21 33 23
REMARK SMILES IDX 65 24 45 25 64 26 46 27 49 28 63 29 82 30 47 31 48 32 62 34
REMARK SMILES IDX 83 35 50 36 34 37 35 38 43 39 36 40 42 41 44 42 41 43 37 44
REMARK SMILES IDX 38 45 39 46 40 47 66 48 67 49 75 50 68 51 74 52 76 53 73 54
REMARK SMILES IDX 69 55 70 56 71 57 72 58 51 59 52 60 60 61 53 62 59 63 61 64
REMARK SMILES IDX 58 65 54 66 55 67 56 68 57 69 5 70 6 71 7 72 8 73 9 74 20 75
REMARK SMILES IDX 24 76 21 77 23 78 22 79 10 82 11 83 12 84 19 85 13 86 18 87
REMARK SMILES IDX 14 88 17 89 15 90 16 91
REMARK H PARENT 81 22 49 33 23 80 23 81
REMARK Flexibility Score: inf
ROOT
ATOM      1  C   UNL A   1      37.371  22.249  24.881  1.00  0.00     0.275 C 
ENDROOT
BRANCH   1   2
ATOM      2  O   UNL A   1      38.201  21.841  25.981  1.00  0.00    -0.458 OA
BRANCH   2   3
ATOM      3  C   UNL A   1      39.342  22.390  26.464  1.00  0.00     0.338 C 
ATOM      4  O   UNL A   1      40.298  21.642  26.673  1.00  0.00    -0.246 OA
BRANCH   3   5
ATOM      5  C   UNL A   1      39.468  23.827  26.875  1.00  0.00     0.060 A 
ATOM      6  C   UNL A   1      39.134  24.369  28.122  1.00  0.00     0.016 A 
ATOM      7  C   UNL A   1      40.017  24.692  25.915  1.00  0.00     0.016 A 
ATOM      8  C   UNL A   1      39.500  25.682  28.476  1.00  0.00     0.010 A 
ATOM      9  C   UNL A   1      40.383  25.997  26.262  1.00  0.00     0.010 A 
ATOM     10  C   UNL A   1      40.172  26.493  27.566  1.00  0.00    -0.014 A 
BRANCH  10  11
ATOM     11  C   UNL A   1      40.557  27.900  27.864  1.00  0.00     0.031 A 
ATOM     12  C   UNL A   1      42.023  28.172  28.013  1.00  0.00     0.074 A 
ATOM     13  C   UNL A   1      39.663  28.884  28.111  1.00  0.00     0.049 A 
ATOM     14  N   UNL A   1      42.626  29.253  28.425  1.00  0.00    -0.248 NA
ATOM     15  C   UNL A   1      42.931  27.072  27.639  1.00  0.00     0.031 C 
ATOM     16  C   UNL A   1      38.212  28.808  27.933  1.00  0.00     0.029 A 
ATOM     17  N   UNL A   1      39.843  30.124  28.687  1.00  0.00    -0.354 N 
ATOM     18  C   UNL A   1      43.978  28.991  28.262  1.00  0.00     0.074 A 
ATOM     19  C   UNL A   1      44.110  27.595  27.917  1.00  0.00     0.031 C 
ATOM     20  C   UNL A   1      37.631  29.854  28.552  1.00  0.00     0.029 A 
ATOM     21  C   UNL A   1      38.665  30.700  29.128  1.00  0.00     0.049 A 
ATOM     22  H   UNL A   1      40.722  30.557  28.777  1.00  0.00     0.167 HD
ATOM     23  C   UNL A   1      45.005  29.869  28.274  1.00  0.00     0.034 A 
ATOM     24  C   UNL A   1      38.459  31.767  29.929  1.00  0.00     0.034 A 
ATOM     25  C   UNL A   1      44.857  31.239  28.676  1.00  0.00     0.049 A 
ATOM     26  C   UNL A   1      39.647  32.638  30.251  1.00  0.00     0.074 A 
ATOM     27  C   UNL A   1      45.804  32.242  28.711  1.00  0.00     0.029 A 
ATOM     28  N   UNL A   1      43.673  31.784  29.156  1.00  0.00    -0.354 N 
ATOM     29  N   UNL A   1      40.911  32.441  29.962  1.00  0.00    -0.248 NA
ATOM     30  C   UNL A   1      39.370  33.919  30.911  1.00  0.00     0.031 C 
ATOM     31  C   UNL A   1      45.211  33.372  29.287  1.00  0.00     0.029 A 
ATOM     32  C   UNL A   1      43.874  33.098  29.537  1.00  0.00     0.049 A 
ATOM     33  H   UNL A   1      42.814  31.305  29.216  1.00  0.00     0.167 HD
ATOM     34  C   UNL A   1      41.563  33.624  30.292  1.00  0.00     0.074 A 
ATOM     35  C   UNL A   1      40.559  34.503  30.858  1.00  0.00     0.031 C 
ATOM     36  C   UNL A   1      42.860  33.968  30.086  1.00  0.00     0.034 A 
BRANCH  23  37
ATOM     37  C   UNL A   1      46.331  29.331  27.807  1.00  0.00     0.023 A 
ATOM     38  C   UNL A   1      46.544  29.056  26.440  1.00  0.00     0.031 A 
ATOM     39  C   UNL A   1      47.330  28.969  28.718  1.00  0.00     0.131 A 
ATOM     40  C   UNL A   1      47.671  28.331  26.040  1.00  0.00     0.055 A 
ATOM     41  C   UNL A   1      48.498  28.327  28.300  1.00  0.00     0.041 A 
ATOM     42  F   UNL A   1      47.167  29.182  30.033  1.00  0.00    -0.206 F 
ATOM     43  C   UNL A   1      48.664  27.984  26.958  1.00  0.00     0.022 A 
BRANCH  40  44
ATOM     44  S   UNL A   1      47.725  27.687  24.344  1.00  0.00     0.124 S 
ATOM     45  O   UNL A   1      49.145  27.812  24.024  1.00  0.00    -0.237 OA
ATOM     46  O   UNL A   1      47.225  26.327  24.503  1.00  0.00    -0.237 OA
ATOM     47  O   UNL A   1      46.846  28.593  23.607  1.00  0.00    -0.744 OA
ENDBRANCH  40  44
ENDBRANCH  23  37
BRANCH  24  48
ATOM     48  C   UNL A   1      37.109  32.116  30.466  1.00  0.00     0.023 A 
ATOM     49  C   UNL A   1      36.170  32.827  29.702  1.00  0.00     0.031 A 
ATOM     50  C   UNL A   1      36.790  31.853  31.812  1.00  0.00     0.131 A 
ATOM     51  C   UNL A   1      34.983  33.291  30.296  1.00  0.00     0.055 A 
ATOM     52  C   UNL A   1      35.587  32.278  32.388  1.00  0.00     0.041 A 
ATOM     53  F   UNL A   1      37.666  31.216  32.601  1.00  0.00    -0.206 F 
ATOM     54  C   UNL A   1      34.680  33.015  31.632  1.00  0.00     0.022 A 
BRANCH  51  55
ATOM     55  S   UNL A   1      33.879  34.353  29.321  1.00  0.00     0.124 S 
ATOM     56  O   UNL A   1      34.807  35.353  28.808  1.00  0.00    -0.237 OA
ATOM     57  O   UNL A   1      33.342  33.412  28.344  1.00  0.00    -0.237 OA
ATOM     58  O   UNL A   1      32.916  34.842  30.306  1.00  0.00    -0.744 OA
ENDBRANCH  51  55
ENDBRANCH  24  48
BRANCH  36  59
ATOM     59  C   UNL A   1      43.243  35.394  30.372  1.00  0.00     0.023 A 
ATOM     60  C   UNL A   1      43.607  35.827  31.656  1.00  0.00     0.031 A 
ATOM     61  C   UNL A   1      43.246  36.335  29.326  1.00  0.00     0.131 A 
ATOM     62  C   UNL A   1      43.909  37.179  31.872  1.00  0.00     0.055 A 
ATOM     63  C   UNL A   1      43.620  37.662  29.533  1.00  0.00     0.041 A 
ATOM     64  F   UNL A   1      42.896  35.976  28.080  1.00  0.00    -0.206 F 
ATOM     65  C   UNL A   1      43.943  38.093  30.816  1.00  0.00     0.022 A 
BRANCH  62  66
ATOM     66  S   UNL A   1      44.166  37.745  33.574  1.00  0.00     0.124 S 
ATOM     67  O   UNL A   1      42.844  38.257  33.923  1.00  0.00    -0.237 OA
ATOM     68  O   UNL A   1      44.573  36.519  34.253  1.00  0.00    -0.237 OA
ATOM     69  O   UNL A   1      45.211  38.758  33.444  1.00  0.00    -0.744 OA
ENDBRANCH  62  66
ENDBRANCH  36  59
ENDBRANCH  10  11
ENDBRANCH   3   5
ENDBRANCH   2   3
ENDBRANCH   1   2
BRANCH   1  70
ATOM     70  C   UNL A   1      36.719  23.623  25.034  1.00  0.00     0.274 C 
BRANCH  70  71
ATOM     71  O   UNL A   1      35.309  23.568  25.299  1.00  0.00    -0.461 OA
BRANCH  71  72
ATOM     72  C   UNL A   1      34.466  23.514  24.227  1.00  0.00     0.318 C 
ATOM     73  O   UNL A   1      34.830  23.694  23.064  1.00  0.00    -0.251 OA
BRANCH  72  74
ATOM     74  C   UNL A   1      32.997  23.248  24.607  1.00  0.00     0.122 C 
ATOM     75  C   UNL A   1      32.855  23.148  26.124  1.00  0.00     0.031 C 
ATOM     76  C   UNL A   1      32.213  24.526  24.236  1.00  0.00     0.279 C 
ATOM     77  C   UNL A   1      31.423  23.020  26.582  1.00  0.00     0.063 C 
ATOM     78  N   UNL A   1      30.849  24.680  24.762  1.00  0.00    -0.345 N 
ATOM     79  C   UNL A   1      30.630  24.236  26.142  1.00  0.00     0.260 C 
ATOM     80  H   UNL A   1      30.607  25.670  24.712  1.00  0.00     0.346 HD
ATOM     81  H   UNL A   1      30.266  24.073  24.187  1.00  0.00     0.346 HD
BRANCH  74  82
ATOM     82  C   UNL A   1      32.604  21.908  23.881  1.00  0.00     0.082 C 
BRANCH  82  83
ATOM     83  C   UNL A   1      33.048  20.630  24.527  1.00  0.00     0.061 A 
ATOM     84  C   UNL A   1      34.320  20.094  24.587  1.00  0.00     0.116 A 
ATOM     85  N   UNL A   1      32.142  19.737  25.063  1.00  0.00    -0.234 NA
ATOM     86  N   UNL A   1      34.101  18.740  24.706  1.00  0.00    -0.307 N 
ATOM     87  C   UNL A   1      32.779  18.582  25.101  1.00  0.00     0.136 A 
ATOM     88  C   UNL A   1      34.923  17.684  24.316  1.00  0.00     0.093 A 
ATOM     89  C   UNL A   1      32.315  17.244  25.275  1.00  0.00     0.048 A 
ATOM     90  C   UNL A   1      34.438  16.432  24.360  1.00  0.00     0.018 A 
ATOM     91  C   UNL A   1      33.104  16.215  24.902  1.00  0.00     0.005 A 
ENDBRANCH  82  83
ENDBRANCH  74  82
ENDBRANCH  72  74
ENDBRANCH  71  72
ENDBRANCH  70  71
ENDBRANCH   1  70
TORSDOF 16
ENDMDL
MODEL 3
REMARK VINA RESULT:     -11.8      5.275     10.744
REMARK SMILES O=C(OCCOC(=O)[C@@]1(Cc2cn3ccccc3n2)CCC[NH2+]C1)c1ccc(-c2c3nc(c(-c4cc(S(=O)(=O)[O-])ccc4F)c4ccc([nH]4)c(-c4cc(S(=O)(=O)[O-])ccc4F)c4nc(c(-c5cc(S(=O)(=O)[O-])ccc5F)c5ccc2[nH]5)C=C4)C=C3)cc1
REMARK SMILES IDX 4 1 3 2 2 3 1 4 25 5 26 6 87 7 27 8 86 9 28 10 29 11 30 12
REMARK SMILES IDX 80 13 31 14 85 15 79 16 81 17 32 18 84 19 78 20 77 21 33 23
REMARK SMILES IDX 65 24 45 25 64 26 46 27 49 28 63 29 82 30 47 31 48 32 62 34
REMARK SMILES IDX 83 35 50 36 34 37 35 38 43 39 36 40 42 41 44 42 41 43 37 44
REMARK SMILES IDX 38 45 39 46 40 47 66 48 67 49 75 50 68 51 74 52 76 53 73 54
REMARK SMILES IDX 69 55 70 56 71 57 72 58 51 59 52 60 60 61 53 62 59 63 61 64
REMARK SMILES IDX 58 65 54 66 55 67 56 68 57 69 5 70 6 71 7 72 8 73 9 74 20 75
REMARK SMILES IDX 24 76 21 77 23 78 22 79 10 82 11 83 12 84 19 85 13 86 18 87
REMARK SMILES IDX 14 88 17 89 15 90 16 91
REMARK H PARENT 81 22 49 33 23 80 23 81
REMARK Flexibility Score: inf
ROOT
ATOM      1  C   UNL A   1      31.877  32.635  26.696  1.00  0.00     0.275 C 
ENDROOT
BRANCH   1   2
ATOM      2  O   UNL A   1      32.467  33.288  27.831  1.00  0.00    -0.458 OA
BRANCH   2   3
ATOM      3  C   UNL A   1      33.715  33.786  28.002  1.00  0.00     0.338 C 
ATOM      4  O   UNL A   1      33.906  34.971  27.726  1.00  0.00    -0.246 OA
BRANCH   3   5
ATOM      5  C   UNL A   1      34.901  32.952  28.386  1.00  0.00     0.060 A 
ATOM      6  C   UNL A   1      36.234  33.181  28.021  1.00  0.00     0.016 A 
ATOM      7  C   UNL A   1      34.635  31.862  29.229  1.00  0.00     0.016 A 
ATOM      8  C   UNL A   1      37.292  32.470  28.617  1.00  0.00     0.010 A 
ATOM      9  C   UNL A   1      35.684  31.151  29.824  1.00  0.00     0.010 A 
ATOM     10  C   UNL A   1      37.030  31.481  29.562  1.00  0.00    -0.014 A 
BRANCH  10  11
ATOM     11  C   UNL A   1      38.100  30.668  30.204  1.00  0.00     0.031 A 
ATOM     12  C   UNL A   1      38.667  31.205  31.483  1.00  0.00     0.074 A 
ATOM     13  C   UNL A   1      38.643  29.566  29.639  1.00  0.00     0.049 A 
ATOM     14  N   UNL A   1      39.702  30.798  32.165  1.00  0.00    -0.248 NA
ATOM     15  C   UNL A   1      37.960  32.356  32.076  1.00  0.00     0.031 C 
ATOM     16  C   UNL A   1      38.161  28.871  28.445  1.00  0.00     0.029 A 
ATOM     17  N   UNL A   1      39.812  28.898  29.939  1.00  0.00    -0.354 N 
ATOM     18  C   UNL A   1      39.705  31.579  33.309  1.00  0.00     0.074 A 
ATOM     19  C   UNL A   1      38.707  32.608  33.134  1.00  0.00     0.031 C 
ATOM     20  C   UNL A   1      39.106  28.013  28.015  1.00  0.00     0.029 A 
ATOM     21  C   UNL A   1      40.240  28.060  28.926  1.00  0.00     0.049 A 
ATOM     22  H   UNL A   1      40.295  29.006  30.790  1.00  0.00     0.167 HD
ATOM     23  C   UNL A   1      40.390  31.376  34.457  1.00  0.00     0.034 A 
ATOM     24  C   UNL A   1      41.423  27.433  28.749  1.00  0.00     0.034 A 
ATOM     25  C   UNL A   1      41.417  30.382  34.587  1.00  0.00     0.049 A 
ATOM     26  C   UNL A   1      42.392  27.433  29.903  1.00  0.00     0.074 A 
ATOM     27  C   UNL A   1      42.171  30.052  35.694  1.00  0.00     0.029 A 
ATOM     28  N   UNL A   1      41.859  29.580  33.542  1.00  0.00    -0.354 N 
ATOM     29  N   UNL A   1      42.308  28.073  31.046  1.00  0.00    -0.248 NA
ATOM     30  C   UNL A   1      43.558  26.550  29.790  1.00  0.00     0.031 C 
ATOM     31  C   UNL A   1      43.123  29.104  35.298  1.00  0.00     0.029 A 
ATOM     32  C   UNL A   1      42.911  28.787  33.964  1.00  0.00     0.049 A 
ATOM     33  H   UNL A   1      41.480  29.576  32.634  1.00  0.00     0.167 HD
ATOM     34  C   UNL A   1      43.340  27.576  31.834  1.00  0.00     0.074 A 
ATOM     35  C   UNL A   1      44.067  26.630  31.012  1.00  0.00     0.031 C 
ATOM     36  C   UNL A   1      43.617  27.836  33.137  1.00  0.00     0.034 A 
BRANCH  23  37
ATOM     37  C   UNL A   1      39.990  32.244  35.620  1.00  0.00     0.023 A 
ATOM     38  C   UNL A   1      39.174  31.725  36.646  1.00  0.00     0.031 A 
ATOM     39  C   UNL A   1      40.303  33.609  35.649  1.00  0.00     0.131 A 
ATOM     40  C   UNL A   1      38.602  32.587  37.588  1.00  0.00     0.055 A 
ATOM     41  C   UNL A   1      39.803  34.448  36.647  1.00  0.00     0.041 A 
ATOM     42  F   UNL A   1      41.053  34.160  34.682  1.00  0.00    -0.206 F 
ATOM     43  C   UNL A   1      38.929  33.943  37.611  1.00  0.00     0.022 A 
BRANCH  40  44
ATOM     44  S   UNL A   1      37.283  31.943  38.656  1.00  0.00     0.124 S 
ATOM     45  O   UNL A   1      37.119  30.586  38.139  1.00  0.00    -0.237 OA
ATOM     46  O   UNL A   1      37.869  32.050  39.986  1.00  0.00    -0.237 OA
ATOM     47  O   UNL A   1      36.161  32.842  38.394  1.00  0.00    -0.744 OA
ENDBRANCH  40  44
ENDBRANCH  23  37
BRANCH  24  48
ATOM     48  C   UNL A   1      41.775  26.731  27.478  1.00  0.00     0.023 A 
ATOM     49  C   UNL A   1      41.687  25.335  27.356  1.00  0.00     0.031 A 
ATOM     50  C   UNL A   1      42.334  27.445  26.401  1.00  0.00     0.131 A 
ATOM     51  C   UNL A   1      42.192  24.694  26.210  1.00  0.00     0.055 A 
ATOM     52  C   UNL A   1      42.794  26.808  25.244  1.00  0.00     0.041 A 
ATOM     53  F   UNL A   1      42.482  28.776  26.479  1.00  0.00    -0.206 F 
ATOM     54  C   UNL A   1      42.738  25.420  25.150  1.00  0.00     0.022 A 
BRANCH  51  55
ATOM     55  S   UNL A   1      42.217  22.879  26.169  1.00  0.00     0.124 S 
ATOM     56  O   UNL A   1      40.811  22.558  26.384  1.00  0.00    -0.237 OA
ATOM     57  O   UNL A   1      42.739  22.615  24.833  1.00  0.00    -0.237 OA
ATOM     58  O   UNL A   1      43.113  22.523  27.268  1.00  0.00    -0.744 OA
ENDBRANCH  51  55
ENDBRANCH  24  48
BRANCH  36  59
ATOM     59  C   UNL A   1      44.687  27.004  33.788  1.00  0.00     0.023 A 
ATOM     60  C   UNL A   1      44.411  25.763  34.382  1.00  0.00     0.031 A 
ATOM     61  C   UNL A   1      46.015  27.469  33.805  1.00  0.00     0.131 A 
ATOM     62  C   UNL A   1      45.441  25.053  35.016  1.00  0.00     0.055 A 
ATOM     63  C   UNL A   1      47.048  26.724  34.370  1.00  0.00     0.041 A 
ATOM     64  F   UNL A   1      46.332  28.655  33.260  1.00  0.00    -0.206 F 
ATOM     65  C   UNL A   1      46.760  25.512  34.991  1.00  0.00     0.022 A 
BRANCH  62  66
ATOM     66  S   UNL A   1      45.012  23.564  35.955  1.00  0.00     0.124 S 
ATOM     67  O   UNL A   1      44.792  24.106  37.293  1.00  0.00    -0.237 OA
ATOM     68  O   UNL A   1      43.823  23.087  35.258  1.00  0.00    -0.237 OA
ATOM     69  O   UNL A   1      46.195  22.718  35.813  1.00  0.00    -0.744 OA
ENDBRANCH  62  66
ENDBRANCH  36  59
ENDBRANCH  10  11
ENDBRANCH   3   5
ENDBRANCH   2   3
ENDBRANCH   1   2
BRANCH   1  70
ATOM     70  C   UNL A   1      31.809  31.110  26.787  1.00  0.00     0.274 C 
BRANCH  70  71
ATOM     71  O   UNL A   1      32.520  30.436  25.737  1.00  0.00    -0.461 OA
BRANCH  71  72
ATOM     72  C   UNL A   1      33.344  29.407  26.091  1.00  0.00     0.318 C 
ATOM     73  O   UNL A   1      34.401  29.560  26.704  1.00  0.00    -0.251 OA
BRANCH  72  74
ATOM     74  C   UNL A   1      32.850  28.027  25.614  1.00  0.00     0.122 C 
ATOM     75  C   UNL A   1      33.750  26.926  26.169  1.00  0.00     0.031 C 
ATOM     76  C   UNL A   1      31.489  27.790  26.305  1.00  0.00     0.279 C 
ATOM     77  C   UNL A   1      33.253  25.535  25.856  1.00  0.00     0.063 C 
ATOM     78  N   UNL A   1      30.927  26.432  26.280  1.00  0.00    -0.345 N 
ATOM     79  C   UNL A   1      31.877  25.331  26.460  1.00  0.00     0.260 C 
ATOM     80  H   UNL A   1      30.234  26.369  27.026  1.00  0.00     0.346 HD
ATOM     81  H   UNL A   1      30.548  26.313  25.341  1.00  0.00     0.346 HD
BRANCH  74  82
ATOM     82  C   UNL A   1      32.877  28.084  24.041  1.00  0.00     0.082 C 
BRANCH  82  83
ATOM     83  C   UNL A   1      31.560  28.251  23.345  1.00  0.00     0.061 A 
ATOM     84  C   UNL A   1      31.099  29.340  22.629  1.00  0.00     0.116 A 
ATOM     85  N   UNL A   1      30.557  27.311  23.457  1.00  0.00    -0.234 NA
ATOM     86  N   UNL A   1      29.730  29.249  22.741  1.00  0.00    -0.307 N 
ATOM     87  C   UNL A   1      29.446  27.953  23.151  1.00  0.00     0.136 A 
ATOM     88  C   UNL A   1      28.780  30.267  22.681  1.00  0.00     0.093 A 
ATOM     89  C   UNL A   1      28.072  27.629  23.351  1.00  0.00     0.048 A 
ATOM     90  C   UNL A   1      27.504  29.985  22.996  1.00  0.00     0.018 A 
ATOM     91  C   UNL A   1      27.144  28.607  23.295  1.00  0.00     0.005 A 
ENDBRANCH  82  83
ENDBRANCH  74  82
ENDBRANCH  72  74
ENDBRANCH  71  72
ENDBRANCH  70  71
ENDBRANCH   1  70
TORSDOF 16
ENDMDL
