MODEL 1
REMARK VINA RESULT:     -12.5      0.000      0.000
REMARK SMILES C[C@@H](C(=O)OCCOC(=O)c1ccc(-c2c3nc(c(-c4cc(S(=O)(=O)[O-])ccc4F)c4ccc([nH]4)c(-c4cc(S(=O)(=O)[O-])ccc4F)c4nc(c(-c5cc(S(=O)(=O)[O-])ccc5F)c5ccc2[nH]5)C=C4)C=C3)cc1)c1ccc(-c2ccc3[nH]ccc3c2)cc1
REMARK SMILES IDX 7 1 6 2 5 3 3 4 4 5 2 6 1 7 74 8 75 9 88 10 76 11 87 12
REMARK SMILES IDX 77 13 78 14 79 15 86 16 80 17 85 18 81 19 84 20 82 21 83 22
REMARK SMILES IDX 8 24 9 25 10 26 11 27 12 28 73 29 13 30 72 31 14 32 15 33
REMARK SMILES IDX 16 34 66 35 17 36 71 37 65 38 67 39 18 40 70 41 64 42 63 43
REMARK SMILES IDX 19 45 51 46 31 47 50 48 32 49 35 50 49 51 68 52 33 53 34 54
REMARK SMILES IDX 48 56 69 57 36 58 20 59 21 60 29 61 22 62 28 63 30 64 27 65
REMARK SMILES IDX 23 66 24 67 25 68 26 69 52 70 53 71 61 72 54 73 60 74 62 75
REMARK SMILES IDX 59 76 55 77 56 78 57 79 58 80 37 81 38 82 46 83 39 84 45 85
REMARK SMILES IDX 47 86 44 87 40 88 41 89 42 90 43 91
REMARK H PARENT 82 23 67 44 35 55
REMARK Flexibility Score: inf
ROOT
ATOM      1  C   UNL A   1      36.334  20.681  24.992  1.00  0.00     0.275 C 
ENDROOT
BRANCH   1   2
ATOM      2  C   UNL A   1      34.870  20.668  25.423  1.00  0.00     0.274 C 
BRANCH   2   3
ATOM      3  O   UNL A   1      34.029  20.200  24.348  1.00  0.00    -0.462 OA
BRANCH   3   4
ATOM      4  C   UNL A   1      32.689  20.118  24.596  1.00  0.00     0.313 C 
ATOM      5  O   UNL A   1      32.186  19.239  25.285  1.00  0.00    -0.252 OA
BRANCH   4   6
ATOM      6  C   UNL A   1      31.883  21.191  23.834  1.00  0.00     0.126 C 
ATOM      7  C   UNL A   1      32.136  21.126  22.320  1.00  0.00     0.025 C 
BRANCH   6   8
ATOM      8  C   UNL A   1      32.036  22.600  24.425  1.00  0.00    -0.034 A 
ATOM      9  C   UNL A   1      32.279  23.736  23.635  1.00  0.00     0.005 A 
ATOM     10  C   UNL A   1      31.928  22.796  25.814  1.00  0.00     0.005 A 
ATOM     11  C   UNL A   1      32.417  25.007  24.209  1.00  0.00     0.009 A 
ATOM     12  C   UNL A   1      32.079  24.069  26.388  1.00  0.00     0.009 A 
ATOM     13  C   UNL A   1      32.324  25.194  25.592  1.00  0.00    -0.018 A 
BRANCH  13  14
ATOM     14  C   UNL A   1      32.512  26.527  26.182  1.00  0.00    -0.018 A 
ATOM     15  C   UNL A   1      31.431  27.248  26.713  1.00  0.00     0.011 A 
ATOM     16  C   UNL A   1      33.790  27.115  26.209  1.00  0.00     0.019 A 
ATOM     17  C   UNL A   1      31.590  28.521  27.279  1.00  0.00     0.027 A 
ATOM     18  C   UNL A   1      33.975  28.391  26.771  1.00  0.00    -0.000 A 
ATOM     19  C   UNL A   1      32.878  29.063  27.302  1.00  0.00     0.045 A 
ATOM     20  C   UNL A   1      35.098  29.239  26.940  1.00  0.00     0.028 A 
ATOM     21  N   UNL A   1      33.341  30.259  27.806  1.00  0.00    -0.361 N 
ATOM     22  C   UNL A   1      34.684  30.380  27.580  1.00  0.00     0.083 A 
ATOM     23  H   UNL A   1      32.786  30.931  28.264  1.00  0.00     0.166 HD
ENDBRANCH  13  14
ENDBRANCH   6   8
ENDBRANCH   4   6
ENDBRANCH   3   4
ENDBRANCH   2   3
ENDBRANCH   1   2
BRANCH   1  24
ATOM     24  O   UNL A   1      37.069  21.624  25.789  1.00  0.00    -0.458 OA
BRANCH  24  25
ATOM     25  C   UNL A   1      38.396  21.383  25.906  1.00  0.00     0.338 C 
ATOM     26  O   UNL A   1      38.999  20.374  25.594  1.00  0.00    -0.246 OA
BRANCH  25  27
ATOM     27  C   UNL A   1      39.046  22.599  26.418  1.00  0.00     0.060 A 
ATOM     28  C   UNL A   1      38.466  23.825  26.118  1.00  0.00     0.016 A 
ATOM     29  C   UNL A   1      40.261  22.541  27.100  1.00  0.00     0.016 A 
ATOM     30  C   UNL A   1      39.126  25.004  26.441  1.00  0.00     0.010 A 
ATOM     31  C   UNL A   1      40.896  23.733  27.479  1.00  0.00     0.010 A 
ATOM     32  C   UNL A   1      40.350  24.981  27.125  1.00  0.00    -0.014 A 
BRANCH  32  33
ATOM     33  C   UNL A   1      41.086  26.261  27.353  1.00  0.00     0.031 A 
ATOM     34  C   UNL A   1      40.507  27.290  28.292  1.00  0.00     0.074 A 
ATOM     35  C   UNL A   1      42.331  26.436  26.862  1.00  0.00     0.049 A 
ATOM     36  N   UNL A   1      40.924  28.502  28.559  1.00  0.00    -0.248 NA
ATOM     37  C   UNL A   1      39.304  26.898  29.042  1.00  0.00     0.031 C 
ATOM     38  C   UNL A   1      43.065  25.454  26.061  1.00  0.00     0.029 A 
ATOM     39  N   UNL A   1      43.231  27.464  27.020  1.00  0.00    -0.354 N 
ATOM     40  C   UNL A   1      40.045  29.013  29.508  1.00  0.00     0.074 A 
ATOM     41  C   UNL A   1      39.027  28.005  29.715  1.00  0.00     0.031 C 
ATOM     42  C   UNL A   1      44.326  25.880  25.887  1.00  0.00     0.029 A 
ATOM     43  C   UNL A   1      44.469  27.211  26.468  1.00  0.00     0.049 A 
ATOM     44  H   UNL A   1      43.012  28.303  27.485  1.00  0.00     0.167 HD
ATOM     45  C   UNL A   1      40.110  30.190  30.180  1.00  0.00     0.034 A 
ATOM     46  C   UNL A   1      45.585  27.969  26.419  1.00  0.00     0.034 A 
ATOM     47  C   UNL A   1      41.196  31.135  30.063  1.00  0.00     0.049 A 
ATOM     48  C   UNL A   1      45.551  29.348  27.038  1.00  0.00     0.074 A 
ATOM     49  C   UNL A   1      41.352  32.349  30.711  1.00  0.00     0.029 A 
ATOM     50  N   UNL A   1      42.330  30.961  29.281  1.00  0.00    -0.354 N 
ATOM     51  N   UNL A   1      44.598  29.920  27.736  1.00  0.00    -0.248 NA
ATOM     52  C   UNL A   1      46.736  30.193  26.836  1.00  0.00     0.031 C 
ATOM     53  C   UNL A   1      42.561  32.921  30.297  1.00  0.00     0.029 A 
ATOM     54  C   UNL A   1      43.194  32.035  29.441  1.00  0.00     0.049 A 
ATOM     55  H   UNL A   1      42.497  30.187  28.696  1.00  0.00     0.167 HD
ATOM     56  C   UNL A   1      45.086  31.175  28.089  1.00  0.00     0.074 A 
ATOM     57  C   UNL A   1      46.416  31.278  27.524  1.00  0.00     0.031 C 
ATOM     58  C   UNL A   1      44.495  32.150  28.826  1.00  0.00     0.034 A 
BRANCH  45  59
ATOM     59  C   UNL A   1      38.946  30.545  31.075  1.00  0.00     0.023 A 
ATOM     60  C   UNL A   1      37.879  31.355  30.650  1.00  0.00     0.031 A 
ATOM     61  C   UNL A   1      38.921  30.062  32.397  1.00  0.00     0.131 A 
ATOM     62  C   UNL A   1      36.865  31.707  31.556  1.00  0.00     0.055 A 
ATOM     63  C   UNL A   1      37.876  30.357  33.271  1.00  0.00     0.041 A 
ATOM     64  F   UNL A   1      39.923  29.299  32.862  1.00  0.00    -0.206 F 
ATOM     65  C   UNL A   1      36.846  31.196  32.857  1.00  0.00     0.022 A 
BRANCH  62  66
ATOM     66  S   UNL A   1      35.642  32.957  31.066  1.00  0.00     0.124 S 
ATOM     67  O   UNL A   1      34.427  32.453  31.700  1.00  0.00    -0.237 OA
ATOM     68  O   UNL A   1      36.201  34.180  31.629  1.00  0.00    -0.237 OA
ATOM     69  O   UNL A   1      35.646  32.884  29.606  1.00  0.00    -0.744 OA
ENDBRANCH  62  66
ENDBRANCH  45  59
BRANCH  46  70
ATOM     70  C   UNL A   1      46.813  27.488  25.709  1.00  0.00     0.023 A 
ATOM     71  C   UNL A   1      47.093  27.872  24.387  1.00  0.00     0.031 A 
ATOM     72  C   UNL A   1      47.689  26.571  26.320  1.00  0.00     0.131 A 
ATOM     73  C   UNL A   1      48.187  27.310  23.707  1.00  0.00     0.055 A 
ATOM     74  C   UNL A   1      48.815  26.071  25.666  1.00  0.00     0.041 A 
ATOM     75  F   UNL A   1      47.464  26.145  27.574  1.00  0.00    -0.206 F 
ATOM     76  C   UNL A   1      49.062  26.428  24.346  1.00  0.00     0.022 A 
BRANCH  73  77
ATOM     77  S   UNL A   1      48.387  27.647  21.934  1.00  0.00     0.124 S 
ATOM     78  O   UNL A   1      49.533  28.550  21.928  1.00  0.00    -0.237 OA
ATOM     79  O   UNL A   1      48.619  26.313  21.393  1.00  0.00    -0.237 OA
ATOM     80  O   UNL A   1      47.113  28.257  21.558  1.00  0.00    -0.744 OA
ENDBRANCH  73  77
ENDBRANCH  46  70
BRANCH  58  81
ATOM     81  C   UNL A   1      45.299  33.404  29.064  1.00  0.00     0.023 A 
ATOM     82  C   UNL A   1      45.354  34.433  28.107  1.00  0.00     0.031 A 
ATOM     83  C   UNL A   1      46.036  33.565  30.251  1.00  0.00     0.131 A 
ATOM     84  C   UNL A   1      46.167  35.555  28.331  1.00  0.00     0.055 A 
ATOM     85  C   UNL A   1      46.797  34.711  30.494  1.00  0.00     0.041 A 
ATOM     86  F   UNL A   1      46.030  32.609  31.194  1.00  0.00    -0.206 F 
ATOM     87  C   UNL A   1      46.874  35.708  29.527  1.00  0.00     0.022 A 
BRANCH  84  88
ATOM     88  S   UNL A   1      46.350  36.776  27.003  1.00  0.00     0.124 S 
ATOM     89  O   UNL A   1      46.389  35.930  25.815  1.00  0.00    -0.237 OA
ATOM     90  O   UNL A   1      45.154  37.596  27.162  1.00  0.00    -0.237 OA
ATOM     91  O   UNL A   1      47.608  37.449  27.327  1.00  0.00    -0.744 OA
ENDBRANCH  84  88
ENDBRANCH  58  81
ENDBRANCH  32  33
ENDBRANCH  25  27
ENDBRANCH  24  25
ENDBRANCH   1  24
TORSDOF 16
ENDMDL
MODEL 2
REMARK VINA RESULT:     -12.3      5.308      8.213
REMARK SMILES C[C@@H](C(=O)OCCOC(=O)c1ccc(-c2c3nc(c(-c4cc(S(=O)(=O)[O-])ccc4F)c4ccc([nH]4)c(-c4cc(S(=O)(=O)[O-])ccc4F)c4nc(c(-c5cc(S(=O)(=O)[O-])ccc5F)c5ccc2[nH]5)C=C4)C=C3)cc1)c1ccc(-c2ccc3[nH]ccc3c2)cc1
REMARK SMILES IDX 7 1 6 2 5 3 3 4 4 5 2 6 1 7 74 8 75 9 88 10 76 11 87 12
REMARK SMILES IDX 77 13 78 14 79 15 86 16 80 17 85 18 81 19 84 20 82 21 83 22
REMARK SMILES IDX 8 24 9 25 10 26 11 27 12 28 73 29 13 30 72 31 14 32 15 33
REMARK SMILES IDX 16 34 66 35 17 36 71 37 65 38 67 39 18 40 70 41 64 42 63 43
REMARK SMILES IDX 19 45 51 46 31 47 50 48 32 49 35 50 49 51 68 52 33 53 34 54
REMARK SMILES IDX 48 56 69 57 36 58 20 59 21 60 29 61 22 62 28 63 30 64 27 65
REMARK SMILES IDX 23 66 24 67 25 68 26 69 52 70 53 71 61 72 54 73 60 74 62 75
REMARK SMILES IDX 59 76 55 77 56 78 57 79 58 80 37 81 38 82 46 83 39 84 45 85
REMARK SMILES IDX 47 86 44 87 40 88 41 89 42 90 43 91
REMARK H PARENT 82 23 67 44 35 55
REMARK Flexibility Score: inf
ROOT
ATOM      1  C   UNL A   1      31.444  31.898  26.614  1.00  0.00     0.275 C 
ENDROOT
BRANCH   1   2
ATOM      2  C   UNL A   1      31.138  30.908  25.494  1.00  0.00     0.274 C 
BRANCH   2   3
ATOM      3  O   UNL A   1      31.705  29.615  25.790  1.00  0.00    -0.462 OA
BRANCH   3   4
ATOM      4  C   UNL A   1      31.719  28.695  24.782  1.00  0.00     0.313 C 
ATOM      5  O   UNL A   1      30.703  28.191  24.318  1.00  0.00    -0.252 OA
BRANCH   4   6
ATOM      6  C   UNL A   1      33.151  28.295  24.370  1.00  0.00     0.126 C 
ATOM      7  C   UNL A   1      33.548  28.907  23.017  1.00  0.00     0.025 C 
BRANCH   6   8
ATOM      8  C   UNL A   1      33.412  26.785  24.463  1.00  0.00    -0.034 A 
ATOM      9  C   UNL A   1      33.425  26.087  25.682  1.00  0.00     0.005 A 
ATOM     10  C   UNL A   1      33.645  26.038  23.293  1.00  0.00     0.005 A 
ATOM     11  C   UNL A   1      33.670  24.708  25.729  1.00  0.00     0.009 A 
ATOM     12  C   UNL A   1      33.903  24.658  23.344  1.00  0.00     0.009 A 
ATOM     13  C   UNL A   1      33.917  23.973  24.564  1.00  0.00    -0.018 A 
BRANCH  13  14
ATOM     14  C   UNL A   1      34.213  22.534  24.635  1.00  0.00    -0.018 A 
ATOM     15  C   UNL A   1      35.501  22.070  24.940  1.00  0.00     0.011 A 
ATOM     16  C   UNL A   1      33.201  21.591  24.377  1.00  0.00     0.019 A 
ATOM     17  C   UNL A   1      35.802  20.701  25.010  1.00  0.00     0.027 A 
ATOM     18  C   UNL A   1      33.478  20.213  24.442  1.00  0.00    -0.000 A 
ATOM     19  C   UNL A   1      34.766  19.797  24.766  1.00  0.00     0.045 A 
ATOM     20  C   UNL A   1      32.707  19.043  24.235  1.00  0.00     0.028 A 
ATOM     21  N   UNL A   1      34.752  18.418  24.788  1.00  0.00    -0.361 N 
ATOM     22  C   UNL A   1      33.511  17.953  24.455  1.00  0.00     0.083 A 
ATOM     23  H   UNL A   1      35.524  17.850  25.012  1.00  0.00     0.166 HD
ENDBRANCH  13  14
ENDBRANCH   6   8
ENDBRANCH   4   6
ENDBRANCH   3   4
ENDBRANCH   2   3
ENDBRANCH   1   2
BRANCH   1  24
ATOM     24  O   UNL A   1      32.697  31.562  27.233  1.00  0.00    -0.458 OA
BRANCH  24  25
ATOM     25  C   UNL A   1      33.459  32.612  27.620  1.00  0.00     0.338 C 
ATOM     26  O   UNL A   1      33.126  33.779  27.710  1.00  0.00    -0.246 OA
BRANCH  25  27
ATOM     27  C   UNL A   1      34.785  32.107  28.004  1.00  0.00     0.060 A 
ATOM     28  C   UNL A   1      34.913  30.752  28.283  1.00  0.00     0.016 A 
ATOM     29  C   UNL A   1      35.866  32.970  28.185  1.00  0.00     0.016 A 
ATOM     30  C   UNL A   1      36.103  30.258  28.803  1.00  0.00     0.010 A 
ATOM     31  C   UNL A   1      37.085  32.457  28.652  1.00  0.00     0.010 A 
ATOM     32  C   UNL A   1      37.208  31.098  28.997  1.00  0.00    -0.014 A 
BRANCH  32  33
ATOM     33  C   UNL A   1      38.431  30.558  29.665  1.00  0.00     0.031 A 
ATOM     34  C   UNL A   1      38.728  30.946  31.092  1.00  0.00     0.074 A 
ATOM     35  C   UNL A   1      39.177  29.604  29.067  1.00  0.00     0.049 A 
ATOM     36  N   UNL A   1      39.776  30.675  31.827  1.00  0.00    -0.248 NA
ATOM     37  C   UNL A   1      37.701  31.734  31.790  1.00  0.00     0.031 C 
ATOM     38  C   UNL A   1      38.910  29.033  27.745  1.00  0.00     0.029 A 
ATOM     39  N   UNL A   1      40.265  28.893  29.514  1.00  0.00    -0.354 N 
ATOM     40  C   UNL A   1      39.534  31.249  33.072  1.00  0.00     0.074 A 
ATOM     41  C   UNL A   1      38.270  31.948  32.967  1.00  0.00     0.031 C 
ATOM     42  C   UNL A   1      39.740  28.000  27.535  1.00  0.00     0.029 A 
ATOM     43  C   UNL A   1      40.671  27.895  28.654  1.00  0.00     0.049 A 
ATOM     44  H   UNL A   1      40.714  29.079  30.370  1.00  0.00     0.167 HD
ATOM     45  C   UNL A   1      40.271  31.159  34.207  1.00  0.00     0.034 A 
ATOM     46  C   UNL A   1      41.686  27.009  28.745  1.00  0.00     0.034 A 
ATOM     47  C   UNL A   1      41.464  30.355  34.341  1.00  0.00     0.049 A 
ATOM     48  C   UNL A   1      42.586  27.063  29.958  1.00  0.00     0.074 A 
ATOM     49  C   UNL A   1      42.272  30.196  35.455  1.00  0.00     0.029 A 
ATOM     50  N   UNL A   1      42.002  29.546  33.350  1.00  0.00    -0.354 N 
ATOM     51  N   UNL A   1      42.479  27.801  31.038  1.00  0.00    -0.248 NA
ATOM     52  C   UNL A   1      43.761  26.180  29.950  1.00  0.00     0.031 C 
ATOM     53  C   UNL A   1      43.311  29.318  35.128  1.00  0.00     0.029 A 
ATOM     54  C   UNL A   1      43.117  28.875  33.829  1.00  0.00     0.049 A 
ATOM     55  H   UNL A   1      41.643  29.460  32.437  1.00  0.00     0.167 HD
ATOM     56  C   UNL A   1      43.550  27.443  31.852  1.00  0.00     0.074 A 
ATOM     57  C   UNL A   1      44.292  26.425  31.138  1.00  0.00     0.031 C 
ATOM     58  C   UNL A   1      43.883  27.902  33.085  1.00  0.00     0.034 A 
BRANCH  45  59
ATOM     59  C   UNL A   1      39.830  31.988  35.389  1.00  0.00     0.023 A 
ATOM     60  C   UNL A   1      39.002  31.484  36.407  1.00  0.00     0.031 A 
ATOM     61  C   UNL A   1      40.247  33.330  35.483  1.00  0.00     0.131 A 
ATOM     62  C   UNL A   1      38.570  32.331  37.440  1.00  0.00     0.055 A 
ATOM     63  C   UNL A   1      39.871  34.147  36.549  1.00  0.00     0.041 A 
ATOM     64  F   UNL A   1      41.023  33.870  34.530  1.00  0.00    -0.206 F 
ATOM     65  C   UNL A   1      39.016  33.652  37.529  1.00  0.00     0.022 A 
BRANCH  62  66
ATOM     66  S   UNL A   1      37.300  31.734  38.594  1.00  0.00     0.124 S 
ATOM     67  O   UNL A   1      36.226  32.700  38.385  1.00  0.00    -0.237 OA
ATOM     68  O   UNL A   1      37.050  30.381  38.111  1.00  0.00    -0.237 OA
ATOM     69  O   UNL A   1      37.956  31.819  39.897  1.00  0.00    -0.744 OA
ENDBRANCH  62  66
ENDBRANCH  45  59
BRANCH  46  70
ATOM     70  C   UNL A   1      41.961  26.036  27.641  1.00  0.00     0.023 A 
ATOM     71  C   UNL A   1      41.309  24.792  27.582  1.00  0.00     0.031 A 
ATOM     72  C   UNL A   1      42.941  26.304  26.667  1.00  0.00     0.131 A 
ATOM     73  C   UNL A   1      41.675  23.851  26.603  1.00  0.00     0.055 A 
ATOM     74  C   UNL A   1      43.250  25.396  25.654  1.00  0.00     0.041 A 
ATOM     75  F   UNL A   1      43.618  27.464  26.682  1.00  0.00    -0.206 F 
ATOM     76  C   UNL A   1      42.627  24.154  25.626  1.00  0.00     0.022 A 
BRANCH  73  77
ATOM     77  S   UNL A   1      40.983  22.175  26.695  1.00  0.00     0.124 S 
ATOM     78  O   UNL A   1      41.788  21.464  25.708  1.00  0.00    -0.237 OA
ATOM     79  O   UNL A   1      41.218  21.822  28.090  1.00  0.00    -0.237 OA
ATOM     80  O   UNL A   1      39.580  22.366  26.331  1.00  0.00    -0.744 OA
ENDBRANCH  73  77
ENDBRANCH  46  70
BRANCH  58  81
ATOM     81  C   UNL A   1      45.100  27.291  33.734  1.00  0.00     0.023 A 
ATOM     82  C   UNL A   1      45.010  26.114  34.498  1.00  0.00     0.031 A 
ATOM     83  C   UNL A   1      46.361  27.900  33.605  1.00  0.00     0.131 A 
ATOM     84  C   UNL A   1      46.149  25.611  35.145  1.00  0.00     0.055 A 
ATOM     85  C   UNL A   1      47.502  27.362  34.201  1.00  0.00     0.041 A 
ATOM     86  F   UNL A   1      46.503  29.033  32.895  1.00  0.00    -0.206 F 
ATOM     87  C   UNL A   1      47.398  26.217  34.986  1.00  0.00     0.022 A 
BRANCH  84  88
ATOM     88  S   UNL A   1      45.962  24.195  36.263  1.00  0.00     0.124 S 
ATOM     89  O   UNL A   1      46.982  24.468  37.271  1.00  0.00    -0.237 OA
ATOM     90  O   UNL A   1      44.578  24.324  36.706  1.00  0.00    -0.237 OA
ATOM     91  O   UNL A   1      46.231  23.042  35.405  1.00  0.00    -0.744 OA
ENDBRANCH  84  88
ENDBRANCH  58  81
ENDBRANCH  32  33
ENDBRANCH  25  27
ENDBRANCH  24  25
ENDBRANCH   1  24
TORSDOF 16
ENDMDL
MODEL 3
REMARK VINA RESULT:     -12.2      1.904      7.869
REMARK SMILES C[C@@H](C(=O)OCCOC(=O)c1ccc(-c2c3nc(c(-c4cc(S(=O)(=O)[O-])ccc4F)c4ccc([nH]4)c(-c4cc(S(=O)(=O)[O-])ccc4F)c4nc(c(-c5cc(S(=O)(=O)[O-])ccc5F)c5ccc2[nH]5)C=C4)C=C3)cc1)c1ccc(-c2ccc3[nH]ccc3c2)cc1
REMARK SMILES IDX 7 1 6 2 5 3 3 4 4 5 2 6 1 7 74 8 75 9 88 10 76 11 87 12
REMARK SMILES IDX 77 13 78 14 79 15 86 16 80 17 85 18 81 19 84 20 82 21 83 22
REMARK SMILES IDX 8 24 9 25 10 26 11 27 12 28 73 29 13 30 72 31 14 32 15 33
REMARK SMILES IDX 16 34 66 35 17 36 71 37 65 38 67 39 18 40 70 41 64 42 63 43
REMARK SMILES IDX 19 45 51 46 31 47 50 48 32 49 35 50 49 51 68 52 33 53 34 54
REMARK SMILES IDX 48 56 69 57 36 58 20 59 21 60 29 61 22 62 28 63 30 64 27 65
REMARK SMILES IDX 23 66 24 67 25 68 26 69 52 70 53 71 61 72 54 73 60 74 62 75
REMARK SMILES IDX 59 76 55 77 56 78 57 79 58 80 37 81 38 82 46 83 39 84 45 85
REMARK SMILES IDX 47 86 44 87 40 88 41 89 42 90 43 91
REMARK H PARENT 82 23 67 44 35 55
REMARK Flexibility Score: inf
ROOT
ATOM      1  C   UNL A   1      37.759  19.976  24.876  1.00  0.00     0.275 C 
ENDROOT
BRANCH   1   2
ATOM      2  C   UNL A   1      36.238  19.963  25.001  1.00  0.00     0.274 C 
BRANCH   2   3
ATOM      3  O   UNL A   1      35.753  21.249  25.437  1.00  0.00    -0.462 OA
BRANCH   3   4
ATOM      4  C   UNL A   1      34.783  21.840  24.680  1.00  0.00     0.313 C 
ATOM      5  O   UNL A   1      33.801  21.240  24.259  1.00  0.00    -0.252 OA
BRANCH   4   6
ATOM      6  C   UNL A   1      35.115  23.307  24.338  1.00  0.00     0.126 C 
ATOM      7  C   UNL A   1      36.109  23.916  25.340  1.00  0.00     0.025 C 
BRANCH   6   8
ATOM      8  C   UNL A   1      33.870  24.174  24.101  1.00  0.00    -0.034 A 
ATOM      9  C   UNL A   1      33.328  24.399  22.825  1.00  0.00     0.005 A 
ATOM     10  C   UNL A   1      33.216  24.778  25.191  1.00  0.00     0.005 A 
ATOM     11  C   UNL A   1      32.191  25.199  22.646  1.00  0.00     0.009 A 
ATOM     12  C   UNL A   1      32.084  25.589  25.009  1.00  0.00     0.009 A 
ATOM     13  C   UNL A   1      31.554  25.810  23.732  1.00  0.00    -0.018 A 
BRANCH  13  14
ATOM     14  C   UNL A   1      30.387  26.679  23.524  1.00  0.00    -0.018 A 
ATOM     15  C   UNL A   1      29.113  26.310  23.981  1.00  0.00     0.011 A 
ATOM     16  C   UNL A   1      30.528  27.900  22.839  1.00  0.00     0.019 A 
ATOM     17  C   UNL A   1      27.988  27.125  23.790  1.00  0.00     0.027 A 
ATOM     18  C   UNL A   1      29.414  28.736  22.636  1.00  0.00    -0.000 A 
ATOM     19  C   UNL A   1      28.173  28.338  23.122  1.00  0.00     0.045 A 
ATOM     20  C   UNL A   1      29.226  29.986  21.997  1.00  0.00     0.028 A 
ATOM     21  N   UNL A   1      27.278  29.342  22.815  1.00  0.00    -0.361 N 
ATOM     22  C   UNL A   1      27.905  30.339  22.122  1.00  0.00     0.083 A 
ATOM     23  H   UNL A   1      26.325  29.340  23.059  1.00  0.00     0.166 HD
ENDBRANCH  13  14
ENDBRANCH   6   8
ENDBRANCH   4   6
ENDBRANCH   3   4
ENDBRANCH   2   3
ENDBRANCH   1   2
BRANCH   1  24
ATOM     24  O   UNL A   1      38.301  21.069  25.635  1.00  0.00    -0.458 OA
BRANCH  24  25
ATOM     25  C   UNL A   1      39.527  20.860  26.169  1.00  0.00     0.338 C 
ATOM     26  O   UNL A   1      40.192  19.842  26.128  1.00  0.00    -0.246 OA
BRANCH  25  27
ATOM     27  C   UNL A   1      39.994  22.119  26.768  1.00  0.00     0.060 A 
ATOM     28  C   UNL A   1      39.383  23.300  26.367  1.00  0.00     0.016 A 
ATOM     29  C   UNL A   1      41.084  22.148  27.638  1.00  0.00     0.016 A 
ATOM     30  C   UNL A   1      39.894  24.523  26.782  1.00  0.00     0.010 A 
ATOM     31  C   UNL A   1      41.560  23.383  28.104  1.00  0.00     0.010 A 
ATOM     32  C   UNL A   1      40.988  24.588  27.655  1.00  0.00    -0.014 A 
BRANCH  32  33
ATOM     33  C   UNL A   1      41.582  25.919  27.988  1.00  0.00     0.031 A 
ATOM     34  C   UNL A   1      42.947  26.275  27.455  1.00  0.00     0.074 A 
ATOM     35  C   UNL A   1      40.848  26.862  28.617  1.00  0.00     0.049 A 
ATOM     36  N   UNL A   1      43.688  27.326  27.698  1.00  0.00    -0.248 NA
ATOM     37  C   UNL A   1      43.555  25.326  26.509  1.00  0.00     0.031 C 
ATOM     38  C   UNL A   1      39.460  26.695  29.055  1.00  0.00     0.029 A 
ATOM     39  N   UNL A   1      41.133  28.169  28.935  1.00  0.00    -0.354 N 
ATOM     40  C   UNL A   1      44.841  27.171  26.935  1.00  0.00     0.074 A 
ATOM     41  C   UNL A   1      44.733  25.886  26.276  1.00  0.00     0.031 C 
ATOM     42  C   UNL A   1      38.989  27.875  29.485  1.00  0.00     0.029 A 
ATOM     43  C   UNL A   1      40.063  28.862  29.459  1.00  0.00     0.049 A 
ATOM     44  H   UNL A   1      42.021  28.573  28.800  1.00  0.00     0.167 HD
ATOM     45  C   UNL A   1      45.867  28.040  26.760  1.00  0.00     0.034 A 
ATOM     46  C   UNL A   1      39.962  30.139  29.887  1.00  0.00     0.034 A 
ATOM     47  C   UNL A   1      45.910  29.373  27.317  1.00  0.00     0.049 A 
ATOM     48  C   UNL A   1      41.188  31.021  29.827  1.00  0.00     0.074 A 
ATOM     49  C   UNL A   1      46.904  30.327  27.186  1.00  0.00     0.029 A 
ATOM     50  N   UNL A   1      44.904  29.957  28.074  1.00  0.00    -0.354 N 
ATOM     51  N   UNL A   1      42.369  30.767  29.312  1.00  0.00    -0.248 NA
ATOM     52  C   UNL A   1      41.074  32.354  30.434  1.00  0.00     0.031 C 
ATOM     53  C   UNL A   1      46.515  31.473  27.889  1.00  0.00     0.029 A 
ATOM     54  C   UNL A   1      45.246  31.261  28.403  1.00  0.00     0.049 A 
ATOM     55  H   UNL A   1      44.067  29.511  28.339  1.00  0.00     0.167 HD
ATOM     56  C   UNL A   1      43.122  31.922  29.499  1.00  0.00     0.074 A 
ATOM     57  C   UNL A   1      42.265  32.873  30.175  1.00  0.00     0.031 C 
ATOM     58  C   UNL A   1      44.403  32.181  29.130  1.00  0.00     0.034 A 
BRANCH  45  59
ATOM     59  C   UNL A   1      47.057  27.560  25.963  1.00  0.00     0.023 A 
ATOM     60  C   UNL A   1      47.260  27.903  24.615  1.00  0.00     0.031 A 
ATOM     61  C   UNL A   1      48.005  26.721  26.579  1.00  0.00     0.131 A 
ATOM     62  C   UNL A   1      48.349  27.362  23.912  1.00  0.00     0.055 A 
ATOM     63  C   UNL A   1      49.123  26.243  25.895  1.00  0.00     0.041 A 
ATOM     64  F   UNL A   1      47.852  26.345  27.859  1.00  0.00    -0.206 F 
ATOM     65  C   UNL A   1      49.292  26.552  24.550  1.00  0.00     0.022 A 
BRANCH  62  66
ATOM     66  S   UNL A   1      48.446  27.609  22.116  1.00  0.00     0.124 S 
ATOM     67  O   UNL A   1      49.584  28.516  21.998  1.00  0.00    -0.237 OA
ATOM     68  O   UNL A   1      48.653  26.252  21.623  1.00  0.00    -0.237 OA
ATOM     69  O   UNL A   1      47.153  28.203  21.783  1.00  0.00    -0.744 OA
ENDBRANCH  62  66
ENDBRANCH  45  59
BRANCH  46  70
ATOM     70  C   UNL A   1      38.684  30.657  30.470  1.00  0.00     0.023 A 
ATOM     71  C   UNL A   1      37.743  31.341  29.682  1.00  0.00     0.031 A 
ATOM     72  C   UNL A   1      38.420  30.544  31.848  1.00  0.00     0.131 A 
ATOM     73  C   UNL A   1      36.610  31.919  30.281  1.00  0.00     0.055 A 
ATOM     74  C   UNL A   1      37.259  31.058  32.427  1.00  0.00     0.041 A 
ATOM     75  F   UNL A   1      39.291  29.925  32.661  1.00  0.00    -0.206 F 
ATOM     76  C   UNL A   1      36.353  31.764  31.645  1.00  0.00     0.022 A 
BRANCH  73  77
ATOM     77  S   UNL A   1      35.537  32.988  29.279  1.00  0.00     0.124 S 
ATOM     78  O   UNL A   1      35.529  34.220  30.060  1.00  0.00    -0.237 OA
ATOM     79  O   UNL A   1      36.253  33.038  28.010  1.00  0.00    -0.237 OA
ATOM     80  O   UNL A   1      34.268  32.263  29.249  1.00  0.00    -0.744 OA
ENDBRANCH  73  77
ENDBRANCH  46  70
BRANCH  58  81
ATOM     81  C   UNL A   1      44.938  33.555  29.449  1.00  0.00     0.023 A 
ATOM     82  C   UNL A   1      44.761  34.634  28.565  1.00  0.00     0.031 A 
ATOM     83  C   UNL A   1      45.651  33.785  30.639  1.00  0.00     0.131 A 
ATOM     84  C   UNL A   1      45.333  35.881  28.860  1.00  0.00     0.055 A 
ATOM     85  C   UNL A   1      46.166  35.043  30.956  1.00  0.00     0.041 A 
ATOM     86  F   UNL A   1      45.860  32.787  31.514  1.00  0.00    -0.206 F 
ATOM     87  C   UNL A   1      46.018  36.097  30.059  1.00  0.00     0.022 A 
BRANCH  84  88
ATOM     88  S   UNL A   1      45.235  37.200  27.619  1.00  0.00     0.124 S 
ATOM     89  O   UNL A   1      46.072  36.670  26.548  1.00  0.00    -0.237 OA
ATOM     90  O   UNL A   1      43.805  37.263  27.338  1.00  0.00    -0.237 OA
ATOM     91  O   UNL A   1      45.781  38.366  28.314  1.00  0.00    -0.744 OA
ENDBRANCH  84  88
ENDBRANCH  58  81
ENDBRANCH  32  33
ENDBRANCH  25  27
ENDBRANCH  24  25
ENDBRANCH   1  24
TORSDOF 16
ENDMDL
