MODEL 1
REMARK VINA RESULT:      -9.2      0.000      0.000
REMARK SMILES C[C@H](Oc1ccc(/C=C2/SC(=S)N(c3ccc(F)c(Cl)c3)C2=O)cc1)C(=O)OCCOC(=O)c1ccc(-c2c3nc(c(-c4cc(S(=O)(=O)[O-])ccc4F)c4ccc([nH]4)c(-c4cc(S(=O)(=O)[O-])ccc4F)c4nc(c(-c5cc(S(=O)(=O)[O-])ccc5F)c5ccc2[nH]5)C=C4)C=C3)cc1
REMARK SMILES IDX 29 1 28 2 26 3 27 4 2 5 1 6 3 7 4 8 5 9 25 10 6 11 24 12
REMARK SMILES IDX 7 13 8 14 9 15 10 16 22 17 11 18 13 19 23 20 12 21 14 22
REMARK SMILES IDX 15 23 21 24 16 25 19 26 17 27 20 28 18 29 30 30 31 31 32 32
REMARK SMILES IDX 33 33 34 34 35 35 96 36 36 37 95 38 37 39 38 40 39 41 89 42
REMARK SMILES IDX 40 43 94 44 88 45 90 46 41 47 93 48 87 49 86 50 42 52 74 53
REMARK SMILES IDX 54 54 73 55 55 56 58 57 72 58 91 59 56 60 57 61 71 63 92 64
REMARK SMILES IDX 59 65 43 66 44 67 52 68 45 69 51 70 53 71 50 72 46 73 47 74
REMARK SMILES IDX 48 75 49 76 75 77 76 78 84 79 77 80 83 81 85 82 82 83 78 84
REMARK SMILES IDX 79 85 80 86 81 87 60 88 61 89 69 90 62 91 68 92 70 93 67 94
REMARK SMILES IDX 63 95 64 96 65 97 66 98
REMARK H PARENT 90 51 58 62
REMARK Flexibility Score: inf
ROOT
ATOM      1  C   UNL A   1      41.773  19.970  25.869  1.00  0.00     0.274 C 
ENDROOT
BRANCH   1   2
ATOM      2  O   UNL A   1      42.596  20.951  26.527  1.00  0.00    -0.459 OA
BRANCH   2   3
ATOM      3  C   UNL A   1      43.404  21.701  25.723  1.00  0.00     0.347 C 
ATOM      4  O   UNL A   1      44.042  21.258  24.773  1.00  0.00    -0.248 OA
BRANCH   3   5
ATOM      5  C   UNL A   1      43.506  23.156  26.189  1.00  0.00     0.279 C 
ATOM      6  C   UNL A   1      43.366  24.038  24.950  1.00  0.00     0.066 C 
BRANCH   5   7
ATOM      7  O   UNL A   1      44.743  23.346  26.873  1.00  0.00    -0.479 OA
BRANCH   7   8
ATOM      8  C   UNL A   1      44.743  23.694  28.192  1.00  0.00     0.120 A 
ATOM      9  C   UNL A   1      45.712  24.449  28.850  1.00  0.00     0.047 A 
ATOM     10  C   UNL A   1      43.655  23.206  28.916  1.00  0.00     0.047 A 
ATOM     11  C   UNL A   1      45.658  24.607  30.240  1.00  0.00     0.012 A 
ATOM     12  C   UNL A   1      43.586  23.379  30.299  1.00  0.00     0.012 A 
ATOM     13  C   UNL A   1      44.622  24.028  30.978  1.00  0.00    -0.024 A 
BRANCH  13  14
ATOM     14  C   UNL A   1      44.643  24.086  32.443  1.00  0.00     0.029 C 
ATOM     15  C   UNL A   1      44.339  25.172  33.173  1.00  0.00     0.081 C 
ATOM     16  S   UNL A   1      44.478  25.209  34.888  1.00  0.00    -0.054 SA
ATOM     17  C   UNL A   1      43.897  26.511  32.675  1.00  0.00     0.270 C 
ATOM     18  C   UNL A   1      44.152  26.940  34.980  1.00  0.00     0.152 C 
ATOM     19  N   UNL A   1      43.940  27.449  33.706  1.00  0.00    -0.261 N 
ATOM     20  O   UNL A   1      43.560  26.726  31.518  1.00  0.00    -0.268 OA
ATOM     21  S   UNL A   1      44.030  27.703  36.467  1.00  0.00    -0.051 S 
BRANCH  19  22
ATOM     22  C   UNL A   1      43.774  28.840  33.401  1.00  0.00     0.052 A 
ATOM     23  C   UNL A   1      44.878  29.641  33.059  1.00  0.00     0.030 A 
ATOM     24  C   UNL A   1      42.519  29.457  33.528  1.00  0.00     0.050 A 
ATOM     25  C   UNL A   1      44.733  31.012  32.833  1.00  0.00     0.043 A 
ATOM     26  C   UNL A   1      42.377  30.832  33.311  1.00  0.00     0.078 A 
ATOM     27  C   UNL A   1      43.482  31.601  32.962  1.00  0.00     0.141 A 
ATOM     28  Cl  UNL A   1      40.830  31.563  33.510  1.00  0.00    -0.081 Cl
ATOM     29  F   UNL A   1      43.365  32.921  32.757  1.00  0.00    -0.205 F 
ENDBRANCH  19  22
ENDBRANCH  13  14
ENDBRANCH   7   8
ENDBRANCH   5   7
ENDBRANCH   3   5
ENDBRANCH   2   3
ENDBRANCH   1   2
BRANCH   1  30
ATOM     30  C   UNL A   1      40.318  20.034  26.337  1.00  0.00     0.275 C 
BRANCH  30  31
ATOM     31  O   UNL A   1      40.056  21.235  27.085  1.00  0.00    -0.458 OA
BRANCH  31  32
ATOM     32  C   UNL A   1      39.385  22.191  26.395  1.00  0.00     0.338 C 
ATOM     33  O   UNL A   1      38.563  22.015  25.512  1.00  0.00    -0.246 OA
BRANCH  32  34
ATOM     34  C   UNL A   1      39.687  23.518  26.961  1.00  0.00     0.060 A 
ATOM     35  C   UNL A   1      39.564  24.624  26.117  1.00  0.00     0.016 A 
ATOM     36  C   UNL A   1      40.150  23.671  28.271  1.00  0.00     0.016 A 
ATOM     37  C   UNL A   1      39.907  25.892  26.579  1.00  0.00     0.010 A 
ATOM     38  C   UNL A   1      40.504  24.946  28.730  1.00  0.00     0.010 A 
ATOM     39  C   UNL A   1      40.397  26.061  27.882  1.00  0.00    -0.014 A 
BRANCH  39  40
ATOM     40  C   UNL A   1      40.851  27.409  28.305  1.00  0.00     0.031 A 
ATOM     41  C   UNL A   1      42.294  27.799  28.141  1.00  0.00     0.074 A 
ATOM     42  C   UNL A   1      39.954  28.304  28.763  1.00  0.00     0.049 A 
ATOM     43  N   UNL A   1      42.878  28.941  28.397  1.00  0.00    -0.248 NA
ATOM     44  C   UNL A   1      43.197  26.763  27.619  1.00  0.00     0.031 C 
ATOM     45  C   UNL A   1      38.526  28.044  28.943  1.00  0.00     0.029 A 
ATOM     46  N   UNL A   1      40.108  29.612  29.147  1.00  0.00    -0.354 N 
ATOM     47  C   UNL A   1      44.215  28.770  28.057  1.00  0.00     0.074 A 
ATOM     48  C   UNL A   1      44.361  27.396  27.620  1.00  0.00     0.031 C 
ATOM     49  C   UNL A   1      37.932  29.161  29.394  1.00  0.00     0.029 A 
ATOM     50  C   UNL A   1      38.939  30.206  29.562  1.00  0.00     0.049 A 
ATOM     51  H   UNL A   1      40.973  30.081  29.126  1.00  0.00     0.167 HD
ATOM     52  C   UNL A   1      45.224  29.676  28.091  1.00  0.00     0.034 A 
ATOM     53  C   UNL A   1      38.709  31.447  30.035  1.00  0.00     0.034 A 
ATOM     54  C   UNL A   1      45.071  31.037  28.550  1.00  0.00     0.049 A 
ATOM     55  C   UNL A   1      39.858  32.423  30.110  1.00  0.00     0.074 A 
ATOM     56  C   UNL A   1      46.029  32.032  28.646  1.00  0.00     0.029 A 
ATOM     57  N   UNL A   1      43.879  31.596  28.998  1.00  0.00    -0.354 N 
ATOM     58  N   UNL A   1      41.118  32.245  29.783  1.00  0.00    -0.248 NA
ATOM     59  C   UNL A   1      39.548  33.770  30.602  1.00  0.00     0.031 C 
ATOM     60  C   UNL A   1      45.432  33.170  29.203  1.00  0.00     0.029 A 
ATOM     61  C   UNL A   1      44.083  32.911  29.390  1.00  0.00     0.049 A 
ATOM     62  H   UNL A   1      43.015  31.126  29.033  1.00  0.00     0.167 HD
ATOM     63  C   UNL A   1      41.747  33.464  30.021  1.00  0.00     0.074 A 
ATOM     64  C   UNL A   1      40.720  34.375  30.482  1.00  0.00     0.031 C 
ATOM     65  C   UNL A   1      43.055  33.800  29.877  1.00  0.00     0.034 A 
BRANCH  52  66
ATOM     66  C   UNL A   1      46.591  29.203  27.659  1.00  0.00     0.023 A 
ATOM     67  C   UNL A   1      46.864  28.856  26.323  1.00  0.00     0.031 A 
ATOM     68  C   UNL A   1      47.629  29.073  28.599  1.00  0.00     0.131 A 
ATOM     69  C   UNL A   1      48.121  28.338  25.977  1.00  0.00     0.055 A 
ATOM     70  C   UNL A   1      48.901  28.623  28.234  1.00  0.00     0.041 A 
ATOM     71  F   UNL A   1      47.423  29.369  29.892  1.00  0.00    -0.206 F 
ATOM     72  C   UNL A   1      49.149  28.242  26.919  1.00  0.00     0.022 A 
BRANCH  69  73
ATOM     73  S   UNL A   1      48.360  27.679  24.304  1.00  0.00     0.124 S 
ATOM     74  O   UNL A   1      49.735  28.083  24.021  1.00  0.00    -0.237 OA
ATOM     75  O   UNL A   1      48.140  26.250  24.492  1.00  0.00    -0.237 OA
ATOM     76  O   UNL A   1      47.340  28.368  23.515  1.00  0.00    -0.744 OA
ENDBRANCH  69  73
ENDBRANCH  52  66
BRANCH  53  77
ATOM     77  C   UNL A   1      37.351  31.834  30.511  1.00  0.00     0.023 A 
ATOM     78  C   UNL A   1      36.440  32.497  29.673  1.00  0.00     0.031 A 
ATOM     79  C   UNL A   1      36.966  31.592  31.842  1.00  0.00     0.131 A 
ATOM     80  C   UNL A   1      35.210  32.936  30.186  1.00  0.00     0.055 A 
ATOM     81  C   UNL A   1      35.722  31.984  32.334  1.00  0.00     0.041 A 
ATOM     82  F   UNL A   1      37.800  30.961  32.685  1.00  0.00    -0.206 F 
ATOM     83  C   UNL A   1      34.840  32.675  31.507  1.00  0.00     0.022 A 
BRANCH  80  84
ATOM     84  S   UNL A   1      34.132  33.938  29.126  1.00  0.00     0.124 S 
ATOM     85  O   UNL A   1      33.218  34.527  30.098  1.00  0.00    -0.237 OA
ATOM     86  O   UNL A   1      35.087  34.854  28.507  1.00  0.00    -0.237 OA
ATOM     87  O   UNL A   1      33.537  32.958  28.221  1.00  0.00    -0.744 OA
ENDBRANCH  80  84
ENDBRANCH  53  77
BRANCH  65  88
ATOM     88  C   UNL A   1      43.427  35.226  30.212  1.00  0.00     0.023 A 
ATOM     89  C   UNL A   1      43.761  35.609  31.523  1.00  0.00     0.031 A 
ATOM     90  C   UNL A   1      43.399  36.220  29.219  1.00  0.00     0.131 A 
ATOM     91  C   UNL A   1      43.981  36.962  31.823  1.00  0.00     0.055 A 
ATOM     92  C   UNL A   1      43.681  37.557  29.511  1.00  0.00     0.041 A 
ATOM     93  F   UNL A   1      43.086  35.913  27.950  1.00  0.00    -0.206 F 
ATOM     94  C   UNL A   1      43.956  37.937  30.822  1.00  0.00     0.022 A 
BRANCH  91  95
ATOM     95  S   UNL A   1      44.182  37.447  33.559  1.00  0.00     0.124 S 
ATOM     96  O   UNL A   1      45.016  38.639  33.448  1.00  0.00    -0.237 OA
ATOM     97  O   UNL A   1      42.802  37.673  33.979  1.00  0.00    -0.237 OA
ATOM     98  O   UNL A   1      44.832  36.289  34.166  1.00  0.00    -0.744 OA
ENDBRANCH  91  95
ENDBRANCH  65  88
ENDBRANCH  39  40
ENDBRANCH  32  34
ENDBRANCH  31  32
ENDBRANCH  30  31
ENDBRANCH   1  30
TORSDOF 18
ENDMDL
MODEL 2
REMARK VINA RESULT:      -9.1      3.248     10.746
REMARK SMILES C[C@H](Oc1ccc(/C=C2/SC(=S)N(c3ccc(F)c(Cl)c3)C2=O)cc1)C(=O)OCCOC(=O)c1ccc(-c2c3nc(c(-c4cc(S(=O)(=O)[O-])ccc4F)c4ccc([nH]4)c(-c4cc(S(=O)(=O)[O-])ccc4F)c4nc(c(-c5cc(S(=O)(=O)[O-])ccc5F)c5ccc2[nH]5)C=C4)C=C3)cc1
REMARK SMILES IDX 29 1 28 2 26 3 27 4 2 5 1 6 3 7 4 8 5 9 25 10 6 11 24 12
REMARK SMILES IDX 7 13 8 14 9 15 10 16 22 17 11 18 13 19 23 20 12 21 14 22
REMARK SMILES IDX 15 23 21 24 16 25 19 26 17 27 20 28 18 29 30 30 31 31 32 32
REMARK SMILES IDX 33 33 34 34 35 35 96 36 36 37 95 38 37 39 38 40 39 41 89 42
REMARK SMILES IDX 40 43 94 44 88 45 90 46 41 47 93 48 87 49 86 50 42 52 74 53
REMARK SMILES IDX 54 54 73 55 55 56 58 57 72 58 91 59 56 60 57 61 71 63 92 64
REMARK SMILES IDX 59 65 43 66 44 67 52 68 45 69 51 70 53 71 50 72 46 73 47 74
REMARK SMILES IDX 48 75 49 76 75 77 76 78 84 79 77 80 83 81 85 82 82 83 78 84
REMARK SMILES IDX 79 85 80 86 81 87 60 88 61 89 69 90 62 91 68 92 70 93 67 94
REMARK SMILES IDX 63 95 64 96 65 97 66 98
REMARK H PARENT 90 51 58 62
REMARK Flexibility Score: inf
ROOT
ATOM      1  C   UNL A   1      34.551  34.457  29.611  1.00  0.00     0.274 C 
ENDROOT
BRANCH   1   2
ATOM      2  O   UNL A   1      34.134  33.893  30.867  1.00  0.00    -0.459 OA
BRANCH   2   3
ATOM      3  C   UNL A   1      34.998  34.039  31.913  1.00  0.00     0.347 C 
ATOM      4  O   UNL A   1      34.803  34.773  32.877  1.00  0.00    -0.248 OA
BRANCH   3   5
ATOM      5  C   UNL A   1      36.296  33.251  31.715  1.00  0.00     0.279 C 
ATOM      6  C   UNL A   1      36.034  31.822  32.187  1.00  0.00     0.066 C 
BRANCH   5   7
ATOM      7  O   UNL A   1      37.350  33.891  32.431  1.00  0.00    -0.479 OA
BRANCH   7   8
ATOM      8  C   UNL A   1      38.543  34.131  31.813  1.00  0.00     0.120 A 
ATOM      9  C   UNL A   1      39.754  34.426  32.434  1.00  0.00     0.047 A 
ATOM     10  C   UNL A   1      38.488  34.085  30.419  1.00  0.00     0.047 A 
ATOM     11  C   UNL A   1      40.868  34.794  31.669  1.00  0.00     0.012 A 
ATOM     12  C   UNL A   1      39.601  34.430  29.652  1.00  0.00     0.012 A 
ATOM     13  C   UNL A   1      40.781  34.849  30.275  1.00  0.00    -0.024 A 
BRANCH  13  14
ATOM     14  C   UNL A   1      41.908  35.360  29.489  1.00  0.00     0.029 C 
ATOM     15  C   UNL A   1      42.962  34.628  29.091  1.00  0.00     0.081 C 
ATOM     16  S   UNL A   1      44.304  35.307  28.255  1.00  0.00    -0.054 SA
ATOM     17  C   UNL A   1      43.199  33.170  29.325  1.00  0.00     0.270 C 
ATOM     18  C   UNL A   1      45.244  33.817  28.342  1.00  0.00     0.152 C 
ATOM     19  N   UNL A   1      44.515  32.836  29.001  1.00  0.00    -0.261 N 
ATOM     20  O   UNL A   1      42.345  32.404  29.750  1.00  0.00    -0.268 OA
ATOM     21  S   UNL A   1      46.739  33.711  27.594  1.00  0.00    -0.051 S 
BRANCH  19  22
ATOM     22  C   UNL A   1      45.022  31.545  29.359  1.00  0.00     0.052 A 
ATOM     23  C   UNL A   1      45.569  31.312  30.634  1.00  0.00     0.030 A 
ATOM     24  C   UNL A   1      45.073  30.507  28.415  1.00  0.00     0.050 A 
ATOM     25  C   UNL A   1      46.132  30.076  30.963  1.00  0.00     0.043 A 
ATOM     26  C   UNL A   1      45.646  29.273  28.743  1.00  0.00     0.078 A 
ATOM     27  C   UNL A   1      46.169  29.063  30.015  1.00  0.00     0.141 A 
ATOM     28  Cl  UNL A   1      45.722  28.033  27.549  1.00  0.00    -0.081 Cl
ATOM     29  F   UNL A   1      46.728  27.890  30.344  1.00  0.00    -0.205 F 
ENDBRANCH  19  22
ENDBRANCH  13  14
ENDBRANCH   7   8
ENDBRANCH   5   7
ENDBRANCH   3   5
ENDBRANCH   2   3
ENDBRANCH   1   2
BRANCH   1  30
ATOM     30  C   UNL A   1      33.914  33.740  28.419  1.00  0.00     0.275 C 
BRANCH  30  31
ATOM     31  O   UNL A   1      34.860  32.890  27.747  1.00  0.00    -0.458 OA
BRANCH  31  32
ATOM     32  C   UNL A   1      34.696  31.565  27.988  1.00  0.00     0.338 C 
ATOM     33  O   UNL A   1      33.670  30.920  27.860  1.00  0.00    -0.246 OA
BRANCH  32  34
ATOM     34  C   UNL A   1      35.997  30.953  28.309  1.00  0.00     0.060 A 
ATOM     35  C   UNL A   1      35.988  29.711  28.948  1.00  0.00     0.016 A 
ATOM     36  C   UNL A   1      37.204  31.612  28.053  1.00  0.00     0.016 A 
ATOM     37  C   UNL A   1      37.187  29.121  29.339  1.00  0.00     0.010 A 
ATOM     38  C   UNL A   1      38.408  31.021  28.457  1.00  0.00     0.010 A 
ATOM     39  C   UNL A   1      38.405  29.779  29.113  1.00  0.00    -0.014 A 
BRANCH  39  40
ATOM     40  C   UNL A   1      39.653  29.170  29.637  1.00  0.00     0.031 A 
ATOM     41  C   UNL A   1      40.271  29.699  30.902  1.00  0.00     0.074 A 
ATOM     42  C   UNL A   1      40.184  28.097  29.019  1.00  0.00     0.049 A 
ATOM     43  N   UNL A   1      41.324  29.273  31.551  1.00  0.00    -0.248 NA
ATOM     44  C   UNL A   1      39.613  30.862  31.515  1.00  0.00     0.031 C 
ATOM     45  C   UNL A   1      39.658  27.486  27.799  1.00  0.00     0.029 A 
ATOM     46  N   UNL A   1      41.273  27.327  29.339  1.00  0.00    -0.354 N 
ATOM     47  C   UNL A   1      41.452  30.106  32.657  1.00  0.00     0.074 A 
ATOM     48  C   UNL A   1      40.393  31.090  32.563  1.00  0.00     0.031 C 
ATOM     49  C   UNL A   1      40.420  26.427  27.478  1.00  0.00     0.029 A 
ATOM     50  C   UNL A   1      41.503  26.302  28.450  1.00  0.00     0.049 A 
ATOM     51  H   UNL A   1      41.836  27.490  30.129  1.00  0.00     0.167 HD
ATOM     52  C   UNL A   1      42.358  30.046  33.665  1.00  0.00     0.034 A 
ATOM     53  C   UNL A   1      42.483  25.377  28.418  1.00  0.00     0.034 A 
ATOM     54  C   UNL A   1      43.423  29.073  33.737  1.00  0.00     0.049 A 
ATOM     55  C   UNL A   1      43.508  25.362  29.524  1.00  0.00     0.074 A 
ATOM     56  C   UNL A   1      44.407  28.935  34.701  1.00  0.00     0.029 A 
ATOM     57  N   UNL A   1      43.649  28.071  32.799  1.00  0.00    -0.354 N 
ATOM     58  N   UNL A   1      43.615  26.157  30.565  1.00  0.00    -0.248 NA
ATOM     59  C   UNL A   1      44.534  24.315  29.459  1.00  0.00     0.031 C 
ATOM     60  C   UNL A   1      45.258  27.890  34.319  1.00  0.00     0.029 A 
ATOM     61  C   UNL A   1      44.766  27.328  33.152  1.00  0.00     0.049 A 
ATOM     62  H   UNL A   1      43.097  27.912  32.001  1.00  0.00     0.167 HD
ATOM     63  C   UNL A   1      44.714  25.695  31.283  1.00  0.00     0.074 A 
ATOM     64  C   UNL A   1      45.212  24.533  30.576  1.00  0.00     0.031 C 
ATOM     65  C   UNL A   1      45.269  26.188  32.421  1.00  0.00     0.034 A 
BRANCH  52  66
ATOM     66  C   UNL A   1      42.256  31.095  34.746  1.00  0.00     0.023 A 
ATOM     67  C   UNL A   1      42.865  32.356  34.611  1.00  0.00     0.031 A 
ATOM     68  C   UNL A   1      41.561  30.824  35.938  1.00  0.00     0.131 A 
ATOM     69  C   UNL A   1      42.822  33.272  35.673  1.00  0.00     0.055 A 
ATOM     70  C   UNL A   1      41.461  31.767  36.964  1.00  0.00     0.041 A 
ATOM     71  F   UNL A   1      40.976  29.630  36.133  1.00  0.00    -0.206 F 
ATOM     72  C   UNL A   1      42.104  32.995  36.839  1.00  0.00     0.022 A 
BRANCH  69  73
ATOM     73  S   UNL A   1      43.817  34.785  35.559  1.00  0.00     0.124 S 
ATOM     74  O   UNL A   1      45.147  34.243  35.292  1.00  0.00    -0.237 OA
ATOM     75  O   UNL A   1      43.185  35.497  34.455  1.00  0.00    -0.237 OA
ATOM     76  O   UNL A   1      43.655  35.401  36.874  1.00  0.00    -0.744 OA
ENDBRANCH  69  73
ENDBRANCH  52  66
BRANCH  53  77
ATOM     77  C   UNL A   1      42.571  24.411  27.286  1.00  0.00     0.023 A 
ATOM     78  C   UNL A   1      42.002  23.129  27.369  1.00  0.00     0.031 A 
ATOM     79  C   UNL A   1      43.281  24.743  26.118  1.00  0.00     0.131 A 
ATOM     80  C   UNL A   1      42.194  22.211  26.325  1.00  0.00     0.055 A 
ATOM     81  C   UNL A   1      43.425  23.845  25.061  1.00  0.00     0.041 A 
ATOM     82  F   UNL A   1      43.844  25.956  25.989  1.00  0.00    -0.206 F 
ATOM     83  C   UNL A   1      42.891  22.564  25.166  1.00  0.00     0.022 A 
BRANCH  80  84
ATOM     84  S   UNL A   1      41.595  20.512  26.538  1.00  0.00     0.124 S 
ATOM     85  O   UNL A   1      41.948  20.242  27.928  1.00  0.00    -0.237 OA
ATOM     86  O   UNL A   1      40.170  20.658  26.255  1.00  0.00    -0.237 OA
ATOM     87  O   UNL A   1      42.352  19.757  25.543  1.00  0.00    -0.744 OA
ENDBRANCH  80  84
ENDBRANCH  53  77
BRANCH  65  88
ATOM     88  C   UNL A   1      46.467  25.446  32.966  1.00  0.00     0.023 A 
ATOM     89  C   UNL A   1      47.775  25.767  32.561  1.00  0.00     0.031 A 
ATOM     90  C   UNL A   1      46.295  24.377  33.861  1.00  0.00     0.131 A 
ATOM     91  C   UNL A   1      48.854  24.979  32.991  1.00  0.00     0.055 A 
ATOM     92  C   UNL A   1      47.380  23.636  34.336  1.00  0.00     0.041 A 
ATOM     93  F   UNL A   1      45.069  24.026  34.281  1.00  0.00    -0.206 F 
ATOM     94  C   UNL A   1      48.665  23.924  33.887  1.00  0.00     0.022 A 
BRANCH  91  95
ATOM     95  S   UNL A   1      50.491  25.278  32.270  1.00  0.00     0.124 S 
ATOM     96  O   UNL A   1      51.274  25.662  33.439  1.00  0.00    -0.237 OA
ATOM     97  O   UNL A   1      50.814  23.979  31.685  1.00  0.00    -0.237 OA
ATOM     98  O   UNL A   1      50.251  26.348  31.305  1.00  0.00    -0.744 OA
ENDBRANCH  91  95
ENDBRANCH  65  88
ENDBRANCH  39  40
ENDBRANCH  32  34
ENDBRANCH  31  32
ENDBRANCH  30  31
ENDBRANCH   1  30
TORSDOF 18
ENDMDL
MODEL 3
REMARK VINA RESULT:      -9.0      5.618     11.481
REMARK SMILES C[C@H](Oc1ccc(/C=C2/SC(=S)N(c3ccc(F)c(Cl)c3)C2=O)cc1)C(=O)OCCOC(=O)c1ccc(-c2c3nc(c(-c4cc(S(=O)(=O)[O-])ccc4F)c4ccc([nH]4)c(-c4cc(S(=O)(=O)[O-])ccc4F)c4nc(c(-c5cc(S(=O)(=O)[O-])ccc5F)c5ccc2[nH]5)C=C4)C=C3)cc1
REMARK SMILES IDX 29 1 28 2 26 3 27 4 2 5 1 6 3 7 4 8 5 9 25 10 6 11 24 12
REMARK SMILES IDX 7 13 8 14 9 15 10 16 22 17 11 18 13 19 23 20 12 21 14 22
REMARK SMILES IDX 15 23 21 24 16 25 19 26 17 27 20 28 18 29 30 30 31 31 32 32
REMARK SMILES IDX 33 33 34 34 35 35 96 36 36 37 95 38 37 39 38 40 39 41 89 42
REMARK SMILES IDX 40 43 94 44 88 45 90 46 41 47 93 48 87 49 86 50 42 52 74 53
REMARK SMILES IDX 54 54 73 55 55 56 58 57 72 58 91 59 56 60 57 61 71 63 92 64
REMARK SMILES IDX 59 65 43 66 44 67 52 68 45 69 51 70 53 71 50 72 46 73 47 74
REMARK SMILES IDX 48 75 49 76 75 77 76 78 84 79 77 80 83 81 85 82 82 83 78 84
REMARK SMILES IDX 79 85 80 86 81 87 60 88 61 89 69 90 62 91 68 92 70 93 67 94
REMARK SMILES IDX 63 95 64 96 65 97 66 98
REMARK H PARENT 90 51 58 62
REMARK Flexibility Score: inf
ROOT
ATOM      1  C   UNL A   1      33.830  34.992  28.006  1.00  0.00     0.274 C 
ENDROOT
BRANCH   1   2
ATOM      2  O   UNL A   1      33.475  33.598  28.037  1.00  0.00    -0.459 OA
BRANCH   2   3
ATOM      3  C   UNL A   1      34.510  32.709  28.024  1.00  0.00     0.347 C 
ATOM      4  O   UNL A   1      35.695  33.023  27.964  1.00  0.00    -0.248 OA
BRANCH   3   5
ATOM      5  C   UNL A   1      34.033  31.254  28.000  1.00  0.00     0.279 C 
ATOM      6  C   UNL A   1      35.228  30.392  27.597  1.00  0.00     0.066 C 
BRANCH   5   7
ATOM      7  O   UNL A   1      32.931  31.134  27.103  1.00  0.00    -0.479 OA
BRANCH   7   8
ATOM      8  C   UNL A   1      32.655  29.930  26.523  1.00  0.00     0.120 A 
ATOM      9  C   UNL A   1      32.941  29.557  25.212  1.00  0.00     0.047 A 
ATOM     10  C   UNL A   1      32.004  29.024  27.361  1.00  0.00     0.047 A 
ATOM     11  C   UNL A   1      32.468  28.339  24.707  1.00  0.00     0.012 A 
ATOM     12  C   UNL A   1      31.551  27.799  26.869  1.00  0.00     0.012 A 
ATOM     13  C   UNL A   1      31.726  27.477  25.519  1.00  0.00    -0.024 A 
BRANCH  13  14
ATOM     14  C   UNL A   1      31.125  26.267  24.949  1.00  0.00     0.029 C 
ATOM     15  C   UNL A   1      31.732  25.072  24.871  1.00  0.00     0.081 C 
ATOM     16  S   UNL A   1      31.013  23.711  24.100  1.00  0.00    -0.054 SA
ATOM     17  C   UNL A   1      33.098  24.709  25.360  1.00  0.00     0.270 C 
ATOM     18  C   UNL A   1      32.474  22.734  24.230  1.00  0.00     0.152 C 
ATOM     19  N   UNL A   1      33.475  23.462  24.861  1.00  0.00    -0.261 N 
ATOM     20  O   UNL A   1      33.771  25.429  26.085  1.00  0.00    -0.268 OA
ATOM     21  S   UNL A   1      32.476  21.136  23.728  1.00  0.00    -0.051 S 
BRANCH  19  22
ATOM     22  C   UNL A   1      34.829  23.020  25.018  1.00  0.00     0.052 A 
ATOM     23  C   UNL A   1      35.882  23.946  25.123  1.00  0.00     0.030 A 
ATOM     24  C   UNL A   1      35.148  21.653  24.976  1.00  0.00     0.050 A 
ATOM     25  C   UNL A   1      37.212  23.521  25.202  1.00  0.00     0.043 A 
ATOM     26  C   UNL A   1      36.479  21.230  25.045  1.00  0.00     0.078 A 
ATOM     27  C   UNL A   1      37.503  22.165  25.161  1.00  0.00     0.141 A 
ATOM     28  Cl  UNL A   1      36.837  19.547  24.956  1.00  0.00    -0.081 Cl
ATOM     29  F   UNL A   1      38.786  21.777  25.222  1.00  0.00    -0.205 F 
ENDBRANCH  19  22
ENDBRANCH  13  14
ENDBRANCH   7   8
ENDBRANCH   5   7
ENDBRANCH   3   5
ENDBRANCH   2   3
ENDBRANCH   1   2
BRANCH   1  30
ATOM     30  C   UNL A   1      32.994  35.819  28.984  1.00  0.00     0.275 C 
BRANCH  30  31
ATOM     31  O   UNL A   1      32.535  35.024  30.091  1.00  0.00    -0.458 OA
BRANCH  31  32
ATOM     32  C   UNL A   1      32.991  35.430  31.302  1.00  0.00     0.338 C 
ATOM     33  O   UNL A   1      32.461  36.233  32.051  1.00  0.00    -0.246 OA
BRANCH  32  34
ATOM     34  C   UNL A   1      34.184  34.650  31.673  1.00  0.00     0.060 A 
ATOM     35  C   UNL A   1      34.018  33.612  32.594  1.00  0.00     0.016 A 
ATOM     36  C   UNL A   1      35.454  34.970  31.184  1.00  0.00     0.016 A 
ATOM     37  C   UNL A   1      35.125  32.891  33.034  1.00  0.00     0.010 A 
ATOM     38  C   UNL A   1      36.566  34.249  31.635  1.00  0.00     0.010 A 
ATOM     39  C   UNL A   1      36.409  33.214  32.573  1.00  0.00    -0.014 A 
BRANCH  39  40
ATOM     40  C   UNL A   1      37.575  32.493  33.142  1.00  0.00     0.031 A 
ATOM     41  C   UNL A   1      38.208  31.367  32.373  1.00  0.00     0.074 A 
ATOM     42  C   UNL A   1      38.108  32.901  34.310  1.00  0.00     0.049 A 
ATOM     43  N   UNL A   1      39.262  30.650  32.669  1.00  0.00    -0.248 NA
ATOM     44  C   UNL A   1      37.567  31.001  31.101  1.00  0.00     0.031 C 
ATOM     45  C   UNL A   1      37.591  33.995  35.131  1.00  0.00     0.029 A 
ATOM     46  N   UNL A   1      39.206  32.453  34.999  1.00  0.00    -0.354 N 
ATOM     47  C   UNL A   1      39.421  29.755  31.617  1.00  0.00     0.074 A 
ATOM     48  C   UNL A   1      38.326  29.992  30.698  1.00  0.00     0.031 C 
ATOM     49  C   UNL A   1      38.378  34.140  36.211  1.00  0.00     0.029 A 
ATOM     50  C   UNL A   1      39.435  33.132  36.173  1.00  0.00     0.049 A 
ATOM     51  H   UNL A   1      39.776  31.715  34.684  1.00  0.00     0.167 HD
ATOM     52  C   UNL A   1      40.398  28.833  31.426  1.00  0.00     0.034 A 
ATOM     53  C   UNL A   1      40.383  32.955  37.115  1.00  0.00     0.034 A 
ATOM     54  C   UNL A   1      41.473  28.591  32.361  1.00  0.00     0.049 A 
ATOM     55  C   UNL A   1      41.430  31.889  36.904  1.00  0.00     0.074 A 
ATOM     56  C   UNL A   1      42.502  27.668  32.278  1.00  0.00     0.029 A 
ATOM     57  N   UNL A   1      41.654  29.274  33.559  1.00  0.00    -0.354 N 
ATOM     58  N   UNL A   1      41.567  31.051  35.902  1.00  0.00    -0.248 NA
ATOM     59  C   UNL A   1      42.456  31.758  37.944  1.00  0.00     0.031 C 
ATOM     60  C   UNL A   1      43.269  27.754  33.446  1.00  0.00     0.029 A 
ATOM     61  C   UNL A   1      42.763  28.779  34.229  1.00  0.00     0.049 A 
ATOM     62  H   UNL A   1      41.079  30.003  33.884  1.00  0.00     0.167 HD
ATOM     63  C   UNL A   1      42.705  30.302  36.189  1.00  0.00     0.074 A 
ATOM     64  C   UNL A   1      43.233  30.813  37.437  1.00  0.00     0.031 C 
ATOM     65  C   UNL A   1      43.261  29.279  35.489  1.00  0.00     0.034 A 
BRANCH  52  66
ATOM     66  C   UNL A   1      40.315  27.989  30.177  1.00  0.00     0.023 A 
ATOM     67  C   UNL A   1      41.183  28.195  29.089  1.00  0.00     0.031 A 
ATOM     68  C   UNL A   1      39.342  26.981  30.061  1.00  0.00     0.131 A 
ATOM     69  C   UNL A   1      41.019  27.450  27.912  1.00  0.00     0.055 A 
ATOM     70  C   UNL A   1      39.230  26.193  28.913  1.00  0.00     0.041 A 
ATOM     71  F   UNL A   1      38.473  26.751  31.059  1.00  0.00    -0.206 F 
ATOM     72  C   UNL A   1      40.064  26.434  27.825  1.00  0.00     0.022 A 
BRANCH  69  73
ATOM     73  S   UNL A   1      41.993  27.906  26.450  1.00  0.00     0.124 S 
ATOM     74  O   UNL A   1      43.357  27.690  26.925  1.00  0.00    -0.237 OA
ATOM     75  O   UNL A   1      41.510  26.969  25.443  1.00  0.00    -0.237 OA
ATOM     76  O   UNL A   1      41.634  29.305  26.222  1.00  0.00    -0.744 OA
ENDBRANCH  69  73
ENDBRANCH  52  66
BRANCH  53  77
ATOM     77  C   UNL A   1      40.371  33.774  38.361  1.00  0.00     0.023 A 
ATOM     78  C   UNL A   1      39.471  33.507  39.406  1.00  0.00     0.031 A 
ATOM     79  C   UNL A   1      41.231  34.878  38.497  1.00  0.00     0.131 A 
ATOM     80  C   UNL A   1      39.419  34.361  40.518  1.00  0.00     0.055 A 
ATOM     81  C   UNL A   1      41.212  35.694  39.628  1.00  0.00     0.041 A 
ATOM     82  F   UNL A   1      42.110  35.176  37.526  1.00  0.00    -0.206 F 
ATOM     83  C   UNL A   1      40.291  35.446  40.641  1.00  0.00     0.022 A 
BRANCH  80  84
ATOM     84  S   UNL A   1      38.131  34.090  41.765  1.00  0.00     0.124 S 
ATOM     85  O   UNL A   1      37.819  35.454  42.177  1.00  0.00    -0.237 OA
ATOM     86  O   UNL A   1      37.102  33.403  40.990  1.00  0.00    -0.237 OA
ATOM     87  O   UNL A   1      38.799  33.270  42.773  1.00  0.00    -0.744 OA
ENDBRANCH  80  84
ENDBRANCH  53  77
BRANCH  65  88
ATOM     88  C   UNL A   1      44.517  28.670  36.066  1.00  0.00     0.023 A 
ATOM     89  C   UNL A   1      44.462  27.669  37.054  1.00  0.00     0.031 A 
ATOM     90  C   UNL A   1      45.782  29.129  35.661  1.00  0.00     0.131 A 
ATOM     91  C   UNL A   1      45.644  27.213  37.656  1.00  0.00     0.055 A 
ATOM     92  C   UNL A   1      46.960  28.625  36.220  1.00  0.00     0.041 A 
ATOM     93  F   UNL A   1      45.897  30.083  34.723  1.00  0.00    -0.206 F 
ATOM     94  C   UNL A   1      46.894  27.675  37.235  1.00  0.00     0.022 A 
BRANCH  91  95
ATOM     95  S   UNL A   1      45.521  26.096  39.080  1.00  0.00     0.124 S 
ATOM     96  O   UNL A   1      45.058  24.860  38.458  1.00  0.00    -0.237 OA
ATOM     97  O   UNL A   1      46.891  26.083  39.583  1.00  0.00    -0.237 OA
ATOM     98  O   UNL A   1      44.548  26.755  39.949  1.00  0.00    -0.744 OA
ENDBRANCH  91  95
ENDBRANCH  65  88
ENDBRANCH  39  40
ENDBRANCH  32  34
ENDBRANCH  31  32
ENDBRANCH  30  31
ENDBRANCH   1  30
TORSDOF 18
ENDMDL
