MODEL 1
REMARK VINA RESULT:     -12.0      0.000      0.000
REMARK SMILES COC(=O)c1ccc2c(c1)=N[C@H](c1cn(CCC(=O)OCCOC(=O)c3ccc(-c4c5nc(c(-c6cc(S(=O)(=O)[O-])ccc6F)c6ccc([nH]6)c(-c6cc(S(=O)(=O)[O-])ccc6F)c6nc(c(-c7cc(S(=O)(=O)[O-])ccc7F)c7ccc4[nH]7)C=C6)C=C5)cc3)c3ccccc13)N=2
REMARK SMILES IDX 21 1 20 2 18 3 19 4 17 5 16 6 15 7 13 8 14 9 94 10 89 11
REMARK SMILES IDX 93 12 90 13 92 14 91 15 12 16 5 17 6 18 10 19 7 20 9 21 8 22
REMARK SMILES IDX 11 23 95 24 3 25 4 26 2 27 1 28 22 29 23 30 24 31 25 32
REMARK SMILES IDX 26 33 27 34 88 35 28 36 87 37 29 38 30 39 31 40 81 41 32 42
REMARK SMILES IDX 86 43 80 44 82 45 33 46 85 47 79 48 78 49 34 51 66 52 46 53
REMARK SMILES IDX 65 54 47 55 50 56 64 57 83 58 48 59 49 60 63 62 84 63 51 64
REMARK SMILES IDX 35 65 36 66 44 67 37 68 43 69 45 70 42 71 38 72 39 73 40 74
REMARK SMILES IDX 41 75 67 76 68 77 76 78 69 79 75 80 77 81 74 82 70 83 71 84
REMARK SMILES IDX 72 85 73 86 52 87 53 88 61 89 54 90 60 91 62 92 59 93 55 94
REMARK SMILES IDX 56 95 57 96 58 97
REMARK H PARENT 82 50 50 61
REMARK Flexibility Score: inf
ROOT
ATOM      1  C   UNL A   1      32.889  29.743  25.674  1.00  0.00     0.274 C 
ENDROOT
BRANCH   1   2
ATOM      2  O   UNL A   1      31.459  29.712  25.506  1.00  0.00    -0.462 OA
BRANCH   2   3
ATOM      3  C   UNL A   1      30.964  29.512  24.265  1.00  0.00     0.307 C 
ATOM      4  O   UNL A   1      29.879  29.926  23.878  1.00  0.00    -0.252 OA
BRANCH   3   5
ATOM      5  C   UNL A   1      31.877  28.669  23.402  1.00  0.00     0.144 C 
BRANCH   5   6
ATOM      6  C   UNL A   1      31.229  27.453  22.728  1.00  0.00     0.134 C 
BRANCH   6   7
ATOM      7  N   UNL A   1      31.920  26.229  23.098  1.00  0.00    -0.346 N 
ATOM      8  C   UNL A   1      32.320  24.085  22.802  1.00  0.00     0.024 A 
ATOM      9  C   UNL A   1      32.425  25.330  22.197  1.00  0.00     0.094 A 
ATOM     10  C   UNL A   1      31.548  24.295  23.990  1.00  0.00     0.007 A 
ATOM     11  C   UNL A   1      31.846  25.611  24.322  1.00  0.00     0.048 A 
ATOM     12  C   UNL A   1      30.951  23.473  24.955  1.00  0.00     0.011 A 
ATOM     13  C   UNL A   1      31.986  26.026  25.647  1.00  0.00     0.027 A 
ATOM     14  C   UNL A   1      31.023  23.880  26.287  1.00  0.00     0.001 A 
ATOM     15  C   UNL A   1      31.639  25.086  26.627  1.00  0.00     0.002 A 
BRANCH   8  16
ATOM     16  C   UNL A   1      33.138  22.869  22.471  1.00  0.00     0.255 C 
ATOM     17  C   UNL A   1      36.754  22.345  25.143  1.00  0.00     0.062 A 
ATOM     18  C   UNL A   1      35.838  21.392  25.767  1.00  0.00     0.018 A 
ATOM     19  C   UNL A   1      36.399  23.079  24.073  1.00  0.00     0.046 A 
ATOM     20  C   UNL A   1      34.585  21.180  25.339  1.00  0.00     0.031 A 
ATOM     21  C   UNL A   1      35.063  22.862  23.505  1.00  0.00     0.087 A 
ATOM     22  C   UNL A   1      34.133  21.921  24.158  1.00  0.00     0.086 A 
ATOM     23  N   UNL A   1      34.563  23.343  22.422  1.00  0.00    -0.252 NA
ATOM     24  N   UNL A   1      33.012  21.823  23.531  1.00  0.00    -0.252 NA
BRANCH  17  25
ATOM     25  C   UNL A   1      38.140  22.557  25.667  1.00  0.00     0.337 C 
ATOM     26  O   UNL A   1      38.944  21.664  25.884  1.00  0.00    -0.246 OA
BRANCH  25  27
ATOM     27  O   UNL A   1      38.352  23.880  25.896  1.00  0.00    -0.465 OA
ATOM     28  C   UNL A   1      38.547  24.223  27.270  1.00  0.00     0.282 C 
ENDBRANCH  25  27
ENDBRANCH  17  25
ENDBRANCH   8  16
ENDBRANCH   6   7
ENDBRANCH   5   6
ENDBRANCH   3   5
ENDBRANCH   2   3
ENDBRANCH   1   2
BRANCH   1  29
ATOM     29  C   UNL A   1      33.212  30.706  26.821  1.00  0.00     0.275 C 
BRANCH  29  30
ATOM     30  O   UNL A   1      34.638  30.755  26.998  1.00  0.00    -0.458 OA
BRANCH  30  31
ATOM     31  C   UNL A   1      35.077  31.547  28.007  1.00  0.00     0.338 C 
ATOM     32  O   UNL A   1      34.475  32.489  28.504  1.00  0.00    -0.246 OA
BRANCH  31  33
ATOM     33  C   UNL A   1      36.237  30.868  28.634  1.00  0.00     0.060 A 
ATOM     34  C   UNL A   1      37.438  31.552  28.850  1.00  0.00     0.016 A 
ATOM     35  C   UNL A   1      36.188  29.473  28.749  1.00  0.00     0.016 A 
ATOM     36  C   UNL A   1      38.611  30.827  29.003  1.00  0.00     0.010 A 
ATOM     37  C   UNL A   1      37.367  28.749  28.882  1.00  0.00     0.010 A 
ATOM     38  C   UNL A   1      38.586  29.426  28.939  1.00  0.00    -0.014 A 
BRANCH  38  39
ATOM     39  C   UNL A   1      39.831  28.716  29.221  1.00  0.00     0.031 A 
ATOM     40  C   UNL A   1      40.173  28.802  30.657  1.00  0.00     0.074 A 
ATOM     41  C   UNL A   1      40.599  27.992  28.382  1.00  0.00     0.049 A 
ATOM     42  N   UNL A   1      41.021  29.610  31.200  1.00  0.00    -0.248 NA
ATOM     43  C   UNL A   1      39.328  28.074  31.611  1.00  0.00     0.031 C 
ATOM     44  C   UNL A   1      40.290  27.531  27.029  1.00  0.00     0.029 A 
ATOM     45  N   UNL A   1      41.832  27.442  28.612  1.00  0.00    -0.354 N 
ATOM     46  C   UNL A   1      40.984  29.315  32.556  1.00  0.00     0.074 A 
ATOM     47  C   UNL A   1      39.776  28.559  32.769  1.00  0.00     0.031 C 
ATOM     48  C   UNL A   1      41.186  26.584  26.655  1.00  0.00     0.029 A 
ATOM     49  C   UNL A   1      42.237  26.518  27.658  1.00  0.00     0.049 A 
ATOM     50  H   UNL A   1      42.387  27.681  29.390  1.00  0.00     0.167 HD
ATOM     51  C   UNL A   1      42.095  29.453  33.331  1.00  0.00     0.034 A 
ATOM     52  C   UNL A   1      43.361  25.761  27.675  1.00  0.00     0.034 A 
ATOM     53  C   UNL A   1      43.136  30.151  32.627  1.00  0.00     0.049 A 
ATOM     54  C   UNL A   1      44.361  26.415  28.544  1.00  0.00     0.074 A 
ATOM     55  C   UNL A   1      43.477  31.457  32.364  1.00  0.00     0.029 A 
ATOM     56  N   UNL A   1      43.838  29.359  31.757  1.00  0.00    -0.354 N 
ATOM     57  N   UNL A   1      44.955  27.536  28.247  1.00  0.00    -0.248 NA
ATOM     58  C   UNL A   1      44.505  25.973  29.929  1.00  0.00     0.031 C 
ATOM     59  C   UNL A   1      44.333  31.429  31.224  1.00  0.00     0.029 A 
ATOM     60  C   UNL A   1      44.518  30.105  30.831  1.00  0.00     0.049 A 
ATOM     61  H   UNL A   1      43.853  28.376  31.794  1.00  0.00     0.167 HD
ATOM     62  C   UNL A   1      45.139  28.142  29.470  1.00  0.00     0.074 A 
ATOM     63  C   UNL A   1      45.035  27.078  30.458  1.00  0.00     0.031 C 
ATOM     64  C   UNL A   1      45.013  29.490  29.615  1.00  0.00     0.034 A 
BRANCH  51  65
ATOM     65  C   UNL A   1      42.410  28.574  34.520  1.00  0.00     0.023 A 
ATOM     66  C   UNL A   1      42.549  27.178  34.425  1.00  0.00     0.031 A 
ATOM     67  C   UNL A   1      42.812  29.147  35.743  1.00  0.00     0.131 A 
ATOM     68  C   UNL A   1      43.021  26.405  35.492  1.00  0.00     0.055 A 
ATOM     69  C   UNL A   1      43.354  28.384  36.787  1.00  0.00     0.041 A 
ATOM     70  F   UNL A   1      42.734  30.472  35.946  1.00  0.00    -0.206 F 
ATOM     71  C   UNL A   1      43.458  27.004  36.666  1.00  0.00     0.022 A 
BRANCH  68  72
ATOM     72  S   UNL A   1      43.071  24.598  35.349  1.00  0.00     0.124 S 
ATOM     73  O   UNL A   1      41.665  24.243  35.504  1.00  0.00    -0.237 OA
ATOM     74  O   UNL A   1      43.627  24.425  34.010  1.00  0.00    -0.237 OA
ATOM     75  O   UNL A   1      43.955  24.194  36.439  1.00  0.00    -0.744 OA
ENDBRANCH  68  72
ENDBRANCH  51  65
BRANCH  52  76
ATOM     76  C   UNL A   1      43.523  24.339  27.296  1.00  0.00     0.023 A 
ATOM     77  C   UNL A   1      44.462  24.005  26.305  1.00  0.00     0.031 A 
ATOM     78  C   UNL A   1      42.532  23.389  27.604  1.00  0.00     0.131 A 
ATOM     79  C   UNL A   1      44.345  22.795  25.605  1.00  0.00     0.055 A 
ATOM     80  C   UNL A   1      42.433  22.172  26.921  1.00  0.00     0.041 A 
ATOM     81  F   UNL A   1      41.587  23.663  28.517  1.00  0.00    -0.206 F 
ATOM     82  C   UNL A   1      43.332  21.879  25.900  1.00  0.00     0.022 A 
BRANCH  79  83
ATOM     83  S   UNL A   1      45.439  22.433  24.204  1.00  0.00     0.124 S 
ATOM     84  O   UNL A   1      46.049  23.736  23.947  1.00  0.00    -0.237 OA
ATOM     85  O   UNL A   1      46.327  21.426  24.775  1.00  0.00    -0.237 OA
ATOM     86  O   UNL A   1      44.524  21.966  23.168  1.00  0.00    -0.744 OA
ENDBRANCH  79  83
ENDBRANCH  52  76
BRANCH  64  87
ATOM     87  C   UNL A   1      45.239  30.370  28.422  1.00  0.00     0.023 A 
ATOM     88  C   UNL A   1      46.568  30.755  28.178  1.00  0.00     0.031 A 
ATOM     89  C   UNL A   1      44.232  30.945  27.630  1.00  0.00     0.131 A 
ATOM     90  C   UNL A   1      46.860  31.728  27.221  1.00  0.00     0.055 A 
ATOM     91  C   UNL A   1      44.535  31.866  26.619  1.00  0.00     0.041 A 
ATOM     92  F   UNL A   1      42.934  30.688  27.849  1.00  0.00    -0.206 F 
ATOM     93  C   UNL A   1      45.853  32.276  26.424  1.00  0.00     0.022 A 
BRANCH  90  94
ATOM     94  S   UNL A   1      48.534  32.406  27.106  1.00  0.00     0.124 S 
ATOM     95  O   UNL A   1      48.347  33.547  26.216  1.00  0.00    -0.237 OA
ATOM     96  O   UNL A   1      48.830  32.737  28.498  1.00  0.00    -0.237 OA
ATOM     97  O   UNL A   1      49.324  31.307  26.556  1.00  0.00    -0.744 OA
ENDBRANCH  90  94
ENDBRANCH  64  87
ENDBRANCH  38  39
ENDBRANCH  31  33
ENDBRANCH  30  31
ENDBRANCH  29  30
ENDBRANCH   1  29
TORSDOF 19
ENDMDL
MODEL 2
REMARK VINA RESULT:     -11.9      1.987      2.796
REMARK SMILES COC(=O)c1ccc2c(c1)=N[C@H](c1cn(CCC(=O)OCCOC(=O)c3ccc(-c4c5nc(c(-c6cc(S(=O)(=O)[O-])ccc6F)c6ccc([nH]6)c(-c6cc(S(=O)(=O)[O-])ccc6F)c6nc(c(-c7cc(S(=O)(=O)[O-])ccc7F)c7ccc4[nH]7)C=C6)C=C5)cc3)c3ccccc13)N=2
REMARK SMILES IDX 21 1 20 2 18 3 19 4 17 5 16 6 15 7 13 8 14 9 94 10 89 11
REMARK SMILES IDX 93 12 90 13 92 14 91 15 12 16 5 17 6 18 10 19 7 20 9 21 8 22
REMARK SMILES IDX 11 23 95 24 3 25 4 26 2 27 1 28 22 29 23 30 24 31 25 32
REMARK SMILES IDX 26 33 27 34 88 35 28 36 87 37 29 38 30 39 31 40 81 41 32 42
REMARK SMILES IDX 86 43 80 44 82 45 33 46 85 47 79 48 78 49 34 51 66 52 46 53
REMARK SMILES IDX 65 54 47 55 50 56 64 57 83 58 48 59 49 60 63 62 84 63 51 64
REMARK SMILES IDX 35 65 36 66 44 67 37 68 43 69 45 70 42 71 38 72 39 73 40 74
REMARK SMILES IDX 41 75 67 76 68 77 76 78 69 79 75 80 77 81 74 82 70 83 71 84
REMARK SMILES IDX 72 85 73 86 52 87 53 88 61 89 54 90 60 91 62 92 59 93 55 94
REMARK SMILES IDX 56 95 57 96 58 97
REMARK H PARENT 82 50 50 61
REMARK Flexibility Score: inf
ROOT
ATOM      1  C   UNL A   1      33.296  30.153  27.384  1.00  0.00     0.274 C 
ENDROOT
BRANCH   1   2
ATOM      2  O   UNL A   1      32.095  29.994  26.606  1.00  0.00    -0.462 OA
BRANCH   2   3
ATOM      3  C   UNL A   1      32.211  29.584  25.324  1.00  0.00     0.307 C 
ATOM      4  O   UNL A   1      33.276  29.364  24.762  1.00  0.00    -0.252 OA
BRANCH   3   5
ATOM      5  C   UNL A   1      30.873  29.470  24.625  1.00  0.00     0.144 C 
BRANCH   5   6
ATOM      6  C   UNL A   1      30.835  28.553  23.397  1.00  0.00     0.134 C 
BRANCH   6   7
ATOM      7  N   UNL A   1      30.962  27.160  23.788  1.00  0.00    -0.346 N 
ATOM      8  C   UNL A   1      31.003  25.596  25.337  1.00  0.00     0.024 A 
ATOM      9  C   UNL A   1      30.193  26.559  24.750  1.00  0.00     0.094 A 
ATOM     10  C   UNL A   1      32.316  25.820  24.812  1.00  0.00     0.007 A 
ATOM     11  C   UNL A   1      32.058  26.365  23.560  1.00  0.00     0.048 A 
ATOM     12  C   UNL A   1      33.601  25.332  25.085  1.00  0.00     0.011 A 
ATOM     13  C   UNL A   1      32.846  26.068  22.448  1.00  0.00     0.027 A 
ATOM     14  C   UNL A   1      34.439  25.073  24.000  1.00  0.00     0.001 A 
ATOM     15  C   UNL A   1      34.012  25.331  22.697  1.00  0.00     0.002 A 
BRANCH   8  16
ATOM     16  C   UNL A   1      30.531  24.375  26.075  1.00  0.00     0.255 C 
ATOM     17  C   UNL A   1      33.285  20.812  25.608  1.00  0.00     0.062 A 
ATOM     18  C   UNL A   1      33.701  21.282  26.928  1.00  0.00     0.018 A 
ATOM     19  C   UNL A   1      32.325  21.433  24.900  1.00  0.00     0.046 A 
ATOM     20  C   UNL A   1      33.176  22.359  27.530  1.00  0.00     0.031 A 
ATOM     21  C   UNL A   1      31.656  22.587  25.514  1.00  0.00     0.087 A 
ATOM     22  C   UNL A   1      32.103  23.074  26.834  1.00  0.00     0.086 A 
ATOM     23  N   UNL A   1      30.636  23.244  25.090  1.00  0.00    -0.252 NA
ATOM     24  N   UNL A   1      31.407  24.076  27.249  1.00  0.00    -0.252 NA
BRANCH  17  25
ATOM     25  C   UNL A   1      33.911  19.611  24.971  1.00  0.00     0.337 C 
ATOM     26  O   UNL A   1      35.105  19.489  24.744  1.00  0.00    -0.246 OA
BRANCH  25  27
ATOM     27  O   UNL A   1      32.953  18.700  24.657  1.00  0.00    -0.465 OA
ATOM     28  C   UNL A   1      32.531  17.878  25.748  1.00  0.00     0.282 C 
ENDBRANCH  25  27
ENDBRANCH  17  25
ENDBRANCH   8  16
ENDBRANCH   6   7
ENDBRANCH   5   6
ENDBRANCH   3   5
ENDBRANCH   2   3
ENDBRANCH   1   2
BRANCH   1  29
ATOM     29  C   UNL A   1      33.573  31.653  27.529  1.00  0.00     0.275 C 
BRANCH  29  30
ATOM     30  O   UNL A   1      34.987  31.848  27.703  1.00  0.00    -0.458 OA
BRANCH  30  31
ATOM     31  C   UNL A   1      35.379  32.216  28.948  1.00  0.00     0.338 C 
ATOM     32  O   UNL A   1      34.760  32.935  29.720  1.00  0.00    -0.246 OA
BRANCH  31  33
ATOM     33  C   UNL A   1      36.498  31.327  29.344  1.00  0.00     0.060 A 
ATOM     34  C   UNL A   1      37.794  31.830  29.499  1.00  0.00     0.016 A 
ATOM     35  C   UNL A   1      36.278  29.945  29.291  1.00  0.00     0.016 A 
ATOM     36  C   UNL A   1      38.871  30.959  29.421  1.00  0.00     0.010 A 
ATOM     37  C   UNL A   1      37.360  29.077  29.192  1.00  0.00     0.010 A 
ATOM     38  C   UNL A   1      38.656  29.592  29.187  1.00  0.00    -0.014 A 
BRANCH  38  39
ATOM     39  C   UNL A   1      39.819  28.710  29.229  1.00  0.00     0.031 A 
ATOM     40  C   UNL A   1      40.236  28.453  30.625  1.00  0.00     0.074 A 
ATOM     41  C   UNL A   1      40.456  28.102  28.208  1.00  0.00     0.049 A 
ATOM     42  N   UNL A   1      41.198  29.033  31.261  1.00  0.00    -0.248 NA
ATOM     43  C   UNL A   1      39.355  27.634  31.467  1.00  0.00     0.031 C 
ATOM     44  C   UNL A   1      40.031  27.974  26.815  1.00  0.00     0.029 A 
ATOM     45  N   UNL A   1      41.624  27.387  28.233  1.00  0.00    -0.354 N 
ATOM     46  C   UNL A   1      41.189  28.463  32.527  1.00  0.00     0.074 A 
ATOM     47  C   UNL A   1      39.911  27.813  32.665  1.00  0.00     0.031 C 
ATOM     48  C   UNL A   1      40.789  27.037  26.193  1.00  0.00     0.029 A 
ATOM     49  C   UNL A   1      41.871  26.648  27.084  1.00  0.00     0.049 A 
ATOM     50  H   UNL A   1      42.239  27.396  29.002  1.00  0.00     0.167 HD
ATOM     51  C   UNL A   1      42.343  28.314  33.234  1.00  0.00     0.034 A 
ATOM     52  C   UNL A   1      42.896  25.789  26.866  1.00  0.00     0.034 A 
ATOM     53  C   UNL A   1      43.426  29.030  32.616  1.00  0.00     0.049 A 
ATOM     54  C   UNL A   1      44.006  26.133  27.779  1.00  0.00     0.074 A 
ATOM     55  C   UNL A   1      43.908  30.318  32.603  1.00  0.00     0.029 A 
ATOM     56  N   UNL A   1      43.988  28.370  31.556  1.00  0.00    -0.354 N 
ATOM     57  N   UNL A   1      44.715  27.222  27.677  1.00  0.00    -0.248 NA
ATOM     58  C   UNL A   1      44.160  25.396  29.030  1.00  0.00     0.031 C 
ATOM     59  C   UNL A   1      44.701  30.440  31.424  1.00  0.00     0.029 A 
ATOM     60  C   UNL A   1      44.708  29.217  30.756  1.00  0.00     0.049 A 
ATOM     61  H   UNL A   1      43.888  27.405  31.388  1.00  0.00     0.167 HD
ATOM     62  C   UNL A   1      45.027  27.533  28.982  1.00  0.00     0.074 A 
ATOM     63  C   UNL A   1      44.842  26.301  29.736  1.00  0.00     0.031 C 
ATOM     64  C   UNL A   1      45.070  28.824  29.409  1.00  0.00     0.034 A 
BRANCH  51  65
ATOM     65  C   UNL A   1      42.606  27.175  34.192  1.00  0.00     0.023 A 
ATOM     66  C   UNL A   1      43.277  25.998  33.817  1.00  0.00     0.031 A 
ATOM     67  C   UNL A   1      42.394  27.344  35.575  1.00  0.00     0.131 A 
ATOM     68  C   UNL A   1      43.673  25.039  34.755  1.00  0.00     0.055 A 
ATOM     69  C   UNL A   1      42.855  26.421  36.523  1.00  0.00     0.041 A 
ATOM     70  F   UNL A   1      41.772  28.434  36.052  1.00  0.00    -0.206 F 
ATOM     71  C   UNL A   1      43.497  25.257  36.116  1.00  0.00     0.022 A 
BRANCH  68  72
ATOM     72  S   UNL A   1      44.434  23.488  34.201  1.00  0.00     0.124 S 
ATOM     73  O   UNL A   1      45.698  23.954  33.641  1.00  0.00    -0.237 OA
ATOM     74  O   UNL A   1      44.530  22.744  35.454  1.00  0.00    -0.237 OA
ATOM     75  O   UNL A   1      43.468  22.957  33.243  1.00  0.00    -0.744 OA
ENDBRANCH  68  72
ENDBRANCH  51  65
BRANCH  52  76
ATOM     76  C   UNL A   1      42.870  24.471  26.194  1.00  0.00     0.023 A 
ATOM     77  C   UNL A   1      41.960  23.499  26.645  1.00  0.00     0.031 A 
ATOM     78  C   UNL A   1      43.950  24.037  25.403  1.00  0.00     0.131 A 
ATOM     79  C   UNL A   1      42.187  22.142  26.373  1.00  0.00     0.055 A 
ATOM     80  C   UNL A   1      44.160  22.684  25.113  1.00  0.00     0.041 A 
ATOM     81  F   UNL A   1      44.871  24.912  24.970  1.00  0.00    -0.206 F 
ATOM     82  C   UNL A   1      43.287  21.727  25.617  1.00  0.00     0.022 A 
BRANCH  79  83
ATOM     83  S   UNL A   1      41.124  20.865  27.101  1.00  0.00     0.124 S 
ATOM     84  O   UNL A   1      40.779  21.455  28.393  1.00  0.00    -0.237 OA
ATOM     85  O   UNL A   1      40.036  20.800  26.131  1.00  0.00    -0.237 OA
ATOM     86  O   UNL A   1      41.992  19.695  27.168  1.00  0.00    -0.744 OA
ENDBRANCH  79  83
ENDBRANCH  52  76
BRANCH  64  87
ATOM     87  C   UNL A   1      45.343  29.908  28.408  1.00  0.00     0.023 A 
ATOM     88  C   UNL A   1      46.695  30.168  28.129  1.00  0.00     0.031 A 
ATOM     89  C   UNL A   1      44.380  30.763  27.847  1.00  0.00     0.131 A 
ATOM     90  C   UNL A   1      47.062  31.281  27.372  1.00  0.00     0.055 A 
ATOM     91  C   UNL A   1      44.747  31.836  27.026  1.00  0.00     0.041 A 
ATOM     92  F   UNL A   1      43.075  30.628  28.126  1.00  0.00    -0.206 F 
ATOM     93  C   UNL A   1      46.095  32.111  26.801  1.00  0.00     0.022 A 
BRANCH  90  94
ATOM     94  S   UNL A   1      48.805  31.753  27.248  1.00  0.00     0.124 S 
ATOM     95  O   UNL A   1      48.751  32.913  26.365  1.00  0.00    -0.237 OA
ATOM     96  O   UNL A   1      49.148  32.038  28.640  1.00  0.00    -0.237 OA
ATOM     97  O   UNL A   1      49.453  30.570  26.686  1.00  0.00    -0.744 OA
ENDBRANCH  90  94
ENDBRANCH  64  87
ENDBRANCH  38  39
ENDBRANCH  31  33
ENDBRANCH  30  31
ENDBRANCH  29  30
ENDBRANCH   1  29
TORSDOF 19
ENDMDL
MODEL 3
REMARK VINA RESULT:     -11.7      3.032      9.429
REMARK SMILES COC(=O)c1ccc2c(c1)=N[C@H](c1cn(CCC(=O)OCCOC(=O)c3ccc(-c4c5nc(c(-c6cc(S(=O)(=O)[O-])ccc6F)c6ccc([nH]6)c(-c6cc(S(=O)(=O)[O-])ccc6F)c6nc(c(-c7cc(S(=O)(=O)[O-])ccc7F)c7ccc4[nH]7)C=C6)C=C5)cc3)c3ccccc13)N=2
REMARK SMILES IDX 21 1 20 2 18 3 19 4 17 5 16 6 15 7 13 8 14 9 94 10 89 11
REMARK SMILES IDX 93 12 90 13 92 14 91 15 12 16 5 17 6 18 10 19 7 20 9 21 8 22
REMARK SMILES IDX 11 23 95 24 3 25 4 26 2 27 1 28 22 29 23 30 24 31 25 32
REMARK SMILES IDX 26 33 27 34 88 35 28 36 87 37 29 38 30 39 31 40 81 41 32 42
REMARK SMILES IDX 86 43 80 44 82 45 33 46 85 47 79 48 78 49 34 51 66 52 46 53
REMARK SMILES IDX 65 54 47 55 50 56 64 57 83 58 48 59 49 60 63 62 84 63 51 64
REMARK SMILES IDX 35 65 36 66 44 67 37 68 43 69 45 70 42 71 38 72 39 73 40 74
REMARK SMILES IDX 41 75 67 76 68 77 76 78 69 79 75 80 77 81 74 82 70 83 71 84
REMARK SMILES IDX 72 85 73 86 52 87 53 88 61 89 54 90 60 91 62 92 59 93 55 94
REMARK SMILES IDX 56 95 57 96 58 97
REMARK H PARENT 82 50 50 61
REMARK Flexibility Score: inf
ROOT
ATOM      1  C   UNL A   1      39.405  20.772  25.905  1.00  0.00     0.274 C 
ENDROOT
BRANCH   1   2
ATOM      2  O   UNL A   1      38.459  21.851  26.020  1.00  0.00    -0.462 OA
BRANCH   2   3
ATOM      3  C   UNL A   1      37.203  21.654  25.564  1.00  0.00     0.307 C 
ATOM      4  O   UNL A   1      36.801  20.606  25.076  1.00  0.00    -0.252 OA
BRANCH   3   5
ATOM      5  C   UNL A   1      36.341  22.893  25.674  1.00  0.00     0.144 C 
BRANCH   5   6
ATOM      6  C   UNL A   1      34.826  22.664  25.616  1.00  0.00     0.134 C 
BRANCH   6   7
ATOM      7  N   UNL A   1      34.157  23.791  24.988  1.00  0.00    -0.346 N 
ATOM      8  C   UNL A   1      33.969  25.954  24.625  1.00  0.00     0.024 A 
ATOM      9  C   UNL A   1      34.810  24.864  24.442  1.00  0.00     0.094 A 
ATOM     10  C   UNL A   1      32.915  25.492  25.477  1.00  0.00     0.007 A 
ATOM     11  C   UNL A   1      32.841  24.139  25.169  1.00  0.00     0.048 A 
ATOM     12  C   UNL A   1      31.850  26.087  26.165  1.00  0.00     0.011 A 
ATOM     13  C   UNL A   1      31.625  23.457  25.117  1.00  0.00     0.027 A 
ATOM     14  C   UNL A   1      30.630  25.410  26.181  1.00  0.00     0.001 A 
ATOM     15  C   UNL A   1      30.501  24.167  25.561  1.00  0.00     0.002 A 
BRANCH   8  16
ATOM     16  C   UNL A   1      33.976  27.221  23.817  1.00  0.00     0.255 C 
ATOM     17  C   UNL A   1      29.849  28.959  23.157  1.00  0.00     0.062 A 
ATOM     18  C   UNL A   1      30.311  29.814  24.250  1.00  0.00     0.018 A 
ATOM     19  C   UNL A   1      30.613  27.977  22.648  1.00  0.00     0.046 A 
ATOM     20  C   UNL A   1      31.512  29.686  24.832  1.00  0.00     0.031 A 
ATOM     21  C   UNL A   1      31.967  27.810  23.190  1.00  0.00     0.087 A 
ATOM     22  C   UNL A   1      32.416  28.656  24.313  1.00  0.00     0.086 A 
ATOM     23  N   UNL A   1      32.909  27.040  22.774  1.00  0.00    -0.252 NA
ATOM     24  N   UNL A   1      33.630  28.406  24.661  1.00  0.00    -0.252 NA
BRANCH  17  25
ATOM     25  C   UNL A   1      28.492  29.133  22.549  1.00  0.00     0.337 C 
ATOM     26  O   UNL A   1      27.442  28.827  23.094  1.00  0.00    -0.246 OA
BRANCH  25  27
ATOM     27  O   UNL A   1      28.608  29.646  21.296  1.00  0.00    -0.465 OA
ATOM     28  C   UNL A   1      28.026  30.940  21.126  1.00  0.00     0.282 C 
ENDBRANCH  25  27
ENDBRANCH  17  25
ENDBRANCH   8  16
ENDBRANCH   6   7
ENDBRANCH   5   6
ENDBRANCH   3   5
ENDBRANCH   2   3
ENDBRANCH   1   2
BRANCH   1  29
ATOM     29  C   UNL A   1      40.492  20.977  26.964  1.00  0.00     0.275 C 
BRANCH  29  30
ATOM     30  O   UNL A   1      40.982  22.326  26.871  1.00  0.00    -0.458 OA
BRANCH  30  31
ATOM     31  C   UNL A   1      41.816  22.717  27.865  1.00  0.00     0.338 C 
ATOM     32  O   UNL A   1      42.694  22.042  28.383  1.00  0.00    -0.246 OA
BRANCH  31  33
ATOM     33  C   UNL A   1      41.719  24.193  27.974  1.00  0.00     0.060 A 
ATOM     34  C   UNL A   1      42.681  24.927  28.675  1.00  0.00     0.016 A 
ATOM     35  C   UNL A   1      40.510  24.792  27.596  1.00  0.00     0.016 A 
ATOM     36  C   UNL A   1      42.358  26.191  29.145  1.00  0.00     0.010 A 
ATOM     37  C   UNL A   1      40.181  26.051  28.086  1.00  0.00     0.010 A 
ATOM     38  C   UNL A   1      41.078  26.721  28.918  1.00  0.00    -0.014 A 
BRANCH  38  39
ATOM     39  C   UNL A   1      40.835  28.099  29.337  1.00  0.00     0.031 A 
ATOM     40  C   UNL A   1      41.768  29.027  28.662  1.00  0.00     0.074 A 
ATOM     41  C   UNL A   1      39.879  28.576  30.159  1.00  0.00     0.049 A 
ATOM     42  N   UNL A   1      42.850  29.528  29.157  1.00  0.00    -0.248 NA
ATOM     43  C   UNL A   1      41.600  29.242  27.219  1.00  0.00     0.031 C 
ATOM     44  C   UNL A   1      38.695  27.891  30.675  1.00  0.00     0.029 A 
ATOM     45  N   UNL A   1      39.734  29.843  30.658  1.00  0.00    -0.354 N 
ATOM     46  C   UNL A   1      43.374  30.323  28.147  1.00  0.00     0.074 A 
ATOM     47  C   UNL A   1      42.713  29.917  26.932  1.00  0.00     0.031 C 
ATOM     48  C   UNL A   1      37.838  28.800  31.205  1.00  0.00     0.029 A 
ATOM     49  C   UNL A   1      38.500  30.095  31.241  1.00  0.00     0.049 A 
ATOM     50  H   UNL A   1      40.447  30.521  30.608  1.00  0.00     0.167 HD
ATOM     51  C   UNL A   1      44.081  31.449  28.441  1.00  0.00     0.034 A 
ATOM     52  C   UNL A   1      38.052  31.275  31.735  1.00  0.00     0.034 A 
ATOM     53  C   UNL A   1      44.393  31.515  29.843  1.00  0.00     0.049 A 
ATOM     54  C   UNL A   1      39.215  32.123  32.067  1.00  0.00     0.074 A 
ATOM     55  C   UNL A   1      45.351  31.009  30.689  1.00  0.00     0.029 A 
ATOM     56  N   UNL A   1      43.354  31.962  30.617  1.00  0.00    -0.354 N 
ATOM     57  N   UNL A   1      40.038  31.870  33.044  1.00  0.00    -0.248 NA
ATOM     58  C   UNL A   1      39.662  33.133  31.111  1.00  0.00     0.031 C 
ATOM     59  C   UNL A   1      44.800  31.067  32.003  1.00  0.00     0.029 A 
ATOM     60  C   UNL A   1      43.529  31.633  31.935  1.00  0.00     0.049 A 
ATOM     61  H   UNL A   1      42.579  32.458  30.270  1.00  0.00     0.167 HD
ATOM     62  C   UNL A   1      41.251  32.329  32.577  1.00  0.00     0.074 A 
ATOM     63  C   UNL A   1      40.932  33.257  31.500  1.00  0.00     0.031 C 
ATOM     64  C   UNL A   1      42.409  31.671  32.855  1.00  0.00     0.034 A 
BRANCH  51  65
ATOM     65  C   UNL A   1      44.085  32.692  27.581  1.00  0.00     0.023 A 
ATOM     66  C   UNL A   1      43.528  33.915  27.996  1.00  0.00     0.031 A 
ATOM     67  C   UNL A   1      44.863  32.743  26.407  1.00  0.00     0.131 A 
ATOM     68  C   UNL A   1      43.704  35.096  27.268  1.00  0.00     0.055 A 
ATOM     69  C   UNL A   1      45.102  33.939  25.716  1.00  0.00     0.041 A 
ATOM     70  F   UNL A   1      45.454  31.641  25.919  1.00  0.00    -0.206 F 
ATOM     71  C   UNL A   1      44.518  35.126  26.144  1.00  0.00     0.022 A 
BRANCH  68  72
ATOM     72  S   UNL A   1      42.866  36.617  27.793  1.00  0.00     0.124 S 
ATOM     73  O   UNL A   1      43.850  37.209  28.693  1.00  0.00    -0.237 OA
ATOM     74  O   UNL A   1      42.679  37.304  26.518  1.00  0.00    -0.237 OA
ATOM     75  O   UNL A   1      41.638  36.133  28.417  1.00  0.00    -0.744 OA
ENDBRANCH  68  72
ENDBRANCH  51  65
BRANCH  52  76
ATOM     76  C   UNL A   1      36.705  31.877  31.608  1.00  0.00     0.023 A 
ATOM     77  C   UNL A   1      36.108  31.940  30.337  1.00  0.00     0.031 A 
ATOM     78  C   UNL A   1      36.185  32.710  32.616  1.00  0.00     0.131 A 
ATOM     79  C   UNL A   1      35.086  32.867  30.085  1.00  0.00     0.055 A 
ATOM     80  C   UNL A   1      35.148  33.616  32.368  1.00  0.00     0.041 A 
ATOM     81  F   UNL A   1      36.734  32.720  33.841  1.00  0.00    -0.206 F 
ATOM     82  C   UNL A   1      34.607  33.712  31.090  1.00  0.00     0.022 A 
BRANCH  79  83
ATOM     83  S   UNL A   1      34.433  33.084  28.407  1.00  0.00     0.124 S 
ATOM     84  O   UNL A   1      33.895  31.756  28.114  1.00  0.00    -0.237 OA
ATOM     85  O   UNL A   1      33.439  34.132  28.610  1.00  0.00    -0.237 OA
ATOM     86  O   UNL A   1      35.608  33.459  27.629  1.00  0.00    -0.744 OA
ENDBRANCH  79  83
ENDBRANCH  52  76
BRANCH  64  87
ATOM     87  C   UNL A   1      42.478  30.816  34.085  1.00  0.00     0.023 A 
ATOM     88  C   UNL A   1      42.249  29.443  33.899  1.00  0.00     0.031 A 
ATOM     89  C   UNL A   1      42.606  31.289  35.402  1.00  0.00     0.131 A 
ATOM     90  C   UNL A   1      42.091  28.595  34.996  1.00  0.00     0.055 A 
ATOM     91  C   UNL A   1      42.522  30.423  36.499  1.00  0.00     0.041 A 
ATOM     92  F   UNL A   1      42.750  32.595  35.667  1.00  0.00    -0.206 F 
ATOM     93  C   UNL A   1      42.244  29.072  36.300  1.00  0.00     0.022 A 
BRANCH  90  94
ATOM     94  S   UNL A   1      41.533  26.892  34.747  1.00  0.00     0.124 S 
ATOM     95  O   UNL A   1      42.729  26.247  34.215  1.00  0.00    -0.237 OA
ATOM     96  O   UNL A   1      41.152  26.489  36.100  1.00  0.00    -0.237 OA
ATOM     97  O   UNL A   1      40.421  27.017  33.809  1.00  0.00    -0.744 OA
ENDBRANCH  90  94
ENDBRANCH  64  87
ENDBRANCH  38  39
ENDBRANCH  31  33
ENDBRANCH  30  31
ENDBRANCH  29  30
ENDBRANCH   1  29
TORSDOF 19
ENDMDL
