MODEL 1
REMARK VINA RESULT:     -10.9      0.000      0.000
REMARK SMILES O=C(OCCOC(=O)c1ncc2ccccc2n1)c1ccc(-c2c3nc(c(-c4cc(S(=O)(=O)[O-])ccc4F)c4ccc([nH]4)c(-c4cc(S(=O)(=O)[O-])ccc4F)c4nc(c(-c5cc(S(=O)(=O)[O-])ccc5F)c5ccc2[nH]5)C=C4)C=C3)cc1
REMARK SMILES IDX 3 1 2 2 1 3 19 4 20 5 81 6 21 7 80 8 22 9 23 10 24 11 74 12
REMARK SMILES IDX 25 13 79 14 73 15 75 16 26 17 78 18 72 19 71 20 27 22 59 23
REMARK SMILES IDX 39 24 58 25 40 26 43 27 57 28 76 29 41 30 42 31 56 33 77 34
REMARK SMILES IDX 44 35 28 36 29 37 37 38 30 39 36 40 38 41 35 42 31 43 32 44
REMARK SMILES IDX 33 45 34 46 60 47 61 48 69 49 62 50 68 51 70 52 67 53 63 54
REMARK SMILES IDX 64 55 65 56 66 57 45 58 46 59 54 60 47 61 53 62 55 63 52 64
REMARK SMILES IDX 48 65 49 66 50 67 51 68 4 69 5 70 6 71 7 72 8 73 9 74 10 75
REMARK SMILES IDX 18 76 11 77 17 78 12 79 16 80 13 81 15 82 14 83
REMARK H PARENT 75 21 43 32
REMARK Flexibility Score: inf
ROOT
ATOM      1  O   UNL A   1      40.487  20.968  26.161  1.00  0.00    -0.458 OA
ENDROOT
BRANCH   1   2
ATOM      2  C   UNL A   1      39.581  21.939  26.449  1.00  0.00     0.338 C 
ATOM      3  O   UNL A   1      38.398  21.780  26.156  1.00  0.00    -0.246 OA
BRANCH   2   4
ATOM      4  C   UNL A   1      40.023  23.290  26.903  1.00  0.00     0.060 A 
ATOM      5  C   UNL A   1      39.662  24.497  26.298  1.00  0.00     0.016 A 
ATOM      6  C   UNL A   1      40.909  23.325  27.990  1.00  0.00     0.016 A 
ATOM      7  C   UNL A   1      40.090  25.718  26.829  1.00  0.00     0.010 A 
ATOM      8  C   UNL A   1      41.351  24.542  28.517  1.00  0.00     0.010 A 
ATOM      9  C   UNL A   1      40.928  25.749  27.946  1.00  0.00    -0.014 A 
BRANCH   9  10
ATOM     10  C   UNL A   1      41.466  27.038  28.439  1.00  0.00     0.031 A 
ATOM     11  C   UNL A   1      40.496  28.120  28.813  1.00  0.00     0.074 A 
ATOM     12  C   UNL A   1      42.795  27.222  28.567  1.00  0.00     0.049 A 
ATOM     13  N   UNL A   1      40.735  29.333  29.230  1.00  0.00    -0.248 NA
ATOM     14  C   UNL A   1      39.064  27.777  28.740  1.00  0.00     0.031 C 
ATOM     15  C   UNL A   1      43.816  26.198  28.344  1.00  0.00     0.029 A 
ATOM     16  N   UNL A   1      43.521  28.345  28.884  1.00  0.00    -0.354 N 
ATOM     17  C   UNL A   1      39.491  29.880  29.528  1.00  0.00     0.074 A 
ATOM     18  C   UNL A   1      38.496  28.893  29.171  1.00  0.00     0.031 C 
ATOM     19  C   UNL A   1      45.034  26.760  28.450  1.00  0.00     0.029 A 
ATOM     20  C   UNL A   1      44.880  28.184  28.718  1.00  0.00     0.049 A 
ATOM     21  H   UNL A   1      43.110  29.182  29.200  1.00  0.00     0.167 HD
ATOM     22  C   UNL A   1      39.219  31.084  30.083  1.00  0.00     0.034 A 
ATOM     23  C   UNL A   1      45.871  29.101  28.726  1.00  0.00     0.034 A 
ATOM     24  C   UNL A   1      40.233  32.059  30.386  1.00  0.00     0.049 A 
ATOM     25  C   UNL A   1      45.504  30.525  29.066  1.00  0.00     0.074 A 
ATOM     26  C   UNL A   1      40.094  33.296  30.990  1.00  0.00     0.029 A 
ATOM     27  N   UNL A   1      41.579  31.916  30.072  1.00  0.00    -0.354 N 
ATOM     28  N   UNL A   1      44.332  31.012  29.407  1.00  0.00    -0.248 NA
ATOM     29  C   UNL A   1      46.584  31.517  29.043  1.00  0.00     0.031 C 
ATOM     30  C   UNL A   1      41.342  33.930  30.970  1.00  0.00     0.029 A 
ATOM     31  C   UNL A   1      42.272  33.065  30.411  1.00  0.00     0.049 A 
ATOM     32  H   UNL A   1      41.981  31.114  29.666  1.00  0.00     0.167 HD
ATOM     33  C   UNL A   1      44.554  32.351  29.717  1.00  0.00     0.074 A 
ATOM     34  C   UNL A   1      45.963  32.599  29.489  1.00  0.00     0.031 C 
ATOM     35  C   UNL A   1      43.680  33.282  30.180  1.00  0.00     0.034 A 
BRANCH  22  36
ATOM     36  C   UNL A   1      37.775  31.407  30.362  1.00  0.00     0.023 A 
ATOM     37  C   UNL A   1      36.918  31.874  29.348  1.00  0.00     0.031 A 
ATOM     38  C   UNL A   1      37.250  31.263  31.656  1.00  0.00     0.131 A 
ATOM     39  C   UNL A   1      35.597  32.227  29.656  1.00  0.00     0.055 A 
ATOM     40  C   UNL A   1      35.917  31.561  31.945  1.00  0.00     0.041 A 
ATOM     41  F   UNL A   1      38.029  30.842  32.665  1.00  0.00    -0.206 F 
ATOM     42  C   UNL A   1      35.084  32.055  30.945  1.00  0.00     0.022 A 
BRANCH  39  43
ATOM     43  S   UNL A   1      34.576  33.001  28.370  1.00  0.00     0.124 S 
ATOM     44  O   UNL A   1      35.592  33.591  27.503  1.00  0.00    -0.237 OA
ATOM     45  O   UNL A   1      33.848  31.865  27.818  1.00  0.00    -0.237 OA
ATOM     46  O   UNL A   1      33.762  33.962  29.110  1.00  0.00    -0.744 OA
ENDBRANCH  39  43
ENDBRANCH  22  36
BRANCH  23  47
ATOM     47  C   UNL A   1      47.269  28.751  28.321  1.00  0.00     0.023 A 
ATOM     48  C   UNL A   1      47.629  28.537  26.982  1.00  0.00     0.031 A 
ATOM     49  C   UNL A   1      48.250  28.506  29.300  1.00  0.00     0.131 A 
ATOM     50  C   UNL A   1      48.909  28.043  26.669  1.00  0.00     0.055 A 
ATOM     51  C   UNL A   1      49.535  28.060  28.984  1.00  0.00     0.041 A 
ATOM     52  F   UNL A   1      47.965  28.671  30.597  1.00  0.00    -0.206 F 
ATOM     53  C   UNL A   1      49.865  27.809  27.660  1.00  0.00     0.022 A 
BRANCH  50  54
ATOM     54  S   UNL A   1      49.274  27.586  24.951  1.00  0.00     0.124 S 
ATOM     55  O   UNL A   1      49.546  26.158  25.071  1.00  0.00    -0.237 OA
ATOM     56  O   UNL A   1      48.034  27.952  24.276  1.00  0.00    -0.237 OA
ATOM     57  O   UNL A   1      50.433  28.415  24.619  1.00  0.00    -0.744 OA
ENDBRANCH  50  54
ENDBRANCH  23  47
BRANCH  35  58
ATOM     58  C   UNL A   1      44.258  34.621  30.551  1.00  0.00     0.023 A 
ATOM     59  C   UNL A   1      44.302  35.685  29.638  1.00  0.00     0.031 A 
ATOM     60  C   UNL A   1      44.788  34.822  31.839  1.00  0.00     0.131 A 
ATOM     61  C   UNL A   1      44.914  36.891  30.007  1.00  0.00     0.055 A 
ATOM     62  C   UNL A   1      45.341  36.043  32.221  1.00  0.00     0.041 A 
ATOM     63  F   UNL A   1      44.771  33.832  32.747  1.00  0.00    -0.206 F 
ATOM     64  C   UNL A   1      45.417  37.083  31.298  1.00  0.00     0.022 A 
BRANCH  61  65
ATOM     65  S   UNL A   1      45.113  38.182  28.751  1.00  0.00     0.124 S 
ATOM     66  O   UNL A   1      43.979  37.924  27.870  1.00  0.00    -0.237 OA
ATOM     67  O   UNL A   1      45.039  39.405  29.543  1.00  0.00    -0.237 OA
ATOM     68  O   UNL A   1      46.426  37.898  28.173  1.00  0.00    -0.744 OA
ENDBRANCH  61  65
ENDBRANCH  35  58
ENDBRANCH   9  10
ENDBRANCH   2   4
ENDBRANCH   1   2
BRANCH   1  69
ATOM     69  C   UNL A   1      41.094  20.062  27.098  1.00  0.00     0.275 C 
BRANCH  69  70
ATOM     70  C   UNL A   1      41.985  18.987  26.466  1.00  0.00     0.275 C 
BRANCH  70  71
ATOM     71  O   UNL A   1      42.472  19.351  25.169  1.00  0.00    -0.456 OA
BRANCH  71  72
ATOM     72  C   UNL A   1      43.834  19.357  25.050  1.00  0.00     0.376 C 
ATOM     73  O   UNL A   1      44.525  18.405  24.725  1.00  0.00    -0.242 OA
BRANCH  72  74
ATOM     74  C   UNL A   1      44.338  20.756  25.215  1.00  0.00     0.239 A 
ATOM     75  N   UNL A   1      45.679  20.874  25.312  1.00  0.00    -0.230 NA
ATOM     76  N   UNL A   1      43.450  21.772  25.166  1.00  0.00    -0.222 NA
ATOM     77  C   UNL A   1      46.149  22.132  25.292  1.00  0.00     0.124 A 
ATOM     78  C   UNL A   1      43.966  23.015  25.179  1.00  0.00     0.075 A 
ATOM     79  C   UNL A   1      45.346  23.256  25.201  1.00  0.00     0.019 A 
ATOM     80  C   UNL A   1      43.136  24.126  25.147  1.00  0.00     0.029 A 
ATOM     81  C   UNL A   1      45.872  24.559  25.116  1.00  0.00     0.012 A 
ATOM     82  C   UNL A   1      43.644  25.429  25.041  1.00  0.00     0.002 A 
ATOM     83  C   UNL A   1      45.014  25.646  25.016  1.00  0.00     0.001 A 
ENDBRANCH  72  74
ENDBRANCH  71  72
ENDBRANCH  70  71
ENDBRANCH  69  70
ENDBRANCH   1  69
TORSDOF 14
ENDMDL
MODEL 2
REMARK VINA RESULT:     -10.7      1.603      8.083
REMARK SMILES O=C(OCCOC(=O)c1ncc2ccccc2n1)c1ccc(-c2c3nc(c(-c4cc(S(=O)(=O)[O-])ccc4F)c4ccc([nH]4)c(-c4cc(S(=O)(=O)[O-])ccc4F)c4nc(c(-c5cc(S(=O)(=O)[O-])ccc5F)c5ccc2[nH]5)C=C4)C=C3)cc1
REMARK SMILES IDX 3 1 2 2 1 3 19 4 20 5 81 6 21 7 80 8 22 9 23 10 24 11 74 12
REMARK SMILES IDX 25 13 79 14 73 15 75 16 26 17 78 18 72 19 71 20 27 22 59 23
REMARK SMILES IDX 39 24 58 25 40 26 43 27 57 28 76 29 41 30 42 31 56 33 77 34
REMARK SMILES IDX 44 35 28 36 29 37 37 38 30 39 36 40 38 41 35 42 31 43 32 44
REMARK SMILES IDX 33 45 34 46 60 47 61 48 69 49 62 50 68 51 70 52 67 53 63 54
REMARK SMILES IDX 64 55 65 56 66 57 45 58 46 59 54 60 47 61 53 62 55 63 52 64
REMARK SMILES IDX 48 65 49 66 50 67 51 68 4 69 5 70 6 71 7 72 8 73 9 74 10 75
REMARK SMILES IDX 18 76 11 77 17 78 12 79 16 80 13 81 15 82 14 83
REMARK H PARENT 75 21 43 32
REMARK Flexibility Score: inf
ROOT
ATOM      1  O   UNL A   1      40.926  20.881  27.292  1.00  0.00    -0.458 OA
ENDROOT
BRANCH   1   2
ATOM      2  C   UNL A   1      40.059  21.842  26.882  1.00  0.00     0.338 C 
ATOM      3  O   UNL A   1      39.167  21.563  26.083  1.00  0.00    -0.246 OA
BRANCH   2   4
ATOM      4  C   UNL A   1      40.301  23.280  27.199  1.00  0.00     0.060 A 
ATOM      5  C   UNL A   1      39.712  24.358  26.535  1.00  0.00     0.016 A 
ATOM      6  C   UNL A   1      41.235  23.548  28.212  1.00  0.00     0.016 A 
ATOM      7  C   UNL A   1      39.967  25.672  26.939  1.00  0.00     0.010 A 
ATOM      8  C   UNL A   1      41.503  24.860  28.612  1.00  0.00     0.010 A 
ATOM      9  C   UNL A   1      40.856  25.932  27.984  1.00  0.00    -0.014 A 
BRANCH   9  10
ATOM     10  C   UNL A   1      41.206  27.327  28.339  1.00  0.00     0.031 A 
ATOM     11  C   UNL A   1      42.657  27.687  28.469  1.00  0.00     0.074 A 
ATOM     12  C   UNL A   1      40.242  28.251  28.519  1.00  0.00     0.049 A 
ATOM     13  N   UNL A   1      43.195  28.827  28.805  1.00  0.00    -0.248 NA
ATOM     14  C   UNL A   1      43.632  26.630  28.144  1.00  0.00     0.031 C 
ATOM     15  C   UNL A   1      38.812  28.033  28.301  1.00  0.00     0.029 A 
ATOM     16  N   UNL A   1      40.312  29.550  28.958  1.00  0.00    -0.354 N 
ATOM     17  C   UNL A   1      44.568  28.647  28.673  1.00  0.00     0.074 A 
ATOM     18  C   UNL A   1      44.783  27.265  28.302  1.00  0.00     0.031 C 
ATOM     19  C   UNL A   1      38.136  29.132  28.686  1.00  0.00     0.029 A 
ATOM     20  C   UNL A   1      39.078  30.115  29.202  1.00  0.00     0.049 A 
ATOM     21  H   UNL A   1      41.162  30.031  29.085  1.00  0.00     0.167 HD
ATOM     22  C   UNL A   1      45.550  29.568  28.816  1.00  0.00     0.034 A 
ATOM     23  C   UNL A   1      38.759  31.268  29.826  1.00  0.00     0.034 A 
ATOM     24  C   UNL A   1      45.303  30.925  29.229  1.00  0.00     0.049 A 
ATOM     25  C   UNL A   1      39.892  32.171  30.253  1.00  0.00     0.074 A 
ATOM     26  C   UNL A   1      46.202  31.966  29.369  1.00  0.00     0.029 A 
ATOM     27  N   UNL A   1      44.059  31.417  29.605  1.00  0.00    -0.354 N 
ATOM     28  N   UNL A   1      41.183  32.014  30.064  1.00  0.00    -0.248 NA
ATOM     29  C   UNL A   1      39.533  33.407  30.956  1.00  0.00     0.031 C 
ATOM     30  C   UNL A   1      45.514  33.064  29.901  1.00  0.00     0.029 A 
ATOM     31  C   UNL A   1      44.175  32.727  30.035  1.00  0.00     0.049 A 
ATOM     32  H   UNL A   1      43.217  30.908  29.571  1.00  0.00     0.167 HD
ATOM     33  C   UNL A   1      41.781  33.171  30.553  1.00  0.00     0.074 A 
ATOM     34  C   UNL A   1      40.712  33.998  31.076  1.00  0.00     0.031 C 
ATOM     35  C   UNL A   1      43.090  33.532  30.543  1.00  0.00     0.034 A 
BRANCH  22  36
ATOM     36  C   UNL A   1      46.963  29.121  28.553  1.00  0.00     0.023 A 
ATOM     37  C   UNL A   1      47.416  28.849  27.249  1.00  0.00     0.031 A 
ATOM     38  C   UNL A   1      47.865  28.948  29.615  1.00  0.00     0.131 A 
ATOM     39  C   UNL A   1      48.719  28.372  27.046  1.00  0.00     0.055 A 
ATOM     40  C   UNL A   1      49.179  28.527  29.401  1.00  0.00     0.041 A 
ATOM     41  F   UNL A   1      47.478  29.171  30.881  1.00  0.00    -0.206 F 
ATOM     42  C   UNL A   1      49.610  28.228  28.112  1.00  0.00     0.022 A 
BRANCH  39  43
ATOM     43  S   UNL A   1      49.210  27.854  25.377  1.00  0.00     0.124 S 
ATOM     44  O   UNL A   1      48.024  28.202  24.599  1.00  0.00    -0.237 OA
ATOM     45  O   UNL A   1      50.395  28.666  25.129  1.00  0.00    -0.237 OA
ATOM     46  O   UNL A   1      49.455  26.421  25.520  1.00  0.00    -0.744 OA
ENDBRANCH  39  43
ENDBRANCH  22  36
BRANCH  23  47
ATOM     47  C   UNL A   1      37.343  31.608  30.174  1.00  0.00     0.023 A 
ATOM     48  C   UNL A   1      36.442  32.120  29.229  1.00  0.00     0.031 A 
ATOM     49  C   UNL A   1      36.904  31.534  31.510  1.00  0.00     0.131 A 
ATOM     50  C   UNL A   1      35.179  32.585  29.640  1.00  0.00     0.055 A 
ATOM     51  C   UNL A   1      35.633  31.952  31.909  1.00  0.00     0.041 A 
ATOM     52  F   UNL A   1      37.721  31.074  32.464  1.00  0.00    -0.206 F 
ATOM     53  C   UNL A   1      34.767  32.499  30.972  1.00  0.00     0.022 A 
BRANCH  50  54
ATOM     54  S   UNL A   1      34.119  33.424  28.430  1.00  0.00     0.124 S 
ATOM     55  O   UNL A   1      35.098  34.136  27.616  1.00  0.00    -0.237 OA
ATOM     56  O   UNL A   1      33.447  32.299  27.792  1.00  0.00    -0.237 OA
ATOM     57  O   UNL A   1      33.264  34.273  29.260  1.00  0.00    -0.744 OA
ENDBRANCH  50  54
ENDBRANCH  23  47
BRANCH  35  58
ATOM     58  C   UNL A   1      43.409  34.919  31.031  1.00  0.00     0.023 A 
ATOM     59  C   UNL A   1      43.558  35.205  32.397  1.00  0.00     0.031 A 
ATOM     60  C   UNL A   1      43.546  35.972  30.109  1.00  0.00     0.131 A 
ATOM     61  C   UNL A   1      43.786  36.525  32.809  1.00  0.00     0.055 A 
ATOM     62  C   UNL A   1      43.833  37.273  30.520  1.00  0.00     0.041 A 
ATOM     63  F   UNL A   1      43.410  35.749  28.791  1.00  0.00    -0.206 F 
ATOM     64  C   UNL A   1      43.942  37.558  31.878  1.00  0.00     0.022 A 
BRANCH  61  65
ATOM     65  S   UNL A   1      43.797  36.890  34.584  1.00  0.00     0.124 S 
ATOM     66  O   UNL A   1      44.423  35.693  35.134  1.00  0.00    -0.237 OA
ATOM     67  O   UNL A   1      44.593  38.111  34.648  1.00  0.00    -0.237 OA
ATOM     68  O   UNL A   1      42.381  37.057  34.908  1.00  0.00    -0.744 OA
ENDBRANCH  61  65
ENDBRANCH  35  58
ENDBRANCH   9  10
ENDBRANCH   2   4
ENDBRANCH   1   2
BRANCH   1  69
ATOM     69  C   UNL A   1      40.919  19.498  26.897  1.00  0.00     0.275 C 
BRANCH  69  70
ATOM     70  C   UNL A   1      42.289  18.935  26.504  1.00  0.00     0.275 C 
BRANCH  70  71
ATOM     71  O   UNL A   1      42.664  19.257  25.159  1.00  0.00    -0.456 OA
BRANCH  71  72
ATOM     72  C   UNL A   1      44.013  19.328  24.943  1.00  0.00     0.376 C 
ATOM     73  O   UNL A   1      44.715  18.423  24.523  1.00  0.00    -0.242 OA
BRANCH  72  74
ATOM     74  C   UNL A   1      44.471  20.739  25.141  1.00  0.00     0.239 A 
ATOM     75  N   UNL A   1      45.807  20.896  25.257  1.00  0.00    -0.230 NA
ATOM     76  N   UNL A   1      43.553  21.727  25.101  1.00  0.00    -0.222 NA
ATOM     77  C   UNL A   1      46.237  22.168  25.267  1.00  0.00     0.124 A 
ATOM     78  C   UNL A   1      44.030  22.985  25.144  1.00  0.00     0.075 A 
ATOM     79  C   UNL A   1      45.401  23.268  25.187  1.00  0.00     0.019 A 
ATOM     80  C   UNL A   1      43.166  24.071  25.123  1.00  0.00     0.029 A 
ATOM     81  C   UNL A   1      45.887  24.589  25.134  1.00  0.00     0.012 A 
ATOM     82  C   UNL A   1      43.634  25.390  25.048  1.00  0.00     0.002 A 
ATOM     83  C   UNL A   1      44.997  25.650  25.044  1.00  0.00     0.001 A 
ENDBRANCH  72  74
ENDBRANCH  71  72
ENDBRANCH  70  71
ENDBRANCH  69  70
ENDBRANCH   1  69
TORSDOF 14
ENDMDL
MODEL 3
REMARK VINA RESULT:     -10.6      4.400     10.794
REMARK SMILES O=C(OCCOC(=O)c1ncc2ccccc2n1)c1ccc(-c2c3nc(c(-c4cc(S(=O)(=O)[O-])ccc4F)c4ccc([nH]4)c(-c4cc(S(=O)(=O)[O-])ccc4F)c4nc(c(-c5cc(S(=O)(=O)[O-])ccc5F)c5ccc2[nH]5)C=C4)C=C3)cc1
REMARK SMILES IDX 3 1 2 2 1 3 19 4 20 5 81 6 21 7 80 8 22 9 23 10 24 11 74 12
REMARK SMILES IDX 25 13 79 14 73 15 75 16 26 17 78 18 72 19 71 20 27 22 59 23
REMARK SMILES IDX 39 24 58 25 40 26 43 27 57 28 76 29 41 30 42 31 56 33 77 34
REMARK SMILES IDX 44 35 28 36 29 37 37 38 30 39 36 40 38 41 35 42 31 43 32 44
REMARK SMILES IDX 33 45 34 46 60 47 61 48 69 49 62 50 68 51 70 52 67 53 63 54
REMARK SMILES IDX 64 55 65 56 66 57 45 58 46 59 54 60 47 61 53 62 55 63 52 64
REMARK SMILES IDX 48 65 49 66 50 67 51 68 4 69 5 70 6 71 7 72 8 73 9 74 10 75
REMARK SMILES IDX 18 76 11 77 17 78 12 79 16 80 13 81 15 82 14 83
REMARK H PARENT 75 21 43 32
REMARK Flexibility Score: inf
ROOT
ATOM      1  O   UNL A   1      34.493  33.200  28.133  1.00  0.00    -0.458 OA
ENDROOT
BRANCH   1   2
ATOM      2  C   UNL A   1      34.590  31.853  27.993  1.00  0.00     0.338 C 
ATOM      3  O   UNL A   1      33.609  31.200  27.641  1.00  0.00    -0.246 OA
BRANCH   2   4
ATOM      4  C   UNL A   1      35.794  31.116  28.478  1.00  0.00     0.060 A 
ATOM      5  C   UNL A   1      35.774  29.858  29.085  1.00  0.00     0.016 A 
ATOM      6  C   UNL A   1      37.025  31.778  28.350  1.00  0.00     0.016 A 
ATOM      7  C   UNL A   1      36.964  29.228  29.462  1.00  0.00     0.010 A 
ATOM      8  C   UNL A   1      38.217  31.158  28.736  1.00  0.00     0.010 A 
ATOM      9  C   UNL A   1      38.192  29.868  29.283  1.00  0.00    -0.014 A 
BRANCH   9  10
ATOM     10  C   UNL A   1      39.440  29.245  29.781  1.00  0.00     0.031 A 
ATOM     11  C   UNL A   1      40.229  29.969  30.832  1.00  0.00     0.074 A 
ATOM     12  C   UNL A   1      39.842  28.047  29.313  1.00  0.00     0.049 A 
ATOM     13  N   UNL A   1      41.363  29.636  31.386  1.00  0.00    -0.248 NA
ATOM     14  C   UNL A   1      39.645  31.218  31.353  1.00  0.00     0.031 C 
ATOM     15  C   UNL A   1      39.089  27.208  28.380  1.00  0.00     0.029 A 
ATOM     16  N   UNL A   1      40.998  27.338  29.530  1.00  0.00    -0.354 N 
ATOM     17  C   UNL A   1      41.600  30.597  32.363  1.00  0.00     0.074 A 
ATOM     18  C   UNL A   1      40.531  31.568  32.273  1.00  0.00     0.031 C 
ATOM     19  C   UNL A   1      39.838  26.142  28.043  1.00  0.00     0.029 A 
ATOM     20  C   UNL A   1      41.129  26.237  28.710  1.00  0.00     0.049 A 
ATOM     21  H   UNL A   1      41.667  27.591  30.206  1.00  0.00     0.167 HD
ATOM     22  C   UNL A   1      42.602  30.636  33.271  1.00  0.00     0.034 A 
ATOM     23  C   UNL A   1      42.197  25.441  28.490  1.00  0.00     0.034 A 
ATOM     24  C   UNL A   1      43.673  29.676  33.304  1.00  0.00     0.049 A 
ATOM     25  C   UNL A   1      43.435  25.684  29.319  1.00  0.00     0.074 A 
ATOM     26  C   UNL A   1      44.724  29.577  34.199  1.00  0.00     0.029 A 
ATOM     27  N   UNL A   1      43.848  28.662  32.370  1.00  0.00    -0.354 N 
ATOM     28  N   UNL A   1      43.620  26.558  30.283  1.00  0.00    -0.248 NA
ATOM     29  C   UNL A   1      44.597  24.830  29.049  1.00  0.00     0.031 C 
ATOM     30  C   UNL A   1      45.572  28.553  33.761  1.00  0.00     0.029 A 
ATOM     31  C   UNL A   1      45.020  27.973  32.628  1.00  0.00     0.049 A 
ATOM     32  H   UNL A   1      43.228  28.464  31.631  1.00  0.00     0.167 HD
ATOM     33  C   UNL A   1      44.891  26.302  30.787  1.00  0.00     0.074 A 
ATOM     34  C   UNL A   1      45.438  25.217  29.997  1.00  0.00     0.031 C 
ATOM     35  C   UNL A   1      45.536  26.887  31.829  1.00  0.00     0.034 A 
BRANCH  22  36
ATOM     36  C   UNL A   1      42.590  31.765  34.268  1.00  0.00     0.023 A 
ATOM     37  C   UNL A   1      41.889  31.663  35.484  1.00  0.00     0.031 A 
ATOM     38  C   UNL A   1      43.271  32.962  33.996  1.00  0.00     0.131 A 
ATOM     39  C   UNL A   1      41.845  32.756  36.360  1.00  0.00     0.055 A 
ATOM     40  C   UNL A   1      43.271  34.028  34.899  1.00  0.00     0.041 A 
ATOM     41  F   UNL A   1      43.937  33.121  32.842  1.00  0.00    -0.206 F 
ATOM     42  C   UNL A   1      42.548  33.932  36.085  1.00  0.00     0.022 A 
BRANCH  39  43
ATOM     43  S   UNL A   1      40.781  32.659  37.827  1.00  0.00     0.124 S 
ATOM     44  O   UNL A   1      41.629  31.921  38.759  1.00  0.00    -0.237 OA
ATOM     45  O   UNL A   1      40.555  34.064  38.148  1.00  0.00    -0.237 OA
ATOM     46  O   UNL A   1      39.606  31.932  37.353  1.00  0.00    -0.744 OA
ENDBRANCH  39  43
ENDBRANCH  22  36
BRANCH  23  47
ATOM     47  C   UNL A   1      42.199  24.413  27.401  1.00  0.00     0.023 A 
ATOM     48  C   UNL A   1      41.625  23.144  27.569  1.00  0.00     0.031 A 
ATOM     49  C   UNL A   1      42.894  24.654  26.201  1.00  0.00     0.131 A 
ATOM     50  C   UNL A   1      41.804  22.156  26.583  1.00  0.00     0.055 A 
ATOM     51  C   UNL A   1      43.030  23.687  25.202  1.00  0.00     0.041 A 
ATOM     52  F   UNL A   1      43.481  25.837  25.987  1.00  0.00    -0.206 F 
ATOM     53  C   UNL A   1      42.497  22.421  25.399  1.00  0.00     0.022 A 
BRANCH  50  54
ATOM     54  S   UNL A   1      41.225  20.469  26.919  1.00  0.00     0.124 S 
ATOM     55  O   UNL A   1      40.870  20.550  28.332  1.00  0.00    -0.237 OA
ATOM     56  O   UNL A   1      40.115  20.344  25.982  1.00  0.00    -0.237 OA
ATOM     57  O   UNL A   1      42.393  19.643  26.616  1.00  0.00    -0.744 OA
ENDBRANCH  50  54
ENDBRANCH  23  47
BRANCH  35  58
ATOM     58  C   UNL A   1      46.863  26.294  32.218  1.00  0.00     0.023 A 
ATOM     59  C   UNL A   1      48.050  26.638  31.552  1.00  0.00     0.031 A 
ATOM     60  C   UNL A   1      46.930  25.354  33.262  1.00  0.00     0.131 A 
ATOM     61  C   UNL A   1      49.250  26.007  31.905  1.00  0.00     0.055 A 
ATOM     62  C   UNL A   1      48.138  24.773  33.648  1.00  0.00     0.041 A 
ATOM     63  F   UNL A   1      45.821  24.990  33.927  1.00  0.00    -0.206 F 
ATOM     64  C   UNL A   1      49.305  25.090  32.960  1.00  0.00     0.022 A 
BRANCH  61  65
ATOM     65  S   UNL A   1      50.729  26.341  30.912  1.00  0.00     0.124 S 
ATOM     66  O   UNL A   1      50.651  27.786  30.730  1.00  0.00    -0.237 OA
ATOM     67  O   UNL A   1      51.803  25.866  31.778  1.00  0.00    -0.237 OA
ATOM     68  O   UNL A   1      50.515  25.549  29.701  1.00  0.00    -0.744 OA
ENDBRANCH  61  65
ENDBRANCH  35  58
ENDBRANCH   9  10
ENDBRANCH   2   4
ENDBRANCH   1   2
BRANCH   1  69
ATOM     69  C   UNL A   1      33.320  34.000  27.904  1.00  0.00     0.275 C 
BRANCH  69  70
ATOM     70  C   UNL A   1      33.214  35.252  28.782  1.00  0.00     0.275 C 
BRANCH  70  71
ATOM     71  O   UNL A   1      32.484  35.027  29.995  1.00  0.00    -0.456 OA
BRANCH  71  72
ATOM     72  C   UNL A   1      32.861  35.819  31.044  1.00  0.00     0.376 C 
ATOM     73  O   UNL A   1      32.293  36.836  31.408  1.00  0.00    -0.242 OA
BRANCH  72  74
ATOM     74  C   UNL A   1      33.979  35.157  31.787  1.00  0.00     0.239 A 
ATOM     75  N   UNL A   1      34.491  35.874  32.808  1.00  0.00    -0.230 NA
ATOM     76  N   UNL A   1      34.320  33.896  31.448  1.00  0.00    -0.222 NA
ATOM     77  C   UNL A   1      35.376  35.224  33.580  1.00  0.00     0.124 A 
ATOM     78  C   UNL A   1      35.232  33.295  32.234  1.00  0.00     0.075 A 
ATOM     79  C   UNL A   1      35.776  33.917  33.366  1.00  0.00     0.019 A 
ATOM     80  C   UNL A   1      35.662  32.004  31.961  1.00  0.00     0.029 A 
ATOM     81  C   UNL A   1      36.656  33.240  34.232  1.00  0.00     0.012 A 
ATOM     82  C   UNL A   1      36.520  31.309  32.825  1.00  0.00     0.002 A 
ATOM     83  C   UNL A   1      37.011  31.924  33.967  1.00  0.00     0.001 A 
ENDBRANCH  72  74
ENDBRANCH  71  72
ENDBRANCH  70  71
ENDBRANCH  69  70
ENDBRANCH   1  69
TORSDOF 14
ENDMDL
