MODEL 1
REMARK VINA RESULT:     -13.1      0.000      0.000
REMARK SMILES Cc1ccc(C)c(NS(=O)(=O)c2cc(C(=O)OCCOC(=O)c3ccc(-c4c5nc(c(-c6cc(S(=O)(=O)[O-])ccc6F)c6ccc([nH]6)c(-c6cc(S(=O)(=O)[O-])ccc6F)c6nc(c(-c7cc(S(=O)(=O)[O-])ccc7F)c7ccc4[nH]7)C=C6)C=C5)cc3)ccc2Cl)c1
REMARK SMILES IDX 18 1 17 2 15 3 16 4 14 5 12 6 13 7 88 8 87 9 89 10 86 11
REMARK SMILES IDX 9 12 10 13 11 14 8 15 7 17 1 18 2 19 3 20 90 21 4 22 5 23
REMARK SMILES IDX 6 24 19 25 20 26 21 27 22 28 23 29 24 30 85 31 25 32 84 33
REMARK SMILES IDX 26 34 27 35 28 36 78 37 29 38 83 39 77 40 79 41 30 42 82 43
REMARK SMILES IDX 76 44 75 45 31 47 63 48 43 49 62 50 44 51 47 52 61 53 80 54
REMARK SMILES IDX 45 55 46 56 60 58 81 59 48 60 32 61 33 62 41 63 34 64 40 65
REMARK SMILES IDX 42 66 39 67 35 68 36 69 37 70 38 71 64 72 65 73 73 74 66 75
REMARK SMILES IDX 72 76 74 77 71 78 67 79 68 80 69 81 70 82 49 83 50 84 58 85
REMARK SMILES IDX 51 86 57 87 59 88 56 89 52 90 53 91 54 92 55 93
REMARK H PARENT 8 16 79 46 47 57
REMARK Flexibility Score: inf
ROOT
ATOM      1  C   UNL A   1      33.642  32.577  28.065  1.00  0.00     0.275 C 
ENDROOT
BRANCH   1   2
ATOM      2  O   UNL A   1      33.332  31.271  27.552  1.00  0.00    -0.458 OA
BRANCH   2   3
ATOM      3  C   UNL A   1      32.173  31.154  26.609  1.00  0.00     0.338 C 
ATOM      4  O   UNL A   1      31.619  32.268  26.845  1.00  0.00    -0.246 OA
BRANCH   3   5
ATOM      5  C   UNL A   1      31.774  29.541  25.241  1.00  0.00     0.061 A 
ATOM      6  C   UNL A   1      31.002  26.905  24.988  1.00  0.00     0.107 A 
ATOM      7  C   UNL A   1      31.917  27.983  25.414  1.00  0.00     0.039 A 
ATOM      8  C   UNL A   1      29.919  27.235  24.223  1.00  0.00     0.061 A 
ATOM      9  C   UNL A   1      30.004  28.462  23.593  1.00  0.00     0.023 A 
ATOM     10  Cl  UNL A   1      28.528  26.266  23.954  1.00  0.00    -0.083 Cl
ATOM     11  C   UNL A   1      30.954  29.476  23.979  1.00  0.00     0.017 A 
BRANCH   6  12
ATOM     12  S   UNL A   1      31.356  25.193  25.410  1.00  0.00     0.263 S 
ATOM     13  O   UNL A   1      31.218  24.449  24.172  1.00  0.00    -0.201 OA
ATOM     14  O   UNL A   1      30.521  24.848  26.541  1.00  0.00    -0.201 OA
BRANCH  12  15
ATOM     15  N   UNL A   1      32.955  24.903  25.871  1.00  0.00    -0.279 N 
ATOM     16  H   UNL A   1      33.372  25.658  26.343  1.00  0.00     0.180 HD
BRANCH  15  17
ATOM     17  C   UNL A   1      33.825  23.772  25.708  1.00  0.00     0.052 A 
ATOM     18  C   UNL A   1      36.588  22.792  23.190  1.00  0.00     0.044 C 
ATOM     19  C   UNL A   1      35.756  22.898  24.437  1.00  0.00    -0.049 A 
ATOM     20  C   UNL A   1      36.089  22.108  25.533  1.00  0.00     0.004 A 
ATOM     21  C   UNL A   1      34.667  23.783  24.565  1.00  0.00     0.030 A 
ATOM     22  C   UNL A   1      35.206  22.012  26.601  1.00  0.00     0.006 A 
ATOM     23  C   UNL A   1      33.998  22.733  26.620  1.00  0.00    -0.027 A 
ATOM     24  C   UNL A   1      32.945  22.248  27.565  1.00  0.00     0.046 C 
ENDBRANCH  15  17
ENDBRANCH  12  15
ENDBRANCH   6  12
ENDBRANCH   3   5
ENDBRANCH   2   3
ENDBRANCH   1   2
BRANCH   1  25
ATOM     25  C   UNL A   1      34.999  32.498  28.769  1.00  0.00     0.275 C 
BRANCH  25  26
ATOM     26  O   UNL A   1      35.271  31.233  29.434  1.00  0.00    -0.458 OA
BRANCH  26  27
ATOM     27  C   UNL A   1      36.504  31.024  29.973  1.00  0.00     0.338 C 
ATOM     28  O   UNL A   1      37.094  31.782  30.720  1.00  0.00    -0.246 OA
BRANCH  27  29
ATOM     29  C   UNL A   1      37.104  29.791  29.446  1.00  0.00     0.060 A 
ATOM     30  C   UNL A   1      37.799  28.588  30.634  1.00  0.00     0.016 A 
ATOM     31  C   UNL A   1      37.844  29.980  27.804  1.00  0.00     0.016 A 
ATOM     32  C   UNL A   1      39.289  27.599  30.153  1.00  0.00     0.010 A 
ATOM     33  C   UNL A   1      39.398  29.077  27.398  1.00  0.00     0.010 A 
ATOM     34  C   UNL A   1      40.148  27.944  28.591  1.00  0.00    -0.014 A 
BRANCH  34  35
ATOM     35  C   UNL A   1      41.659  27.760  28.384  1.00  0.00     0.031 A 
ATOM     36  C   UNL A   1      41.859  26.517  27.627  1.00  0.00     0.074 A 
ATOM     37  C   UNL A   1      42.793  28.541  28.513  1.00  0.00     0.049 A 
ATOM     38  N   UNL A   1      42.041  25.349  28.141  1.00  0.00    -0.248 NA
ATOM     39  C   UNL A   1      41.595  26.513  26.182  1.00  0.00     0.031 C 
ATOM     40  C   UNL A   1      42.925  29.934  28.963  1.00  0.00     0.029 A 
ATOM     41  N   UNL A   1      44.135  28.253  28.195  1.00  0.00    -0.354 N 
ATOM     42  C   UNL A   1      42.202  24.517  27.053  1.00  0.00     0.074 A 
ATOM     43  C   UNL A   1      41.599  25.201  25.940  1.00  0.00     0.031 C 
ATOM     44  C   UNL A   1      44.180  30.415  28.718  1.00  0.00     0.029 A 
ATOM     45  C   UNL A   1      45.040  29.352  28.208  1.00  0.00     0.049 A 
ATOM     46  H   UNL A   1      44.431  27.340  27.976  1.00  0.00     0.167 HD
ATOM     47  C   UNL A   1      43.104  23.500  27.074  1.00  0.00     0.034 A 
ATOM     48  C   UNL A   1      46.390  29.398  27.896  1.00  0.00     0.034 A 
ATOM     49  C   UNL A   1      43.685  23.334  28.391  1.00  0.00     0.049 A 
ATOM     50  C   UNL A   1      46.916  28.037  28.102  1.00  0.00     0.074 A 
ATOM     51  C   UNL A   1      43.196  23.122  29.666  1.00  0.00     0.029 A 
ATOM     52  N   UNL A   1      44.983  23.762  28.556  1.00  0.00    -0.354 N 
ATOM     53  N   UNL A   1      47.037  27.487  29.271  1.00  0.00    -0.248 NA
ATOM     54  C   UNL A   1      46.979  27.128  26.972  1.00  0.00     0.031 C 
ATOM     55  C   UNL A   1      44.068  23.844  30.534  1.00  0.00     0.029 A 
ATOM     56  C   UNL A   1      45.088  24.402  29.767  1.00  0.00     0.049 A 
ATOM     57  H   UNL A   1      45.716  23.632  27.911  1.00  0.00     0.167 HD
ATOM     58  C   UNL A   1      46.675  26.172  29.060  1.00  0.00     0.074 A 
ATOM     59  C   UNL A   1      46.801  25.974  27.620  1.00  0.00     0.031 C 
ATOM     60  C   UNL A   1      46.017  25.485  30.037  1.00  0.00     0.034 A 
BRANCH  47  61
ATOM     61  C   UNL A   1      43.741  22.902  25.847  1.00  0.00     0.023 A 
ATOM     62  C   UNL A   1      43.758  21.501  25.760  1.00  0.00     0.031 A 
ATOM     63  C   UNL A   1      44.523  23.594  24.894  1.00  0.00     0.131 A 
ATOM     64  C   UNL A   1      44.556  20.852  24.806  1.00  0.00     0.055 A 
ATOM     65  C   UNL A   1      45.247  22.946  23.892  1.00  0.00     0.041 A 
ATOM     66  F   UNL A   1      44.715  24.918  24.937  1.00  0.00    -0.206 F 
ATOM     67  C   UNL A   1      45.287  21.565  23.858  1.00  0.00     0.022 A 
BRANCH  64  68
ATOM     68  S   UNL A   1      44.744  19.058  24.932  1.00  0.00     0.124 S 
ATOM     69  O   UNL A   1      46.014  18.947  25.640  1.00  0.00    -0.237 OA
ATOM     70  O   UNL A   1      43.550  18.684  25.683  1.00  0.00    -0.237 OA
ATOM     71  O   UNL A   1      44.765  18.625  23.537  1.00  0.00    -0.744 OA
ENDBRANCH  64  68
ENDBRANCH  47  61
BRANCH  48  72
ATOM     72  C   UNL A   1      47.335  30.438  27.298  1.00  0.00     0.023 A 
ATOM     73  C   UNL A   1      46.949  31.738  26.816  1.00  0.00     0.031 A 
ATOM     74  C   UNL A   1      48.713  30.274  27.535  1.00  0.00     0.131 A 
ATOM     75  C   UNL A   1      47.916  32.774  26.613  1.00  0.00     0.055 A 
ATOM     76  C   UNL A   1      49.653  31.301  27.348  1.00  0.00     0.041 A 
ATOM     77  F   UNL A   1      49.178  29.131  28.061  1.00  0.00    -0.206 F 
ATOM     78  C   UNL A   1      49.261  32.554  26.898  1.00  0.00     0.022 A 
BRANCH  75  79
ATOM     79  S   UNL A   1      47.460  34.478  26.066  1.00  0.00     0.124 S 
ATOM     80  O   UNL A   1      47.814  35.294  27.220  1.00  0.00    -0.237 OA
ATOM     81  O   UNL A   1      48.269  34.656  24.866  1.00  0.00    -0.237 OA
ATOM     82  O   UNL A   1      46.019  34.386  25.811  1.00  0.00    -0.744 OA
ENDBRANCH  75  79
ENDBRANCH  48  72
BRANCH  60  83
ATOM     83  C   UNL A   1      46.106  26.017  31.458  1.00  0.00     0.023 A 
ATOM     84  C   UNL A   1      47.160  25.767  32.369  1.00  0.00     0.031 A 
ATOM     85  C   UNL A   1      45.075  26.874  31.883  1.00  0.00     0.131 A 
ATOM     86  C   UNL A   1      47.141  26.350  33.653  1.00  0.00     0.055 A 
ATOM     87  C   UNL A   1      45.077  27.475  33.141  1.00  0.00     0.041 A 
ATOM     88  F   UNL A   1      44.046  27.157  31.066  1.00  0.00    -0.206 F 
ATOM     89  C   UNL A   1      46.108  27.211  34.035  1.00  0.00     0.022 A 
BRANCH  86  90
ATOM     90  S   UNL A   1      48.458  25.982  34.859  1.00  0.00     0.124 S 
ATOM     91  O   UNL A   1      48.047  24.704  35.428  1.00  0.00    -0.237 OA
ATOM     92  O   UNL A   1      49.655  25.956  34.024  1.00  0.00    -0.237 OA
ATOM     93  O   UNL A   1      48.394  27.112  35.790  1.00  0.00    -0.744 OA
ENDBRANCH  86  90
ENDBRANCH  60  83
ENDBRANCH  34  35
ENDBRANCH  27  29
ENDBRANCH  26  27
ENDBRANCH  25  26
ENDBRANCH   1  25
TORSDOF 17
ENDMDL
MODEL 2
REMARK VINA RESULT:     -13.0      1.336      1.818
REMARK SMILES Cc1ccc(C)c(NS(=O)(=O)c2cc(C(=O)OCCOC(=O)c3ccc(-c4c5nc(c(-c6cc(S(=O)(=O)[O-])ccc6F)c6ccc([nH]6)c(-c6cc(S(=O)(=O)[O-])ccc6F)c6nc(c(-c7cc(S(=O)(=O)[O-])ccc7F)c7ccc4[nH]7)C=C6)C=C5)cc3)ccc2Cl)c1
REMARK SMILES IDX 18 1 17 2 15 3 16 4 14 5 12 6 13 7 88 8 87 9 89 10 86 11
REMARK SMILES IDX 9 12 10 13 11 14 8 15 7 17 1 18 2 19 3 20 90 21 4 22 5 23
REMARK SMILES IDX 6 24 19 25 20 26 21 27 22 28 23 29 24 30 85 31 25 32 84 33
REMARK SMILES IDX 26 34 27 35 28 36 78 37 29 38 83 39 77 40 79 41 30 42 82 43
REMARK SMILES IDX 76 44 75 45 31 47 63 48 43 49 62 50 44 51 47 52 61 53 80 54
REMARK SMILES IDX 45 55 46 56 60 58 81 59 48 60 32 61 33 62 41 63 34 64 40 65
REMARK SMILES IDX 42 66 39 67 35 68 36 69 37 70 38 71 64 72 65 73 73 74 66 75
REMARK SMILES IDX 72 76 74 77 71 78 67 79 68 80 69 81 70 82 49 83 50 84 58 85
REMARK SMILES IDX 51 86 57 87 59 88 56 89 52 90 53 91 54 92 55 93
REMARK H PARENT 8 16 79 46 47 57
REMARK Flexibility Score: inf
ROOT
ATOM      1  C   UNL A   1      33.787  32.398  27.942  1.00  0.00     0.275 C 
ENDROOT
BRANCH   1   2
ATOM      2  O   UNL A   1      33.578  31.079  27.411  1.00  0.00    -0.458 OA
BRANCH   2   3
ATOM      3  C   UNL A   1      32.282  30.815  26.706  1.00  0.00     0.338 C 
ATOM      4  O   UNL A   1      31.641  31.836  27.090  1.00  0.00    -0.246 OA
BRANCH   3   5
ATOM      5  C   UNL A   1      31.841  29.180  25.376  1.00  0.00     0.061 A 
ATOM      6  C   UNL A   1      30.687  26.687  25.133  1.00  0.00     0.107 A 
ATOM      7  C   UNL A   1      31.691  27.638  25.652  1.00  0.00     0.039 A 
ATOM      8  C   UNL A   1      29.812  27.122  24.178  1.00  0.00     0.061 A 
ATOM      9  C   UNL A   1      30.202  28.265  23.508  1.00  0.00     0.023 A 
ATOM     10  Cl  UNL A   1      28.339  26.365  23.725  1.00  0.00    -0.083 Cl
ATOM     11  C   UNL A   1      31.235  29.144  23.997  1.00  0.00     0.017 A 
BRANCH   6  12
ATOM     12  S   UNL A   1      30.674  24.980  25.699  1.00  0.00     0.263 S 
ATOM     13  O   UNL A   1      30.469  24.175  24.508  1.00  0.00    -0.201 OA
ATOM     14  O   UNL A   1      29.722  24.894  26.786  1.00  0.00    -0.201 OA
BRANCH  12  15
ATOM     15  N   UNL A   1      32.156  24.431  26.296  1.00  0.00    -0.279 N 
ATOM     16  H   UNL A   1      32.457  24.908  27.102  1.00  0.00     0.180 HD
BRANCH  15  17
ATOM     17  C   UNL A   1      33.062  23.405  25.860  1.00  0.00     0.052 A 
ATOM     18  C   UNL A   1      32.922  19.549  25.644  1.00  0.00     0.044 C 
ATOM     19  C   UNL A   1      33.273  20.989  25.390  1.00  0.00    -0.049 A 
ATOM     20  C   UNL A   1      34.265  21.280  24.460  1.00  0.00     0.004 A 
ATOM     21  C   UNL A   1      32.625  22.065  26.027  1.00  0.00     0.030 A 
ATOM     22  C   UNL A   1      34.771  22.573  24.381  1.00  0.00     0.006 A 
ATOM     23  C   UNL A   1      34.268  23.607  25.191  1.00  0.00    -0.027 A 
ATOM     24  C   UNL A   1      35.136  24.815  25.349  1.00  0.00     0.046 C 
ENDBRANCH  15  17
ENDBRANCH  12  15
ENDBRANCH   6  12
ENDBRANCH   3   5
ENDBRANCH   2   3
ENDBRANCH   1   2
BRANCH   1  25
ATOM     25  C   UNL A   1      35.049  32.362  28.810  1.00  0.00     0.275 C 
BRANCH  25  26
ATOM     26  O   UNL A   1      35.233  31.136  29.571  1.00  0.00    -0.458 OA
BRANCH  26  27
ATOM     27  C   UNL A   1      36.440  30.900  30.157  1.00  0.00     0.338 C 
ATOM     28  O   UNL A   1      37.000  31.627  30.954  1.00  0.00    -0.246 OA
BRANCH  27  29
ATOM     29  C   UNL A   1      37.056  29.682  29.613  1.00  0.00     0.060 A 
ATOM     30  C   UNL A   1      37.802  28.491  30.782  1.00  0.00     0.016 A 
ATOM     31  C   UNL A   1      37.756  29.892  27.956  1.00  0.00     0.016 A 
ATOM     32  C   UNL A   1      39.303  27.537  30.267  1.00  0.00     0.010 A 
ATOM     33  C   UNL A   1      39.320  29.024  27.514  1.00  0.00     0.010 A 
ATOM     34  C   UNL A   1      40.120  27.905  28.688  1.00  0.00    -0.014 A 
BRANCH  34  35
ATOM     35  C   UNL A   1      41.630  27.754  28.448  1.00  0.00     0.031 A 
ATOM     36  C   UNL A   1      41.841  26.515  27.689  1.00  0.00     0.074 A 
ATOM     37  C   UNL A   1      42.749  28.561  28.552  1.00  0.00     0.049 A 
ATOM     38  N   UNL A   1      42.061  25.353  28.200  1.00  0.00    -0.248 NA
ATOM     39  C   UNL A   1      41.546  26.502  26.250  1.00  0.00     0.031 C 
ATOM     40  C   UNL A   1      42.858  29.958  28.997  1.00  0.00     0.029 A 
ATOM     41  N   UNL A   1      44.090  28.303  28.205  1.00  0.00    -0.354 N 
ATOM     42  C   UNL A   1      42.218  24.522  27.110  1.00  0.00     0.074 A 
ATOM     43  C   UNL A   1      41.575  25.190  26.009  1.00  0.00     0.031 C 
ATOM     44  C   UNL A   1      44.097  30.467  28.724  1.00  0.00     0.029 A 
ATOM     45  C   UNL A   1      44.970  29.423  28.196  1.00  0.00     0.049 A 
ATOM     46  H   UNL A   1      44.401  27.397  27.981  1.00  0.00     0.167 HD
ATOM     47  C   UNL A   1      43.142  23.526  27.113  1.00  0.00     0.034 A 
ATOM     48  C   UNL A   1      46.311  29.498  27.854  1.00  0.00     0.034 A 
ATOM     49  C   UNL A   1      43.756  23.376  28.417  1.00  0.00     0.049 A 
ATOM     50  C   UNL A   1      46.872  28.150  28.051  1.00  0.00     0.074 A 
ATOM     51  C   UNL A   1      43.300  23.154  29.702  1.00  0.00     0.029 A 
ATOM     52  N   UNL A   1      45.047  23.833  28.553  1.00  0.00    -0.354 N 
ATOM     53  N   UNL A   1      47.031  27.604  29.218  1.00  0.00    -0.248 NA
ATOM     54  C   UNL A   1      46.931  27.240  26.921  1.00  0.00     0.031 C 
ATOM     55  C   UNL A   1      44.173  23.898  30.551  1.00  0.00     0.029 A 
ATOM     56  C   UNL A   1      45.164  24.477  29.760  1.00  0.00     0.049 A 
ATOM     57  H   UNL A   1      45.768  23.719  27.892  1.00  0.00     0.167 HD
ATOM     58  C   UNL A   1      46.694  26.282  29.016  1.00  0.00     0.074 A 
ATOM     59  C   UNL A   1      46.793  26.084  27.574  1.00  0.00     0.031 C 
ATOM     60  C   UNL A   1      46.074  25.581  30.008  1.00  0.00     0.034 A 
BRANCH  47  61
ATOM     61  C   UNL A   1      43.766  22.940  25.873  1.00  0.00     0.023 A 
ATOM     62  C   UNL A   1      43.780  21.540  25.771  1.00  0.00     0.031 A 
ATOM     63  C   UNL A   1      44.539  23.642  24.919  1.00  0.00     0.131 A 
ATOM     64  C   UNL A   1      44.568  20.901  24.802  1.00  0.00     0.055 A 
ATOM     65  C   UNL A   1      45.252  23.003  23.903  1.00  0.00     0.041 A 
ATOM     66  F   UNL A   1      44.733  24.965  24.974  1.00  0.00    -0.206 F 
ATOM     67  C   UNL A   1      45.289  21.622  23.854  1.00  0.00     0.022 A 
BRANCH  64  68
ATOM     68  S   UNL A   1      44.755  19.105  24.906  1.00  0.00     0.124 S 
ATOM     69  O   UNL A   1      44.773  18.732  23.497  1.00  0.00    -0.237 OA
ATOM     70  O   UNL A   1      46.018  18.977  25.626  1.00  0.00    -0.237 OA
ATOM     71  O   UNL A   1      43.568  18.687  25.649  1.00  0.00    -0.744 OA
ENDBRANCH  64  68
ENDBRANCH  47  61
BRANCH  48  72
ATOM     72  C   UNL A   1      47.219  30.558  27.234  1.00  0.00     0.023 A 
ATOM     73  C   UNL A   1      46.790  31.840  26.743  1.00  0.00     0.031 A 
ATOM     74  C   UNL A   1      48.603  30.437  27.458  1.00  0.00     0.131 A 
ATOM     75  C   UNL A   1      47.724  32.902  26.518  1.00  0.00     0.055 A 
ATOM     76  C   UNL A   1      49.512  31.488  27.250  1.00  0.00     0.041 A 
ATOM     77  F   UNL A   1      49.107  29.315  27.993  1.00  0.00    -0.206 F 
ATOM     78  C   UNL A   1      49.079  32.724  26.790  1.00  0.00     0.022 A 
BRANCH  75  79
ATOM     79  S   UNL A   1      47.213  34.585  25.956  1.00  0.00     0.124 S 
ATOM     80  O   UNL A   1      46.154  34.299  24.996  1.00  0.00    -0.237 OA
ATOM     81  O   UNL A   1      46.810  35.230  27.201  1.00  0.00    -0.237 OA
ATOM     82  O   UNL A   1      48.434  35.137  25.361  1.00  0.00    -0.744 OA
ENDBRANCH  75  79
ENDBRANCH  48  72
BRANCH  60  83
ATOM     83  C   UNL A   1      46.181  26.119  31.426  1.00  0.00     0.023 A 
ATOM     84  C   UNL A   1      45.137  26.735  32.158  1.00  0.00     0.031 A 
ATOM     85  C   UNL A   1      47.411  25.941  32.085  1.00  0.00     0.131 A 
ATOM     86  C   UNL A   1      45.354  27.161  33.483  1.00  0.00     0.055 A 
ATOM     87  C   UNL A   1      47.612  26.334  33.407  1.00  0.00     0.041 A 
ATOM     88  F   UNL A   1      48.443  25.359  31.451  1.00  0.00    -0.206 F 
ATOM     89  C   UNL A   1      46.586  26.952  34.111  1.00  0.00     0.022 A 
BRANCH  86  90
ATOM     90  S   UNL A   1      44.039  28.017  34.412  1.00  0.00     0.124 S 
ATOM     91  O   UNL A   1      44.513  27.972  35.789  1.00  0.00    -0.237 OA
ATOM     92  O   UNL A   1      44.015  29.335  33.785  1.00  0.00    -0.237 OA
ATOM     93  O   UNL A   1      42.850  27.201  34.150  1.00  0.00    -0.744 OA
ENDBRANCH  86  90
ENDBRANCH  60  83
ENDBRANCH  34  35
ENDBRANCH  27  29
ENDBRANCH  26  27
ENDBRANCH  25  26
ENDBRANCH   1  25
TORSDOF 17
ENDMDL
MODEL 3
REMARK VINA RESULT:     -12.8      3.839      9.543
REMARK SMILES Cc1ccc(C)c(NS(=O)(=O)c2cc(C(=O)OCCOC(=O)c3ccc(-c4c5nc(c(-c6cc(S(=O)(=O)[O-])ccc6F)c6ccc([nH]6)c(-c6cc(S(=O)(=O)[O-])ccc6F)c6nc(c(-c7cc(S(=O)(=O)[O-])ccc7F)c7ccc4[nH]7)C=C6)C=C5)cc3)ccc2Cl)c1
REMARK SMILES IDX 18 1 17 2 15 3 16 4 14 5 12 6 13 7 88 8 87 9 89 10 86 11
REMARK SMILES IDX 9 12 10 13 11 14 8 15 7 17 1 18 2 19 3 20 90 21 4 22 5 23
REMARK SMILES IDX 6 24 19 25 20 26 21 27 22 28 23 29 24 30 85 31 25 32 84 33
REMARK SMILES IDX 26 34 27 35 28 36 78 37 29 38 83 39 77 40 79 41 30 42 82 43
REMARK SMILES IDX 76 44 75 45 31 47 63 48 43 49 62 50 44 51 47 52 61 53 80 54
REMARK SMILES IDX 45 55 46 56 60 58 81 59 48 60 32 61 33 62 41 63 34 64 40 65
REMARK SMILES IDX 42 66 39 67 35 68 36 69 37 70 38 71 64 72 65 73 73 74 66 75
REMARK SMILES IDX 72 76 74 77 71 78 67 79 68 80 69 81 70 82 49 83 50 84 58 85
REMARK SMILES IDX 51 86 57 87 59 88 56 89 52 90 53 91 54 92 55 93
REMARK H PARENT 8 16 79 46 47 57
REMARK Flexibility Score: inf
ROOT
ATOM      1  C   UNL A   1      37.760  22.539  25.782  1.00  0.00     0.275 C 
ENDROOT
BRANCH   1   2
ATOM      2  O   UNL A   1      37.300  22.402  24.428  1.00  0.00    -0.458 OA
BRANCH   2   3
ATOM      3  C   UNL A   1      36.150  23.260  23.997  1.00  0.00     0.338 C 
ATOM      4  O   UNL A   1      36.241  23.093  22.746  1.00  0.00    -0.246 OA
BRANCH   3   5
ATOM      5  C   UNL A   1      34.773  24.317  25.271  1.00  0.00     0.061 A 
ATOM      6  C   UNL A   1      32.715  26.150  25.379  1.00  0.00     0.107 A 
ATOM      7  C   UNL A   1      34.109  25.735  25.119  1.00  0.00     0.039 A 
ATOM      8  C   UNL A   1      31.864  25.247  25.949  1.00  0.00     0.061 A 
ATOM      9  C   UNL A   1      32.480  24.189  26.589  1.00  0.00     0.023 A 
ATOM     10  Cl  UNL A   1      30.149  25.338  25.975  1.00  0.00    -0.083 Cl
ATOM     11  C   UNL A   1      33.864  23.844  26.375  1.00  0.00     0.017 A 
BRANCH   6  12
ATOM     12  S   UNL A   1      32.184  27.830  25.016  1.00  0.00     0.263 S 
ATOM     13  O   UNL A   1      33.356  28.505  24.491  1.00  0.00    -0.201 OA
ATOM     14  O   UNL A   1      31.543  28.345  26.207  1.00  0.00    -0.201 OA
BRANCH  12  15
ATOM     15  N   UNL A   1      31.061  27.950  23.760  1.00  0.00    -0.279 N 
ATOM     16  H   UNL A   1      31.311  27.439  22.957  1.00  0.00     0.180 HD
BRANCH  15  17
ATOM     17  C   UNL A   1      29.813  28.651  23.633  1.00  0.00     0.052 A 
ATOM     18  C   UNL A   1      28.782  32.366  23.370  1.00  0.00     0.044 C 
ATOM     19  C   UNL A   1      28.793  30.868  23.246  1.00  0.00    -0.049 A 
ATOM     20  C   UNL A   1      27.690  30.236  22.684  1.00  0.00     0.004 A 
ATOM     21  C   UNL A   1      29.882  30.069  23.647  1.00  0.00     0.030 A 
ATOM     22  C   UNL A   1      27.572  28.854  22.775  1.00  0.00     0.006 A 
ATOM     23  C   UNL A   1      28.570  28.072  23.385  1.00  0.00    -0.027 A 
ATOM     24  C   UNL A   1      28.172  26.697  23.816  1.00  0.00     0.046 C 
ENDBRANCH  15  17
ENDBRANCH  12  15
ENDBRANCH   6  12
ENDBRANCH   3   5
ENDBRANCH   2   3
ENDBRANCH   1   2
BRANCH   1  25
ATOM     25  C   UNL A   1      39.078  21.770  25.913  1.00  0.00     0.275 C 
BRANCH  25  26
ATOM     26  O   UNL A   1      40.108  22.449  26.685  1.00  0.00    -0.458 OA
BRANCH  26  27
ATOM     27  C   UNL A   1      41.415  22.178  26.418  1.00  0.00     0.338 C 
ATOM     28  O   UNL A   1      41.859  21.115  26.029  1.00  0.00    -0.246 OA
BRANCH  27  29
ATOM     29  C   UNL A   1      42.269  23.322  26.771  1.00  0.00     0.060 A 
ATOM     30  C   UNL A   1      42.764  23.529  28.518  1.00  0.00     0.016 A 
ATOM     31  C   UNL A   1      42.020  24.774  25.717  1.00  0.00     0.016 A 
ATOM     32  C   UNL A   1      42.966  25.236  29.205  1.00  0.00     0.010 A 
ATOM     33  C   UNL A   1      42.105  26.459  26.457  1.00  0.00     0.010 A 
ATOM     34  C   UNL A   1      42.513  26.682  28.205  1.00  0.00    -0.014 A 
BRANCH  34  35
ATOM     35  C   UNL A   1      41.970  27.994  28.791  1.00  0.00     0.031 A 
ATOM     36  C   UNL A   1      42.806  29.091  28.283  1.00  0.00     0.074 A 
ATOM     37  C   UNL A   1      40.821  28.403  29.442  1.00  0.00     0.049 A 
ATOM     38  N   UNL A   1      43.857  29.560  28.862  1.00  0.00    -0.248 NA
ATOM     39  C   UNL A   1      42.613  29.552  26.902  1.00  0.00     0.031 C 
ATOM     40  C   UNL A   1      39.643  27.621  29.845  1.00  0.00     0.029 A 
ATOM     41  N   UNL A   1      40.418  29.690  29.851  1.00  0.00    -0.354 N 
ATOM     42  C   UNL A   1      44.279  30.579  28.034  1.00  0.00     0.074 A 
ATOM     43  C   UNL A   1      43.704  30.302  26.744  1.00  0.00     0.031 C 
ATOM     44  C   UNL A   1      38.622  28.437  30.245  1.00  0.00     0.029 A 
ATOM     45  C   UNL A   1      39.066  29.827  30.276  1.00  0.00     0.049 A 
ATOM     46  H   UNL A   1      41.039  30.453  29.844  1.00  0.00     0.167 HD
ATOM     47  C   UNL A   1      44.779  31.736  28.542  1.00  0.00     0.034 A 
ATOM     48  C   UNL A   1      38.369  30.955  30.681  1.00  0.00     0.034 A 
ATOM     49  C   UNL A   1      44.954  31.652  29.978  1.00  0.00     0.049 A 
ATOM     50  C   UNL A   1      39.373  31.915  31.174  1.00  0.00     0.074 A 
ATOM     51  C   UNL A   1      45.628  30.811  30.842  1.00  0.00     0.029 A 
ATOM     52  N   UNL A   1      44.049  32.339  30.755  1.00  0.00    -0.354 N 
ATOM     53  N   UNL A   1      40.054  31.741  32.265  1.00  0.00    -0.248 NA
ATOM     54  C   UNL A   1      39.896  32.916  30.262  1.00  0.00     0.031 C 
ATOM     55  C   UNL A   1      44.804  30.717  32.003  1.00  0.00     0.029 A 
ATOM     56  C   UNL A   1      43.706  31.557  31.831  1.00  0.00     0.049 A 
ATOM     57  H   UNL A   1      43.704  33.242  30.571  1.00  0.00     0.167 HD
ATOM     58  C   UNL A   1      41.314  32.204  31.950  1.00  0.00     0.074 A 
ATOM     59  C   UNL A   1      41.122  33.049  30.776  1.00  0.00     0.031 C 
ATOM     60  C   UNL A   1      42.412  31.603  32.490  1.00  0.00     0.034 A 
BRANCH  47  61
ATOM     61  C   UNL A   1      44.758  33.060  27.824  1.00  0.00     0.023 A 
ATOM     62  C   UNL A   1      43.863  34.028  28.305  1.00  0.00     0.031 A 
ATOM     63  C   UNL A   1      45.374  33.344  26.583  1.00  0.00     0.131 A 
ATOM     64  C   UNL A   1      43.576  35.176  27.551  1.00  0.00     0.055 A 
ATOM     65  C   UNL A   1      45.151  34.528  25.879  1.00  0.00     0.041 A 
ATOM     66  F   UNL A   1      46.141  32.459  25.935  1.00  0.00    -0.206 F 
ATOM     67  C   UNL A   1      44.228  35.443  26.349  1.00  0.00     0.022 A 
BRANCH  64  68
ATOM     68  S   UNL A   1      42.216  36.235  28.096  1.00  0.00     0.124 S 
ATOM     69  O   UNL A   1      41.123  35.275  28.201  1.00  0.00    -0.237 OA
ATOM     70  O   UNL A   1      42.734  36.764  29.354  1.00  0.00    -0.237 OA
ATOM     71  O   UNL A   1      42.093  37.208  27.013  1.00  0.00    -0.744 OA
ENDBRANCH  64  68
ENDBRANCH  47  61
BRANCH  48  72
ATOM     72  C   UNL A   1      36.920  31.429  30.599  1.00  0.00     0.023 A 
ATOM     73  C   UNL A   1      36.240  32.212  31.597  1.00  0.00     0.031 A 
ATOM     74  C   UNL A   1      36.300  31.402  29.337  1.00  0.00     0.131 A 
ATOM     75  C   UNL A   1      35.029  32.913  31.296  1.00  0.00     0.055 A 
ATOM     76  C   UNL A   1      35.119  32.106  29.044  1.00  0.00     0.041 A 
ATOM     77  F   UNL A   1      36.885  30.772  28.308  1.00  0.00    -0.206 F 
ATOM     78  C   UNL A   1      34.485  32.869  30.014  1.00  0.00     0.022 A 
BRANCH  75  79
ATOM     79  S   UNL A   1      34.160  33.987  32.522  1.00  0.00     0.124 S 
ATOM     80  O   UNL A   1      33.409  34.904  31.673  1.00  0.00    -0.237 OA
ATOM     81  O   UNL A   1      33.382  33.026  33.295  1.00  0.00    -0.237 OA
ATOM     82  O   UNL A   1      35.254  34.615  33.269  1.00  0.00    -0.744 OA
ENDBRANCH  75  79
ENDBRANCH  48  72
BRANCH  60  83
ATOM     83  C   UNL A   1      42.215  30.764  33.743  1.00  0.00     0.023 A 
ATOM     84  C   UNL A   1      42.194  29.350  33.795  1.00  0.00     0.031 A 
ATOM     85  C   UNL A   1      42.094  31.456  34.961  1.00  0.00     0.131 A 
ATOM     86  C   UNL A   1      42.037  28.687  35.029  1.00  0.00     0.055 A 
ATOM     87  C   UNL A   1      41.971  30.797  36.183  1.00  0.00     0.041 A 
ATOM     88  F   UNL A   1      42.110  32.800  34.984  1.00  0.00    -0.206 F 
ATOM     89  C   UNL A   1      41.936  29.409  36.222  1.00  0.00     0.022 A 
BRANCH  86  90
ATOM     90  S   UNL A   1      41.940  26.868  35.102  1.00  0.00     0.124 S 
ATOM     91  O   UNL A   1      42.053  26.580  36.527  1.00  0.00    -0.237 OA
ATOM     92  O   UNL A   1      40.641  26.595  34.494  1.00  0.00    -0.237 OA
ATOM     93  O   UNL A   1      43.086  26.433  34.300  1.00  0.00    -0.744 OA
ENDBRANCH  86  90
ENDBRANCH  60  83
ENDBRANCH  34  35
ENDBRANCH  27  29
ENDBRANCH  26  27
ENDBRANCH  25  26
ENDBRANCH   1  25
TORSDOF 17
ENDMDL
