MODEL 1
REMARK VINA RESULT:     -10.5      0.000      0.000
REMARK SMILES COc1ccc(CCC(=O)N(C)C[C@H](C)C(=O)OCCOC(=O)c2ccc(-c3c4nc(c(-c5cc(S(=O)(=O)[O-])ccc5F)c5ccc([nH]5)c(-c5cc(S(=O)(=O)[O-])ccc5F)c5nc(c(-c6cc(S(=O)(=O)[O-])ccc6F)c6ccc3[nH]6)C=C5)C=C4)cc2)cc1F
REMARK SMILES IDX 16 1 17 2 14 3 15 4 13 5 11 6 12 7 9 8 10 9 8 10 7 11 6 12
REMARK SMILES IDX 3 13 4 14 88 15 5 16 87 17 89 18 2 19 1 20 18 21 19 22 20 23
REMARK SMILES IDX 21 24 22 25 23 26 24 27 25 28 86 29 26 30 85 31 27 32 28 33
REMARK SMILES IDX 29 34 79 35 30 36 84 37 78 38 80 39 31 40 83 41 77 42 76 43
REMARK SMILES IDX 32 45 64 46 44 47 63 48 45 49 48 50 62 51 81 52 46 53 47 54
REMARK SMILES IDX 61 56 82 57 49 58 33 59 34 60 42 61 35 62 41 63 43 64 40 65
REMARK SMILES IDX 36 66 37 67 38 68 39 69 65 70 66 71 74 72 67 73 73 74 75 75
REMARK SMILES IDX 72 76 68 77 69 78 70 79 71 80 50 81 51 82 59 83 52 84 58 85
REMARK SMILES IDX 60 86 57 87 53 88 54 89 55 90 56 91
REMARK H PARENT 80 44 48 55
REMARK Flexibility Score: inf
ROOT
ATOM      1  C   UNL A   1      32.622  28.350  24.781  1.00  0.00     0.310 C 
ATOM      2  O   UNL A   1      32.738  29.162  23.868  1.00  0.00    -0.252 OA
ENDROOT
BRANCH   1   3
ATOM      3  C   UNL A   1      33.626  27.242  25.009  1.00  0.00     0.115 C 
ATOM      4  C   UNL A   1      34.447  27.382  26.289  1.00  0.00     0.022 C 
BRANCH   3   5
ATOM      5  C   UNL A   1      33.079  25.823  24.765  1.00  0.00     0.134 C 
BRANCH   5   6
ATOM      6  N   UNL A   1      32.470  25.446  23.481  1.00  0.00    -0.345 N 
ATOM      7  C   UNL A   1      33.234  25.874  22.311  1.00  0.00     0.146 C 
BRANCH   6   8
ATOM      8  C   UNL A   1      31.493  24.463  23.416  1.00  0.00     0.222 C 
ATOM      9  O   UNL A   1      31.768  23.267  23.516  1.00  0.00    -0.275 OA
BRANCH   8  10
ATOM     10  C   UNL A   1      30.029  24.859  23.233  1.00  0.00     0.105 C 
BRANCH  10  11
ATOM     11  C   UNL A   1      29.560  25.986  24.166  1.00  0.00     0.045 C 
BRANCH  11  12
ATOM     12  C   UNL A   1      29.009  27.195  23.448  1.00  0.00    -0.044 A 
ATOM     13  C   UNL A   1      28.008  29.633  22.468  1.00  0.00     0.154 A 
ATOM     14  C   UNL A   1      27.172  28.773  23.164  1.00  0.00     0.050 A 
ATOM     15  C   UNL A   1      29.324  29.248  22.204  1.00  0.00     0.165 A 
ATOM     16  C   UNL A   1      27.668  27.553  23.620  1.00  0.00     0.008 A 
ATOM     17  C   UNL A   1      29.828  28.038  22.689  1.00  0.00     0.047 A 
ATOM     18  F   UNL A   1      30.150  30.064  21.534  1.00  0.00    -0.203 F 
BRANCH  13  19
ATOM     19  O   UNL A   1      27.535  30.889  22.212  1.00  0.00    -0.494 OA
ATOM     20  C   UNL A   1      28.037  31.849  23.133  1.00  0.00     0.278 C 
ENDBRANCH  13  19
ENDBRANCH  11  12
ENDBRANCH  10  11
ENDBRANCH   8  10
ENDBRANCH   6   8
ENDBRANCH   5   6
ENDBRANCH   3   5
ENDBRANCH   1   3
BRANCH   1  21
ATOM     21  O   UNL A   1      31.591  28.335  25.664  1.00  0.00    -0.462 OA
BRANCH  21  22
ATOM     22  C   UNL A   1      31.768  29.001  26.929  1.00  0.00     0.274 C 
BRANCH  22  23
ATOM     23  C   UNL A   1      31.787  30.520  26.780  1.00  0.00     0.275 C 
BRANCH  23  24
ATOM     24  O   UNL A   1      33.116  30.990  26.512  1.00  0.00    -0.458 OA
BRANCH  24  25
ATOM     25  C   UNL A   1      33.549  31.966  27.342  1.00  0.00     0.338 C 
ATOM     26  O   UNL A   1      32.940  32.967  27.688  1.00  0.00    -0.246 OA
BRANCH  25  27
ATOM     27  C   UNL A   1      34.847  31.576  27.899  1.00  0.00     0.060 A 
ATOM     28  C   UNL A   1      35.009  30.263  28.356  1.00  0.00     0.016 A 
ATOM     29  C   UNL A   1      35.877  32.510  28.017  1.00  0.00     0.016 A 
ATOM     30  C   UNL A   1      36.206  29.877  28.947  1.00  0.00     0.010 A 
ATOM     31  C   UNL A   1      37.072  32.126  28.623  1.00  0.00     0.010 A 
ATOM     32  C   UNL A   1      37.231  30.815  29.103  1.00  0.00    -0.014 A 
BRANCH  32  33
ATOM     33  C   UNL A   1      38.441  30.469  29.876  1.00  0.00     0.031 A 
ATOM     34  C   UNL A   1      39.436  29.529  29.263  1.00  0.00     0.074 A 
ATOM     35  C   UNL A   1      38.635  30.993  31.099  1.00  0.00     0.049 A 
ATOM     36  N   UNL A   1      40.463  28.941  29.815  1.00  0.00    -0.248 NA
ATOM     37  C   UNL A   1      39.244  29.204  27.839  1.00  0.00     0.031 C 
ATOM     38  C   UNL A   1      37.769  31.982  31.740  1.00  0.00     0.029 A 
ATOM     39  N   UNL A   1      39.619  30.756  32.023  1.00  0.00    -0.354 N 
ATOM     40  C   UNL A   1      41.034  28.167  28.812  1.00  0.00     0.074 A 
ATOM     41  C   UNL A   1      40.233  28.347  27.622  1.00  0.00     0.031 C 
ATOM     42  C   UNL A   1      38.259  32.264  32.960  1.00  0.00     0.029 A 
ATOM     43  C   UNL A   1      39.434  31.432  33.206  1.00  0.00     0.049 A 
ATOM     44  H   UNL A   1      40.384  30.161  31.856  1.00  0.00     0.167 HD
ATOM     45  C   UNL A   1      42.129  27.377  28.889  1.00  0.00     0.034 A 
ATOM     46  C   UNL A   1      40.116  31.351  34.364  1.00  0.00     0.034 A 
ATOM     47  C   UNL A   1      42.908  27.214  30.088  1.00  0.00     0.049 A 
ATOM     48  C   UNL A   1      41.272  30.387  34.453  1.00  0.00     0.074 A 
ATOM     49  C   UNL A   1      44.017  26.414  30.294  1.00  0.00     0.029 A 
ATOM     50  N   UNL A   1      42.663  27.875  31.284  1.00  0.00    -0.354 N 
ATOM     51  N   UNL A   1      41.755  29.591  33.526  1.00  0.00    -0.248 NA
ATOM     52  C   UNL A   1      41.967  30.299  35.743  1.00  0.00     0.031 C 
ATOM     53  C   UNL A   1      44.415  26.556  31.627  1.00  0.00     0.029 A 
ATOM     54  C   UNL A   1      43.590  27.491  32.235  1.00  0.00     0.049 A 
ATOM     55  H   UNL A   1      41.935  28.521  31.433  1.00  0.00     0.167 HD
ATOM     56  C   UNL A   1      42.825  28.927  34.115  1.00  0.00     0.074 A 
ATOM     57  C   UNL A   1      42.921  29.416  35.476  1.00  0.00     0.031 C 
ATOM     58  C   UNL A   1      43.658  27.998  33.583  1.00  0.00     0.034 A 
BRANCH  45  59
ATOM     59  C   UNL A   1      42.522  26.599  27.663  1.00  0.00     0.023 A 
ATOM     60  C   UNL A   1      42.208  25.237  27.525  1.00  0.00     0.031 A 
ATOM     61  C   UNL A   1      43.193  27.239  26.608  1.00  0.00     0.131 A 
ATOM     62  C   UNL A   1      42.587  24.551  26.362  1.00  0.00     0.055 A 
ATOM     63  C   UNL A   1      43.520  26.564  25.431  1.00  0.00     0.041 A 
ATOM     64  F   UNL A   1      43.535  28.534  26.701  1.00  0.00    -0.206 F 
ATOM     65  C   UNL A   1      43.219  25.211  25.305  1.00  0.00     0.022 A 
BRANCH  62  66
ATOM     66  S   UNL A   1      42.280  22.767  26.259  1.00  0.00     0.124 S 
ATOM     67  O   UNL A   1      42.598  22.494  24.860  1.00  0.00    -0.237 OA
ATOM     68  O   UNL A   1      43.209  22.225  27.243  1.00  0.00    -0.237 OA
ATOM     69  O   UNL A   1      40.866  22.642  26.608  1.00  0.00    -0.744 OA
ENDBRANCH  62  66
ENDBRANCH  45  59
BRANCH  46  70
ATOM     70  C   UNL A   1      39.700  32.157  35.545  1.00  0.00     0.023 A 
ATOM     71  C   UNL A   1      38.843  31.619  36.518  1.00  0.00     0.031 A 
ATOM     72  C   UNL A   1      40.123  33.489  35.702  1.00  0.00     0.131 A 
ATOM     73  C   UNL A   1      38.412  32.419  37.589  1.00  0.00     0.055 A 
ATOM     74  C   UNL A   1      39.728  34.265  36.791  1.00  0.00     0.041 A 
ATOM     75  F   UNL A   1      40.943  34.051  34.800  1.00  0.00    -0.206 F 
ATOM     76  C   UNL A   1      38.859  33.733  37.739  1.00  0.00     0.022 A 
BRANCH  73  77
ATOM     77  S   UNL A   1      37.208  31.730  38.758  1.00  0.00     0.124 S 
ATOM     78  O   UNL A   1      36.982  30.400  38.202  1.00  0.00    -0.237 OA
ATOM     79  O   UNL A   1      37.942  31.784  40.017  1.00  0.00    -0.237 OA
ATOM     80  O   UNL A   1      36.076  32.649  38.660  1.00  0.00    -0.744 OA
ENDBRANCH  73  77
ENDBRANCH  46  70
BRANCH  58  81
ATOM     81  C   UNL A   1      44.768  27.488  34.459  1.00  0.00     0.023 A 
ATOM     82  C   UNL A   1      44.606  26.343  35.256  1.00  0.00     0.031 A 
ATOM     83  C   UNL A   1      46.017  28.134  34.459  1.00  0.00     0.131 A 
ATOM     84  C   UNL A   1      45.672  25.895  36.048  1.00  0.00     0.055 A 
ATOM     85  C   UNL A   1      47.086  27.656  35.212  1.00  0.00     0.041 A 
ATOM     86  F   UNL A   1      46.217  29.228  33.707  1.00  0.00    -0.206 F 
ATOM     87  C   UNL A   1      46.915  26.533  36.018  1.00  0.00     0.022 A 
BRANCH  84  88
ATOM     88  S   UNL A   1      45.405  24.478  37.146  1.00  0.00     0.124 S 
ATOM     89  O   UNL A   1      45.192  23.393  36.192  1.00  0.00    -0.237 OA
ATOM     90  O   UNL A   1      46.651  24.424  37.903  1.00  0.00    -0.237 OA
ATOM     91  O   UNL A   1      44.227  24.861  37.921  1.00  0.00    -0.744 OA
ENDBRANCH  84  88
ENDBRANCH  58  81
ENDBRANCH  32  33
ENDBRANCH  25  27
ENDBRANCH  24  25
ENDBRANCH  23  24
ENDBRANCH  22  23
ENDBRANCH  21  22
ENDBRANCH   1  21
TORSDOF 21
ENDMDL
MODEL 2
REMARK VINA RESULT:      -9.6      1.884      2.140
REMARK SMILES COc1ccc(CCC(=O)N(C)C[C@H](C)C(=O)OCCOC(=O)c2ccc(-c3c4nc(c(-c5cc(S(=O)(=O)[O-])ccc5F)c5ccc([nH]5)c(-c5cc(S(=O)(=O)[O-])ccc5F)c5nc(c(-c6cc(S(=O)(=O)[O-])ccc6F)c6ccc3[nH]6)C=C5)C=C4)cc2)cc1F
REMARK SMILES IDX 16 1 17 2 14 3 15 4 13 5 11 6 12 7 9 8 10 9 8 10 7 11 6 12
REMARK SMILES IDX 3 13 4 14 88 15 5 16 87 17 89 18 2 19 1 20 18 21 19 22 20 23
REMARK SMILES IDX 21 24 22 25 23 26 24 27 25 28 86 29 26 30 85 31 27 32 28 33
REMARK SMILES IDX 29 34 79 35 30 36 84 37 78 38 80 39 31 40 83 41 77 42 76 43
REMARK SMILES IDX 32 45 64 46 44 47 63 48 45 49 48 50 62 51 81 52 46 53 47 54
REMARK SMILES IDX 61 56 82 57 49 58 33 59 34 60 42 61 35 62 41 63 43 64 40 65
REMARK SMILES IDX 36 66 37 67 38 68 39 69 65 70 66 71 74 72 67 73 73 74 75 75
REMARK SMILES IDX 72 76 68 77 69 78 70 79 71 80 50 81 51 82 59 83 52 84 58 85
REMARK SMILES IDX 60 86 57 87 53 88 54 89 55 90 56 91
REMARK H PARENT 80 44 48 55
REMARK Flexibility Score: inf
ROOT
ATOM      1  C   UNL A   1      32.572  28.163  24.817  1.00  0.00     0.310 C 
ATOM      2  O   UNL A   1      32.731  29.012  23.946  1.00  0.00    -0.252 OA
ENDROOT
BRANCH   1   3
ATOM      3  C   UNL A   1      33.473  26.954  24.940  1.00  0.00     0.115 C 
ATOM      4  C   UNL A   1      34.430  26.993  26.130  1.00  0.00     0.022 C 
BRANCH   3   5
ATOM      5  C   UNL A   1      32.759  25.602  24.752  1.00  0.00     0.134 C 
BRANCH   5   6
ATOM      6  N   UNL A   1      32.041  25.280  23.510  1.00  0.00    -0.345 N 
ATOM      7  C   UNL A   1      32.835  25.466  22.298  1.00  0.00     0.146 C 
BRANCH   6   8
ATOM      8  C   UNL A   1      30.881  24.519  23.534  1.00  0.00     0.222 C 
ATOM      9  O   UNL A   1      30.887  23.336  23.877  1.00  0.00    -0.275 OA
BRANCH   8  10
ATOM     10  C   UNL A   1      29.548  25.154  23.143  1.00  0.00     0.105 C 
BRANCH  10  11
ATOM     11  C   UNL A   1      29.119  26.321  24.044  1.00  0.00     0.045 C 
BRANCH  11  12
ATOM     12  C   UNL A   1      28.823  27.602  23.301  1.00  0.00    -0.044 A 
ATOM     13  C   UNL A   1      28.318  30.170  22.272  1.00  0.00     0.154 A 
ATOM     14  C   UNL A   1      27.315  29.485  22.942  1.00  0.00     0.050 A 
ATOM     15  C   UNL A   1      29.550  29.548  22.058  1.00  0.00     0.165 A 
ATOM     16  C   UNL A   1      27.565  28.200  23.422  1.00  0.00     0.008 A 
ATOM     17  C   UNL A   1      29.807  28.273  22.568  1.00  0.00     0.047 A 
ATOM     18  F   UNL A   1      30.534  30.191  21.414  1.00  0.00    -0.203 F 
BRANCH  13  19
ATOM     19  O   UNL A   1      28.092  31.488  21.992  1.00  0.00    -0.494 OA
ATOM     20  C   UNL A   1      27.978  31.727  20.594  1.00  0.00     0.278 C 
ENDBRANCH  13  19
ENDBRANCH  11  12
ENDBRANCH  10  11
ENDBRANCH   8  10
ENDBRANCH   6   8
ENDBRANCH   5   6
ENDBRANCH   3   5
ENDBRANCH   1   3
BRANCH   1  21
ATOM     21  O   UNL A   1      31.579  28.192  25.742  1.00  0.00    -0.462 OA
BRANCH  21  22
ATOM     22  C   UNL A   1      31.776  28.986  26.928  1.00  0.00     0.274 C 
BRANCH  22  23
ATOM     23  C   UNL A   1      31.950  30.467  26.604  1.00  0.00     0.275 C 
BRANCH  23  24
ATOM     24  O   UNL A   1      33.340  30.812  26.524  1.00  0.00    -0.458 OA
BRANCH  24  25
ATOM     25  C   UNL A   1      33.731  31.787  27.375  1.00  0.00     0.338 C 
ATOM     26  O   UNL A   1      33.102  32.782  27.700  1.00  0.00    -0.246 OA
BRANCH  25  27
ATOM     27  C   UNL A   1      35.008  31.403  27.984  1.00  0.00     0.060 A 
ATOM     28  C   UNL A   1      35.146  30.099  28.474  1.00  0.00     0.016 A 
ATOM     29  C   UNL A   1      36.039  32.334  28.117  1.00  0.00     0.016 A 
ATOM     30  C   UNL A   1      36.321  29.720  29.113  1.00  0.00     0.010 A 
ATOM     31  C   UNL A   1      37.210  31.957  28.771  1.00  0.00     0.010 A 
ATOM     32  C   UNL A   1      37.346  30.656  29.284  1.00  0.00    -0.014 A 
BRANCH  32  33
ATOM     33  C   UNL A   1      38.526  30.321  30.105  1.00  0.00     0.031 A 
ATOM     34  C   UNL A   1      39.535  29.361  29.547  1.00  0.00     0.074 A 
ATOM     35  C   UNL A   1      38.682  30.871  31.321  1.00  0.00     0.049 A 
ATOM     36  N   UNL A   1      40.539  28.780  30.146  1.00  0.00    -0.248 NA
ATOM     37  C   UNL A   1      39.389  29.005  28.125  1.00  0.00     0.031 C 
ATOM     38  C   UNL A   1      37.802  31.880  31.911  1.00  0.00     0.029 A 
ATOM     39  N   UNL A   1      39.633  30.650  32.283  1.00  0.00    -0.354 N 
ATOM     40  C   UNL A   1      41.138  27.980  29.181  1.00  0.00     0.074 A 
ATOM     41  C   UNL A   1      40.379  28.138  27.960  1.00  0.00     0.031 C 
ATOM     42  C   UNL A   1      38.253  32.187  33.140  1.00  0.00     0.029 A 
ATOM     43  C   UNL A   1      39.413  31.354  33.444  1.00  0.00     0.049 A 
ATOM     44  H   UNL A   1      40.400  30.047  32.155  1.00  0.00     0.167 HD
ATOM     45  C   UNL A   1      42.225  27.186  29.312  1.00  0.00     0.034 A 
ATOM     46  C   UNL A   1      40.056  31.295  34.626  1.00  0.00     0.034 A 
ATOM     47  C   UNL A   1      42.963  27.046  30.540  1.00  0.00     0.049 A 
ATOM     48  C   UNL A   1      41.202  30.327  34.775  1.00  0.00     0.074 A 
ATOM     49  C   UNL A   1      44.059  26.245  30.801  1.00  0.00     0.029 A 
ATOM     50  N   UNL A   1      42.682  27.735  31.712  1.00  0.00    -0.354 N 
ATOM     51  N   UNL A   1      41.711  29.507  33.883  1.00  0.00    -0.248 NA
ATOM     52  C   UNL A   1      41.853  30.264  36.090  1.00  0.00     0.031 C 
ATOM     53  C   UNL A   1      44.413  26.415  32.143  1.00  0.00     0.029 A 
ATOM     54  C   UNL A   1      43.575  27.368  32.702  1.00  0.00     0.049 A 
ATOM     55  H   UNL A   1      41.953  28.388  31.821  1.00  0.00     0.167 HD
ATOM     56  C   UNL A   1      42.756  28.850  34.523  1.00  0.00     0.074 A 
ATOM     57  C   UNL A   1      42.809  29.370  35.875  1.00  0.00     0.031 C 
ATOM     58  C   UNL A   1      43.600  27.905  34.040  1.00  0.00     0.034 A 
BRANCH  45  59
ATOM     59  C   UNL A   1      42.654  26.379  28.118  1.00  0.00     0.023 A 
ATOM     60  C   UNL A   1      42.354  25.011  28.010  1.00  0.00     0.031 A 
ATOM     61  C   UNL A   1      43.346  26.995  27.062  1.00  0.00     0.131 A 
ATOM     62  C   UNL A   1      42.766  24.296  26.876  1.00  0.00     0.055 A 
ATOM     63  C   UNL A   1      43.707  26.291  25.913  1.00  0.00     0.041 A 
ATOM     64  F   UNL A   1      43.676  28.295  27.128  1.00  0.00    -0.206 F 
ATOM     65  C   UNL A   1      43.419  24.932  25.817  1.00  0.00     0.022 A 
BRANCH  62  66
ATOM     66  S   UNL A   1      42.476  22.508  26.814  1.00  0.00     0.124 S 
ATOM     67  O   UNL A   1      43.768  22.016  26.346  1.00  0.00    -0.237 OA
ATOM     68  O   UNL A   1      42.135  22.191  28.197  1.00  0.00    -0.237 OA
ATOM     69  O   UNL A   1      41.378  22.372  25.859  1.00  0.00    -0.744 OA
ENDBRANCH  62  66
ENDBRANCH  45  59
BRANCH  46  70
ATOM     70  C   UNL A   1      39.606  32.130  35.774  1.00  0.00     0.023 A 
ATOM     71  C   UNL A   1      40.222  33.358  36.058  1.00  0.00     0.031 A 
ATOM     72  C   UNL A   1      38.574  31.696  36.627  1.00  0.00     0.131 A 
ATOM     73  C   UNL A   1      39.823  34.097  37.183  1.00  0.00     0.055 A 
ATOM     74  C   UNL A   1      38.151  32.455  37.718  1.00  0.00     0.041 A 
ATOM     75  F   UNL A   1      37.952  30.528  36.400  1.00  0.00    -0.206 F 
ATOM     76  C   UNL A   1      38.783  33.660  38.007  1.00  0.00     0.022 A 
BRANCH  73  77
ATOM     77  S   UNL A   1      40.725  35.617  37.588  1.00  0.00     0.124 S 
ATOM     78  O   UNL A   1      39.766  36.644  37.198  1.00  0.00    -0.237 OA
ATOM     79  O   UNL A   1      40.954  35.463  39.021  1.00  0.00    -0.237 OA
ATOM     80  O   UNL A   1      41.924  35.533  36.757  1.00  0.00    -0.744 OA
ENDBRANCH  73  77
ENDBRANCH  46  70
BRANCH  58  81
ATOM     81  C   UNL A   1      44.677  27.408  34.964  1.00  0.00     0.023 A 
ATOM     82  C   UNL A   1      45.915  28.063  35.065  1.00  0.00     0.031 A 
ATOM     83  C   UNL A   1      44.440  26.291  35.783  1.00  0.00     0.131 A 
ATOM     84  C   UNL A   1      46.886  27.574  35.949  1.00  0.00     0.055 A 
ATOM     85  C   UNL A   1      45.392  25.838  36.694  1.00  0.00     0.041 A 
ATOM     86  F   UNL A   1      43.268  25.638  35.724  1.00  0.00    -0.206 F 
ATOM     87  C   UNL A   1      46.626  26.477  36.776  1.00  0.00     0.022 A 
BRANCH  84  88
ATOM     88  S   UNL A   1      48.512  28.374  35.985  1.00  0.00     0.124 S 
ATOM     89  O   UNL A   1      48.622  28.771  37.386  1.00  0.00    -0.237 OA
ATOM     90  O   UNL A   1      49.403  27.301  35.557  1.00  0.00    -0.237 OA
ATOM     91  O   UNL A   1      48.373  29.477  35.037  1.00  0.00    -0.744 OA
ENDBRANCH  84  88
ENDBRANCH  58  81
ENDBRANCH  32  33
ENDBRANCH  25  27
ENDBRANCH  24  25
ENDBRANCH  23  24
ENDBRANCH  22  23
ENDBRANCH  21  22
ENDBRANCH   1  21
TORSDOF 21
ENDMDL
MODEL 3
REMARK VINA RESULT:      -9.4      5.925     10.059
REMARK SMILES COc1ccc(CCC(=O)N(C)C[C@H](C)C(=O)OCCOC(=O)c2ccc(-c3c4nc(c(-c5cc(S(=O)(=O)[O-])ccc5F)c5ccc([nH]5)c(-c5cc(S(=O)(=O)[O-])ccc5F)c5nc(c(-c6cc(S(=O)(=O)[O-])ccc6F)c6ccc3[nH]6)C=C5)C=C4)cc2)cc1F
REMARK SMILES IDX 16 1 17 2 14 3 15 4 13 5 11 6 12 7 9 8 10 9 8 10 7 11 6 12
REMARK SMILES IDX 3 13 4 14 88 15 5 16 87 17 89 18 2 19 1 20 18 21 19 22 20 23
REMARK SMILES IDX 21 24 22 25 23 26 24 27 25 28 86 29 26 30 85 31 27 32 28 33
REMARK SMILES IDX 29 34 79 35 30 36 84 37 78 38 80 39 31 40 83 41 77 42 76 43
REMARK SMILES IDX 32 45 64 46 44 47 63 48 45 49 48 50 62 51 81 52 46 53 47 54
REMARK SMILES IDX 61 56 82 57 49 58 33 59 34 60 42 61 35 62 41 63 43 64 40 65
REMARK SMILES IDX 36 66 37 67 38 68 39 69 65 70 66 71 74 72 67 73 73 74 75 75
REMARK SMILES IDX 72 76 68 77 69 78 70 79 71 80 50 81 51 82 59 83 52 84 58 85
REMARK SMILES IDX 60 86 57 87 53 88 54 89 55 90 56 91
REMARK H PARENT 80 44 48 55
REMARK Flexibility Score: inf
ROOT
ATOM      1  C   UNL A   1      43.375  21.772  25.719  1.00  0.00     0.310 C 
ATOM      2  O   UNL A   1      43.565  20.561  25.768  1.00  0.00    -0.252 OA
ENDROOT
BRANCH   1   3
ATOM      3  C   UNL A   1      43.081  22.594  26.955  1.00  0.00     0.115 C 
ATOM      4  C   UNL A   1      44.321  23.078  27.704  1.00  0.00     0.022 C 
BRANCH   3   5
ATOM      5  C   UNL A   1      42.000  23.674  26.763  1.00  0.00     0.134 C 
BRANCH   5   6
ATOM      6  N   UNL A   1      40.569  23.341  26.791  1.00  0.00    -0.345 N 
ATOM      7  C   UNL A   1      40.292  21.906  26.816  1.00  0.00     0.146 C 
BRANCH   6   8
ATOM      8  C   UNL A   1      39.622  24.291  27.146  1.00  0.00     0.222 C 
ATOM      9  O   UNL A   1      38.584  24.445  26.500  1.00  0.00    -0.275 OA
BRANCH   8  10
ATOM     10  C   UNL A   1      39.847  25.165  28.377  1.00  0.00     0.105 C 
BRANCH  10  11
ATOM     11  C   UNL A   1      39.789  26.674  28.097  1.00  0.00     0.045 C 
BRANCH  11  12
ATOM     12  C   UNL A   1      39.784  27.536  29.338  1.00  0.00    -0.044 A 
ATOM     13  C   UNL A   1      39.628  29.429  31.411  1.00  0.00     0.154 A 
ATOM     14  C   UNL A   1      40.691  29.465  30.521  1.00  0.00     0.050 A 
ATOM     15  C   UNL A   1      38.680  28.410  31.307  1.00  0.00     0.165 A 
ATOM     16  C   UNL A   1      40.777  28.504  29.514  1.00  0.00     0.008 A 
ATOM     17  C   UNL A   1      38.751  27.466  30.278  1.00  0.00     0.047 A 
ATOM     18  F   UNL A   1      37.643  28.356  32.155  1.00  0.00    -0.203 F 
BRANCH  13  19
ATOM     19  O   UNL A   1      39.484  30.496  32.252  1.00  0.00    -0.494 OA
ATOM     20  C   UNL A   1      38.943  31.632  31.589  1.00  0.00     0.278 C 
ENDBRANCH  13  19
ENDBRANCH  11  12
ENDBRANCH  10  11
ENDBRANCH   8  10
ENDBRANCH   6   8
ENDBRANCH   5   6
ENDBRANCH   3   5
ENDBRANCH   1   3
BRANCH   1  21
ATOM     21  O   UNL A   1      43.382  22.502  24.574  1.00  0.00    -0.462 OA
BRANCH  21  22
ATOM     22  C   UNL A   1      44.562  22.461  23.748  1.00  0.00     0.274 C 
BRANCH  22  23
ATOM     23  C   UNL A   1      45.685  23.328  24.311  1.00  0.00     0.275 C 
BRANCH  23  24
ATOM     24  O   UNL A   1      45.206  24.642  24.629  1.00  0.00    -0.458 OA
BRANCH  24  25
ATOM     25  C   UNL A   1      46.174  25.550  24.885  1.00  0.00     0.338 C 
ATOM     26  O   UNL A   1      47.219  25.712  24.272  1.00  0.00    -0.246 OA
BRANCH  25  27
ATOM     27  C   UNL A   1      45.721  26.440  25.959  1.00  0.00     0.060 A 
ATOM     28  C   UNL A   1      46.682  27.167  26.670  1.00  0.00     0.016 A 
ATOM     29  C   UNL A   1      44.369  26.517  26.294  1.00  0.00     0.016 A 
ATOM     30  C   UNL A   1      46.295  27.972  27.735  1.00  0.00     0.010 A 
ATOM     31  C   UNL A   1      43.983  27.312  27.370  1.00  0.00     0.010 A 
ATOM     32  C   UNL A   1      44.947  28.027  28.102  1.00  0.00    -0.014 A 
BRANCH  32  33
ATOM     33  C   UNL A   1      44.541  28.741  29.329  1.00  0.00     0.031 A 
ATOM     34  C   UNL A   1      44.473  27.972  30.614  1.00  0.00     0.074 A 
ATOM     35  C   UNL A   1      44.242  30.051  29.281  1.00  0.00     0.049 A 
ATOM     36  N   UNL A   1      43.971  28.330  31.765  1.00  0.00    -0.248 NA
ATOM     37  C   UNL A   1      45.044  26.613  30.599  1.00  0.00     0.031 C 
ATOM     38  C   UNL A   1      44.363  30.903  28.097  1.00  0.00     0.029 A 
ATOM     39  N   UNL A   1      43.766  30.891  30.253  1.00  0.00    -0.354 N 
ATOM     40  C   UNL A   1      44.153  27.241  32.608  1.00  0.00     0.074 A 
ATOM     41  C   UNL A   1      44.797  26.203  31.835  1.00  0.00     0.031 C 
ATOM     42  C   UNL A   1      43.963  32.147  28.414  1.00  0.00     0.029 A 
ATOM     43  C   UNL A   1      43.504  32.163  29.800  1.00  0.00     0.049 A 
ATOM     44  H   UNL A   1      43.625  30.612  31.186  1.00  0.00     0.167 HD
ATOM     45  C   UNL A   1      43.806  27.127  33.910  1.00  0.00     0.034 A 
ATOM     46  C   UNL A   1      42.922  33.203  30.427  1.00  0.00     0.034 A 
ATOM     47  C   UNL A   1      43.163  28.177  34.656  1.00  0.00     0.049 A 
ATOM     48  C   UNL A   1      42.454  33.016  31.848  1.00  0.00     0.074 A 
ATOM     49  C   UNL A   1      42.735  28.163  35.971  1.00  0.00     0.029 A 
ATOM     50  N   UNL A   1      42.867  29.436  34.151  1.00  0.00    -0.354 N 
ATOM     51  N   UNL A   1      42.549  31.953  32.614  1.00  0.00    -0.248 NA
ATOM     52  C   UNL A   1      41.789  34.160  32.486  1.00  0.00     0.031 C 
ATOM     53  C   UNL A   1      42.138  29.397  36.246  1.00  0.00     0.029 A 
ATOM     54  C   UNL A   1      42.249  30.201  35.122  1.00  0.00     0.049 A 
ATOM     55  H   UNL A   1      43.066  29.737  33.235  1.00  0.00     0.167 HD
ATOM     56  C   UNL A   1      41.978  32.309  33.831  1.00  0.00     0.074 A 
ATOM     57  C   UNL A   1      41.544  33.686  33.700  1.00  0.00     0.031 C 
ATOM     58  C   UNL A   1      41.828  31.570  34.959  1.00  0.00     0.034 A 
BRANCH  45  59
ATOM     59  C   UNL A   1      44.073  25.816  34.596  1.00  0.00     0.023 A 
ATOM     60  C   UNL A   1      45.378  25.405  34.913  1.00  0.00     0.031 A 
ATOM     61  C   UNL A   1      43.003  24.982  34.963  1.00  0.00     0.131 A 
ATOM     62  C   UNL A   1      45.582  24.177  35.559  1.00  0.00     0.055 A 
ATOM     63  C   UNL A   1      43.209  23.786  35.653  1.00  0.00     0.041 A 
ATOM     64  F   UNL A   1      41.739  25.320  34.662  1.00  0.00    -0.206 F 
ATOM     65  C   UNL A   1      44.505  23.377  35.952  1.00  0.00     0.022 A 
BRANCH  62  66
ATOM     66  S   UNL A   1      47.280  23.611  35.847  1.00  0.00     0.124 S 
ATOM     67  O   UNL A   1      47.211  22.227  35.385  1.00  0.00    -0.237 OA
ATOM     68  O   UNL A   1      48.066  24.521  35.022  1.00  0.00    -0.237 OA
ATOM     69  O   UNL A   1      47.455  23.774  37.289  1.00  0.00    -0.744 OA
ENDBRANCH  62  66
ENDBRANCH  45  59
BRANCH  46  70
ATOM     70  C   UNL A   1      42.697  34.489  29.711  1.00  0.00     0.023 A 
ATOM     71  C   UNL A   1      43.736  35.419  29.557  1.00  0.00     0.031 A 
ATOM     72  C   UNL A   1      41.430  34.822  29.198  1.00  0.00     0.131 A 
ATOM     73  C   UNL A   1      43.484  36.652  28.935  1.00  0.00     0.055 A 
ATOM     74  C   UNL A   1      41.196  36.030  28.541  1.00  0.00     0.041 A 
ATOM     75  F   UNL A   1      40.402  33.968  29.319  1.00  0.00    -0.206 F 
ATOM     76  C   UNL A   1      42.224  36.958  28.414  1.00  0.00     0.022 A 
BRANCH  73  77
ATOM     77  S   UNL A   1      44.818  37.879  28.865  1.00  0.00     0.124 S 
ATOM     78  O   UNL A   1      44.098  39.077  28.448  1.00  0.00    -0.237 OA
ATOM     79  O   UNL A   1      45.311  37.871  30.238  1.00  0.00    -0.237 OA
ATOM     80  O   UNL A   1      45.737  37.325  27.873  1.00  0.00    -0.744 OA
ENDBRANCH  73  77
ENDBRANCH  46  70
BRANCH  58  81
ATOM     81  C   UNL A   1      41.209  32.250  36.149  1.00  0.00     0.023 A 
ATOM     82  C   UNL A   1      39.856  32.071  36.474  1.00  0.00     0.031 A 
ATOM     83  C   UNL A   1      42.001  33.053  36.989  1.00  0.00     0.131 A 
ATOM     84  C   UNL A   1      39.323  32.713  37.600  1.00  0.00     0.055 A 
ATOM     85  C   UNL A   1      41.476  33.651  38.133  1.00  0.00     0.041 A 
ATOM     86  F   UNL A   1      43.302  33.247  36.719  1.00  0.00    -0.206 F 
ATOM     87  C   UNL A   1      40.128  33.488  38.440  1.00  0.00     0.022 A 
BRANCH  84  88
ATOM     88  S   UNL A   1      37.550  32.549  37.939  1.00  0.00     0.124 S 
ATOM     89  O   UNL A   1      36.959  33.247  36.802  1.00  0.00    -0.237 OA
ATOM     90  O   UNL A   1      37.365  31.101  37.964  1.00  0.00    -0.237 OA
ATOM     91  O   UNL A   1      37.384  33.214  39.230  1.00  0.00    -0.744 OA
ENDBRANCH  84  88
ENDBRANCH  58  81
ENDBRANCH  32  33
ENDBRANCH  25  27
ENDBRANCH  24  25
ENDBRANCH  23  24
ENDBRANCH  22  23
ENDBRANCH  21  22
ENDBRANCH   1  21
TORSDOF 21
ENDMDL
