MODEL 1
REMARK VINA RESULT:     -10.9      0.000      0.000
REMARK SMILES CCC[NH2+][C@]1(C(=O)OCCOC(=O)c2ccc(-c3c4nc(c(-c5cc(S(=O)(=O)[O-])ccc5F)c5ccc([nH]5)c(-c5cc(S(=O)(=O)[O-])ccc5F)c5nc(c(-c6cc(S(=O)(=O)[O-])ccc6F)c6ccc3[nH]6)C=C5)C=C4)cc2)CCC[C@H](n2ccc(C)n2)C1
REMARK SMILES IDX 9 1 8 2 6 3 7 4 5 5 77 6 87 7 78 8 80 9 79 10 4 11 3 14 2 15
REMARK SMILES IDX 1 16 81 17 82 18 86 19 83 20 84 21 85 22 10 23 11 24 12 25
REMARK SMILES IDX 13 26 14 27 15 28 76 29 16 30 75 31 17 32 18 33 19 34 69 35
REMARK SMILES IDX 20 36 74 37 68 38 70 39 21 40 73 41 67 42 66 43 22 45 54 46
REMARK SMILES IDX 34 47 53 48 35 49 38 50 52 51 71 52 36 53 37 54 51 56 72 57
REMARK SMILES IDX 39 58 23 59 24 60 32 61 25 62 31 63 33 64 30 65 26 66 27 67
REMARK SMILES IDX 28 68 29 69 55 70 56 71 64 72 57 73 63 74 65 75 62 76 58 77
REMARK SMILES IDX 59 78 60 79 61 80 40 81 41 82 49 83 42 84 48 85 50 86 47 87
REMARK SMILES IDX 43 88 44 89 45 90 46 91
REMARK H PARENT 4 12 4 13 70 44 38 55
REMARK Flexibility Score: inf
ROOT
ATOM      1  C   UNL A   1      31.693  29.765  25.015  1.00  0.00     0.274 C 
ENDROOT
BRANCH   1   2
ATOM      2  O   UNL A   1      31.038  28.550  25.432  1.00  0.00    -0.457 OA
BRANCH   2   3
ATOM      3  C   UNL A   1      31.868  27.591  25.945  1.00  0.00     0.368 C 
ATOM      4  O   UNL A   1      32.342  27.673  27.073  1.00  0.00    -0.245 OA
BRANCH   3   5
ATOM      5  C   UNL A   1      32.111  26.396  24.953  1.00  0.00     0.196 C 
ATOM      6  C   UNL A   1      30.897  26.195  24.024  1.00  0.00     0.081 C 
ATOM      7  C   UNL A   1      33.355  26.705  24.064  1.00  0.00     0.108 C 
ATOM      8  C   UNL A   1      31.135  25.175  22.909  1.00  0.00     0.009 C 
ATOM      9  C   UNL A   1      33.636  25.670  22.950  1.00  0.00     0.114 C 
ATOM     10  C   UNL A   1      32.370  25.523  22.084  1.00  0.00     0.028 C 
BRANCH   5  11
ATOM     11  N   UNL A   1      32.394  25.157  25.711  1.00  0.00    -0.332 N 
ATOM     12  H   UNL A   1      32.959  24.562  25.105  1.00  0.00     0.347 HD
ATOM     13  H   UNL A   1      32.828  25.497  26.569  1.00  0.00     0.347 HD
BRANCH  11  14
ATOM     14  C   UNL A   1      31.291  24.337  26.195  1.00  0.00     0.261 C 
BRANCH  14  15
ATOM     15  C   UNL A   1      31.776  22.943  26.620  1.00  0.00     0.058 C 
ATOM     16  C   UNL A   1      31.460  21.854  25.600  1.00  0.00     0.010 C 
ENDBRANCH  14  15
ENDBRANCH  11  14
ENDBRANCH   5  11
BRANCH   9  17
ATOM     17  N   UNL A   1      34.199  24.410  23.436  1.00  0.00    -0.269 N 
ATOM     18  C   UNL A   1      33.991  23.151  22.941  1.00  0.00     0.109 A 
ATOM     19  N   UNL A   1      35.107  24.415  24.445  1.00  0.00    -0.178 NA
ATOM     20  C   UNL A   1      34.608  22.289  23.814  1.00  0.00     0.045 A 
ATOM     21  C   UNL A   1      35.241  23.121  24.760  1.00  0.00     0.059 A 
ATOM     22  C   UNL A   1      35.969  22.711  25.982  1.00  0.00     0.069 C 
ENDBRANCH   9  17
ENDBRANCH   3   5
ENDBRANCH   2   3
ENDBRANCH   1   2
BRANCH   1  23
ATOM     23  C   UNL A   1      31.441  30.901  26.002  1.00  0.00     0.275 C 
BRANCH  23  24
ATOM     24  O   UNL A   1      32.323  30.781  27.129  1.00  0.00    -0.458 OA
BRANCH  24  25
ATOM     25  C   UNL A   1      33.090  31.867  27.386  1.00  0.00     0.338 C 
ATOM     26  O   UNL A   1      32.730  33.031  27.377  1.00  0.00    -0.246 OA
BRANCH  25  27
ATOM     27  C   UNL A   1      34.469  31.461  27.725  1.00  0.00     0.060 A 
ATOM     28  C   UNL A   1      34.774  30.120  27.936  1.00  0.00     0.016 A 
ATOM     29  C   UNL A   1      35.423  32.437  28.007  1.00  0.00     0.016 A 
ATOM     30  C   UNL A   1      35.958  29.762  28.581  1.00  0.00     0.010 A 
ATOM     31  C   UNL A   1      36.667  32.062  28.534  1.00  0.00     0.010 A 
ATOM     32  C   UNL A   1      36.925  30.727  28.895  1.00  0.00    -0.014 A 
BRANCH  32  33
ATOM     33  C   UNL A   1      38.142  30.366  29.689  1.00  0.00     0.031 A 
ATOM     34  C   UNL A   1      39.201  29.476  29.076  1.00  0.00     0.074 A 
ATOM     35  C   UNL A   1      38.344  30.852  30.932  1.00  0.00     0.049 A 
ATOM     36  N   UNL A   1      40.210  28.865  29.646  1.00  0.00    -0.248 NA
ATOM     37  C   UNL A   1      39.090  29.220  27.632  1.00  0.00     0.031 C 
ATOM     38  C   UNL A   1      37.452  31.769  31.643  1.00  0.00     0.029 A 
ATOM     39  N   UNL A   1      39.379  30.655  31.815  1.00  0.00    -0.354 N 
ATOM     40  C   UNL A   1      40.799  28.088  28.651  1.00  0.00     0.074 A 
ATOM     41  C   UNL A   1      40.033  28.310  27.443  1.00  0.00     0.031 C 
ATOM     42  C   UNL A   1      38.005  32.102  32.819  1.00  0.00     0.029 A 
ATOM     43  C   UNL A   1      39.238  31.345  32.998  1.00  0.00     0.049 A 
ATOM     44  H   UNL A   1      40.150  30.074  31.620  1.00  0.00     0.167 HD
ATOM     45  C   UNL A   1      41.873  27.263  28.739  1.00  0.00     0.034 A 
ATOM     46  C   UNL A   1      39.987  31.339  34.119  1.00  0.00     0.034 A 
ATOM     47  C   UNL A   1      42.676  27.110  29.929  1.00  0.00     0.049 A 
ATOM     48  C   UNL A   1      41.185  30.430  34.192  1.00  0.00     0.074 A 
ATOM     49  C   UNL A   1      43.776  26.295  30.134  1.00  0.00     0.029 A 
ATOM     50  N   UNL A   1      42.485  27.816  31.110  1.00  0.00    -0.354 N 
ATOM     51  N   UNL A   1      41.651  29.602  33.286  1.00  0.00    -0.248 NA
ATOM     52  C   UNL A   1      41.944  30.438  35.450  1.00  0.00     0.031 C 
ATOM     53  C   UNL A   1      44.226  26.478  31.448  1.00  0.00     0.029 A 
ATOM     54  C   UNL A   1      43.442  27.452  32.046  1.00  0.00     0.049 A 
ATOM     55  H   UNL A   1      41.773  28.479  31.261  1.00  0.00     0.167 HD
ATOM     56  C   UNL A   1      42.755  28.987  33.869  1.00  0.00     0.074 A 
ATOM     57  C   UNL A   1      42.906  29.566  35.189  1.00  0.00     0.031 C 
ATOM     58  C   UNL A   1      43.564  28.021  33.365  1.00  0.00     0.034 A 
BRANCH  45  59
ATOM     59  C   UNL A   1      42.189  26.408  27.534  1.00  0.00     0.023 A 
ATOM     60  C   UNL A   1      41.755  25.077  27.419  1.00  0.00     0.031 A 
ATOM     61  C   UNL A   1      42.988  26.931  26.499  1.00  0.00     0.131 A 
ATOM     62  C   UNL A   1      42.183  24.293  26.336  1.00  0.00     0.055 A 
ATOM     63  C   UNL A   1      43.346  26.170  25.386  1.00  0.00     0.041 A 
ATOM     64  F   UNL A   1      43.450  28.190  26.562  1.00  0.00    -0.206 F 
ATOM     65  C   UNL A   1      42.957  24.837  25.308  1.00  0.00     0.022 A 
BRANCH  62  66
ATOM     66  S   UNL A   1      41.839  22.511  26.364  1.00  0.00     0.124 S 
ATOM     67  O   UNL A   1      42.590  22.048  25.200  1.00  0.00    -0.237 OA
ATOM     68  O   UNL A   1      42.363  22.110  27.664  1.00  0.00    -0.237 OA
ATOM     69  O   UNL A   1      40.386  22.441  26.228  1.00  0.00    -0.744 OA
ENDBRANCH  62  66
ENDBRANCH  45  59
BRANCH  46  70
ATOM     70  C   UNL A   1      39.586  32.159  35.298  1.00  0.00     0.023 A 
ATOM     71  C   UNL A   1      38.815  31.611  36.336  1.00  0.00     0.031 A 
ATOM     72  C   UNL A   1      39.940  33.518  35.384  1.00  0.00     0.131 A 
ATOM     73  C   UNL A   1      38.398  32.427  37.400  1.00  0.00     0.055 A 
ATOM     74  C   UNL A   1      39.566  34.311  36.469  1.00  0.00     0.041 A 
ATOM     75  F   UNL A   1      40.672  34.091  34.416  1.00  0.00    -0.206 F 
ATOM     76  C   UNL A   1      38.781  33.768  37.481  1.00  0.00     0.022 A 
BRANCH  73  77
ATOM     77  S   UNL A   1      37.285  31.726  38.649  1.00  0.00     0.124 S 
ATOM     78  O   UNL A   1      37.064  30.381  38.132  1.00  0.00    -0.237 OA
ATOM     79  O   UNL A   1      38.090  31.823  39.863  1.00  0.00    -0.237 OA
ATOM     80  O   UNL A   1      36.123  32.610  38.605  1.00  0.00    -0.744 OA
ENDBRANCH  73  77
ENDBRANCH  46  70
BRANCH  58  81
ATOM     81  C   UNL A   1      44.693  27.559  34.251  1.00  0.00     0.023 A 
ATOM     82  C   UNL A   1      44.575  26.405  35.044  1.00  0.00     0.031 A 
ATOM     83  C   UNL A   1      45.881  28.305  34.331  1.00  0.00     0.131 A 
ATOM     84  C   UNL A   1      45.607  26.060  35.931  1.00  0.00     0.055 A 
ATOM     85  C   UNL A   1      46.924  27.930  35.180  1.00  0.00     0.041 A 
ATOM     86  F   UNL A   1      46.041  29.417  33.596  1.00  0.00    -0.206 F 
ATOM     87  C   UNL A   1      46.785  26.810  35.996  1.00  0.00     0.022 A 
BRANCH  84  88
ATOM     88  S   UNL A   1      45.351  24.672  37.071  1.00  0.00     0.124 S 
ATOM     89  O   UNL A   1      46.716  24.206  37.296  1.00  0.00    -0.237 OA
ATOM     90  O   UNL A   1      44.702  25.319  38.207  1.00  0.00    -0.237 OA
ATOM     91  O   UNL A   1      44.501  23.758  36.311  1.00  0.00    -0.744 OA
ENDBRANCH  84  88
ENDBRANCH  58  81
ENDBRANCH  32  33
ENDBRANCH  25  27
ENDBRANCH  24  25
ENDBRANCH  23  24
ENDBRANCH   1  23
TORSDOF 18
ENDMDL
MODEL 2
REMARK VINA RESULT:     -10.9      5.081     10.079
REMARK SMILES CCC[NH2+][C@]1(C(=O)OCCOC(=O)c2ccc(-c3c4nc(c(-c5cc(S(=O)(=O)[O-])ccc5F)c5ccc([nH]5)c(-c5cc(S(=O)(=O)[O-])ccc5F)c5nc(c(-c6cc(S(=O)(=O)[O-])ccc6F)c6ccc3[nH]6)C=C5)C=C4)cc2)CCC[C@H](n2ccc(C)n2)C1
REMARK SMILES IDX 9 1 8 2 6 3 7 4 5 5 77 6 87 7 78 8 80 9 79 10 4 11 3 14 2 15
REMARK SMILES IDX 1 16 81 17 82 18 86 19 83 20 84 21 85 22 10 23 11 24 12 25
REMARK SMILES IDX 13 26 14 27 15 28 76 29 16 30 75 31 17 32 18 33 19 34 69 35
REMARK SMILES IDX 20 36 74 37 68 38 70 39 21 40 73 41 67 42 66 43 22 45 54 46
REMARK SMILES IDX 34 47 53 48 35 49 38 50 52 51 71 52 36 53 37 54 51 56 72 57
REMARK SMILES IDX 39 58 23 59 24 60 32 61 25 62 31 63 33 64 30 65 26 66 27 67
REMARK SMILES IDX 28 68 29 69 55 70 56 71 64 72 57 73 63 74 65 75 62 76 58 77
REMARK SMILES IDX 59 78 60 79 61 80 40 81 41 82 49 83 42 84 48 85 50 86 47 87
REMARK SMILES IDX 43 88 44 89 45 90 46 91
REMARK H PARENT 4 12 4 13 70 44 38 55
REMARK Flexibility Score: inf
ROOT
ATOM      1  C   UNL A   1      34.964  21.133  25.942  1.00  0.00     0.274 C 
ENDROOT
BRANCH   1   2
ATOM      2  O   UNL A   1      33.943  21.872  25.240  1.00  0.00    -0.457 OA
BRANCH   2   3
ATOM      3  C   UNL A   1      33.567  23.047  25.832  1.00  0.00     0.368 C 
ATOM      4  O   UNL A   1      33.565  23.192  27.049  1.00  0.00    -0.245 OA
BRANCH   3   5
ATOM      5  C   UNL A   1      33.173  24.159  24.793  1.00  0.00     0.196 C 
ATOM      6  C   UNL A   1      34.369  24.516  23.887  1.00  0.00     0.081 C 
ATOM      7  C   UNL A   1      32.018  23.635  23.885  1.00  0.00     0.108 C 
ATOM      8  C   UNL A   1      34.010  25.452  22.732  1.00  0.00     0.009 C 
ATOM      9  C   UNL A   1      31.615  24.580  22.729  1.00  0.00     0.114 C 
ATOM     10  C   UNL A   1      32.869  24.893  21.890  1.00  0.00     0.028 C 
BRANCH   5  11
ATOM     11  N   UNL A   1      32.682  25.363  25.500  1.00  0.00    -0.332 N 
ATOM     12  H   UNL A   1      32.000  25.808  24.886  1.00  0.00     0.347 HD
ATOM     13  H   UNL A   1      32.341  24.993  26.388  1.00  0.00     0.347 HD
BRANCH  11  14
ATOM     14  C   UNL A   1      33.622  26.398  25.906  1.00  0.00     0.261 C 
BRANCH  14  15
ATOM     15  C   UNL A   1      32.895  27.689  26.305  1.00  0.00     0.058 C 
ATOM     16  C   UNL A   1      31.487  27.452  26.843  1.00  0.00     0.010 C 
ENDBRANCH  14  15
ENDBRANCH  11  14
ENDBRANCH   5  11
BRANCH   9  17
ATOM     17  N   UNL A   1      30.852  25.753  23.157  1.00  0.00    -0.269 N 
ATOM     18  C   UNL A   1      29.637  25.780  23.786  1.00  0.00     0.109 A 
ATOM     19  N   UNL A   1      31.382  26.995  23.021  1.00  0.00    -0.178 NA
ATOM     20  C   UNL A   1      29.267  27.102  23.846  1.00  0.00     0.045 A 
ATOM     21  C   UNL A   1      30.362  27.811  23.310  1.00  0.00     0.059 A 
ATOM     22  C   UNL A   1      30.456  29.264  23.047  1.00  0.00     0.069 C 
ENDBRANCH   9  17
ENDBRANCH   3   5
ENDBRANCH   2   3
ENDBRANCH   1   2
BRANCH   1  23
ATOM     23  C   UNL A   1      36.065  20.668  24.994  1.00  0.00     0.275 C 
BRANCH  23  24
ATOM     24  O   UNL A   1      37.105  21.657  24.921  1.00  0.00    -0.458 OA
BRANCH  24  25
ATOM     25  C   UNL A   1      38.280  21.309  25.495  1.00  0.00     0.338 C 
ATOM     26  O   UNL A   1      38.846  20.234  25.401  1.00  0.00    -0.246 OA
BRANCH  25  27
ATOM     27  C   UNL A   1      38.840  22.441  26.260  1.00  0.00     0.060 A 
ATOM     28  C   UNL A   1      38.283  23.711  26.143  1.00  0.00     0.016 A 
ATOM     29  C   UNL A   1      40.034  22.275  26.959  1.00  0.00     0.016 A 
ATOM     30  C   UNL A   1      38.993  24.832  26.574  1.00  0.00     0.010 A 
ATOM     31  C   UNL A   1      40.681  23.391  27.507  1.00  0.00     0.010 A 
ATOM     32  C   UNL A   1      40.208  24.693  27.260  1.00  0.00    -0.014 A 
BRANCH  32  33
ATOM     33  C   UNL A   1      41.028  25.892  27.621  1.00  0.00     0.031 A 
ATOM     34  C   UNL A   1      40.451  26.949  28.536  1.00  0.00     0.074 A 
ATOM     35  C   UNL A   1      42.297  26.036  27.185  1.00  0.00     0.049 A 
ATOM     36  N   UNL A   1      40.889  28.155  28.800  1.00  0.00    -0.248 NA
ATOM     37  C   UNL A   1      39.197  26.609  29.225  1.00  0.00     0.031 C 
ATOM     38  C   UNL A   1      43.023  25.080  26.346  1.00  0.00     0.029 A 
ATOM     39  N   UNL A   1      43.212  27.040  27.401  1.00  0.00    -0.354 N 
ATOM     40  C   UNL A   1      39.923  28.745  29.612  1.00  0.00     0.074 A 
ATOM     41  C   UNL A   1      38.879  27.760  29.798  1.00  0.00     0.031 C 
ATOM     42  C   UNL A   1      44.282  25.510  26.174  1.00  0.00     0.029 A 
ATOM     43  C   UNL A   1      44.429  26.821  26.795  1.00  0.00     0.049 A 
ATOM     44  H   UNL A   1      43.015  27.840  27.939  1.00  0.00     0.167 HD
ATOM     45  C   UNL A   1      39.907  29.992  30.148  1.00  0.00     0.034 A 
ATOM     46  C   UNL A   1      45.525  27.601  26.707  1.00  0.00     0.034 A 
ATOM     47  C   UNL A   1      40.991  30.938  30.020  1.00  0.00     0.049 A 
ATOM     48  C   UNL A   1      45.494  28.975  27.321  1.00  0.00     0.074 A 
ATOM     49  C   UNL A   1      41.075  32.230  30.509  1.00  0.00     0.029 A 
ATOM     50  N   UNL A   1      42.197  30.679  29.382  1.00  0.00    -0.354 N 
ATOM     51  N   UNL A   1      44.522  29.567  27.974  1.00  0.00    -0.248 NA
ATOM     52  C   UNL A   1      46.704  29.794  27.165  1.00  0.00     0.031 C 
ATOM     53  C   UNL A   1      42.314  32.766  30.134  1.00  0.00     0.029 A 
ATOM     54  C   UNL A   1      43.028  31.788  29.460  1.00  0.00     0.049 A 
ATOM     55  H   UNL A   1      42.429  29.832  28.937  1.00  0.00     0.167 HD
ATOM     56  C   UNL A   1      45.002  30.832  28.301  1.00  0.00     0.074 A 
ATOM     57  C   UNL A   1      46.362  30.902  27.806  1.00  0.00     0.031 C 
ATOM     58  C   UNL A   1      44.372  31.849  28.941  1.00  0.00     0.034 A 
BRANCH  45  59
ATOM     59  C   UNL A   1      38.644  30.425  30.853  1.00  0.00     0.023 A 
ATOM     60  C   UNL A   1      37.579  31.046  30.179  1.00  0.00     0.031 A 
ATOM     61  C   UNL A   1      38.530  30.252  32.246  1.00  0.00     0.131 A 
ATOM     62  C   UNL A   1      36.484  31.540  30.907  1.00  0.00     0.055 A 
ATOM     63  C   UNL A   1      37.402  30.675  32.952  1.00  0.00     0.041 A 
ATOM     64  F   UNL A   1      39.522  29.683  32.947  1.00  0.00    -0.206 F 
ATOM     65  C   UNL A   1      36.378  31.338  32.285  1.00  0.00     0.022 A 
BRANCH  62  66
ATOM     66  S   UNL A   1      35.269  32.580  30.049  1.00  0.00     0.124 S 
ATOM     67  O   UNL A   1      36.096  33.705  29.618  1.00  0.00    -0.237 OA
ATOM     68  O   UNL A   1      34.789  31.697  28.993  1.00  0.00    -0.237 OA
ATOM     69  O   UNL A   1      34.292  32.896  31.090  1.00  0.00    -0.744 OA
ENDBRANCH  62  66
ENDBRANCH  45  59
BRANCH  46  70
ATOM     70  C   UNL A   1      46.719  27.139  25.942  1.00  0.00     0.023 A 
ATOM     71  C   UNL A   1      47.002  27.646  24.664  1.00  0.00     0.031 A 
ATOM     72  C   UNL A   1      47.576  26.156  26.469  1.00  0.00     0.131 A 
ATOM     73  C   UNL A   1      48.097  27.143  23.942  1.00  0.00     0.055 A 
ATOM     74  C   UNL A   1      48.692  25.697  25.769  1.00  0.00     0.041 A 
ATOM     75  F   UNL A   1      47.347  25.637  27.685  1.00  0.00    -0.206 F 
ATOM     76  C   UNL A   1      48.952  26.185  24.492  1.00  0.00     0.022 A 
BRANCH  73  77
ATOM     77  S   UNL A   1      48.351  27.713  22.238  1.00  0.00     0.124 S 
ATOM     78  O   UNL A   1      49.593  28.468  22.358  1.00  0.00    -0.237 OA
ATOM     79  O   UNL A   1      48.434  26.453  21.505  1.00  0.00    -0.237 OA
ATOM     80  O   UNL A   1      47.159  28.511  21.964  1.00  0.00    -0.744 OA
ENDBRANCH  73  77
ENDBRANCH  46  70
BRANCH  58  81
ATOM     81  C   UNL A   1      45.172  33.109  29.153  1.00  0.00     0.023 A 
ATOM     82  C   UNL A   1      45.113  34.176  28.239  1.00  0.00     0.031 A 
ATOM     83  C   UNL A   1      46.031  33.225  30.258  1.00  0.00     0.131 A 
ATOM     84  C   UNL A   1      45.947  35.291  28.415  1.00  0.00     0.055 A 
ATOM     85  C   UNL A   1      46.821  34.359  30.455  1.00  0.00     0.041 A 
ATOM     86  F   UNL A   1      46.124  32.234  31.159  1.00  0.00    -0.206 F 
ATOM     87  C   UNL A   1      46.792  35.393  29.522  1.00  0.00     0.022 A 
BRANCH  84  88
ATOM     88  S   UNL A   1      45.982  36.566  27.125  1.00  0.00     0.124 S 
ATOM     89  O   UNL A   1      46.926  37.533  27.676  1.00  0.00    -0.237 OA
ATOM     90  O   UNL A   1      46.443  35.817  25.960  1.00  0.00    -0.237 OA
ATOM     91  O   UNL A   1      44.596  37.023  27.057  1.00  0.00    -0.744 OA
ENDBRANCH  84  88
ENDBRANCH  58  81
ENDBRANCH  32  33
ENDBRANCH  25  27
ENDBRANCH  24  25
ENDBRANCH  23  24
ENDBRANCH   1  23
TORSDOF 18
ENDMDL
MODEL 3
REMARK VINA RESULT:     -10.9      5.114      7.629
REMARK SMILES CCC[NH2+][C@]1(C(=O)OCCOC(=O)c2ccc(-c3c4nc(c(-c5cc(S(=O)(=O)[O-])ccc5F)c5ccc([nH]5)c(-c5cc(S(=O)(=O)[O-])ccc5F)c5nc(c(-c6cc(S(=O)(=O)[O-])ccc6F)c6ccc3[nH]6)C=C5)C=C4)cc2)CCC[C@H](n2ccc(C)n2)C1
REMARK SMILES IDX 9 1 8 2 6 3 7 4 5 5 77 6 87 7 78 8 80 9 79 10 4 11 3 14 2 15
REMARK SMILES IDX 1 16 81 17 82 18 86 19 83 20 84 21 85 22 10 23 11 24 12 25
REMARK SMILES IDX 13 26 14 27 15 28 76 29 16 30 75 31 17 32 18 33 19 34 69 35
REMARK SMILES IDX 20 36 74 37 68 38 70 39 21 40 73 41 67 42 66 43 22 45 54 46
REMARK SMILES IDX 34 47 53 48 35 49 38 50 52 51 71 52 36 53 37 54 51 56 72 57
REMARK SMILES IDX 39 58 23 59 24 60 32 61 25 62 31 63 33 64 30 65 26 66 27 67
REMARK SMILES IDX 28 68 29 69 55 70 56 71 64 72 57 73 63 74 65 75 62 76 58 77
REMARK SMILES IDX 59 78 60 79 61 80 40 81 41 82 49 83 42 84 48 85 50 86 47 87
REMARK SMILES IDX 43 88 44 89 45 90 46 91
REMARK H PARENT 4 12 4 13 70 44 38 55
REMARK Flexibility Score: inf
ROOT
ATOM      1  C   UNL A   1      35.821  20.387  25.273  1.00  0.00     0.274 C 
ENDROOT
BRANCH   1   2
ATOM      2  O   UNL A   1      35.185  21.424  24.499  1.00  0.00    -0.457 OA
BRANCH   2   3
ATOM      3  C   UNL A   1      33.858  21.618  24.768  1.00  0.00     0.368 C 
ATOM      4  O   UNL A   1      33.102  20.687  25.024  1.00  0.00    -0.245 OA
BRANCH   3   5
ATOM      5  C   UNL A   1      33.440  23.133  24.735  1.00  0.00     0.196 C 
ATOM      6  C   UNL A   1      32.837  23.568  26.086  1.00  0.00     0.081 C 
ATOM      7  C   UNL A   1      34.698  24.012  24.461  1.00  0.00     0.108 C 
ATOM      8  C   UNL A   1      32.580  25.072  26.191  1.00  0.00     0.009 C 
ATOM      9  C   UNL A   1      34.456  25.538  24.529  1.00  0.00     0.114 C 
ATOM     10  C   UNL A   1      33.842  25.878  25.901  1.00  0.00     0.028 C 
BRANCH   5  11
ATOM     11  N   UNL A   1      32.474  23.368  23.638  1.00  0.00    -0.332 N 
ATOM     12  H   UNL A   1      32.665  24.301  23.272  1.00  0.00     0.347 HD
ATOM     13  H   UNL A   1      32.632  22.579  23.011  1.00  0.00     0.347 HD
BRANCH  11  14
ATOM     14  C   UNL A   1      31.044  23.305  23.906  1.00  0.00     0.261 C 
BRANCH  14  15
ATOM     15  C   UNL A   1      30.286  24.412  23.159  1.00  0.00     0.058 C 
ATOM     16  C   UNL A   1      29.810  25.541  24.066  1.00  0.00     0.010 C 
ENDBRANCH  14  15
ENDBRANCH  11  14
ENDBRANCH   5  11
BRANCH   9  17
ATOM     17  N   UNL A   1      33.731  26.078  23.379  1.00  0.00    -0.269 N 
ATOM     18  C   UNL A   1      32.977  27.220  23.322  1.00  0.00     0.109 A 
ATOM     19  N   UNL A   1      33.833  25.476  22.167  1.00  0.00    -0.178 NA
ATOM     20  C   UNL A   1      32.382  27.225  22.084  1.00  0.00     0.045 A 
ATOM     21  C   UNL A   1      32.905  26.092  21.425  1.00  0.00     0.059 A 
ATOM     22  C   UNL A   1      32.526  25.566  20.095  1.00  0.00     0.069 C 
ENDBRANCH   9  17
ENDBRANCH   3   5
ENDBRANCH   2   3
ENDBRANCH   1   2
BRANCH   1  23
ATOM     23  C   UNL A   1      37.247  20.131  24.795  1.00  0.00     0.275 C 
BRANCH  23  24
ATOM     24  O   UNL A   1      38.055  21.301  24.999  1.00  0.00    -0.458 OA
BRANCH  24  25
ATOM     25  C   UNL A   1      39.109  21.142  25.832  1.00  0.00     0.338 C 
ATOM     26  O   UNL A   1      39.727  20.111  26.036  1.00  0.00    -0.246 OA
BRANCH  25  27
ATOM     27  C   UNL A   1      39.464  22.425  26.473  1.00  0.00     0.060 A 
ATOM     28  C   UNL A   1      38.735  23.576  26.189  1.00  0.00     0.016 A 
ATOM     29  C   UNL A   1      40.637  22.520  27.220  1.00  0.00     0.016 A 
ATOM     30  C   UNL A   1      39.254  24.832  26.504  1.00  0.00     0.010 A 
ATOM     31  C   UNL A   1      41.089  23.775  27.649  1.00  0.00     0.010 A 
ATOM     32  C   UNL A   1      40.443  24.955  27.236  1.00  0.00    -0.014 A 
BRANCH  32  33
ATOM     33  C   UNL A   1      41.063  26.296  27.476  1.00  0.00     0.031 A 
ATOM     34  C   UNL A   1      42.391  26.634  26.836  1.00  0.00     0.074 A 
ATOM     35  C   UNL A   1      40.443  27.238  28.218  1.00  0.00     0.049 A 
ATOM     36  N   UNL A   1      43.204  27.632  27.078  1.00  0.00    -0.248 NA
ATOM     37  C   UNL A   1      42.879  25.707  25.803  1.00  0.00     0.031 C 
ATOM     38  C   UNL A   1      39.132  27.094  28.854  1.00  0.00     0.029 A 
ATOM     39  N   UNL A   1      40.828  28.515  28.550  1.00  0.00    -0.354 N 
ATOM     40  C   UNL A   1      44.334  27.405  26.294  1.00  0.00     0.074 A 
ATOM     41  C   UNL A   1      44.095  26.176  25.567  1.00  0.00     0.031 C 
ATOM     42  C   UNL A   1      38.797  28.252  29.442  1.00  0.00     0.029 A 
ATOM     43  C   UNL A   1      39.908  29.189  29.321  1.00  0.00     0.049 A 
ATOM     44  H   UNL A   1      41.683  28.911  28.264  1.00  0.00     0.167 HD
ATOM     45  C   UNL A   1      45.465  28.150  26.194  1.00  0.00     0.034 A 
ATOM     46  C   UNL A   1      39.963  30.403  29.904  1.00  0.00     0.034 A 
ATOM     47  C   UNL A   1      45.659  29.414  26.863  1.00  0.00     0.049 A 
ATOM     48  C   UNL A   1      41.219  31.222  29.768  1.00  0.00     0.074 A 
ATOM     49  C   UNL A   1      46.767  30.244  26.843  1.00  0.00     0.029 A 
ATOM     50  N   UNL A   1      44.706  30.049  27.648  1.00  0.00    -0.354 N 
ATOM     51  N   UNL A   1      42.329  30.933  29.130  1.00  0.00    -0.248 NA
ATOM     52  C   UNL A   1      41.237  32.522  30.453  1.00  0.00     0.031 C 
ATOM     53  C   UNL A   1      46.498  31.360  27.646  1.00  0.00     0.029 A 
ATOM     54  C   UNL A   1      45.201  31.256  28.121  1.00  0.00     0.049 A 
ATOM     55  H   UNL A   1      43.808  29.695  27.842  1.00  0.00     0.167 HD
ATOM     56  C   UNL A   1      43.179  32.014  29.342  1.00  0.00     0.074 A 
ATOM     57  C   UNL A   1      42.440  32.975  30.135  1.00  0.00     0.031 C 
ATOM     58  C   UNL A   1      44.460  32.191  28.930  1.00  0.00     0.034 A 
BRANCH  45  59
ATOM     59  C   UNL A   1      46.604  27.571  25.388  1.00  0.00     0.023 A 
ATOM     60  C   UNL A   1      46.935  28.038  24.106  1.00  0.00     0.031 A 
ATOM     61  C   UNL A   1      47.344  26.490  25.906  1.00  0.00     0.131 A 
ATOM     62  C   UNL A   1      47.922  27.380  23.354  1.00  0.00     0.055 A 
ATOM     63  C   UNL A   1      48.378  25.890  25.184  1.00  0.00     0.041 A 
ATOM     64  F   UNL A   1      47.062  25.987  27.118  1.00  0.00    -0.206 F 
ATOM     65  C   UNL A   1      48.660  26.324  23.893  1.00  0.00     0.022 A 
BRANCH  62  66
ATOM     66  S   UNL A   1      48.126  27.827  21.607  1.00  0.00     0.124 S 
ATOM     67  O   UNL A   1      48.626  26.577  21.039  1.00  0.00    -0.237 OA
ATOM     68  O   UNL A   1      46.773  28.208  21.220  1.00  0.00    -0.237 OA
ATOM     69  O   UNL A   1      49.096  28.919  21.643  1.00  0.00    -0.744 OA
ENDBRANCH  62  66
ENDBRANCH  45  59
BRANCH  46  70
ATOM     70  C   UNL A   1      38.828  30.891  30.738  1.00  0.00     0.023 A 
ATOM     71  C   UNL A   1      37.704  31.497  30.153  1.00  0.00     0.031 A 
ATOM     72  C   UNL A   1      38.869  30.790  32.140  1.00  0.00     0.131 A 
ATOM     73  C   UNL A   1      36.681  32.006  30.970  1.00  0.00     0.055 A 
ATOM     74  C   UNL A   1      37.826  31.250  32.945  1.00  0.00     0.041 A 
ATOM     75  F   UNL A   1      39.922  30.223  32.749  1.00  0.00    -0.206 F 
ATOM     76  C   UNL A   1      36.728  31.872  32.360  1.00  0.00     0.022 A 
BRANCH  73  77
ATOM     77  S   UNL A   1      35.314  32.909  30.192  1.00  0.00     0.124 S 
ATOM     78  O   UNL A   1      35.998  34.077  29.650  1.00  0.00    -0.237 OA
ATOM     79  O   UNL A   1      34.825  31.940  29.216  1.00  0.00    -0.237 OA
ATOM     80  O   UNL A   1      34.407  33.178  31.306  1.00  0.00    -0.744 OA
ENDBRANCH  73  77
ENDBRANCH  46  70
BRANCH  58  81
ATOM     81  C   UNL A   1      45.119  33.490  29.321  1.00  0.00     0.023 A 
ATOM     82  C   UNL A   1      45.074  34.616  28.481  1.00  0.00     0.031 A 
ATOM     83  C   UNL A   1      45.833  33.586  30.527  1.00  0.00     0.131 A 
ATOM     84  C   UNL A   1      45.782  35.775  28.831  1.00  0.00     0.055 A 
ATOM     85  C   UNL A   1      46.495  34.759  30.894  1.00  0.00     0.041 A 
ATOM     86  F   UNL A   1      45.908  32.539  31.364  1.00  0.00    -0.206 F 
ATOM     87  C   UNL A   1      46.484  35.857  30.037  1.00  0.00     0.022 A 
BRANCH  84  88
ATOM     88  S   UNL A   1      45.854  37.145  27.644  1.00  0.00     0.124 S 
ATOM     89  O   UNL A   1      47.031  36.799  26.851  1.00  0.00    -0.237 OA
ATOM     90  O   UNL A   1      44.570  37.032  26.960  1.00  0.00    -0.237 OA
ATOM     91  O   UNL A   1      46.003  38.326  28.490  1.00  0.00    -0.744 OA
ENDBRANCH  84  88
ENDBRANCH  58  81
ENDBRANCH  32  33
ENDBRANCH  25  27
ENDBRANCH  24  25
ENDBRANCH  23  24
ENDBRANCH   1  23
TORSDOF 18
ENDMDL
