MODEL 1
REMARK VINA RESULT:     -11.3      0.000      0.000
REMARK SMILES Cc1cc(C(=O)Nc2nc(CC(=O)OCCOC(=O)c3ccc(-c4c5nc(c(-c6cc(S(=O)(=O)[O-])ccc6F)c6ccc([nH]6)c(-c6cc(S(=O)(=O)[O-])ccc6F)c6nc(c(-c7cc(S(=O)(=O)[O-])ccc7F)c7ccc4[nH]7)C=C6)C=C5)cc3)cs2)sc1C
REMARK SMILES IDX 15 1 14 2 12 3 13 4 11 5 10 6 8 7 9 8 84 9 83 10 7 11 5 12
REMARK SMILES IDX 6 13 4 15 1 16 2 17 3 18 86 19 85 20 87 21 16 22 17 23 18 24
REMARK SMILES IDX 19 25 20 26 21 27 82 28 22 29 81 30 23 31 24 32 25 33 75 34
REMARK SMILES IDX 26 35 80 36 74 37 76 38 27 39 79 40 73 41 72 42 28 44 60 45
REMARK SMILES IDX 40 46 59 47 41 48 44 49 58 50 77 51 42 52 43 53 57 55 78 56
REMARK SMILES IDX 45 57 29 58 30 59 38 60 31 61 37 62 39 63 36 64 32 65 33 66
REMARK SMILES IDX 34 67 35 68 61 69 62 70 70 71 63 72 69 73 71 74 68 75 64 76
REMARK SMILES IDX 65 77 66 78 67 79 46 80 47 81 55 82 48 83 54 84 56 85 53 86
REMARK SMILES IDX 49 87 50 88 51 89 52 90
REMARK H PARENT 7 14 76 43 44 54
REMARK Flexibility Score: inf
ROOT
ATOM      1  C   UNL A   1      33.075  28.673  24.632  1.00  0.00     0.274 C 
ENDROOT
BRANCH   1   2
ATOM      2  O   UNL A   1      32.554  28.202  23.376  1.00  0.00    -0.462 OA
BRANCH   2   3
ATOM      3  C   UNL A   1      33.477  27.747  22.489  1.00  0.00     0.312 C 
ATOM      4  O   UNL A   1      34.437  28.402  22.093  1.00  0.00    -0.252 OA
BRANCH   3   5
ATOM      5  C   UNL A   1      33.213  26.353  21.993  1.00  0.00     0.179 C 
BRANCH   5   6
ATOM      6  C   UNL A   1      32.448  25.452  22.904  1.00  0.00     0.065 A 
ATOM      7  C   UNL A   1      32.158  24.565  24.895  1.00  0.00     0.189 A 
ATOM      8  N   UNL A   1      33.025  25.174  24.131  1.00  0.00    -0.224 NA
ATOM      9  S   UNL A   1      30.733  24.025  24.145  1.00  0.00    -0.105 S 
ATOM     10  C   UNL A   1      31.165  24.947  22.756  1.00  0.00     0.093 A 
BRANCH   7  11
ATOM     11  N   UNL A   1      32.239  24.353  26.235  1.00  0.00    -0.297 N 
ATOM     12  C   UNL A   1      32.551  23.146  26.823  1.00  0.00     0.267 C 
ATOM     13  O   UNL A   1      32.151  22.977  27.981  1.00  0.00    -0.268 OA
ATOM     14  H   UNL A   1      32.061  25.117  26.830  1.00  0.00     0.172 HD
BRANCH  12  15
ATOM     15  C   UNL A   1      33.403  22.150  26.161  1.00  0.00     0.093 A 
ATOM     16  C   UNL A   1      33.875  18.868  24.354  1.00  0.00     0.045 C 
ATOM     17  C   UNL A   1      34.066  20.192  25.015  1.00  0.00    -0.037 A 
ATOM     18  C   UNL A   1      32.987  20.980  25.549  1.00  0.00     0.029 A 
ATOM     19  C   UNL A   1      35.276  20.838  25.197  1.00  0.00     0.005 A 
ATOM     20  S   UNL A   1      35.116  22.154  26.269  1.00  0.00    -0.135 S 
ATOM     21  C   UNL A   1      36.629  20.489  24.670  1.00  0.00     0.056 C 
ENDBRANCH  12  15
ENDBRANCH   7  11
ENDBRANCH   5   6
ENDBRANCH   3   5
ENDBRANCH   2   3
ENDBRANCH   1   2
BRANCH   1  22
ATOM     22  C   UNL A   1      32.136  29.716  25.232  1.00  0.00     0.275 C 
BRANCH  22  23
ATOM     23  O   UNL A   1      32.403  29.860  26.638  1.00  0.00    -0.458 OA
BRANCH  23  24
ATOM     24  C   UNL A   1      32.887  31.061  27.034  1.00  0.00     0.338 C 
ATOM     25  O   UNL A   1      32.366  32.152  26.893  1.00  0.00    -0.246 OA
BRANCH  24  26
ATOM     26  C   UNL A   1      34.200  30.865  27.667  1.00  0.00     0.060 A 
ATOM     27  C   UNL A   1      35.038  31.951  27.927  1.00  0.00     0.016 A 
ATOM     28  C   UNL A   1      34.612  29.566  27.965  1.00  0.00     0.016 A 
ATOM     29  C   UNL A   1      36.295  31.742  28.495  1.00  0.00     0.010 A 
ATOM     30  C   UNL A   1      35.848  29.363  28.584  1.00  0.00     0.010 A 
ATOM     31  C   UNL A   1      36.698  30.448  28.858  1.00  0.00    -0.014 A 
BRANCH  31  32
ATOM     32  C   UNL A   1      37.979  30.213  29.576  1.00  0.00     0.031 A 
ATOM     33  C   UNL A   1      38.993  29.253  29.021  1.00  0.00     0.074 A 
ATOM     34  C   UNL A   1      38.194  30.817  30.761  1.00  0.00     0.049 A 
ATOM     35  N   UNL A   1      40.060  28.757  29.592  1.00  0.00    -0.248 NA
ATOM     36  C   UNL A   1      38.770  28.784  27.645  1.00  0.00     0.031 C 
ATOM     37  C   UNL A   1      37.300  31.796  31.386  1.00  0.00     0.029 A 
ATOM     38  N   UNL A   1      39.217  30.680  31.667  1.00  0.00    -0.354 N 
ATOM     39  C   UNL A   1      40.633  27.904  28.655  1.00  0.00     0.074 A 
ATOM     40  C   UNL A   1      39.777  27.936  27.485  1.00  0.00     0.031 C 
ATOM     41  C   UNL A   1      37.809  32.162  32.572  1.00  0.00     0.029 A 
ATOM     42  C   UNL A   1      39.021  31.392  32.828  1.00  0.00     0.049 A 
ATOM     43  H   UNL A   1      40.014  30.126  31.502  1.00  0.00     0.167 HD
ATOM     44  C   UNL A   1      41.765  27.167  28.764  1.00  0.00     0.034 A 
ATOM     45  C   UNL A   1      39.704  31.383  33.990  1.00  0.00     0.034 A 
ATOM     46  C   UNL A   1      42.603  27.146  29.939  1.00  0.00     0.049 A 
ATOM     47  C   UNL A   1      40.899  30.474  34.124  1.00  0.00     0.074 A 
ATOM     48  C   UNL A   1      43.783  26.452  30.146  1.00  0.00     0.029 A 
ATOM     49  N   UNL A   1      42.346  27.847  31.111  1.00  0.00    -0.354 N 
ATOM     50  N   UNL A   1      41.418  29.658  33.235  1.00  0.00    -0.248 NA
ATOM     51  C   UNL A   1      41.591  30.476  35.419  1.00  0.00     0.031 C 
ATOM     52  C   UNL A   1      44.203  26.682  31.461  1.00  0.00     0.029 A 
ATOM     53  C   UNL A   1      43.324  27.571  32.055  1.00  0.00     0.049 A 
ATOM     54  H   UNL A   1      41.581  28.450  31.250  1.00  0.00     0.167 HD
ATOM     55  C   UNL A   1      42.508  29.062  33.863  1.00  0.00     0.074 A 
ATOM     56  C   UNL A   1      42.584  29.629  35.193  1.00  0.00     0.031 C 
ATOM     57  C   UNL A   1      43.370  28.129  33.385  1.00  0.00     0.034 A 
BRANCH  44  58
ATOM     58  C   UNL A   1      42.140  26.285  27.599  1.00  0.00     0.023 A 
ATOM     59  C   UNL A   1      41.739  24.940  27.530  1.00  0.00     0.031 A 
ATOM     60  C   UNL A   1      42.906  26.801  26.539  1.00  0.00     0.131 A 
ATOM     61  C   UNL A   1      42.145  24.144  26.447  1.00  0.00     0.055 A 
ATOM     62  C   UNL A   1      43.253  26.023  25.433  1.00  0.00     0.041 A 
ATOM     63  F   UNL A   1      43.334  28.074  26.563  1.00  0.00    -0.206 F 
ATOM     64  C   UNL A   1      42.880  24.682  25.387  1.00  0.00     0.022 A 
BRANCH  61  65
ATOM     65  S   UNL A   1      41.785  22.367  26.489  1.00  0.00     0.124 S 
ATOM     66  O   UNL A   1      42.586  21.878  25.371  1.00  0.00    -0.237 OA
ATOM     67  O   UNL A   1      42.243  21.984  27.820  1.00  0.00    -0.237 OA
ATOM     68  O   UNL A   1      40.339  22.305  26.286  1.00  0.00    -0.744 OA
ENDBRANCH  61  65
ENDBRANCH  44  58
BRANCH  45  69
ATOM     69  C   UNL A   1      39.236  32.193  35.152  1.00  0.00     0.023 A 
ATOM     70  C   UNL A   1      39.662  33.519  35.326  1.00  0.00     0.031 A 
ATOM     71  C   UNL A   1      38.406  31.632  36.140  1.00  0.00     0.131 A 
ATOM     72  C   UNL A   1      39.297  34.224  36.483  1.00  0.00     0.055 A 
ATOM     73  C   UNL A   1      37.998  32.356  37.259  1.00  0.00     0.041 A 
ATOM     74  F   UNL A   1      37.974  30.366  36.025  1.00  0.00    -0.206 F 
ATOM     75  C   UNL A   1      38.456  33.657  37.444  1.00  0.00     0.022 A 
BRANCH  72  76
ATOM     76  S   UNL A   1      40.023  35.862  36.765  1.00  0.00     0.124 S 
ATOM     77  O   UNL A   1      41.425  35.529  36.992  1.00  0.00    -0.237 OA
ATOM     78  O   UNL A   1      39.720  36.546  35.513  1.00  0.00    -0.237 OA
ATOM     79  O   UNL A   1      39.302  36.356  37.935  1.00  0.00    -0.744 OA
ENDBRANCH  72  76
ENDBRANCH  45  69
BRANCH  57  80
ATOM     80  C   UNL A   1      44.477  27.693  34.310  1.00  0.00     0.023 A 
ATOM     81  C   UNL A   1      44.321  26.594  35.172  1.00  0.00     0.031 A 
ATOM     82  C   UNL A   1      45.690  28.402  34.348  1.00  0.00     0.131 A 
ATOM     83  C   UNL A   1      45.344  26.266  36.074  1.00  0.00     0.055 A 
ATOM     84  C   UNL A   1      46.725  28.037  35.210  1.00  0.00     0.041 A 
ATOM     85  F   UNL A   1      45.888  29.462  33.547  1.00  0.00    -0.206 F 
ATOM     86  C   UNL A   1      46.551  26.971  36.088  1.00  0.00     0.022 A 
BRANCH  83  87
ATOM     87  S   UNL A   1      45.047  24.950  37.286  1.00  0.00     0.124 S 
ATOM     88  O   UNL A   1      45.191  23.748  36.470  1.00  0.00    -0.237 OA
ATOM     89  O   UNL A   1      46.102  25.183  38.268  1.00  0.00    -0.237 OA
ATOM     90  O   UNL A   1      43.691  25.218  37.760  1.00  0.00    -0.744 OA
ENDBRANCH  83  87
ENDBRANCH  57  80
ENDBRANCH  31  32
ENDBRANCH  24  26
ENDBRANCH  23  24
ENDBRANCH  22  23
ENDBRANCH   1  22
TORSDOF 17
ENDMDL
MODEL 2
REMARK VINA RESULT:     -11.1      5.005     10.145
REMARK SMILES Cc1cc(C(=O)Nc2nc(CC(=O)OCCOC(=O)c3ccc(-c4c5nc(c(-c6cc(S(=O)(=O)[O-])ccc6F)c6ccc([nH]6)c(-c6cc(S(=O)(=O)[O-])ccc6F)c6nc(c(-c7cc(S(=O)(=O)[O-])ccc7F)c7ccc4[nH]7)C=C6)C=C5)cc3)cs2)sc1C
REMARK SMILES IDX 15 1 14 2 12 3 13 4 11 5 10 6 8 7 9 8 84 9 83 10 7 11 5 12
REMARK SMILES IDX 6 13 4 15 1 16 2 17 3 18 86 19 85 20 87 21 16 22 17 23 18 24
REMARK SMILES IDX 19 25 20 26 21 27 82 28 22 29 81 30 23 31 24 32 25 33 75 34
REMARK SMILES IDX 26 35 80 36 74 37 76 38 27 39 79 40 73 41 72 42 28 44 60 45
REMARK SMILES IDX 40 46 59 47 41 48 44 49 58 50 77 51 42 52 43 53 57 55 78 56
REMARK SMILES IDX 45 57 29 58 30 59 38 60 31 61 37 62 39 63 36 64 32 65 33 66
REMARK SMILES IDX 34 67 35 68 61 69 62 70 70 71 63 72 69 73 71 74 68 75 64 76
REMARK SMILES IDX 65 77 66 78 67 79 46 80 47 81 55 82 48 83 54 84 56 85 53 86
REMARK SMILES IDX 49 87 50 88 51 89 52 90
REMARK H PARENT 7 14 76 43 44 54
REMARK Flexibility Score: inf
ROOT
ATOM      1  C   UNL A   1      34.566  21.050  25.355  1.00  0.00     0.274 C 
ENDROOT
BRANCH   1   2
ATOM      2  O   UNL A   1      33.750  20.630  24.247  1.00  0.00    -0.462 OA
BRANCH   2   3
ATOM      3  C   UNL A   1      33.096  21.623  23.588  1.00  0.00     0.312 C 
ATOM      4  O   UNL A   1      32.328  21.441  22.647  1.00  0.00    -0.252 OA
BRANCH   3   5
ATOM      5  C   UNL A   1      33.412  23.003  24.094  1.00  0.00     0.179 C 
BRANCH   5   6
ATOM      6  C   UNL A   1      32.310  24.008  24.029  1.00  0.00     0.065 A 
ATOM      7  C   UNL A   1      31.433  25.808  23.122  1.00  0.00     0.189 A 
ATOM      8  N   UNL A   1      32.544  25.138  23.263  1.00  0.00    -0.224 NA
ATOM      9  S   UNL A   1      30.128  25.330  24.098  1.00  0.00    -0.105 S 
ATOM     10  C   UNL A   1      31.018  23.919  24.523  1.00  0.00     0.093 A 
BRANCH   7  11
ATOM     11  N   UNL A   1      31.179  26.818  22.248  1.00  0.00    -0.297 N 
ATOM     12  C   UNL A   1      31.005  28.140  22.601  1.00  0.00     0.267 C 
ATOM     13  O   UNL A   1      30.350  28.837  21.818  1.00  0.00    -0.268 OA
ATOM     14  H   UNL A   1      31.116  26.590  21.293  1.00  0.00     0.172 HD
BRANCH  12  15
ATOM     15  C   UNL A   1      31.646  28.724  23.786  1.00  0.00     0.093 A 
ATOM     16  C   UNL A   1      31.667  31.131  26.695  1.00  0.00     0.045 C 
ATOM     17  C   UNL A   1      31.998  30.080  25.689  1.00  0.00    -0.037 A 
ATOM     18  C   UNL A   1      31.110  29.682  24.629  1.00  0.00     0.029 A 
ATOM     19  C   UNL A   1      33.172  29.349  25.640  1.00  0.00     0.005 A 
ATOM     20  S   UNL A   1      33.302  28.491  24.172  1.00  0.00    -0.135 S 
ATOM     21  C   UNL A   1      34.301  29.297  26.616  1.00  0.00     0.056 C 
ENDBRANCH  12  15
ENDBRANCH   7  11
ENDBRANCH   5   6
ENDBRANCH   3   5
ENDBRANCH   2   3
ENDBRANCH   1   2
BRANCH   1  22
ATOM     22  C   UNL A   1      36.020  20.648  25.118  1.00  0.00     0.275 C 
BRANCH  22  23
ATOM     23  O   UNL A   1      36.896  21.567  25.796  1.00  0.00    -0.458 OA
BRANCH  23  24
ATOM     24  C   UNL A   1      38.209  21.238  25.810  1.00  0.00     0.338 C 
ATOM     25  O   UNL A   1      38.705  20.158  25.546  1.00  0.00    -0.246 OA
BRANCH  24  26
ATOM     26  C   UNL A   1      38.993  22.410  26.231  1.00  0.00     0.060 A 
ATOM     27  C   UNL A   1      38.590  23.702  25.882  1.00  0.00     0.016 A 
ATOM     28  C   UNL A   1      40.171  22.206  26.948  1.00  0.00     0.016 A 
ATOM     29  C   UNL A   1      39.366  24.799  26.258  1.00  0.00     0.010 A 
ATOM     30  C   UNL A   1      40.917  23.308  27.371  1.00  0.00     0.010 A 
ATOM     31  C   UNL A   1      40.521  24.614  27.034  1.00  0.00    -0.014 A 
BRANCH  31  32
ATOM     32  C   UNL A   1      41.296  25.772  27.551  1.00  0.00     0.031 A 
ATOM     33  C   UNL A   1      40.622  26.823  28.387  1.00  0.00     0.074 A 
ATOM     34  C   UNL A   1      42.593  25.906  27.209  1.00  0.00     0.049 A 
ATOM     35  N   UNL A   1      41.064  27.999  28.750  1.00  0.00    -0.248 NA
ATOM     36  C   UNL A   1      39.269  26.510  28.869  1.00  0.00     0.031 C 
ATOM     37  C   UNL A   1      43.366  24.934  26.431  1.00  0.00     0.029 A 
ATOM     38  N   UNL A   1      43.484  26.923  27.445  1.00  0.00    -0.354 N 
ATOM     39  C   UNL A   1      40.041  28.579  29.492  1.00  0.00     0.074 A 
ATOM     40  C   UNL A   1      38.946  27.629  29.506  1.00  0.00     0.031 C 
ATOM     41  C   UNL A   1      44.609  25.406  26.250  1.00  0.00     0.029 A 
ATOM     42  C   UNL A   1      44.700  26.742  26.829  1.00  0.00     0.049 A 
ATOM     43  H   UNL A   1      43.273  27.707  28.003  1.00  0.00     0.167 HD
ATOM     44  C   UNL A   1      40.021  29.789  30.102  1.00  0.00     0.034 A 
ATOM     45  C   UNL A   1      45.750  27.577  26.692  1.00  0.00     0.034 A 
ATOM     46  C   UNL A   1      41.121  30.723  30.075  1.00  0.00     0.049 A 
ATOM     47  C   UNL A   1      45.661  28.958  27.289  1.00  0.00     0.074 A 
ATOM     48  C   UNL A   1      41.214  31.966  30.678  1.00  0.00     0.029 A 
ATOM     49  N   UNL A   1      42.319  30.521  29.401  1.00  0.00    -0.354 N 
ATOM     50  N   UNL A   1      44.680  29.500  27.973  1.00  0.00    -0.248 NA
ATOM     51  C   UNL A   1      46.816  29.842  27.087  1.00  0.00     0.031 C 
ATOM     52  C   UNL A   1      42.438  32.540  30.317  1.00  0.00     0.029 A 
ATOM     53  C   UNL A   1      43.139  31.631  29.543  1.00  0.00     0.049 A 
ATOM     54  H   UNL A   1      42.552  29.709  28.897  1.00  0.00     0.167 HD
ATOM     55  C   UNL A   1      45.108  30.785  28.293  1.00  0.00     0.074 A 
ATOM     56  C   UNL A   1      46.443  30.926  27.750  1.00  0.00     0.031 C 
ATOM     57  C   UNL A   1      44.458  31.762  28.975  1.00  0.00     0.034 A 
BRANCH  44  58
ATOM     58  C   UNL A   1      38.753  30.193  30.813  1.00  0.00     0.023 A 
ATOM     59  C   UNL A   1      37.760  30.957  30.177  1.00  0.00     0.031 A 
ATOM     60  C   UNL A   1      38.534  29.802  32.145  1.00  0.00     0.131 A 
ATOM     61  C   UNL A   1      36.614  31.346  30.889  1.00  0.00     0.055 A 
ATOM     62  C   UNL A   1      37.364  30.136  32.828  1.00  0.00     0.041 A 
ATOM     63  F   UNL A   1      39.459  29.088  32.808  1.00  0.00    -0.206 F 
ATOM     64  C   UNL A   1      36.399  30.921  32.203  1.00  0.00     0.022 A 
BRANCH  61  65
ATOM     65  S   UNL A   1      35.453  32.498  30.108  1.00  0.00     0.124 S 
ATOM     66  O   UNL A   1      36.286  33.684  29.934  1.00  0.00    -0.237 OA
ATOM     67  O   UNL A   1      35.082  31.793  28.886  1.00  0.00    -0.237 OA
ATOM     68  O   UNL A   1      34.385  32.633  31.097  1.00  0.00    -0.744 OA
ENDBRANCH  61  65
ENDBRANCH  44  58
BRANCH  45  69
ATOM     69  C   UNL A   1      46.942  27.174  25.892  1.00  0.00     0.023 A 
ATOM     70  C   UNL A   1      47.158  27.691  24.606  1.00  0.00     0.031 A 
ATOM     71  C   UNL A   1      47.850  26.215  26.378  1.00  0.00     0.131 A 
ATOM     72  C   UNL A   1      48.226  27.212  23.830  1.00  0.00     0.055 A 
ATOM     73  C   UNL A   1      48.944  25.786  25.626  1.00  0.00     0.041 A 
ATOM     74  F   UNL A   1      47.688  25.683  27.600  1.00  0.00    -0.206 F 
ATOM     75  C   UNL A   1      49.128  26.275  24.337  1.00  0.00     0.022 A 
BRANCH  72  76
ATOM     76  S   UNL A   1      48.357  27.760  22.106  1.00  0.00     0.124 S 
ATOM     77  O   UNL A   1      47.175  28.605  21.972  1.00  0.00    -0.237 OA
ATOM     78  O   UNL A   1      49.643  28.450  22.106  1.00  0.00    -0.237 OA
ATOM     79  O   UNL A   1      48.321  26.512  21.349  1.00  0.00    -0.744 OA
ENDBRANCH  72  76
ENDBRANCH  45  69
BRANCH  57  80
ATOM     80  C   UNL A   1      45.206  33.054  29.184  1.00  0.00     0.023 A 
ATOM     81  C   UNL A   1      45.142  34.097  28.245  1.00  0.00     0.031 A 
ATOM     82  C   UNL A   1      46.014  33.230  30.321  1.00  0.00     0.131 A 
ATOM     83  C   UNL A   1      45.913  35.254  28.435  1.00  0.00     0.055 A 
ATOM     84  C   UNL A   1      46.736  34.405  30.531  1.00  0.00     0.041 A 
ATOM     85  F   UNL A   1      46.112  32.262  31.246  1.00  0.00    -0.206 F 
ATOM     86  C   UNL A   1      46.698  35.421  29.579  1.00  0.00     0.022 A 
BRANCH  83  87
ATOM     87  S   UNL A   1      45.938  36.509  27.126  1.00  0.00     0.124 S 
ATOM     88  O   UNL A   1      46.389  35.736  25.973  1.00  0.00    -0.237 OA
ATOM     89  O   UNL A   1      44.548  36.953  27.090  1.00  0.00    -0.237 OA
ATOM     90  O   UNL A   1      46.892  37.501  27.619  1.00  0.00    -0.744 OA
ENDBRANCH  83  87
ENDBRANCH  57  80
ENDBRANCH  31  32
ENDBRANCH  24  26
ENDBRANCH  23  24
ENDBRANCH  22  23
ENDBRANCH   1  22
TORSDOF 17
ENDMDL
MODEL 3
REMARK VINA RESULT:     -11.0      4.987     10.074
REMARK SMILES Cc1cc(C(=O)Nc2nc(CC(=O)OCCOC(=O)c3ccc(-c4c5nc(c(-c6cc(S(=O)(=O)[O-])ccc6F)c6ccc([nH]6)c(-c6cc(S(=O)(=O)[O-])ccc6F)c6nc(c(-c7cc(S(=O)(=O)[O-])ccc7F)c7ccc4[nH]7)C=C6)C=C5)cc3)cs2)sc1C
REMARK SMILES IDX 15 1 14 2 12 3 13 4 11 5 10 6 8 7 9 8 84 9 83 10 7 11 5 12
REMARK SMILES IDX 6 13 4 15 1 16 2 17 3 18 86 19 85 20 87 21 16 22 17 23 18 24
REMARK SMILES IDX 19 25 20 26 21 27 82 28 22 29 81 30 23 31 24 32 25 33 75 34
REMARK SMILES IDX 26 35 80 36 74 37 76 38 27 39 79 40 73 41 72 42 28 44 60 45
REMARK SMILES IDX 40 46 59 47 41 48 44 49 58 50 77 51 42 52 43 53 57 55 78 56
REMARK SMILES IDX 45 57 29 58 30 59 38 60 31 61 37 62 39 63 36 64 32 65 33 66
REMARK SMILES IDX 34 67 35 68 61 69 62 70 70 71 63 72 69 73 71 74 68 75 64 76
REMARK SMILES IDX 65 77 66 78 67 79 46 80 47 81 55 82 48 83 54 84 56 85 53 86
REMARK SMILES IDX 49 87 50 88 51 89 52 90
REMARK H PARENT 7 14 76 43 44 54
REMARK Flexibility Score: inf
ROOT
ATOM      1  C   UNL A   1      35.903  20.712  25.016  1.00  0.00     0.274 C 
ENDROOT
BRANCH   1   2
ATOM      2  O   UNL A   1      35.538  21.463  26.188  1.00  0.00    -0.462 OA
BRANCH   2   3
ATOM      3  C   UNL A   1      34.206  21.551  26.440  1.00  0.00     0.312 C 
ATOM      4  O   UNL A   1      33.693  21.343  27.536  1.00  0.00    -0.252 OA
BRANCH   3   5
ATOM      5  C   UNL A   1      33.378  21.905  25.236  1.00  0.00     0.179 C 
BRANCH   5   6
ATOM      6  C   UNL A   1      33.471  23.313  24.751  1.00  0.00     0.065 A 
ATOM      7  C   UNL A   1      33.541  25.469  25.180  1.00  0.00     0.189 A 
ATOM      8  N   UNL A   1      33.212  24.308  25.680  1.00  0.00    -0.224 NA
ATOM      9  S   UNL A   1      33.893  25.509  23.519  1.00  0.00    -0.105 S 
ATOM     10  C   UNL A   1      33.910  23.787  23.525  1.00  0.00     0.093 A 
BRANCH   7  11
ATOM     11  N   UNL A   1      33.682  26.647  25.844  1.00  0.00    -0.297 N 
ATOM     12  C   UNL A   1      33.101  27.838  25.465  1.00  0.00     0.267 C 
ATOM     13  O   UNL A   1      33.657  28.871  25.857  1.00  0.00    -0.268 OA
ATOM     14  H   UNL A   1      34.240  26.649  26.655  1.00  0.00     0.172 HD
BRANCH  12  15
ATOM     15  C   UNL A   1      31.833  27.891  24.727  1.00  0.00     0.093 A 
ATOM     16  C   UNL A   1      28.399  26.534  23.939  1.00  0.00     0.045 C 
ATOM     17  C   UNL A   1      29.658  27.333  23.992  1.00  0.00    -0.037 A 
ATOM     18  C   UNL A   1      30.746  27.048  24.888  1.00  0.00     0.029 A 
ATOM     19  C   UNL A   1      29.946  28.439  23.211  1.00  0.00     0.005 A 
ATOM     20  S   UNL A   1      31.592  28.868  23.337  1.00  0.00    -0.135 S 
ATOM     21  C   UNL A   1      29.067  29.195  22.270  1.00  0.00     0.056 C 
ENDBRANCH  12  15
ENDBRANCH   7  11
ENDBRANCH   5   6
ENDBRANCH   3   5
ENDBRANCH   2   3
ENDBRANCH   1   2
BRANCH   1  22
ATOM     22  C   UNL A   1      37.402  20.839  24.757  1.00  0.00     0.275 C 
BRANCH  22  23
ATOM     23  O   UNL A   1      37.975  21.792  25.670  1.00  0.00    -0.458 OA
BRANCH  23  24
ATOM     24  C   UNL A   1      39.218  21.509  26.125  1.00  0.00     0.338 C 
ATOM     25  O   UNL A   1      39.784  20.431  26.112  1.00  0.00    -0.246 OA
BRANCH  24  26
ATOM     26  C   UNL A   1      39.815  22.732  26.684  1.00  0.00     0.060 A 
ATOM     27  C   UNL A   1      40.762  22.662  27.708  1.00  0.00     0.016 A 
ATOM     28  C   UNL A   1      39.386  23.968  26.201  1.00  0.00     0.016 A 
ATOM     29  C   UNL A   1      41.290  23.834  28.251  1.00  0.00     0.010 A 
ATOM     30  C   UNL A   1      39.955  25.139  26.708  1.00  0.00     0.010 A 
ATOM     31  C   UNL A   1      40.915  25.083  27.733  1.00  0.00    -0.014 A 
BRANCH  31  32
ATOM     32  C   UNL A   1      41.553  26.338  28.209  1.00  0.00     0.031 A 
ATOM     33  C   UNL A   1      40.728  27.404  28.873  1.00  0.00     0.074 A 
ATOM     34  C   UNL A   1      42.866  26.541  27.981  1.00  0.00     0.049 A 
ATOM     35  N   UNL A   1      41.050  28.637  29.164  1.00  0.00    -0.248 NA
ATOM     36  C   UNL A   1      39.356  27.031  29.252  1.00  0.00     0.031 C 
ATOM     37  C   UNL A   1      43.779  25.568  27.376  1.00  0.00     0.029 A 
ATOM     38  N   UNL A   1      43.657  27.641  28.204  1.00  0.00    -0.354 N 
ATOM     39  C   UNL A   1      39.919  29.199  29.746  1.00  0.00     0.074 A 
ATOM     40  C   UNL A   1      38.895  28.172  29.746  1.00  0.00     0.031 C 
ATOM     41  C   UNL A   1      44.999  26.116  27.270  1.00  0.00     0.029 A 
ATOM     42  C   UNL A   1      44.940  27.501  27.725  1.00  0.00     0.049 A 
ATOM     43  H   UNL A   1      43.338  28.452  28.662  1.00  0.00     0.167 HD
ATOM     44  C   UNL A   1      39.755  30.453  30.235  1.00  0.00     0.034 A 
ATOM     45  C   UNL A   1      45.938  28.399  27.611  1.00  0.00     0.034 A 
ATOM     46  C   UNL A   1      40.785  31.463  30.224  1.00  0.00     0.049 A 
ATOM     47  C   UNL A   1      45.696  29.816  28.063  1.00  0.00     0.074 A 
ATOM     48  C   UNL A   1      40.731  32.758  30.712  1.00  0.00     0.029 A 
ATOM     49  N   UNL A   1      42.057  31.296  29.690  1.00  0.00    -0.354 N 
ATOM     50  N   UNL A   1      44.615  30.338  28.595  1.00  0.00    -0.248 NA
ATOM     51  C   UNL A   1      46.802  30.765  27.889  1.00  0.00     0.031 C 
ATOM     52  C   UNL A   1      41.944  33.391  30.417  1.00  0.00     0.029 A 
ATOM     53  C   UNL A   1      42.781  32.473  29.803  1.00  0.00     0.049 A 
ATOM     54  H   UNL A   1      42.395  30.463  29.289  1.00  0.00     0.167 HD
ATOM     55  C   UNL A   1      44.920  31.676  28.832  1.00  0.00     0.074 A 
ATOM     56  C   UNL A   1      46.291  31.871  28.408  1.00  0.00     0.031 C 
ATOM     57  C   UNL A   1      44.139  32.655  29.353  1.00  0.00     0.034 A 
BRANCH  44  58
ATOM     58  C   UNL A   1      38.397  30.819  30.780  1.00  0.00     0.023 A 
ATOM     59  C   UNL A   1      37.402  31.390  29.967  1.00  0.00     0.031 A 
ATOM     60  C   UNL A   1      38.092  30.587  32.132  1.00  0.00     0.131 A 
ATOM     61  C   UNL A   1      36.166  31.753  30.526  1.00  0.00     0.055 A 
ATOM     62  C   UNL A   1      36.839  30.890  32.668  1.00  0.00     0.041 A 
ATOM     63  F   UNL A   1      39.011  30.063  32.959  1.00  0.00    -0.206 F 
ATOM     64  C   UNL A   1      35.870  31.485  31.865  1.00  0.00     0.022 A 
BRANCH  61  65
ATOM     65  S   UNL A   1      34.984  32.671  29.502  1.00  0.00     0.124 S 
ATOM     66  O   UNL A   1      35.871  33.550  28.745  1.00  0.00    -0.237 OA
ATOM     67  O   UNL A   1      34.335  31.609  28.741  1.00  0.00    -0.237 OA
ATOM     68  O   UNL A   1      34.134  33.345  30.481  1.00  0.00    -0.744 OA
ENDBRANCH  61  65
ENDBRANCH  44  58
BRANCH  45  69
ATOM     69  C   UNL A   1      47.230  28.020  26.970  1.00  0.00     0.023 A 
ATOM     70  C   UNL A   1      47.338  27.902  25.576  1.00  0.00     0.031 A 
ATOM     71  C   UNL A   1      48.361  27.708  27.747  1.00  0.00     0.131 A 
ATOM     72  C   UNL A   1      48.533  27.437  25.004  1.00  0.00     0.055 A 
ATOM     73  C   UNL A   1      49.565  27.303  27.171  1.00  0.00     0.041 A 
ATOM     74  F   UNL A   1      48.311  27.799  29.086  1.00  0.00    -0.206 F 
ATOM     75  C   UNL A   1      49.651  27.151  25.791  1.00  0.00     0.022 A 
BRANCH  72  76
ATOM     76  S   UNL A   1      48.571  27.113  23.220  1.00  0.00     0.124 S 
ATOM     77  O   UNL A   1      49.972  27.367  22.902  1.00  0.00    -0.237 OA
ATOM     78  O   UNL A   1      48.140  25.721  23.157  1.00  0.00    -0.237 OA
ATOM     79  O   UNL A   1      47.623  28.083  22.678  1.00  0.00    -0.744 OA
ENDBRANCH  72  76
ENDBRANCH  45  69
BRANCH  57  80
ATOM     80  C   UNL A   1      44.772  34.014  29.509  1.00  0.00     0.023 A 
ATOM     81  C   UNL A   1      44.687  34.983  28.494  1.00  0.00     0.031 A 
ATOM     82  C   UNL A   1      45.492  34.333  30.674  1.00  0.00     0.131 A 
ATOM     83  C   UNL A   1      45.355  36.208  28.642  1.00  0.00     0.055 A 
ATOM     84  C   UNL A   1      46.109  35.574  30.838  1.00  0.00     0.041 A 
ATOM     85  F   UNL A   1      45.606  33.441  31.672  1.00  0.00    -0.206 F 
ATOM     86  C   UNL A   1      46.053  36.516  29.814  1.00  0.00     0.022 A 
BRANCH  83  87
ATOM     87  S   UNL A   1      45.365  37.369  27.248  1.00  0.00     0.124 S 
ATOM     88  O   UNL A   1      46.031  38.532  27.827  1.00  0.00    -0.237 OA
ATOM     89  O   UNL A   1      46.124  36.638  26.237  1.00  0.00    -0.237 OA
ATOM     90  O   UNL A   1      43.948  37.553  26.944  1.00  0.00    -0.744 OA
ENDBRANCH  83  87
ENDBRANCH  57  80
ENDBRANCH  31  32
ENDBRANCH  24  26
ENDBRANCH  23  24
ENDBRANCH  22  23
ENDBRANCH   1  22
TORSDOF 17
ENDMDL
