MODEL 1
REMARK VINA RESULT:     -12.0      0.000      0.000
REMARK SMILES C[C@@H]1C[N@H+]2CCCC[C@@H]2CN1C(=O)NC(=O)CCC(=O)OCCOC(=O)c1ccc(-c2c3nc(c(-c4cc(S(=O)(=O)[O-])ccc4F)c4ccc([nH]4)c(-c4cc(S(=O)(=O)[O-])ccc4F)c4nc(c(-c5cc(S(=O)(=O)[O-])ccc5F)c5ccc2[nH]5)C=C4)C=C3)cc1
REMARK SMILES IDX 22 1 21 2 19 3 20 4 18 5 17 6 15 7 12 8 13 9 14 10 16 12
REMARK SMILES IDX 11 13 1 14 2 15 3 16 4 17 10 18 5 19 9 20 6 22 8 23 7 24
REMARK SMILES IDX 23 25 24 26 25 27 26 28 27 29 28 30 89 31 29 32 88 33 30 34
REMARK SMILES IDX 31 35 32 36 82 37 33 38 87 39 81 40 83 41 34 42 86 43 80 44
REMARK SMILES IDX 79 45 35 47 67 48 47 49 66 50 48 51 51 52 65 53 84 54 49 55
REMARK SMILES IDX 50 56 64 58 85 59 52 60 36 61 37 62 45 63 38 64 44 65 46 66
REMARK SMILES IDX 43 67 39 68 40 69 41 70 42 71 68 72 69 73 77 74 70 75 76 76
REMARK SMILES IDX 78 77 75 78 71 79 72 80 73 81 74 82 53 83 54 84 62 85 55 86
REMARK SMILES IDX 61 87 63 88 60 89 56 90 57 91 58 92 59 93
REMARK H PARENT 14 11 4 21 83 46 51 57
REMARK Flexibility Score: inf
ROOT
ATOM      1  C   UNL A   1      31.440  31.877  26.639  1.00  0.00     0.274 C 
ENDROOT
BRANCH   1   2
ATOM      2  O   UNL A   1      32.458  30.868  26.533  1.00  0.00    -0.462 OA
BRANCH   2   3
ATOM      3  C   UNL A   1      32.035  29.581  26.495  1.00  0.00     0.306 C 
ATOM      4  O   UNL A   1      31.881  28.871  27.483  1.00  0.00    -0.252 OA
BRANCH   3   5
ATOM      5  C   UNL A   1      31.729  29.099  25.090  1.00  0.00     0.132 C 
BRANCH   5   6
ATOM      6  C   UNL A   1      32.563  27.942  24.536  1.00  0.00     0.112 C 
BRANCH   6   7
ATOM      7  C   UNL A   1      33.085  28.166  23.138  1.00  0.00     0.228 C 
ATOM      8  C   UNL A   1      33.103  25.845  21.755  1.00  0.00     0.324 C 
ATOM      9  O   UNL A   1      32.927  25.681  20.542  1.00  0.00    -0.248 OA
ATOM     10  N   UNL A   1      33.229  27.173  22.162  1.00  0.00    -0.278 N 
ATOM     11  H   UNL A   1      33.604  27.641  21.382  1.00  0.00     0.174 HD
ATOM     12  O   UNL A   1      33.383  29.319  22.795  1.00  0.00    -0.275 OA
BRANCH   8  13
ATOM     13  N   UNL A   1      33.203  24.781  22.611  1.00  0.00    -0.310 N 
ATOM     14  C   UNL A   1      30.796  24.409  23.377  1.00  0.00     0.037 C 
ATOM     15  C   UNL A   1      32.059  23.822  22.732  1.00  0.00     0.139 C 
ATOM     16  C   UNL A   1      32.383  22.435  23.385  1.00  0.00     0.287 C 
ATOM     17  N   UNL A   1      33.605  22.325  24.196  1.00  0.00    -0.329 N 
ATOM     18  C   UNL A   1      34.420  24.457  23.321  1.00  0.00     0.186 C 
ATOM     19  C   UNL A   1      33.919  20.910  24.457  1.00  0.00     0.262 C 
ATOM     20  C   UNL A   1      34.724  22.977  23.509  1.00  0.00     0.203 C 
ATOM     21  H   UNL A   1      33.451  22.793  25.090  1.00  0.00     0.348 HD
ATOM     22  C   UNL A   1      35.204  20.756  25.276  1.00  0.00     0.062 C 
ATOM     23  C   UNL A   1      36.028  22.879  24.320  1.00  0.00     0.067 C 
ATOM     24  C   UNL A   1      36.385  21.434  24.610  1.00  0.00     0.012 C 
ENDBRANCH   8  13
ENDBRANCH   6   7
ENDBRANCH   5   6
ENDBRANCH   3   5
ENDBRANCH   2   3
ENDBRANCH   1   2
BRANCH   1  25
ATOM     25  C   UNL A   1      32.079  33.252  26.863  1.00  0.00     0.275 C 
BRANCH  25  26
ATOM     26  O   UNL A   1      32.364  33.737  28.205  1.00  0.00    -0.458 OA
BRANCH  26  27
ATOM     27  C   UNL A   1      33.575  34.283  28.453  1.00  0.00     0.338 C 
ATOM     28  O   UNL A   1      33.838  35.470  28.409  1.00  0.00    -0.246 OA
BRANCH  27  29
ATOM     29  C   UNL A   1      34.673  33.320  28.723  1.00  0.00     0.060 A 
ATOM     30  C   UNL A   1      35.980  33.781  28.484  1.00  0.00     0.016 A 
ATOM     31  C   UNL A   1      34.477  31.989  29.099  1.00  0.00     0.016 A 
ATOM     32  C   UNL A   1      37.082  32.945  28.667  1.00  0.00     0.010 A 
ATOM     33  C   UNL A   1      35.579  31.139  29.265  1.00  0.00     0.010 A 
ATOM     34  C   UNL A   1      36.888  31.629  29.109  1.00  0.00    -0.014 A 
BRANCH  34  35
ATOM     35  C   UNL A   1      37.998  30.963  29.835  1.00  0.00     0.031 A 
ATOM     36  C   UNL A   1      38.857  29.876  29.279  1.00  0.00     0.074 A 
ATOM     37  C   UNL A   1      38.169  31.382  31.101  1.00  0.00     0.049 A 
ATOM     38  N   UNL A   1      40.029  29.457  29.683  1.00  0.00    -0.248 NA
ATOM     39  C   UNL A   1      38.348  29.166  28.111  1.00  0.00     0.031 C 
ATOM     40  C   UNL A   1      37.353  32.408  31.761  1.00  0.00     0.029 A 
ATOM     41  N   UNL A   1      39.047  30.983  32.062  1.00  0.00    -0.354 N 
ATOM     42  C   UNL A   1      40.441  28.516  28.743  1.00  0.00     0.074 A 
ATOM     43  C   UNL A   1      39.380  28.405  27.767  1.00  0.00     0.031 C 
ATOM     44  C   UNL A   1      37.749  32.533  33.031  1.00  0.00     0.029 A 
ATOM     45  C   UNL A   1      38.837  31.599  33.269  1.00  0.00     0.049 A 
ATOM     46  H   UNL A   1      39.760  30.321  31.907  1.00  0.00     0.167 HD
ATOM     47  C   UNL A   1      41.577  27.775  28.737  1.00  0.00     0.034 A 
ATOM     48  C   UNL A   1      39.458  31.423  34.444  1.00  0.00     0.034 A 
ATOM     49  C   UNL A   1      42.452  27.695  29.885  1.00  0.00     0.049 A 
ATOM     50  C   UNL A   1      40.625  30.485  34.478  1.00  0.00     0.074 A 
ATOM     51  C   UNL A   1      43.612  26.959  30.049  1.00  0.00     0.029 A 
ATOM     52  N   UNL A   1      42.185  28.292  31.115  1.00  0.00    -0.354 N 
ATOM     53  N   UNL A   1      41.140  29.777  33.497  1.00  0.00    -0.248 NA
ATOM     54  C   UNL A   1      41.311  30.349  35.761  1.00  0.00     0.031 C 
ATOM     55  C   UNL A   1      43.965  27.006  31.404  1.00  0.00     0.029 A 
ATOM     56  C   UNL A   1      43.095  27.862  32.066  1.00  0.00     0.049 A 
ATOM     57  H   UNL A   1      41.454  28.930  31.282  1.00  0.00     0.167 HD
ATOM     58  C   UNL A   1      42.234  29.121  34.044  1.00  0.00     0.074 A 
ATOM     59  C   UNL A   1      42.309  29.542  35.433  1.00  0.00     0.031 C 
ATOM     60  C   UNL A   1      43.103  28.257  33.457  1.00  0.00     0.034 A 
BRANCH  47  61
ATOM     61  C   UNL A   1      41.851  26.915  27.521  1.00  0.00     0.023 A 
ATOM     62  C   UNL A   1      41.540  25.541  27.506  1.00  0.00     0.031 A 
ATOM     63  C   UNL A   1      42.436  27.462  26.365  1.00  0.00     0.131 A 
ATOM     64  C   UNL A   1      41.854  24.757  26.381  1.00  0.00     0.055 A 
ATOM     65  C   UNL A   1      42.694  26.690  25.229  1.00  0.00     0.041 A 
ATOM     66  F   UNL A   1      42.786  28.757  26.324  1.00  0.00    -0.206 F 
ATOM     67  C   UNL A   1      42.412  25.327  25.235  1.00  0.00     0.022 A 
BRANCH  64  68
ATOM     68  S   UNL A   1      41.636  22.956  26.475  1.00  0.00     0.124 S 
ATOM     69  O   UNL A   1      42.343  22.506  25.278  1.00  0.00    -0.237 OA
ATOM     70  O   UNL A   1      42.263  22.628  27.749  1.00  0.00    -0.237 OA
ATOM     71  O   UNL A   1      40.185  22.782  26.431  1.00  0.00    -0.744 OA
ENDBRANCH  64  68
ENDBRANCH  47  61
BRANCH  48  72
ATOM     72  C   UNL A   1      38.998  32.193  35.624  1.00  0.00     0.023 A 
ATOM     73  C   UNL A   1      38.286  31.562  36.650  1.00  0.00     0.031 A 
ATOM     74  C   UNL A   1      39.331  33.553  35.783  1.00  0.00     0.131 A 
ATOM     75  C   UNL A   1      37.907  32.292  37.784  1.00  0.00     0.055 A 
ATOM     76  C   UNL A   1      38.994  34.263  36.934  1.00  0.00     0.041 A 
ATOM     77  F   UNL A   1      40.039  34.194  34.838  1.00  0.00    -0.206 F 
ATOM     78  C   UNL A   1      38.269  33.632  37.941  1.00  0.00     0.022 A 
BRANCH  75  79
ATOM     79  S   UNL A   1      36.883  31.468  39.029  1.00  0.00     0.124 S 
ATOM     80  O   UNL A   1      35.679  32.292  39.016  1.00  0.00    -0.237 OA
ATOM     81  O   UNL A   1      36.749  30.127  38.470  1.00  0.00    -0.237 OA
ATOM     82  O   UNL A   1      37.688  31.560  40.244  1.00  0.00    -0.744 OA
ENDBRANCH  75  79
ENDBRANCH  48  72
BRANCH  60  83
ATOM     83  C   UNL A   1      44.190  27.709  34.344  1.00  0.00     0.023 A 
ATOM     84  C   UNL A   1      44.021  26.501  35.041  1.00  0.00     0.031 A 
ATOM     85  C   UNL A   1      45.392  28.417  34.516  1.00  0.00     0.131 A 
ATOM     86  C   UNL A   1      45.008  26.073  35.938  1.00  0.00     0.055 A 
ATOM     87  C   UNL A   1      46.402  27.945  35.353  1.00  0.00     0.041 A 
ATOM     88  F   UNL A   1      45.599  29.579  33.877  1.00  0.00    -0.206 F 
ATOM     89  C   UNL A   1      46.206  26.776  36.083  1.00  0.00     0.022 A 
BRANCH  86  90
ATOM     90  S   UNL A   1      44.650  24.646  36.997  1.00  0.00     0.124 S 
ATOM     91  O   UNL A   1      44.875  23.529  36.085  1.00  0.00    -0.237 OA
ATOM     92  O   UNL A   1      45.629  24.799  38.068  1.00  0.00    -0.237 OA
ATOM     93  O   UNL A   1      43.258  24.855  37.393  1.00  0.00    -0.744 OA
ENDBRANCH  86  90
ENDBRANCH  60  83
ENDBRANCH  34  35
ENDBRANCH  27  29
ENDBRANCH  26  27
ENDBRANCH  25  26
ENDBRANCH   1  25
TORSDOF 17
ENDMDL
MODEL 2
REMARK VINA RESULT:     -11.7      1.484      1.738
REMARK SMILES C[C@@H]1C[N@H+]2CCCC[C@@H]2CN1C(=O)NC(=O)CCC(=O)OCCOC(=O)c1ccc(-c2c3nc(c(-c4cc(S(=O)(=O)[O-])ccc4F)c4ccc([nH]4)c(-c4cc(S(=O)(=O)[O-])ccc4F)c4nc(c(-c5cc(S(=O)(=O)[O-])ccc5F)c5ccc2[nH]5)C=C4)C=C3)cc1
REMARK SMILES IDX 22 1 21 2 19 3 20 4 18 5 17 6 15 7 12 8 13 9 14 10 16 12
REMARK SMILES IDX 11 13 1 14 2 15 3 16 4 17 10 18 5 19 9 20 6 22 8 23 7 24
REMARK SMILES IDX 23 25 24 26 25 27 26 28 27 29 28 30 89 31 29 32 88 33 30 34
REMARK SMILES IDX 31 35 32 36 82 37 33 38 87 39 81 40 83 41 34 42 86 43 80 44
REMARK SMILES IDX 79 45 35 47 67 48 47 49 66 50 48 51 51 52 65 53 84 54 49 55
REMARK SMILES IDX 50 56 64 58 85 59 52 60 36 61 37 62 45 63 38 64 44 65 46 66
REMARK SMILES IDX 43 67 39 68 40 69 41 70 42 71 68 72 69 73 77 74 70 75 76 76
REMARK SMILES IDX 78 77 75 78 71 79 72 80 73 81 74 82 53 83 54 84 62 85 55 86
REMARK SMILES IDX 61 87 63 88 60 89 56 90 57 91 58 92 59 93
REMARK H PARENT 14 11 4 21 83 46 51 57
REMARK Flexibility Score: inf
ROOT
ATOM      1  C   UNL A   1      31.755  31.598  26.690  1.00  0.00     0.274 C 
ENDROOT
BRANCH   1   2
ATOM      2  O   UNL A   1      32.769  30.740  27.240  1.00  0.00    -0.462 OA
BRANCH   2   3
ATOM      3  C   UNL A   1      32.767  29.452  26.818  1.00  0.00     0.306 C 
ATOM      4  O   UNL A   1      32.888  28.479  27.556  1.00  0.00    -0.252 OA
BRANCH   3   5
ATOM      5  C   UNL A   1      32.562  29.318  25.322  1.00  0.00     0.132 C 
BRANCH   5   6
ATOM      6  C   UNL A   1      33.058  28.038  24.645  1.00  0.00     0.112 C 
BRANCH   6   7
ATOM      7  C   UNL A   1      33.475  28.218  23.206  1.00  0.00     0.228 C 
ATOM      8  C   UNL A   1      33.262  25.883  21.865  1.00  0.00     0.324 C 
ATOM      9  O   UNL A   1      32.979  25.713  20.673  1.00  0.00    -0.248 OA
ATOM     10  N   UNL A   1      33.488  27.207  22.239  1.00  0.00    -0.278 N 
ATOM     11  H   UNL A   1      33.821  27.646  21.422  1.00  0.00     0.174 HD
ATOM     12  O   UNL A   1      33.802  29.349  22.821  1.00  0.00    -0.275 OA
BRANCH   8  13
ATOM     13  N   UNL A   1      33.378  24.826  22.728  1.00  0.00    -0.310 N 
ATOM     14  C   UNL A   1      30.959  24.317  23.369  1.00  0.00     0.037 C 
ATOM     15  C   UNL A   1      32.285  23.803  22.791  1.00  0.00     0.139 C 
ATOM     16  C   UNL A   1      32.653  22.436  23.463  1.00  0.00     0.287 C 
ATOM     17  N   UNL A   1      33.836  22.394  24.336  1.00  0.00    -0.329 N 
ATOM     18  C   UNL A   1      34.573  24.571  23.500  1.00  0.00     0.186 C 
ATOM     19  C   UNL A   1      34.216  21.000  24.617  1.00  0.00     0.262 C 
ATOM     20  C   UNL A   1      34.950  23.109  23.706  1.00  0.00     0.203 C 
ATOM     21  H   UNL A   1      33.609  22.853  25.220  1.00  0.00     0.348 HD
ATOM     22  C   UNL A   1      35.463  20.918  25.501  1.00  0.00     0.062 C 
ATOM     23  C   UNL A   1      36.214  23.085  24.584  1.00  0.00     0.067 C 
ATOM     24  C   UNL A   1      36.637  21.663  24.895  1.00  0.00     0.012 C 
ENDBRANCH   8  13
ENDBRANCH   6   7
ENDBRANCH   5   6
ENDBRANCH   3   5
ENDBRANCH   2   3
ENDBRANCH   1   2
BRANCH   1  25
ATOM     25  C   UNL A   1      32.141  33.068  26.889  1.00  0.00     0.275 C 
BRANCH  25  26
ATOM     26  O   UNL A   1      32.565  33.562  28.190  1.00  0.00    -0.458 OA
BRANCH  26  27
ATOM     27  C   UNL A   1      33.815  34.060  28.317  1.00  0.00     0.338 C 
ATOM     28  O   UNL A   1      34.141  35.214  28.115  1.00  0.00    -0.246 OA
BRANCH  27  29
ATOM     29  C   UNL A   1      34.871  33.072  28.659  1.00  0.00     0.060 A 
ATOM     30  C   UNL A   1      36.172  33.369  28.214  1.00  0.00     0.016 A 
ATOM     31  C   UNL A   1      34.629  31.852  29.297  1.00  0.00     0.016 A 
ATOM     32  C   UNL A   1      37.229  32.490  28.448  1.00  0.00     0.010 A 
ATOM     33  C   UNL A   1      35.684  30.956  29.515  1.00  0.00     0.010 A 
ATOM     34  C   UNL A   1      36.998  31.297  29.146  1.00  0.00    -0.014 A 
BRANCH  34  35
ATOM     35  C   UNL A   1      38.134  30.681  29.876  1.00  0.00     0.031 A 
ATOM     36  C   UNL A   1      38.975  29.558  29.367  1.00  0.00     0.074 A 
ATOM     37  C   UNL A   1      38.349  31.186  31.104  1.00  0.00     0.049 A 
ATOM     38  N   UNL A   1      40.161  29.168  29.756  1.00  0.00    -0.248 NA
ATOM     39  C   UNL A   1      38.427  28.770  28.268  1.00  0.00     0.031 C 
ATOM     40  C   UNL A   1      37.555  32.255  31.720  1.00  0.00     0.029 A 
ATOM     41  N   UNL A   1      39.261  30.853  32.059  1.00  0.00    -0.354 N 
ATOM     42  C   UNL A   1      40.543  28.165  28.870  1.00  0.00     0.074 A 
ATOM     43  C   UNL A   1      39.448  27.988  27.941  1.00  0.00     0.031 C 
ATOM     44  C   UNL A   1      37.995  32.467  32.964  1.00  0.00     0.029 A 
ATOM     45  C   UNL A   1      39.093  31.551  33.227  1.00  0.00     0.049 A 
ATOM     46  H   UNL A   1      39.969  30.182  31.924  1.00  0.00     0.167 HD
ATOM     47  C   UNL A   1      41.679  27.424  28.874  1.00  0.00     0.034 A 
ATOM     48  C   UNL A   1      39.754  31.455  34.389  1.00  0.00     0.034 A 
ATOM     49  C   UNL A   1      42.593  27.422  29.993  1.00  0.00     0.049 A 
ATOM     50  C   UNL A   1      40.924  30.522  34.446  1.00  0.00     0.074 A 
ATOM     51  C   UNL A   1      43.760  26.699  30.167  1.00  0.00     0.029 A 
ATOM     52  N   UNL A   1      42.369  28.103  31.188  1.00  0.00    -0.354 N 
ATOM     53  N   UNL A   1      41.406  29.748  33.499  1.00  0.00    -0.248 NA
ATOM     54  C   UNL A   1      41.655  30.474  35.711  1.00  0.00     0.031 C 
ATOM     55  C   UNL A   1      44.161  26.839  31.502  1.00  0.00     0.029 A 
ATOM     56  C   UNL A   1      43.312  27.738  32.134  1.00  0.00     0.049 A 
ATOM     57  H   UNL A   1      41.643  28.751  31.337  1.00  0.00     0.167 HD
ATOM     58  C   UNL A   1      42.519  29.130  34.050  1.00  0.00     0.074 A 
ATOM     59  C   UNL A   1      42.643  29.645  35.404  1.00  0.00     0.031 C 
ATOM     60  C   UNL A   1      43.369  28.228  33.493  1.00  0.00     0.034 A 
BRANCH  47  61
ATOM     61  C   UNL A   1      41.911  26.483  27.711  1.00  0.00     0.023 A 
ATOM     62  C   UNL A   1      41.486  25.140  27.754  1.00  0.00     0.031 A 
ATOM     63  C   UNL A   1      42.572  26.919  26.548  1.00  0.00     0.131 A 
ATOM     64  C   UNL A   1      41.763  24.276  26.679  1.00  0.00     0.055 A 
ATOM     65  C   UNL A   1      42.794  26.071  25.460  1.00  0.00     0.041 A 
ATOM     66  F   UNL A   1      43.031  28.176  26.455  1.00  0.00    -0.206 F 
ATOM     67  C   UNL A   1      42.397  24.738  25.525  1.00  0.00     0.022 A 
BRANCH  64  68
ATOM     68  S   UNL A   1      41.391  22.506  26.855  1.00  0.00     0.124 S 
ATOM     69  O   UNL A   1      42.193  22.146  28.022  1.00  0.00    -0.237 OA
ATOM     70  O   UNL A   1      39.946  22.505  27.046  1.00  0.00    -0.237 OA
ATOM     71  O   UNL A   1      41.853  21.931  25.593  1.00  0.00    -0.744 OA
ENDBRANCH  64  68
ENDBRANCH  47  61
BRANCH  48  72
ATOM     72  C   UNL A   1      39.335  32.305  35.529  1.00  0.00     0.023 A 
ATOM     73  C   UNL A   1      39.816  33.613  35.653  1.00  0.00     0.031 A 
ATOM     74  C   UNL A   1      38.388  31.851  36.468  1.00  0.00     0.131 A 
ATOM     75  C   UNL A   1      39.367  34.421  36.705  1.00  0.00     0.055 A 
ATOM     76  C   UNL A   1      37.908  32.674  37.485  1.00  0.00     0.041 A 
ATOM     77  F   UNL A   1      37.877  30.612  36.373  1.00  0.00    -0.206 F 
ATOM     78  C   UNL A   1      38.406  33.968  37.613  1.00  0.00     0.022 A 
BRANCH  75  79
ATOM     79  S   UNL A   1      40.104  36.063  36.899  1.00  0.00     0.124 S 
ATOM     80  O   UNL A   1      39.729  36.707  35.645  1.00  0.00    -0.237 OA
ATOM     81  O   UNL A   1      39.434  36.555  38.098  1.00  0.00    -0.237 OA
ATOM     82  O   UNL A   1      41.528  35.779  37.052  1.00  0.00    -0.744 OA
ENDBRANCH  75  79
ENDBRANCH  48  72
BRANCH  60  83
ATOM     83  C   UNL A   1      44.488  27.741  34.377  1.00  0.00     0.023 A 
ATOM     84  C   UNL A   1      44.315  26.638  35.229  1.00  0.00     0.031 A 
ATOM     85  C   UNL A   1      45.725  28.406  34.388  1.00  0.00     0.131 A 
ATOM     86  C   UNL A   1      45.339  26.276  36.113  1.00  0.00     0.055 A 
ATOM     87  C   UNL A   1      46.767  27.993  35.217  1.00  0.00     0.041 A 
ATOM     88  F   UNL A   1      45.938  29.469  33.597  1.00  0.00    -0.206 F 
ATOM     89  C   UNL A   1      46.572  26.933  36.098  1.00  0.00     0.022 A 
BRANCH  86  90
ATOM     90  S   UNL A   1      44.993  25.009  37.363  1.00  0.00     0.124 S 
ATOM     91  O   UNL A   1      46.032  25.272  38.353  1.00  0.00    -0.237 OA
ATOM     92  O   UNL A   1      43.630  25.334  37.769  1.00  0.00    -0.237 OA
ATOM     93  O   UNL A   1      45.139  23.755  36.627  1.00  0.00    -0.744 OA
ENDBRANCH  86  90
ENDBRANCH  60  83
ENDBRANCH  34  35
ENDBRANCH  27  29
ENDBRANCH  26  27
ENDBRANCH  25  26
ENDBRANCH   1  25
TORSDOF 17
ENDMDL
MODEL 3
REMARK VINA RESULT:     -11.7      1.584      7.678
REMARK SMILES C[C@@H]1C[N@H+]2CCCC[C@@H]2CN1C(=O)NC(=O)CCC(=O)OCCOC(=O)c1ccc(-c2c3nc(c(-c4cc(S(=O)(=O)[O-])ccc4F)c4ccc([nH]4)c(-c4cc(S(=O)(=O)[O-])ccc4F)c4nc(c(-c5cc(S(=O)(=O)[O-])ccc5F)c5ccc2[nH]5)C=C4)C=C3)cc1
REMARK SMILES IDX 22 1 21 2 19 3 20 4 18 5 17 6 15 7 12 8 13 9 14 10 16 12
REMARK SMILES IDX 11 13 1 14 2 15 3 16 4 17 10 18 5 19 9 20 6 22 8 23 7 24
REMARK SMILES IDX 23 25 24 26 25 27 26 28 27 29 28 30 89 31 29 32 88 33 30 34
REMARK SMILES IDX 31 35 32 36 82 37 33 38 87 39 81 40 83 41 34 42 86 43 80 44
REMARK SMILES IDX 79 45 35 47 67 48 47 49 66 50 48 51 51 52 65 53 84 54 49 55
REMARK SMILES IDX 50 56 64 58 85 59 52 60 36 61 37 62 45 63 38 64 44 65 46 66
REMARK SMILES IDX 43 67 39 68 40 69 41 70 42 71 68 72 69 73 77 74 70 75 76 76
REMARK SMILES IDX 78 77 75 78 71 79 72 80 73 81 74 82 53 83 54 84 62 85 55 86
REMARK SMILES IDX 61 87 63 88 60 89 56 90 57 91 58 92 59 93
REMARK H PARENT 14 11 4 21 83 46 51 57
REMARK Flexibility Score: inf
ROOT
ATOM      1  C   UNL A   1      31.547  30.705  26.253  1.00  0.00     0.274 C 
ENDROOT
BRANCH   1   2
ATOM      2  O   UNL A   1      32.212  29.669  26.997  1.00  0.00    -0.462 OA
BRANCH   2   3
ATOM      3  C   UNL A   1      32.961  28.795  26.281  1.00  0.00     0.306 C 
ATOM      4  O   UNL A   1      34.092  29.026  25.867  1.00  0.00    -0.252 OA
BRANCH   3   5
ATOM      5  C   UNL A   1      32.270  27.463  26.062  1.00  0.00     0.132 C 
BRANCH   5   6
ATOM      6  C   UNL A   1      31.423  27.297  24.799  1.00  0.00     0.112 C 
BRANCH   6   7
ATOM      7  C   UNL A   1      32.073  27.822  23.542  1.00  0.00     0.228 C 
ATOM      8  C   UNL A   1      33.099  25.788  22.091  1.00  0.00     0.324 C 
ATOM      9  O   UNL A   1      33.199  25.706  20.861  1.00  0.00    -0.248 OA
ATOM     10  N   UNL A   1      32.704  27.036  22.572  1.00  0.00    -0.278 N 
ATOM     11  H   UNL A   1      33.030  27.679  21.902  1.00  0.00     0.174 HD
ATOM     12  O   UNL A   1      32.024  29.039  23.314  1.00  0.00    -0.275 OA
BRANCH   8  13
ATOM     13  N   UNL A   1      33.400  24.728  22.904  1.00  0.00    -0.310 N 
ATOM     14  C   UNL A   1      31.108  23.795  23.532  1.00  0.00     0.037 C 
ATOM     15  C   UNL A   1      32.493  23.535  22.925  1.00  0.00     0.139 C 
ATOM     16  C   UNL A   1      33.091  22.220  23.532  1.00  0.00     0.287 C 
ATOM     17  N   UNL A   1      34.275  22.337  24.397  1.00  0.00    -0.329 N 
ATOM     18  C   UNL A   1      34.630  24.641  23.658  1.00  0.00     0.186 C 
ATOM     19  C   UNL A   1      34.885  21.014  24.611  1.00  0.00     0.262 C 
ATOM     20  C   UNL A   1      35.247  23.255  23.795  1.00  0.00     0.203 C 
ATOM     21  H   UNL A   1      33.986  22.712  25.302  1.00  0.00     0.348 HD
ATOM     22  C   UNL A   1      36.139  21.102  25.484  1.00  0.00     0.062 C 
ATOM     23  C   UNL A   1      36.509  23.402  24.665  1.00  0.00     0.067 C 
ATOM     24  C   UNL A   1      37.165  22.058  24.908  1.00  0.00     0.012 C 
ENDBRANCH   8  13
ENDBRANCH   6   7
ENDBRANCH   5   6
ENDBRANCH   3   5
ENDBRANCH   2   3
ENDBRANCH   1   2
BRANCH   1  25
ATOM     25  C   UNL A   1      31.656  32.041  26.995  1.00  0.00     0.275 C 
BRANCH  25  26
ATOM     26  O   UNL A   1      32.832  32.885  26.850  1.00  0.00    -0.458 OA
BRANCH  26  27
ATOM     27  C   UNL A   1      33.468  33.308  27.965  1.00  0.00     0.338 C 
ATOM     28  O   UNL A   1      33.163  34.283  28.627  1.00  0.00    -0.246 OA
BRANCH  27  29
ATOM     29  C   UNL A   1      34.683  32.542  28.344  1.00  0.00     0.060 A 
ATOM     30  C   UNL A   1      35.891  33.262  28.371  1.00  0.00     0.016 A 
ATOM     31  C   UNL A   1      34.704  31.164  28.573  1.00  0.00     0.016 A 
ATOM     32  C   UNL A   1      37.097  32.630  28.675  1.00  0.00     0.010 A 
ATOM     33  C   UNL A   1      35.916  30.521  28.859  1.00  0.00     0.010 A 
ATOM     34  C   UNL A   1      37.108  31.261  28.970  1.00  0.00    -0.014 A 
BRANCH  34  35
ATOM     35  C   UNL A   1      38.204  30.735  29.822  1.00  0.00     0.031 A 
ATOM     36  C   UNL A   1      38.510  31.196  31.208  1.00  0.00     0.074 A 
ATOM     37  C   UNL A   1      38.973  29.804  29.232  1.00  0.00     0.049 A 
ATOM     38  N   UNL A   1      39.208  30.605  32.143  1.00  0.00    -0.248 NA
ATOM     39  C   UNL A   1      37.956  32.484  31.612  1.00  0.00     0.031 C 
ATOM     40  C   UNL A   1      38.790  29.313  27.861  1.00  0.00     0.029 A 
ATOM     41  N   UNL A   1      40.070  29.134  29.684  1.00  0.00    -0.354 N 
ATOM     42  C   UNL A   1      39.075  31.400  33.278  1.00  0.00     0.074 A 
ATOM     43  C   UNL A   1      38.253  32.530  32.904  1.00  0.00     0.031 C 
ATOM     44  C   UNL A   1      39.764  28.444  27.573  1.00  0.00     0.029 A 
ATOM     45  C   UNL A   1      40.632  28.323  28.733  1.00  0.00     0.049 A 
ATOM     46  H   UNL A   1      40.421  29.223  30.600  1.00  0.00     0.167 HD
ATOM     47  C   UNL A   1      39.639  31.226  34.500  1.00  0.00     0.034 A 
ATOM     48  C   UNL A   1      41.736  27.564  28.793  1.00  0.00     0.034 A 
ATOM     49  C   UNL A   1      40.691  30.262  34.732  1.00  0.00     0.049 A 
ATOM     50  C   UNL A   1      42.453  27.486  30.105  1.00  0.00     0.074 A 
ATOM     51  C   UNL A   1      41.389  29.996  35.897  1.00  0.00     0.029 A 
ATOM     52  N   UNL A   1      41.276  29.487  33.734  1.00  0.00    -0.354 N 
ATOM     53  N   UNL A   1      42.158  28.080  31.240  1.00  0.00    -0.248 NA
ATOM     54  C   UNL A   1      43.625  26.615  30.153  1.00  0.00     0.031 C 
ATOM     55  C   UNL A   1      42.472  29.168  35.571  1.00  0.00     0.029 A 
ATOM     56  C   UNL A   1      42.387  28.825  34.229  1.00  0.00     0.049 A 
ATOM     57  H   UNL A   1      40.946  29.420  32.809  1.00  0.00     0.167 HD
ATOM     58  C   UNL A   1      43.103  27.635  32.153  1.00  0.00     0.074 A 
ATOM     59  C   UNL A   1      43.959  26.706  31.433  1.00  0.00     0.031 C 
ATOM     60  C   UNL A   1      43.252  27.952  33.466  1.00  0.00     0.034 A 
BRANCH  47  61
ATOM     61  C   UNL A   1      39.222  32.168  35.609  1.00  0.00     0.023 A 
ATOM     62  C   UNL A   1      39.740  33.475  35.698  1.00  0.00     0.031 A 
ATOM     63  C   UNL A   1      38.307  31.762  36.598  1.00  0.00     0.131 A 
ATOM     64  C   UNL A   1      39.374  34.309  36.770  1.00  0.00     0.055 A 
ATOM     65  C   UNL A   1      37.904  32.615  37.629  1.00  0.00     0.041 A 
ATOM     66  F   UNL A   1      37.800  30.520  36.590  1.00  0.00    -0.206 F 
ATOM     67  C   UNL A   1      38.445  33.893  37.726  1.00  0.00     0.022 A 
BRANCH  64  68
ATOM     68  S   UNL A   1      40.220  35.904  36.972  1.00  0.00     0.124 S 
ATOM     69  O   UNL A   1      39.734  36.337  38.281  1.00  0.00    -0.237 OA
ATOM     70  O   UNL A   1      41.626  35.527  36.904  1.00  0.00    -0.237 OA
ATOM     71  O   UNL A   1      39.731  36.697  35.844  1.00  0.00    -0.744 OA
ENDBRANCH  64  68
ENDBRANCH  47  61
BRANCH  48  72
ATOM     72  C   UNL A   1      42.158  26.809  27.589  1.00  0.00     0.023 A 
ATOM     73  C   UNL A   1      41.902  25.438  27.487  1.00  0.00     0.031 A 
ATOM     74  C   UNL A   1      42.752  27.461  26.490  1.00  0.00     0.131 A 
ATOM     75  C   UNL A   1      42.257  24.750  26.319  1.00  0.00     0.055 A 
ATOM     76  C   UNL A   1      43.060  26.782  25.312  1.00  0.00     0.041 A 
ATOM     77  F   UNL A   1      42.990  28.782  26.531  1.00  0.00    -0.206 F 
ATOM     78  C   UNL A   1      42.819  25.414  25.226  1.00  0.00     0.022 A 
BRANCH  75  79
ATOM     79  S   UNL A   1      42.019  22.956  26.276  1.00  0.00     0.124 S 
ATOM     80  O   UNL A   1      42.759  22.529  27.458  1.00  0.00    -0.237 OA
ATOM     81  O   UNL A   1      40.566  22.843  26.353  1.00  0.00    -0.237 OA
ATOM     82  O   UNL A   1      42.608  22.567  24.997  1.00  0.00    -0.744 OA
ENDBRANCH  75  79
ENDBRANCH  48  72
BRANCH  60  83
ATOM     83  C   UNL A   1      44.402  27.292  34.179  1.00  0.00     0.023 A 
ATOM     84  C   UNL A   1      44.284  25.994  34.705  1.00  0.00     0.031 A 
ATOM     85  C   UNL A   1      45.614  27.978  34.362  1.00  0.00     0.131 A 
ATOM     86  C   UNL A   1      45.335  25.450  35.453  1.00  0.00     0.055 A 
ATOM     87  C   UNL A   1      46.684  27.400  35.043  1.00  0.00     0.041 A 
ATOM     88  F   UNL A   1      45.774  29.222  33.884  1.00  0.00    -0.206 F 
ATOM     89  C   UNL A   1      46.542  26.136  35.608  1.00  0.00     0.022 A 
BRANCH  86  90
ATOM     90  S   UNL A   1      45.057  23.881  36.318  1.00  0.00     0.124 S 
ATOM     91  O   UNL A   1      44.943  24.319  37.706  1.00  0.00    -0.237 OA
ATOM     92  O   UNL A   1      43.827  23.397  35.701  1.00  0.00    -0.237 OA
ATOM     93  O   UNL A   1      46.256  23.104  36.009  1.00  0.00    -0.744 OA
ENDBRANCH  86  90
ENDBRANCH  60  83
ENDBRANCH  34  35
ENDBRANCH  27  29
ENDBRANCH  26  27
ENDBRANCH  25  26
ENDBRANCH   1  25
TORSDOF 17
ENDMDL
