MODEL 1
REMARK VINA RESULT:     -11.6      0.000      0.000
REMARK SMILES CCN(CC)c1ccc([C@@H]2[NH2+][C@H](C(=O)OCCOC(=O)c3ccc(-c4c5nc(c(-c6cc(S(=O)(=O)[O-])ccc6F)c6ccc([nH]6)c(-c6cc(S(=O)(=O)[O-])ccc6F)c6nc(c(-c7cc(S(=O)(=O)[O-])ccc7F)c7ccc4[nH]7)C=C6)C=C5)cc3)Cc3c2[nH]c2ccccc32)cc1
REMARK SMILES IDX 16 1 15 2 13 3 14 4 12 5 10 6 11 7 86 8 85 11 87 12 84 13
REMARK SMILES IDX 93 14 88 15 92 17 89 18 91 19 90 20 9 21 6 22 7 23 95 24
REMARK SMILES IDX 8 25 94 26 3 27 2 28 1 29 4 30 5 31 17 32 18 33 19 34 20 35
REMARK SMILES IDX 21 36 22 37 83 38 23 39 82 40 24 41 25 42 26 43 76 44 27 45
REMARK SMILES IDX 81 46 75 47 77 48 28 49 80 50 74 51 73 52 29 54 61 55 41 56
REMARK SMILES IDX 60 57 42 58 45 59 59 60 78 61 43 62 44 63 58 65 79 66 46 67
REMARK SMILES IDX 30 68 31 69 39 70 32 71 38 72 40 73 37 74 33 75 34 76 35 77
REMARK SMILES IDX 36 78 62 79 63 80 71 81 64 82 70 83 72 84 69 85 65 86 66 87
REMARK SMILES IDX 67 88 68 89 47 90 48 91 56 92 49 93 55 94 57 95 54 96 50 97
REMARK SMILES IDX 51 98 52 99 53 100
REMARK H PARENT 11 9 11 10 87 16 77 53 45 64
REMARK Flexibility Score: inf
ROOT
ATOM      1  C   UNL A   1      38.559  21.802  25.942  1.00  0.00     0.274 C 
ENDROOT
BRANCH   1   2
ATOM      2  O   UNL A   1      37.598  22.328  25.018  1.00  0.00    -0.458 OA
BRANCH   2   3
ATOM      3  C   UNL A   1      37.057  23.537  25.359  1.00  0.00     0.365 C 
ATOM      4  O   UNL A   1      37.231  24.109  26.428  1.00  0.00    -0.245 OA
BRANCH   3   5
ATOM      5  C   UNL A   1      36.035  23.979  24.319  1.00  0.00     0.298 C 
ATOM      6  C   UNL A   1      34.080  22.831  23.101  1.00  0.00     0.262 C 
ATOM      7  N   UNL A   1      35.500  22.809  23.559  1.00  0.00    -0.323 N 
ATOM      8  C   UNL A   1      33.416  24.075  23.598  1.00  0.00     0.083 A 
ATOM      9  H   UNL A   1      36.081  22.702  22.728  1.00  0.00     0.347 HD
ATOM     10  H   UNL A   1      35.525  22.047  24.236  1.00  0.00     0.347 HD
ATOM     11  C   UNL A   1      33.714  24.728  24.767  1.00  0.00    -0.006 A 
ATOM     12  N   UNL A   1      32.358  24.811  23.125  1.00  0.00    -0.353 N 
ATOM     13  C   UNL A   1      35.109  24.898  25.151  1.00  0.00     0.115 C 
ATOM     14  C   UNL A   1      32.441  24.847  25.345  1.00  0.00     0.003 A 
ATOM     15  C   UNL A   1      31.656  25.226  24.251  1.00  0.00     0.046 A 
ATOM     16  H   UNL A   1      32.142  25.003  22.185  1.00  0.00     0.166 HD
ATOM     17  C   UNL A   1      31.824  24.676  26.596  1.00  0.00     0.010 A 
ATOM     18  C   UNL A   1      30.390  25.785  24.397  1.00  0.00     0.026 A 
ATOM     19  C   UNL A   1      30.461  24.984  26.700  1.00  0.00     0.001 A 
ATOM     20  C   UNL A   1      29.790  25.618  25.650  1.00  0.00     0.002 A 
BRANCH   6  21
ATOM     21  C   UNL A   1      33.376  21.550  23.662  1.00  0.00     0.016 A 
ATOM     22  C   UNL A   1      32.707  18.821  24.302  1.00  0.00     0.037 A 
ATOM     23  C   UNL A   1      33.378  19.646  25.204  1.00  0.00     0.026 A 
ATOM     24  C   UNL A   1      32.165  19.481  23.192  1.00  0.00     0.026 A 
ATOM     25  C   UNL A   1      33.698  20.978  24.899  1.00  0.00     0.012 A 
ATOM     26  C   UNL A   1      32.470  20.819  22.881  1.00  0.00     0.012 A 
BRANCH  22  27
ATOM     27  N   UNL A   1      32.604  17.442  24.474  1.00  0.00    -0.372 N 
BRANCH  27  28
ATOM     28  C   UNL A   1      33.225  16.549  23.474  1.00  0.00     0.113 C 
ATOM     29  C   UNL A   1      34.741  16.651  23.409  1.00  0.00     0.027 C 
ENDBRANCH  27  28
BRANCH  27  30
ATOM     30  C   UNL A   1      32.313  16.848  25.787  1.00  0.00     0.113 C 
ATOM     31  C   UNL A   1      32.269  15.321  25.779  1.00  0.00     0.027 C 
ENDBRANCH  27  30
ENDBRANCH  22  27
ENDBRANCH   6  21
ENDBRANCH   3   5
ENDBRANCH   2   3
ENDBRANCH   1   2
BRANCH   1  32
ATOM     32  C   UNL A   1      39.196  20.504  25.447  1.00  0.00     0.275 C 
BRANCH  32  33
ATOM     33  O   UNL A   1      40.131  19.960  26.391  1.00  0.00    -0.458 OA
BRANCH  33  34
ATOM     34  C   UNL A   1      41.422  19.952  25.987  1.00  0.00     0.338 C 
ATOM     35  O   UNL A   1      41.965  19.098  25.286  1.00  0.00    -0.246 OA
BRANCH  34  36
ATOM     36  C   UNL A   1      42.079  21.202  26.399  1.00  0.00     0.060 A 
ATOM     37  C   UNL A   1      42.341  21.413  27.758  1.00  0.00     0.016 A 
ATOM     38  C   UNL A   1      42.402  22.178  25.455  1.00  0.00     0.016 A 
ATOM     39  C   UNL A   1      42.926  22.608  28.178  1.00  0.00     0.010 A 
ATOM     40  C   UNL A   1      42.984  23.375  25.878  1.00  0.00     0.010 A 
ATOM     41  C   UNL A   1      43.241  23.604  27.243  1.00  0.00    -0.014 A 
BRANCH  41  42
ATOM     42  C   UNL A   1      43.775  24.920  27.671  1.00  0.00     0.031 A 
ATOM     43  C   UNL A   1      42.820  25.981  28.139  1.00  0.00     0.074 A 
ATOM     44  C   UNL A   1      45.094  25.179  27.596  1.00  0.00     0.049 A 
ATOM     45  N   UNL A   1      43.039  27.246  28.390  1.00  0.00    -0.248 NA
ATOM     46  C   UNL A   1      41.425  25.559  28.337  1.00  0.00     0.031 C 
ATOM     47  C   UNL A   1      46.121  24.214  27.203  1.00  0.00     0.029 A 
ATOM     48  N   UNL A   1      45.793  26.339  27.824  1.00  0.00    -0.354 N 
ATOM     49  C   UNL A   1      41.809  27.778  28.758  1.00  0.00     0.074 A 
ATOM     50  C   UNL A   1      40.843  26.702  28.668  1.00  0.00     0.031 C 
ATOM     51  C   UNL A   1      47.316  24.827  27.202  1.00  0.00     0.029 A 
ATOM     52  C   UNL A   1      47.133  26.239  27.532  1.00  0.00     0.049 A 
ATOM     53  H   UNL A   1      45.375  27.163  28.163  1.00  0.00     0.167 HD
ATOM     54  C   UNL A   1      41.516  29.047  29.136  1.00  0.00     0.034 A 
ATOM     55  C   UNL A   1      48.094  27.186  27.491  1.00  0.00     0.034 A 
ATOM     56  C   UNL A   1      42.496  30.105  29.211  1.00  0.00     0.049 A 
ATOM     57  C   UNL A   1      47.727  28.614  27.818  1.00  0.00     0.074 A 
ATOM     58  C   UNL A   1      42.313  31.421  29.599  1.00  0.00     0.029 A 
ATOM     59  N   UNL A   1      43.839  29.973  28.878  1.00  0.00    -0.354 N 
ATOM     60  N   UNL A   1      46.560  29.111  28.158  1.00  0.00    -0.248 NA
ATOM     61  C   UNL A   1      48.806  29.610  27.757  1.00  0.00     0.031 C 
ATOM     62  C   UNL A   1      43.522  32.102  29.422  1.00  0.00     0.029 A 
ATOM     63  C   UNL A   1      44.485  31.192  29.015  1.00  0.00     0.049 A 
ATOM     64  H   UNL A   1      44.268  29.136  28.587  1.00  0.00     0.167 HD
ATOM     65  C   UNL A   1      46.775  30.467  28.389  1.00  0.00     0.074 A 
ATOM     66  C   UNL A   1      48.182  30.712  28.150  1.00  0.00     0.031 C 
ATOM     67  C   UNL A   1      45.892  31.422  28.776  1.00  0.00     0.034 A 
BRANCH  54  68
ATOM     68  C   UNL A   1      40.072  29.371  29.437  1.00  0.00     0.023 A 
ATOM     69  C   UNL A   1      39.595  29.486  30.754  1.00  0.00     0.031 A 
ATOM     70  C   UNL A   1      39.153  29.547  28.387  1.00  0.00     0.131 A 
ATOM     71  C   UNL A   1      38.227  29.698  30.987  1.00  0.00     0.055 A 
ATOM     72  C   UNL A   1      37.810  29.841  28.624  1.00  0.00     0.041 A 
ATOM     73  F   UNL A   1      39.544  29.427  27.109  1.00  0.00    -0.206 F 
ATOM     74  C   UNL A   1      37.335  29.903  29.931  1.00  0.00     0.022 A 
BRANCH  71  75
ATOM     75  S   UNL A   1      37.603  29.553  32.684  1.00  0.00     0.124 S 
ATOM     76  O   UNL A   1      36.309  30.227  32.581  1.00  0.00    -0.237 OA
ATOM     77  O   UNL A   1      37.556  28.109  32.881  1.00  0.00    -0.237 OA
ATOM     78  O   UNL A   1      38.603  30.261  33.479  1.00  0.00    -0.744 OA
ENDBRANCH  71  75
ENDBRANCH  54  68
BRANCH  55  79
ATOM     79  C   UNL A   1      49.483  26.834  27.073  1.00  0.00     0.023 A 
ATOM     80  C   UNL A   1      49.981  27.216  25.818  1.00  0.00     0.031 A 
ATOM     81  C   UNL A   1      50.316  26.061  27.903  1.00  0.00     0.131 A 
ATOM     82  C   UNL A   1      51.256  26.790  25.411  1.00  0.00     0.055 A 
ATOM     83  C   UNL A   1      51.606  25.692  27.519  1.00  0.00     0.041 A 
ATOM     84  F   UNL A   1      49.888  25.660  29.111  1.00  0.00    -0.206 F 
ATOM     85  C   UNL A   1      52.078  26.045  26.260  1.00  0.00     0.022 A 
BRANCH  82  86
ATOM     86  S   UNL A   1      51.788  27.141  23.713  1.00  0.00     0.124 S 
ATOM     87  O   UNL A   1      52.802  26.114  23.501  1.00  0.00    -0.237 OA
ATOM     88  O   UNL A   1      50.545  26.980  22.966  1.00  0.00    -0.237 OA
ATOM     89  O   UNL A   1      52.293  28.509  23.790  1.00  0.00    -0.744 OA
ENDBRANCH  82  86
ENDBRANCH  55  79
BRANCH  67  90
ATOM     90  C   UNL A   1      46.430  32.808  29.035  1.00  0.00     0.023 A 
ATOM     91  C   UNL A   1      46.451  33.803  28.043  1.00  0.00     0.031 A 
ATOM     92  C   UNL A   1      46.902  33.144  30.318  1.00  0.00     0.131 A 
ATOM     93  C   UNL A   1      46.965  35.076  28.340  1.00  0.00     0.055 A 
ATOM     94  C   UNL A   1      47.357  34.427  30.623  1.00  0.00     0.041 A 
ATOM     95  F   UNL A   1      46.908  32.232  31.303  1.00  0.00    -0.206 F 
ATOM     96  C   UNL A   1      47.398  35.398  29.629  1.00  0.00     0.022 A 
BRANCH  93  97
ATOM     97  S   UNL A   1      47.119  36.293  27.004  1.00  0.00     0.124 S 
ATOM     98  O   UNL A   1      48.204  35.731  26.206  1.00  0.00    -0.237 OA
ATOM     99  O   UNL A   1      45.794  36.259  26.393  1.00  0.00    -0.237 OA
ATOM    100  O   UNL A   1      47.445  37.533  27.706  1.00  0.00    -0.744 OA
ENDBRANCH  93  97
ENDBRANCH  67  90
ENDBRANCH  41  42
ENDBRANCH  34  36
ENDBRANCH  33  34
ENDBRANCH  32  33
ENDBRANCH   1  32
TORSDOF 18
ENDMDL
MODEL 2
REMARK VINA RESULT:     -11.1      1.740      7.527
REMARK SMILES CCN(CC)c1ccc([C@@H]2[NH2+][C@H](C(=O)OCCOC(=O)c3ccc(-c4c5nc(c(-c6cc(S(=O)(=O)[O-])ccc6F)c6ccc([nH]6)c(-c6cc(S(=O)(=O)[O-])ccc6F)c6nc(c(-c7cc(S(=O)(=O)[O-])ccc7F)c7ccc4[nH]7)C=C6)C=C5)cc3)Cc3c2[nH]c2ccccc32)cc1
REMARK SMILES IDX 16 1 15 2 13 3 14 4 12 5 10 6 11 7 86 8 85 11 87 12 84 13
REMARK SMILES IDX 93 14 88 15 92 17 89 18 91 19 90 20 9 21 6 22 7 23 95 24
REMARK SMILES IDX 8 25 94 26 3 27 2 28 1 29 4 30 5 31 17 32 18 33 19 34 20 35
REMARK SMILES IDX 21 36 22 37 83 38 23 39 82 40 24 41 25 42 26 43 76 44 27 45
REMARK SMILES IDX 81 46 75 47 77 48 28 49 80 50 74 51 73 52 29 54 61 55 41 56
REMARK SMILES IDX 60 57 42 58 45 59 59 60 78 61 43 62 44 63 58 65 79 66 46 67
REMARK SMILES IDX 30 68 31 69 39 70 32 71 38 72 40 73 37 74 33 75 34 76 35 77
REMARK SMILES IDX 36 78 62 79 63 80 71 81 64 82 70 83 72 84 69 85 65 86 66 87
REMARK SMILES IDX 67 88 68 89 47 90 48 91 56 92 49 93 55 94 57 95 54 96 50 97
REMARK SMILES IDX 51 98 52 99 53 100
REMARK H PARENT 11 9 11 10 87 16 77 53 45 64
REMARK Flexibility Score: inf
ROOT
ATOM      1  C   UNL A   1      38.936  21.833  25.760  1.00  0.00     0.274 C 
ENDROOT
BRANCH   1   2
ATOM      2  O   UNL A   1      37.526  22.065  25.645  1.00  0.00    -0.458 OA
BRANCH   2   3
ATOM      3  C   UNL A   1      37.132  23.367  25.791  1.00  0.00     0.365 C 
ATOM      4  O   UNL A   1      37.340  24.058  26.781  1.00  0.00    -0.245 OA
BRANCH   3   5
ATOM      5  C   UNL A   1      36.210  23.778  24.650  1.00  0.00     0.298 C 
ATOM      6  C   UNL A   1      34.345  22.607  23.317  1.00  0.00     0.262 C 
ATOM      7  N   UNL A   1      35.721  22.584  23.897  1.00  0.00    -0.323 N 
ATOM      8  C   UNL A   1      33.664  23.881  23.704  1.00  0.00     0.083 A 
ATOM      9  H   UNL A   1      36.367  22.434  23.123  1.00  0.00     0.347 HD
ATOM     10  H   UNL A   1      35.674  21.852  24.604  1.00  0.00     0.347 HD
ATOM     11  C   UNL A   1      33.873  24.579  24.866  1.00  0.00    -0.006 A 
ATOM     12  N   UNL A   1      32.664  24.611  23.112  1.00  0.00    -0.353 N 
ATOM     13  C   UNL A   1      35.233  24.746  25.360  1.00  0.00     0.115 C 
ATOM     14  C   UNL A   1      32.558  24.742  25.327  1.00  0.00     0.003 A 
ATOM     15  C   UNL A   1      31.876  25.085  24.155  1.00  0.00     0.046 A 
ATOM     16  H   UNL A   1      32.531  24.766  22.149  1.00  0.00     0.166 HD
ATOM     17  C   UNL A   1      31.834  24.633  26.526  1.00  0.00     0.010 A 
ATOM     18  C   UNL A   1      30.613  25.668  24.169  1.00  0.00     0.026 A 
ATOM     19  C   UNL A   1      30.473  24.966  26.501  1.00  0.00     0.001 A 
ATOM     20  C   UNL A   1      29.906  25.563  25.372  1.00  0.00     0.002 A 
BRANCH   6  21
ATOM     21  C   UNL A   1      33.572  21.362  23.869  1.00  0.00     0.016 A 
ATOM     22  C   UNL A   1      32.713  18.669  24.427  1.00  0.00     0.037 A 
ATOM     23  C   UNL A   1      33.518  19.384  25.313  1.00  0.00     0.026 A 
ATOM     24  C   UNL A   1      32.153  19.431  23.394  1.00  0.00     0.026 A 
ATOM     25  C   UNL A   1      33.931  20.699  25.049  1.00  0.00     0.012 A 
ATOM     26  C   UNL A   1      32.552  20.754  23.125  1.00  0.00     0.012 A 
BRANCH  22  27
ATOM     27  N   UNL A   1      32.501  17.297  24.541  1.00  0.00    -0.372 N 
BRANCH  27  28
ATOM     28  C   UNL A   1      33.058  16.400  23.506  1.00  0.00     0.113 C 
ATOM     29  C   UNL A   1      34.418  16.830  22.980  1.00  0.00     0.027 C 
ENDBRANCH  27  28
BRANCH  27  30
ATOM     30  C   UNL A   1      32.155  16.672  25.826  1.00  0.00     0.113 C 
ATOM     31  C   UNL A   1      32.270  15.149  25.825  1.00  0.00     0.027 C 
ENDBRANCH  27  30
ENDBRANCH  22  27
ENDBRANCH   6  21
ENDBRANCH   3   5
ENDBRANCH   2   3
ENDBRANCH   1   2
BRANCH   1  32
ATOM     32  C   UNL A   1      39.291  20.348  25.702  1.00  0.00     0.275 C 
BRANCH  32  33
ATOM     33  O   UNL A   1      40.382  20.013  26.573  1.00  0.00    -0.458 OA
BRANCH  33  34
ATOM     34  C   UNL A   1      41.615  20.287  26.087  1.00  0.00     0.338 C 
ATOM     35  O   UNL A   1      42.304  19.551  25.381  1.00  0.00    -0.246 OA
BRANCH  34  36
ATOM     36  C   UNL A   1      41.980  21.674  26.414  1.00  0.00     0.060 A 
ATOM     37  C   UNL A   1      41.937  22.088  27.750  1.00  0.00     0.016 A 
ATOM     38  C   UNL A   1      42.327  22.573  25.403  1.00  0.00     0.016 A 
ATOM     39  C   UNL A   1      42.240  23.410  28.081  1.00  0.00     0.010 A 
ATOM     40  C   UNL A   1      42.626  23.896  25.737  1.00  0.00     0.010 A 
ATOM     41  C   UNL A   1      42.574  24.327  27.075  1.00  0.00    -0.014 A 
BRANCH  41  42
ATOM     42  C   UNL A   1      42.808  25.759  27.386  1.00  0.00     0.031 A 
ATOM     43  C   UNL A   1      44.205  26.306  27.312  1.00  0.00     0.074 A 
ATOM     44  C   UNL A   1      41.790  26.548  27.777  1.00  0.00     0.049 A 
ATOM     45  N   UNL A   1      44.667  27.465  27.705  1.00  0.00    -0.248 NA
ATOM     46  C   UNL A   1      45.221  25.418  26.727  1.00  0.00     0.031 C 
ATOM     47  C   UNL A   1      40.386  26.142  27.841  1.00  0.00     0.029 A 
ATOM     48  N   UNL A   1      41.783  27.849  28.217  1.00  0.00    -0.354 N 
ATOM     49  C   UNL A   1      46.030  27.442  27.434  1.00  0.00     0.074 A 
ATOM     50  C   UNL A   1      46.323  26.140  26.869  1.00  0.00     0.031 C 
ATOM     51  C   UNL A   1      39.657  27.167  28.309  1.00  0.00     0.029 A 
ATOM     52  C   UNL A   1      40.546  28.280  28.637  1.00  0.00     0.049 A 
ATOM     53  H   UNL A   1      42.586  28.417  28.232  1.00  0.00     0.167 HD
ATOM     54  C   UNL A   1      46.949  28.418  27.638  1.00  0.00     0.034 A 
ATOM     55  C   UNL A   1      40.180  29.422  29.257  1.00  0.00     0.034 A 
ATOM     56  C   UNL A   1      46.633  29.706  28.209  1.00  0.00     0.049 A 
ATOM     57  C   UNL A   1      41.236  30.456  29.566  1.00  0.00     0.074 A 
ATOM     58  C   UNL A   1      47.482  30.775  28.443  1.00  0.00     0.029 A 
ATOM     59  N   UNL A   1      45.375  30.095  28.651  1.00  0.00    -0.354 N 
ATOM     60  N   UNL A   1      42.525  30.424  29.312  1.00  0.00    -0.248 NA
ATOM     61  C   UNL A   1      40.792  31.682  30.244  1.00  0.00     0.031 C 
ATOM     62  C   UNL A   1      46.756  31.775  29.098  1.00  0.00     0.029 A 
ATOM     63  C   UNL A   1      45.433  31.371  29.189  1.00  0.00     0.049 A 
ATOM     64  H   UNL A   1      44.561  29.545  28.590  1.00  0.00     0.167 HD
ATOM     65  C   UNL A   1      43.033  31.639  29.765  1.00  0.00     0.074 A 
ATOM     66  C   UNL A   1      41.915  32.383  30.306  1.00  0.00     0.031 C 
ATOM     67  C   UNL A   1      44.308  32.104  29.724  1.00  0.00     0.034 A 
BRANCH  54  68
ATOM     68  C   UNL A   1      48.387  28.107  27.296  1.00  0.00     0.023 A 
ATOM     69  C   UNL A   1      48.909  28.323  26.009  1.00  0.00     0.031 A 
ATOM     70  C   UNL A   1      49.244  27.564  28.270  1.00  0.00     0.131 A 
ATOM     71  C   UNL A   1      50.224  27.934  25.713  1.00  0.00     0.055 A 
ATOM     72  C   UNL A   1      50.576  27.258  27.993  1.00  0.00     0.041 A 
ATOM     73  F   UNL A   1      48.797  27.313  29.511  1.00  0.00    -0.206 F 
ATOM     74  C   UNL A   1      51.071  27.427  26.703  1.00  0.00     0.022 A 
BRANCH  71  75
ATOM     75  S   UNL A   1      50.769  27.960  23.983  1.00  0.00     0.124 S 
ATOM     76  O   UNL A   1      51.675  29.107  23.976  1.00  0.00    -0.237 OA
ATOM     77  O   UNL A   1      51.394  26.651  23.830  1.00  0.00    -0.237 OA
ATOM     78  O   UNL A   1      49.528  28.152  23.235  1.00  0.00    -0.744 OA
ENDBRANCH  71  75
ENDBRANCH  54  68
BRANCH  55  79
ATOM     79  C   UNL A   1      38.765  29.631  29.679  1.00  0.00     0.023 A 
ATOM     80  C   UNL A   1      37.861  30.330  28.864  1.00  0.00     0.031 A 
ATOM     81  C   UNL A   1      38.307  29.179  30.931  1.00  0.00     0.131 A 
ATOM     82  C   UNL A   1      36.562  30.596  29.328  1.00  0.00     0.055 A 
ATOM     83  C   UNL A   1      36.996  29.393  31.361  1.00  0.00     0.041 A 
ATOM     84  F   UNL A   1      39.130  28.511  31.755  1.00  0.00    -0.206 F 
ATOM     85  C   UNL A   1      36.119  30.118  30.563  1.00  0.00     0.022 A 
BRANCH  82  86
ATOM     86  S   UNL A   1      35.487  31.665  28.331  1.00  0.00     0.124 S 
ATOM     87  O   UNL A   1      36.400  32.742  27.962  1.00  0.00    -0.237 OA
ATOM     88  O   UNL A   1      35.082  30.770  27.254  1.00  0.00    -0.237 OA
ATOM     89  O   UNL A   1      34.424  32.041  29.260  1.00  0.00    -0.744 OA
ENDBRANCH  82  86
ENDBRANCH  55  79
BRANCH  67  90
ATOM     90  C   UNL A   1      44.555  33.509  30.216  1.00  0.00     0.023 A 
ATOM     91  C   UNL A   1      44.431  34.631  29.377  1.00  0.00     0.031 A 
ATOM     92  C   UNL A   1      44.891  33.727  31.566  1.00  0.00     0.131 A 
ATOM     93  C   UNL A   1      44.675  35.916  29.889  1.00  0.00     0.055 A 
ATOM     94  C   UNL A   1      45.074  35.010  32.081  1.00  0.00     0.041 A 
ATOM     95  F   UNL A   1      45.025  32.693  32.411  1.00  0.00    -0.206 F 
ATOM     96  C   UNL A   1      44.975  36.113  31.240  1.00  0.00     0.022 A 
BRANCH  93  97
ATOM     97  S   UNL A   1      44.656  37.330  28.753  1.00  0.00     0.124 S 
ATOM     98  O   UNL A   1      44.575  36.672  27.452  1.00  0.00    -0.237 OA
ATOM     99  O   UNL A   1      43.463  38.056  29.176  1.00  0.00    -0.237 OA
ATOM    100  O   UNL A   1      45.921  38.007  29.027  1.00  0.00    -0.744 OA
ENDBRANCH  93  97
ENDBRANCH  67  90
ENDBRANCH  41  42
ENDBRANCH  34  36
ENDBRANCH  33  34
ENDBRANCH  32  33
ENDBRANCH   1  32
TORSDOF 18
ENDMDL
MODEL 3
REMARK VINA RESULT:     -10.8      1.053      3.577
REMARK SMILES CCN(CC)c1ccc([C@@H]2[NH2+][C@H](C(=O)OCCOC(=O)c3ccc(-c4c5nc(c(-c6cc(S(=O)(=O)[O-])ccc6F)c6ccc([nH]6)c(-c6cc(S(=O)(=O)[O-])ccc6F)c6nc(c(-c7cc(S(=O)(=O)[O-])ccc7F)c7ccc4[nH]7)C=C6)C=C5)cc3)Cc3c2[nH]c2ccccc32)cc1
REMARK SMILES IDX 16 1 15 2 13 3 14 4 12 5 10 6 11 7 86 8 85 11 87 12 84 13
REMARK SMILES IDX 93 14 88 15 92 17 89 18 91 19 90 20 9 21 6 22 7 23 95 24
REMARK SMILES IDX 8 25 94 26 3 27 2 28 1 29 4 30 5 31 17 32 18 33 19 34 20 35
REMARK SMILES IDX 21 36 22 37 83 38 23 39 82 40 24 41 25 42 26 43 76 44 27 45
REMARK SMILES IDX 81 46 75 47 77 48 28 49 80 50 74 51 73 52 29 54 61 55 41 56
REMARK SMILES IDX 60 57 42 58 45 59 59 60 78 61 43 62 44 63 58 65 79 66 46 67
REMARK SMILES IDX 30 68 31 69 39 70 32 71 38 72 40 73 37 74 33 75 34 76 35 77
REMARK SMILES IDX 36 78 62 79 63 80 71 81 64 82 70 83 72 84 69 85 65 86 66 87
REMARK SMILES IDX 67 88 68 89 47 90 48 91 56 92 49 93 55 94 57 95 54 96 50 97
REMARK SMILES IDX 51 98 52 99 53 100
REMARK H PARENT 11 9 11 10 87 16 77 53 45 64
REMARK Flexibility Score: inf
ROOT
ATOM      1  C   UNL A   1      38.955  22.216  25.859  1.00  0.00     0.274 C 
ENDROOT
BRANCH   1   2
ATOM      2  O   UNL A   1      37.943  22.237  24.844  1.00  0.00    -0.458 OA
BRANCH   2   3
ATOM      3  C   UNL A   1      36.776  22.859  25.193  1.00  0.00     0.365 C 
ATOM      4  O   UNL A   1      36.525  24.043  25.000  1.00  0.00    -0.245 OA
BRANCH   3   5
ATOM      5  C   UNL A   1      35.913  21.939  26.048  1.00  0.00     0.298 C 
ATOM      6  C   UNL A   1      33.428  21.895  26.719  1.00  0.00     0.262 C 
ATOM      7  N   UNL A   1      34.703  22.654  26.555  1.00  0.00    -0.323 N 
ATOM      8  C   UNL A   1      33.618  20.494  26.234  1.00  0.00     0.083 A 
ATOM      9  H   UNL A   1      34.943  23.035  27.470  1.00  0.00     0.347 HD
ATOM     10  H   UNL A   1      34.492  23.328  25.820  1.00  0.00     0.347 HD
ATOM     11  C   UNL A   1      34.462  20.104  25.225  1.00  0.00    -0.006 A 
ATOM     12  N   UNL A   1      33.003  19.311  26.560  1.00  0.00    -0.353 N 
ATOM     13  C   UNL A   1      35.797  20.685  25.150  1.00  0.00     0.115 C 
ATOM     14  C   UNL A   1      33.595  19.351  24.419  1.00  0.00     0.003 A 
ATOM     15  C   UNL A   1      32.885  18.607  25.368  1.00  0.00     0.046 A 
ATOM     16  H   UNL A   1      32.707  19.022  27.453  1.00  0.00     0.166 HD
ATOM     17  C   UNL A   1      33.279  19.195  23.059  1.00  0.00     0.010 A 
ATOM     18  C   UNL A   1      32.148  17.476  25.030  1.00  0.00     0.026 A 
ATOM     19  C   UNL A   1      32.325  18.227  22.717  1.00  0.00     0.001 A 
ATOM     20  C   UNL A   1      31.849  17.325  23.672  1.00  0.00     0.002 A 
BRANCH   6  21
ATOM     21  C   UNL A   1      32.321  22.635  25.894  1.00  0.00     0.016 A 
ATOM     22  C   UNL A   1      30.887  24.556  24.297  1.00  0.00     0.037 A 
ATOM     23  C   UNL A   1      31.473  23.423  23.735  1.00  0.00     0.026 A 
ATOM     24  C   UNL A   1      30.826  24.556  25.696  1.00  0.00     0.026 A 
ATOM     25  C   UNL A   1      32.165  22.480  24.511  1.00  0.00     0.012 A 
ATOM     26  C   UNL A   1      31.507  23.610  26.485  1.00  0.00     0.012 A 
BRANCH  22  27
ATOM     27  N   UNL A   1      30.422  25.623  23.530  1.00  0.00    -0.372 N 
BRANCH  27  28
ATOM     28  C   UNL A   1      29.292  26.429  24.038  1.00  0.00     0.113 C 
ATOM     29  C   UNL A   1      29.056  27.719  23.270  1.00  0.00     0.027 C 
ENDBRANCH  27  28
BRANCH  27  30
ATOM     30  C   UNL A   1      31.255  26.250  22.494  1.00  0.00     0.113 C 
ATOM     31  C   UNL A   1      32.558  26.847  23.024  1.00  0.00     0.027 C 
ENDBRANCH  27  30
ENDBRANCH  22  27
ENDBRANCH   6  21
ENDBRANCH   3   5
ENDBRANCH   2   3
ENDBRANCH   1   2
BRANCH   1  32
ATOM     32  C   UNL A   1      39.398  20.797  26.212  1.00  0.00     0.275 C 
BRANCH  32  33
ATOM     33  O   UNL A   1      40.481  20.342  25.386  1.00  0.00    -0.458 OA
BRANCH  33  34
ATOM     34  C   UNL A   1      41.636  20.079  26.040  1.00  0.00     0.338 C 
ATOM     35  O   UNL A   1      42.154  18.973  26.197  1.00  0.00    -0.246 OA
BRANCH  34  36
ATOM     36  C   UNL A   1      42.278  21.341  26.438  1.00  0.00     0.060 A 
ATOM     37  C   UNL A   1      42.516  21.581  27.797  1.00  0.00     0.016 A 
ATOM     38  C   UNL A   1      42.612  22.300  25.480  1.00  0.00     0.016 A 
ATOM     39  C   UNL A   1      43.087  22.787  28.203  1.00  0.00     0.010 A 
ATOM     40  C   UNL A   1      43.180  23.509  25.890  1.00  0.00     0.010 A 
ATOM     41  C   UNL A   1      43.412  23.766  27.253  1.00  0.00    -0.014 A 
BRANCH  41  42
ATOM     42  C   UNL A   1      43.931  25.094  27.664  1.00  0.00     0.031 A 
ATOM     43  C   UNL A   1      42.968  26.137  28.154  1.00  0.00     0.074 A 
ATOM     44  C   UNL A   1      45.242  25.378  27.554  1.00  0.00     0.049 A 
ATOM     45  N   UNL A   1      43.169  27.407  28.397  1.00  0.00    -0.248 NA
ATOM     46  C   UNL A   1      41.587  25.688  28.391  1.00  0.00     0.031 C 
ATOM     47  C   UNL A   1      46.277  24.433  27.136  1.00  0.00     0.029 A 
ATOM     48  N   UNL A   1      45.924  26.553  27.760  1.00  0.00    -0.354 N 
ATOM     49  C   UNL A   1      41.938  27.916  28.796  1.00  0.00     0.074 A 
ATOM     50  C   UNL A   1      40.992  26.821  28.734  1.00  0.00     0.031 C 
ATOM     51  C   UNL A   1      47.459  25.069  27.102  1.00  0.00     0.029 A 
ATOM     52  C   UNL A   1      47.258  26.477  27.434  1.00  0.00     0.049 A 
ATOM     53  H   UNL A   1      45.499  27.369  28.108  1.00  0.00     0.167 HD
ATOM     54  C   UNL A   1      41.631  29.180  29.178  1.00  0.00     0.034 A 
ATOM     55  C   UNL A   1      48.199  27.443  27.365  1.00  0.00     0.034 A 
ATOM     56  C   UNL A   1      42.591  30.257  29.225  1.00  0.00     0.049 A 
ATOM     57  C   UNL A   1      47.813  28.865  27.699  1.00  0.00     0.074 A 
ATOM     58  C   UNL A   1      42.393  31.571  29.615  1.00  0.00     0.029 A 
ATOM     59  N   UNL A   1      43.927  30.150  28.857  1.00  0.00    -0.354 N 
ATOM     60  N   UNL A   1      46.645  29.340  28.068  1.00  0.00    -0.248 NA
ATOM     61  C   UNL A   1      48.869  29.882  27.606  1.00  0.00     0.031 C 
ATOM     62  C   UNL A   1      43.583  32.274  29.405  1.00  0.00     0.029 A 
ATOM     63  C   UNL A   1      44.553  31.382  28.974  1.00  0.00     0.049 A 
ATOM     64  H   UNL A   1      44.365  29.321  28.557  1.00  0.00     0.167 HD
ATOM     65  C   UNL A   1      46.840  30.700  28.290  1.00  0.00     0.074 A 
ATOM     66  C   UNL A   1      48.234  30.972  28.014  1.00  0.00     0.031 C 
ATOM     67  C   UNL A   1      45.948  31.639  28.697  1.00  0.00     0.034 A 
BRANCH  54  68
ATOM     68  C   UNL A   1      40.189  29.476  29.517  1.00  0.00     0.023 A 
ATOM     69  C   UNL A   1      39.747  29.596  30.846  1.00  0.00     0.031 A 
ATOM     70  C   UNL A   1      39.237  29.621  28.491  1.00  0.00     0.131 A 
ATOM     71  C   UNL A   1      38.381  29.781  31.114  1.00  0.00     0.055 A 
ATOM     72  C   UNL A   1      37.895  29.889  28.763  1.00  0.00     0.041 A 
ATOM     73  F   UNL A   1      39.595  29.494  27.203  1.00  0.00    -0.206 F 
ATOM     74  C   UNL A   1      37.456  29.955  30.082  1.00  0.00     0.022 A 
BRANCH  71  75
ATOM     75  S   UNL A   1      37.808  29.643  32.829  1.00  0.00     0.124 S 
ATOM     76  O   UNL A   1      38.983  30.099  33.571  1.00  0.00    -0.237 OA
ATOM     77  O   UNL A   1      36.655  30.535  32.849  1.00  0.00    -0.237 OA
ATOM     78  O   UNL A   1      37.502  28.222  32.976  1.00  0.00    -0.744 OA
ENDBRANCH  71  75
ENDBRANCH  54  68
BRANCH  55  79
ATOM     79  C   UNL A   1      49.582  27.117  26.912  1.00  0.00     0.023 A 
ATOM     80  C   UNL A   1      50.003  27.404  25.604  1.00  0.00     0.031 A 
ATOM     81  C   UNL A   1      50.490  26.463  27.766  1.00  0.00     0.131 A 
ATOM     82  C   UNL A   1      51.278  27.000  25.174  1.00  0.00     0.055 A 
ATOM     83  C   UNL A   1      51.778  26.119  27.352  1.00  0.00     0.041 A 
ATOM     84  F   UNL A   1      50.139  26.157  29.024  1.00  0.00    -0.206 F 
ATOM     85  C   UNL A   1      52.174  26.375  26.044  1.00  0.00     0.022 A 
BRANCH  82  86
ATOM     86  S   UNL A   1      51.713  27.216  23.426  1.00  0.00     0.124 S 
ATOM     87  O   UNL A   1      52.832  26.290  23.283  1.00  0.00    -0.237 OA
ATOM     88  O   UNL A   1      50.475  26.836  22.756  1.00  0.00    -0.237 OA
ATOM     89  O   UNL A   1      52.060  28.632  23.334  1.00  0.00    -0.744 OA
ENDBRANCH  82  86
ENDBRANCH  55  79
BRANCH  67  90
ATOM     90  C   UNL A   1      46.465  33.036  28.939  1.00  0.00     0.023 A 
ATOM     91  C   UNL A   1      46.498  34.011  27.927  1.00  0.00     0.031 A 
ATOM     92  C   UNL A   1      46.905  33.404  30.225  1.00  0.00     0.131 A 
ATOM     93  C   UNL A   1      46.991  35.295  28.208  1.00  0.00     0.055 A 
ATOM     94  C   UNL A   1      47.340  34.698  30.513  1.00  0.00     0.041 A 
ATOM     95  F   UNL A   1      46.900  32.513  31.229  1.00  0.00    -0.206 F 
ATOM     96  C   UNL A   1      47.393  35.649  29.500  1.00  0.00     0.022 A 
BRANCH  93  97
ATOM     97  S   UNL A   1      47.162  36.486  26.851  1.00  0.00     0.124 S 
ATOM     98  O   UNL A   1      46.843  35.666  25.686  1.00  0.00    -0.237 OA
ATOM     99  O   UNL A   1      46.179  37.506  27.202  1.00  0.00    -0.237 OA
ATOM    100  O   UNL A   1      48.557  36.914  26.943  1.00  0.00    -0.744 OA
ENDBRANCH  93  97
ENDBRANCH  67  90
ENDBRANCH  41  42
ENDBRANCH  34  36
ENDBRANCH  33  34
ENDBRANCH  32  33
ENDBRANCH   1  32
TORSDOF 18
ENDMDL
