MODEL 1
REMARK VINA RESULT:     -10.6      0.000      0.000
REMARK SMILES C/C(C(=O)N[C@@H](C)CCCO)=C(\C)C(=O)OCCOC(=O)c1ccc(-c2c3nc(c(-c4cc(S(=O)(=O)[O-])ccc4F)c4ccc([nH]4)c(-c4cc(S(=O)(=O)[O-])ccc4F)c4nc(c(-c5cc(S(=O)(=O)[O-])ccc5F)c5ccc2[nH]5)C=C4)C=C3)cc1
REMARK SMILES IDX 16 1 14 2 15 3 12 4 1 5 2 6 13 7 3 8 4 9 5 10 6 12 7 13 8 14
REMARK SMILES IDX 9 15 10 16 11 17 17 19 18 20 19 21 20 22 21 23 22 24 23 25
REMARK SMILES IDX 84 26 24 27 83 28 25 29 26 30 27 31 77 32 28 33 82 34 76 35
REMARK SMILES IDX 78 36 29 37 81 38 75 39 74 40 30 42 62 43 42 44 61 45 43 46
REMARK SMILES IDX 46 47 60 48 79 49 44 50 45 51 59 53 80 54 47 55 31 56 32 57
REMARK SMILES IDX 40 58 33 59 39 60 41 61 38 62 34 63 35 64 36 65 37 66 63 67
REMARK SMILES IDX 64 68 72 69 65 70 71 71 73 72 70 73 66 74 67 75 68 76 69 77
REMARK SMILES IDX 48 78 49 79 57 80 50 81 56 82 58 83 55 84 51 85 52 86 53 87
REMARK SMILES IDX 54 88
REMARK H PARENT 5 11 11 18 78 41 46 52
REMARK Flexibility Score: inf
ROOT
ATOM      1  O   UNL A   1      32.227  28.027  24.131  1.00  0.00    -0.459 OA
ENDROOT
BRANCH   1   2
ATOM      2  C   UNL A   1      32.014  26.679  24.107  1.00  0.00     0.334 C 
ATOM      3  O   UNL A   1      30.973  26.171  23.725  1.00  0.00    -0.247 OA
BRANCH   2   4
ATOM      4  C   UNL A   1      33.234  25.962  24.646  1.00  0.00     0.042 C 
ATOM      5  C   UNL A   1      35.121  24.341  24.691  1.00  0.00     0.051 C 
ATOM      6  C   UNL A   1      33.963  25.003  24.000  1.00  0.00     0.024 C 
ATOM      7  C   UNL A   1      33.538  26.376  26.074  1.00  0.00     0.053 C 
BRANCH   6   8
ATOM      8  C   UNL A   1      33.535  24.431  22.684  1.00  0.00     0.247 C 
ATOM      9  O   UNL A   1      33.559  25.141  21.679  1.00  0.00    -0.270 OA
ATOM     10  N   UNL A   1      33.159  23.133  22.498  1.00  0.00    -0.350 N 
ATOM     11  H   UNL A   1      33.621  22.705  21.742  1.00  0.00     0.164 HD
BRANCH  10  12
ATOM     12  C   UNL A   1      32.214  22.232  23.178  1.00  0.00     0.079 C 
ATOM     13  C   UNL A   1      33.050  21.088  23.791  1.00  0.00     0.031 C 
BRANCH  12  14
ATOM     14  C   UNL A   1      31.411  22.867  24.332  1.00  0.00     0.027 C 
BRANCH  14  15
ATOM     15  C   UNL A   1      31.641  22.364  25.759  1.00  0.00     0.030 C 
BRANCH  15  16
ATOM     16  C   UNL A   1      31.309  23.325  26.886  1.00  0.00     0.156 C 
BRANCH  16  17
ATOM     17  O   UNL A   1      30.209  22.877  27.664  1.00  0.00    -0.396 OA
ATOM     18  H   UNL A   1      30.337  23.141  28.589  1.00  0.00     0.210 HD
ENDBRANCH  16  17
ENDBRANCH  15  16
ENDBRANCH  14  15
ENDBRANCH  12  14
ENDBRANCH  10  12
ENDBRANCH   6   8
ENDBRANCH   2   4
ENDBRANCH   1   2
BRANCH   1  19
ATOM     19  C   UNL A   1      31.380  28.813  24.996  1.00  0.00     0.275 C 
BRANCH  19  20
ATOM     20  C   UNL A   1      32.021  30.157  25.340  1.00  0.00     0.275 C 
BRANCH  20  21
ATOM     21  O   UNL A   1      32.432  30.193  26.717  1.00  0.00    -0.458 OA
BRANCH  21  22
ATOM     22  C   UNL A   1      32.999  31.356  27.112  1.00  0.00     0.338 C 
ATOM     23  O   UNL A   1      32.466  32.447  27.207  1.00  0.00    -0.246 OA
BRANCH  22  24
ATOM     24  C   UNL A   1      34.380  31.105  27.547  1.00  0.00     0.060 A 
ATOM     25  C   UNL A   1      34.712  29.799  27.859  1.00  0.00     0.016 A 
ATOM     26  C   UNL A   1      35.282  32.137  27.816  1.00  0.00     0.016 A 
ATOM     27  C   UNL A   1      35.907  29.532  28.510  1.00  0.00     0.010 A 
ATOM     28  C   UNL A   1      36.520  31.843  28.418  1.00  0.00     0.010 A 
ATOM     29  C   UNL A   1      36.834  30.532  28.811  1.00  0.00    -0.014 A 
BRANCH  29  30
ATOM     30  C   UNL A   1      38.035  30.158  29.626  1.00  0.00     0.031 A 
ATOM     31  C   UNL A   1      39.126  29.305  29.023  1.00  0.00     0.074 A 
ATOM     32  C   UNL A   1      38.244  30.708  30.843  1.00  0.00     0.049 A 
ATOM     33  N   UNL A   1      40.186  28.788  29.592  1.00  0.00    -0.248 NA
ATOM     34  C   UNL A   1      39.016  29.009  27.588  1.00  0.00     0.031 C 
ATOM     35  C   UNL A   1      37.359  31.674  31.501  1.00  0.00     0.029 A 
ATOM     36  N   UNL A   1      39.286  30.573  31.733  1.00  0.00    -0.354 N 
ATOM     37  C   UNL A   1      40.837  28.057  28.602  1.00  0.00     0.074 A 
ATOM     38  C   UNL A   1      40.054  28.208  27.394  1.00  0.00     0.031 C 
ATOM     39  C   UNL A   1      37.926  32.094  32.640  1.00  0.00     0.029 A 
ATOM     40  C   UNL A   1      39.134  31.317  32.883  1.00  0.00     0.049 A 
ATOM     41  H   UNL A   1      40.068  29.998  31.563  1.00  0.00     0.167 HD
ATOM     42  C   UNL A   1      41.973  27.320  28.699  1.00  0.00     0.034 A 
ATOM     43  C   UNL A   1      39.834  31.325  34.037  1.00  0.00     0.034 A 
ATOM     44  C   UNL A   1      42.753  27.200  29.909  1.00  0.00     0.049 A 
ATOM     45  C   UNL A   1      41.003  30.385  34.173  1.00  0.00     0.074 A 
ATOM     46  C   UNL A   1      43.887  26.436  30.133  1.00  0.00     0.029 A 
ATOM     47  N   UNL A   1      42.485  27.862  31.100  1.00  0.00    -0.354 N 
ATOM     48  N   UNL A   1      41.534  29.591  33.271  1.00  0.00    -0.248 NA
ATOM     49  C   UNL A   1      41.652  30.321  35.488  1.00  0.00     0.031 C 
ATOM     50  C   UNL A   1      44.253  26.573  31.477  1.00  0.00     0.029 A 
ATOM     51  C   UNL A   1      43.408  27.497  32.070  1.00  0.00     0.049 A 
ATOM     52  H   UNL A   1      41.747  28.499  31.237  1.00  0.00     0.167 HD
ATOM     53  C   UNL A   1      42.591  28.947  33.909  1.00  0.00     0.074 A 
ATOM     54  C   UNL A   1      42.637  29.465  35.261  1.00  0.00     0.031 C 
ATOM     55  C   UNL A   1      43.444  28.011  33.419  1.00  0.00     0.034 A 
BRANCH  42  56
ATOM     56  C   UNL A   1      42.374  26.502  27.493  1.00  0.00     0.023 A 
ATOM     57  C   UNL A   1      41.971  25.167  27.318  1.00  0.00     0.031 A 
ATOM     58  C   UNL A   1      43.224  27.063  26.520  1.00  0.00     0.131 A 
ATOM     59  C   UNL A   1      42.481  24.417  26.245  1.00  0.00     0.055 A 
ATOM     60  C   UNL A   1      43.656  26.339  25.408  1.00  0.00     0.041 A 
ATOM     61  F   UNL A   1      43.663  28.325  26.644  1.00  0.00    -0.206 F 
ATOM     62  C   UNL A   1      43.299  25.002  25.274  1.00  0.00     0.022 A 
BRANCH  59  63
ATOM     63  S   UNL A   1      42.198  22.626  26.228  1.00  0.00     0.124 S 
ATOM     64  O   UNL A   1      42.802  22.245  24.953  1.00  0.00    -0.237 OA
ATOM     65  O   UNL A   1      42.904  22.184  27.424  1.00  0.00    -0.237 OA
ATOM     66  O   UNL A   1      40.743  22.507  26.280  1.00  0.00    -0.744 OA
ENDBRANCH  59  63
ENDBRANCH  42  56
BRANCH  43  67
ATOM     67  C   UNL A   1      39.380  32.150  35.200  1.00  0.00     0.023 A 
ATOM     68  C   UNL A   1      39.846  33.459  35.401  1.00  0.00     0.031 A 
ATOM     69  C   UNL A   1      38.521  31.607  36.177  1.00  0.00     0.131 A 
ATOM     70  C   UNL A   1      39.484  34.162  36.563  1.00  0.00     0.055 A 
ATOM     71  C   UNL A   1      38.105  32.336  37.290  1.00  0.00     0.041 A 
ATOM     72  F   UNL A   1      38.064  30.349  36.058  1.00  0.00    -0.206 F 
ATOM     73  C   UNL A   1      38.599  33.617  37.497  1.00  0.00     0.022 A 
BRANCH  70  74
ATOM     74  S   UNL A   1      40.280  35.756  36.902  1.00  0.00     0.124 S 
ATOM     75  O   UNL A   1      41.686  35.437  36.683  1.00  0.00    -0.237 OA
ATOM     76  O   UNL A   1      39.657  36.624  35.907  1.00  0.00    -0.237 OA
ATOM     77  O   UNL A   1      39.911  36.035  38.288  1.00  0.00    -0.744 OA
ENDBRANCH  70  74
ENDBRANCH  43  67
BRANCH  55  78
ATOM     78  C   UNL A   1      44.539  27.530  34.343  1.00  0.00     0.023 A 
ATOM     79  C   UNL A   1      44.425  26.335  35.073  1.00  0.00     0.031 A 
ATOM     80  C   UNL A   1      45.708  28.296  34.506  1.00  0.00     0.131 A 
ATOM     81  C   UNL A   1      45.434  25.969  35.977  1.00  0.00     0.055 A 
ATOM     82  C   UNL A   1      46.739  27.892  35.354  1.00  0.00     0.041 A 
ATOM     83  F   UNL A   1      45.868  29.451  33.840  1.00  0.00    -0.206 F 
ATOM     84  C   UNL A   1      46.600  26.729  36.106  1.00  0.00     0.022 A 
BRANCH  81  85
ATOM     85  S   UNL A   1      45.158  24.543  37.062  1.00  0.00     0.124 S 
ATOM     86  O   UNL A   1      44.210  25.080  38.033  1.00  0.00    -0.237 OA
ATOM     87  O   UNL A   1      44.627  23.546  36.139  1.00  0.00    -0.237 OA
ATOM     88  O   UNL A   1      46.489  24.251  37.591  1.00  0.00    -0.744 OA
ENDBRANCH  81  85
ENDBRANCH  55  78
ENDBRANCH  29  30
ENDBRANCH  22  24
ENDBRANCH  21  22
ENDBRANCH  20  21
ENDBRANCH  19  20
ENDBRANCH   1  19
TORSDOF 20
ENDMDL
MODEL 2
REMARK VINA RESULT:     -10.5      1.740      2.336
REMARK SMILES C/C(C(=O)N[C@@H](C)CCCO)=C(\C)C(=O)OCCOC(=O)c1ccc(-c2c3nc(c(-c4cc(S(=O)(=O)[O-])ccc4F)c4ccc([nH]4)c(-c4cc(S(=O)(=O)[O-])ccc4F)c4nc(c(-c5cc(S(=O)(=O)[O-])ccc5F)c5ccc2[nH]5)C=C4)C=C3)cc1
REMARK SMILES IDX 16 1 14 2 15 3 12 4 1 5 2 6 13 7 3 8 4 9 5 10 6 12 7 13 8 14
REMARK SMILES IDX 9 15 10 16 11 17 17 19 18 20 19 21 20 22 21 23 22 24 23 25
REMARK SMILES IDX 84 26 24 27 83 28 25 29 26 30 27 31 77 32 28 33 82 34 76 35
REMARK SMILES IDX 78 36 29 37 81 38 75 39 74 40 30 42 62 43 42 44 61 45 43 46
REMARK SMILES IDX 46 47 60 48 79 49 44 50 45 51 59 53 80 54 47 55 31 56 32 57
REMARK SMILES IDX 40 58 33 59 39 60 41 61 38 62 34 63 35 64 36 65 37 66 63 67
REMARK SMILES IDX 64 68 72 69 65 70 71 71 73 72 70 73 66 74 67 75 68 76 69 77
REMARK SMILES IDX 48 78 49 79 57 80 50 81 56 82 58 83 55 84 51 85 52 86 53 87
REMARK SMILES IDX 54 88
REMARK H PARENT 5 11 11 18 78 41 46 52
REMARK Flexibility Score: inf
ROOT
ATOM      1  O   UNL A   1      32.790  29.541  24.591  1.00  0.00    -0.459 OA
ENDROOT
BRANCH   1   2
ATOM      2  C   UNL A   1      33.318  28.286  24.692  1.00  0.00     0.334 C 
ATOM      3  O   UNL A   1      33.730  27.813  25.738  1.00  0.00    -0.247 OA
BRANCH   2   4
ATOM      4  C   UNL A   1      33.332  27.630  23.328  1.00  0.00     0.042 C 
ATOM      5  C   UNL A   1      32.838  25.922  21.587  1.00  0.00     0.051 C 
ATOM      6  C   UNL A   1      32.682  26.481  22.973  1.00  0.00     0.024 C 
ATOM      7  C   UNL A   1      34.247  28.365  22.365  1.00  0.00     0.053 C 
BRANCH   6   8
ATOM      8  C   UNL A   1      31.964  25.632  23.975  1.00  0.00     0.247 C 
ATOM      9  O   UNL A   1      30.749  25.768  24.123  1.00  0.00    -0.270 OA
ATOM     10  N   UNL A   1      32.559  24.657  24.721  1.00  0.00    -0.350 N 
ATOM     11  H   UNL A   1      32.074  23.801  24.689  1.00  0.00     0.164 HD
BRANCH  10  12
ATOM     12  C   UNL A   1      33.764  24.604  25.564  1.00  0.00     0.079 C 
ATOM     13  C   UNL A   1      33.576  23.422  26.539  1.00  0.00     0.031 C 
BRANCH  12  14
ATOM     14  C   UNL A   1      35.086  24.354  24.809  1.00  0.00     0.027 C 
BRANCH  14  15
ATOM     15  C   UNL A   1      35.120  23.297  23.704  1.00  0.00     0.030 C 
BRANCH  15  16
ATOM     16  C   UNL A   1      36.490  22.846  23.228  1.00  0.00     0.156 C 
BRANCH  16  17
ATOM     17  O   UNL A   1      37.520  23.234  24.125  1.00  0.00    -0.396 OA
ATOM     18  H   UNL A   1      38.247  22.592  24.080  1.00  0.00     0.210 HD
ENDBRANCH  16  17
ENDBRANCH  15  16
ENDBRANCH  14  15
ENDBRANCH  12  14
ENDBRANCH  10  12
ENDBRANCH   6   8
ENDBRANCH   2   4
ENDBRANCH   1   2
BRANCH   1  19
ATOM     19  C   UNL A   1      31.510  29.768  25.219  1.00  0.00     0.275 C 
BRANCH  19  20
ATOM     20  C   UNL A   1      31.595  30.858  26.288  1.00  0.00     0.275 C 
BRANCH  20  21
ATOM     21  O   UNL A   1      32.719  30.640  27.156  1.00  0.00    -0.458 OA
BRANCH  21  22
ATOM     22  C   UNL A   1      33.426  31.752  27.463  1.00  0.00     0.338 C 
ATOM     23  O   UNL A   1      33.014  32.896  27.536  1.00  0.00    -0.246 OA
BRANCH  22  24
ATOM     24  C   UNL A   1      34.798  31.375  27.829  1.00  0.00     0.060 A 
ATOM     25  C   UNL A   1      35.008  30.062  28.210  1.00  0.00     0.016 A 
ATOM     26  C   UNL A   1      35.822  32.314  27.971  1.00  0.00     0.016 A 
ATOM     27  C   UNL A   1      36.208  29.704  28.804  1.00  0.00     0.010 A 
ATOM     28  C   UNL A   1      37.060  31.922  28.516  1.00  0.00     0.010 A 
ATOM     29  C   UNL A   1      37.256  30.610  28.979  1.00  0.00    -0.014 A 
BRANCH  29  30
ATOM     30  C   UNL A   1      38.462  30.155  29.743  1.00  0.00     0.031 A 
ATOM     31  C   UNL A   1      39.472  29.239  29.093  1.00  0.00     0.074 A 
ATOM     32  C   UNL A   1      38.754  30.681  30.954  1.00  0.00     0.049 A 
ATOM     33  N   UNL A   1      40.519  28.652  29.616  1.00  0.00    -0.248 NA
ATOM     34  C   UNL A   1      39.287  28.961  27.662  1.00  0.00     0.031 C 
ATOM     35  C   UNL A   1      37.959  31.697  31.650  1.00  0.00     0.029 A 
ATOM     36  N   UNL A   1      39.820  30.474  31.800  1.00  0.00    -0.354 N 
ATOM     37  C   UNL A   1      41.083  27.888  28.597  1.00  0.00     0.074 A 
ATOM     38  C   UNL A   1      40.263  28.098  27.422  1.00  0.00     0.031 C 
ATOM     39  C   UNL A   1      38.596  32.072  32.768  1.00  0.00     0.029 A 
ATOM     40  C   UNL A   1      39.761  31.218  32.959  1.00  0.00     0.049 A 
ATOM     41  H   UNL A   1      40.556  29.852  31.596  1.00  0.00     0.167 HD
ATOM     42  C   UNL A   1      42.172  27.081  28.645  1.00  0.00     0.034 A 
ATOM     43  C   UNL A   1      40.505  31.174  34.084  1.00  0.00     0.034 A 
ATOM     44  C   UNL A   1      42.991  26.903  29.823  1.00  0.00     0.049 A 
ATOM     45  C   UNL A   1      41.617  30.160  34.168  1.00  0.00     0.074 A 
ATOM     46  C   UNL A   1      44.081  26.067  29.998  1.00  0.00     0.029 A 
ATOM     47  N   UNL A   1      42.812  27.572  31.027  1.00  0.00    -0.354 N 
ATOM     48  N   UNL A   1      42.060  29.341  33.243  1.00  0.00    -0.248 NA
ATOM     49  C   UNL A   1      42.312  30.046  35.456  1.00  0.00     0.031 C 
ATOM     50  C   UNL A   1      44.508  26.171  31.326  1.00  0.00     0.029 A 
ATOM     51  C   UNL A   1      43.748  27.142  31.957  1.00  0.00     0.049 A 
ATOM     52  H   UNL A   1      42.123  28.253  31.196  1.00  0.00     0.167 HD
ATOM     53  C   UNL A   1      43.098  28.627  33.834  1.00  0.00     0.074 A 
ATOM     54  C   UNL A   1      43.231  29.131  35.186  1.00  0.00     0.031 C 
ATOM     55  C   UNL A   1      43.870  27.643  33.306  1.00  0.00     0.034 A 
BRANCH  42  56
ATOM     56  C   UNL A   1      42.473  26.247  27.420  1.00  0.00     0.023 A 
ATOM     57  C   UNL A   1      42.028  24.921  27.281  1.00  0.00     0.031 A 
ATOM     58  C   UNL A   1      43.268  26.783  26.389  1.00  0.00     0.131 A 
ATOM     59  C   UNL A   1      42.447  24.155  26.181  1.00  0.00     0.055 A 
ATOM     60  C   UNL A   1      43.608  26.044  25.256  1.00  0.00     0.041 A 
ATOM     61  F   UNL A   1      43.745  28.036  26.476  1.00  0.00    -0.206 F 
ATOM     62  C   UNL A   1      43.212  24.716  25.154  1.00  0.00     0.022 A 
BRANCH  59  63
ATOM     63  S   UNL A   1      42.121  22.371  26.194  1.00  0.00     0.124 S 
ATOM     64  O   UNL A   1      42.838  21.933  24.998  1.00  0.00    -0.237 OA
ATOM     65  O   UNL A   1      42.695  21.955  27.468  1.00  0.00    -0.237 OA
ATOM     66  O   UNL A   1      40.666  22.286  26.105  1.00  0.00    -0.744 OA
ENDBRANCH  59  63
ENDBRANCH  42  56
BRANCH  43  67
ATOM     67  C   UNL A   1      40.151  32.017  35.268  1.00  0.00     0.023 A 
ATOM     68  C   UNL A   1      39.242  31.573  36.243  1.00  0.00     0.031 A 
ATOM     69  C   UNL A   1      40.667  33.321  35.404  1.00  0.00     0.131 A 
ATOM     70  C   UNL A   1      38.850  32.437  37.280  1.00  0.00     0.055 A 
ATOM     71  C   UNL A   1      40.332  34.146  36.477  1.00  0.00     0.041 A 
ATOM     72  F   UNL A   1      41.518  33.815  34.490  1.00  0.00    -0.206 F 
ATOM     73  C   UNL A   1      39.406  33.711  37.416  1.00  0.00     0.022 A 
BRANCH  70  74
ATOM     74  S   UNL A   1      37.510  31.917  38.387  1.00  0.00     0.124 S 
ATOM     75  O   UNL A   1      38.163  31.982  39.691  1.00  0.00    -0.237 OA
ATOM     76  O   UNL A   1      36.492  32.930  38.129  1.00  0.00    -0.237 OA
ATOM     77  O   UNL A   1      37.183  30.572  37.921  1.00  0.00    -0.744 OA
ENDBRANCH  70  74
ENDBRANCH  43  67
BRANCH  55  78
ATOM     78  C   UNL A   1      44.968  27.087  34.183  1.00  0.00     0.023 A 
ATOM     79  C   UNL A   1      44.817  25.882  34.890  1.00  0.00     0.031 A 
ATOM     80  C   UNL A   1      46.179  27.789  34.324  1.00  0.00     0.131 A 
ATOM     81  C   UNL A   1      45.835  25.446  35.754  1.00  0.00     0.055 A 
ATOM     82  C   UNL A   1      47.215  27.315  35.129  1.00  0.00     0.041 A 
ATOM     83  F   UNL A   1      46.376  28.950  33.678  1.00  0.00    -0.206 F 
ATOM     84  C   UNL A   1      47.041  26.144  35.860  1.00  0.00     0.022 A 
BRANCH  81  85
ATOM     85  S   UNL A   1      45.521  24.011  36.816  1.00  0.00     0.124 S 
ATOM     86  O   UNL A   1      45.159  24.643  38.081  1.00  0.00    -0.237 OA
ATOM     87  O   UNL A   1      44.440  23.330  36.112  1.00  0.00    -0.237 OA
ATOM     88  O   UNL A   1      46.800  23.302  36.822  1.00  0.00    -0.744 OA
ENDBRANCH  81  85
ENDBRANCH  55  78
ENDBRANCH  29  30
ENDBRANCH  22  24
ENDBRANCH  21  22
ENDBRANCH  20  21
ENDBRANCH  19  20
ENDBRANCH   1  19
TORSDOF 20
ENDMDL
MODEL 3
REMARK VINA RESULT:     -10.3      4.651      9.743
REMARK SMILES C/C(C(=O)N[C@@H](C)CCCO)=C(\C)C(=O)OCCOC(=O)c1ccc(-c2c3nc(c(-c4cc(S(=O)(=O)[O-])ccc4F)c4ccc([nH]4)c(-c4cc(S(=O)(=O)[O-])ccc4F)c4nc(c(-c5cc(S(=O)(=O)[O-])ccc5F)c5ccc2[nH]5)C=C4)C=C3)cc1
REMARK SMILES IDX 16 1 14 2 15 3 12 4 1 5 2 6 13 7 3 8 4 9 5 10 6 12 7 13 8 14
REMARK SMILES IDX 9 15 10 16 11 17 17 19 18 20 19 21 20 22 21 23 22 24 23 25
REMARK SMILES IDX 84 26 24 27 83 28 25 29 26 30 27 31 77 32 28 33 82 34 76 35
REMARK SMILES IDX 78 36 29 37 81 38 75 39 74 40 30 42 62 43 42 44 61 45 43 46
REMARK SMILES IDX 46 47 60 48 79 49 44 50 45 51 59 53 80 54 47 55 31 56 32 57
REMARK SMILES IDX 40 58 33 59 39 60 41 61 38 62 34 63 35 64 36 65 37 66 63 67
REMARK SMILES IDX 64 68 72 69 65 70 71 71 73 72 70 73 66 74 67 75 68 76 69 77
REMARK SMILES IDX 48 78 49 79 57 80 50 81 56 82 58 83 55 84 51 85 52 86 53 87
REMARK SMILES IDX 54 88
REMARK H PARENT 5 11 11 18 78 41 46 52
REMARK Flexibility Score: inf
ROOT
ATOM      1  O   UNL A   1      33.683  20.977  25.554  1.00  0.00    -0.459 OA
ENDROOT
BRANCH   1   2
ATOM      2  C   UNL A   1      32.615  20.488  24.858  1.00  0.00     0.334 C 
ATOM      3  O   UNL A   1      32.212  19.343  24.964  1.00  0.00    -0.247 OA
BRANCH   2   4
ATOM      4  C   UNL A   1      32.067  21.566  23.946  1.00  0.00     0.042 C 
ATOM      5  C   UNL A   1      31.018  23.731  23.309  1.00  0.00     0.051 C 
ATOM      6  C   UNL A   1      31.582  22.785  24.331  1.00  0.00     0.024 C 
ATOM      7  C   UNL A   1      32.033  21.108  22.499  1.00  0.00     0.053 C 
BRANCH   6   8
ATOM      8  C   UNL A   1      31.404  23.151  25.772  1.00  0.00     0.247 C 
ATOM      9  O   UNL A   1      30.359  22.849  26.348  1.00  0.00    -0.270 OA
ATOM     10  N   UNL A   1      32.357  23.765  26.530  1.00  0.00    -0.350 N 
ATOM     11  H   UNL A   1      32.514  23.310  27.389  1.00  0.00     0.164 HD
BRANCH  10  12
ATOM     12  C   UNL A   1      33.200  24.957  26.348  1.00  0.00     0.079 C 
ATOM     13  C   UNL A   1      34.055  24.713  25.086  1.00  0.00     0.031 C 
BRANCH  12  14
ATOM     14  C   UNL A   1      32.436  26.278  26.122  1.00  0.00     0.027 C 
BRANCH  14  15
ATOM     15  C   UNL A   1      33.033  27.580  26.662  1.00  0.00     0.030 C 
BRANCH  15  16
ATOM     16  C   UNL A   1      32.083  28.522  27.380  1.00  0.00     0.156 C 
BRANCH  16  17
ATOM     17  O   UNL A   1      31.086  27.822  28.110  1.00  0.00    -0.396 OA
ATOM     18  H   UNL A   1      30.490  27.371  27.491  1.00  0.00     0.210 HD
ENDBRANCH  16  17
ENDBRANCH  15  16
ENDBRANCH  14  15
ENDBRANCH  12  14
ENDBRANCH  10  12
ENDBRANCH   6   8
ENDBRANCH   2   4
ENDBRANCH   1   2
BRANCH   1  19
ATOM     19  C   UNL A   1      34.978  20.885  24.923  1.00  0.00     0.275 C 
BRANCH  19  20
ATOM     20  C   UNL A   1      36.083  21.430  25.828  1.00  0.00     0.275 C 
BRANCH  20  21
ATOM     21  O   UNL A   1      37.270  21.720  25.073  1.00  0.00    -0.458 OA
BRANCH  21  22
ATOM     22  C   UNL A   1      38.425  21.311  25.647  1.00  0.00     0.338 C 
ATOM     23  O   UNL A   1      38.969  20.227  25.529  1.00  0.00    -0.246 OA
BRANCH  22  24
ATOM     24  C   UNL A   1      39.035  22.431  26.376  1.00  0.00     0.060 A 
ATOM     25  C   UNL A   1      38.572  23.700  26.077  1.00  0.00     0.016 A 
ATOM     26  C   UNL A   1      40.152  22.273  27.199  1.00  0.00     0.016 A 
ATOM     27  C   UNL A   1      39.267  24.809  26.533  1.00  0.00     0.010 A 
ATOM     28  C   UNL A   1      40.811  23.408  27.709  1.00  0.00     0.010 A 
ATOM     29  C   UNL A   1      40.397  24.701  27.348  1.00  0.00    -0.014 A 
BRANCH  29  30
ATOM     30  C   UNL A   1      41.147  25.953  27.683  1.00  0.00     0.031 A 
ATOM     31  C   UNL A   1      40.518  27.001  28.570  1.00  0.00     0.074 A 
ATOM     32  C   UNL A   1      42.448  26.093  27.342  1.00  0.00     0.049 A 
ATOM     33  N   UNL A   1      40.958  28.193  28.889  1.00  0.00    -0.248 NA
ATOM     34  C   UNL A   1      39.232  26.655  29.191  1.00  0.00     0.031 C 
ATOM     35  C   UNL A   1      43.247  25.099  26.619  1.00  0.00     0.029 A 
ATOM     36  N   UNL A   1      43.349  27.104  27.593  1.00  0.00    -0.354 N 
ATOM     37  C   UNL A   1      39.978  28.763  29.698  1.00  0.00     0.074 A 
ATOM     38  C   UNL A   1      38.925  27.777  29.827  1.00  0.00     0.031 C 
ATOM     39  C   UNL A   1      44.519  25.513  26.551  1.00  0.00     0.029 A 
ATOM     40  C   UNL A   1      44.605  26.869  27.079  1.00  0.00     0.049 A 
ATOM     41  H   UNL A   1      43.116  27.920  28.094  1.00  0.00     0.167 HD
ATOM     42  C   UNL A   1      39.957  29.995  30.265  1.00  0.00     0.034 A 
ATOM     43  C   UNL A   1      45.686  27.669  26.969  1.00  0.00     0.034 A 
ATOM     44  C   UNL A   1      41.028  30.956  30.143  1.00  0.00     0.049 A 
ATOM     45  C   UNL A   1      45.584  29.085  27.474  1.00  0.00     0.074 A 
ATOM     46  C   UNL A   1      41.086  32.252  30.629  1.00  0.00     0.029 A 
ATOM     47  N   UNL A   1      42.233  30.728  29.490  1.00  0.00    -0.354 N 
ATOM     48  N   UNL A   1      44.598  29.662  28.120  1.00  0.00    -0.248 NA
ATOM     49  C   UNL A   1      46.729  29.966  27.211  1.00  0.00     0.031 C 
ATOM     50  C   UNL A   1      42.285  32.831  30.201  1.00  0.00     0.029 A 
ATOM     51  C   UNL A   1      43.023  31.869  29.530  1.00  0.00     0.049 A 
ATOM     52  H   UNL A   1      42.490  29.880  29.062  1.00  0.00     0.167 HD
ATOM     53  C   UNL A   1      45.014  30.969  28.357  1.00  0.00     0.074 A 
ATOM     54  C   UNL A   1      46.349  31.086  27.806  1.00  0.00     0.031 C 
ATOM     55  C   UNL A   1      44.350  31.981  28.972  1.00  0.00     0.034 A 
BRANCH  42  56
ATOM     56  C   UNL A   1      38.688  30.409  30.976  1.00  0.00     0.023 A 
ATOM     57  C   UNL A   1      37.607  31.007  30.305  1.00  0.00     0.031 A 
ATOM     58  C   UNL A   1      38.584  30.245  32.371  1.00  0.00     0.131 A 
ATOM     59  C   UNL A   1      36.510  31.489  31.038  1.00  0.00     0.055 A 
ATOM     60  C   UNL A   1      37.452  30.646  33.082  1.00  0.00     0.041 A 
ATOM     61  F   UNL A   1      39.594  29.704  33.071  1.00  0.00    -0.206 F 
ATOM     62  C   UNL A   1      36.413  31.288  32.418  1.00  0.00     0.022 A 
BRANCH  59  63
ATOM     63  S   UNL A   1      35.291  32.529  30.189  1.00  0.00     0.124 S 
ATOM     64  O   UNL A   1      36.091  33.707  29.856  1.00  0.00    -0.237 OA
ATOM     65  O   UNL A   1      34.892  31.693  29.063  1.00  0.00    -0.237 OA
ATOM     66  O   UNL A   1      34.262  32.750  31.201  1.00  0.00    -0.744 OA
ENDBRANCH  59  63
ENDBRANCH  42  56
BRANCH  43  67
ATOM     67  C   UNL A   1      46.911  27.204  26.244  1.00  0.00     0.023 A 
ATOM     68  C   UNL A   1      47.995  26.628  26.925  1.00  0.00     0.031 A 
ATOM     69  C   UNL A   1      47.043  27.401  24.855  1.00  0.00     0.131 A 
ATOM     70  C   UNL A   1      49.171  26.307  26.225  1.00  0.00     0.055 A 
ATOM     71  C   UNL A   1      48.183  27.011  24.153  1.00  0.00     0.041 A 
ATOM     72  F   UNL A   1      46.053  27.974  24.150  1.00  0.00    -0.206 F 
ATOM     73  C   UNL A   1      49.263  26.473  24.841  1.00  0.00     0.022 A 
BRANCH  70  74
ATOM     74  S   UNL A   1      50.628  25.777  27.166  1.00  0.00     0.124 S 
ATOM     75  O   UNL A   1      51.700  26.001  26.202  1.00  0.00    -0.237 OA
ATOM     76  O   UNL A   1      50.597  26.681  28.311  1.00  0.00    -0.237 OA
ATOM     77  O   UNL A   1      50.347  24.376  27.471  1.00  0.00    -0.744 OA
ENDBRANCH  70  74
ENDBRANCH  43  67
BRANCH  55  78
ATOM     78  C   UNL A   1      45.088  33.290  29.131  1.00  0.00     0.023 A 
ATOM     79  C   UNL A   1      45.930  33.541  30.228  1.00  0.00     0.031 A 
ATOM     80  C   UNL A   1      44.929  34.309  28.172  1.00  0.00     0.131 A 
ATOM     81  C   UNL A   1      46.532  34.801  30.372  1.00  0.00     0.055 A 
ATOM     82  C   UNL A   1      45.586  35.534  28.285  1.00  0.00     0.041 A 
ATOM     83  F   UNL A   1      44.131  34.127  27.108  1.00  0.00    -0.206 F 
ATOM     84  C   UNL A   1      46.383  35.791  29.397  1.00  0.00     0.022 A 
BRANCH  81  85
ATOM     85  S   UNL A   1      47.430  35.167  31.904  1.00  0.00     0.124 S 
ATOM     86  O   UNL A   1      47.410  36.626  31.926  1.00  0.00    -0.237 OA
ATOM     87  O   UNL A   1      46.612  34.503  32.913  1.00  0.00    -0.237 OA
ATOM     88  O   UNL A   1      48.746  34.570  31.682  1.00  0.00    -0.744 OA
ENDBRANCH  81  85
ENDBRANCH  55  78
ENDBRANCH  29  30
ENDBRANCH  22  24
ENDBRANCH  21  22
ENDBRANCH  20  21
ENDBRANCH  19  20
ENDBRANCH   1  19
TORSDOF 20
ENDMDL
