MODEL 1
REMARK VINA RESULT:     -10.7      0.000      0.000
REMARK SMILES CC(C)C[C@H](NC(N)=O)C(=O)N[C@@H](C(=O)OCCOC(=O)c1ccc(-c2c3nc(c(-c4cc(S(=O)(=O)[O-])ccc4F)c4ccc([nH]4)c(-c4cc(S(=O)(=O)[O-])ccc4F)c4nc(c(-c5cc(S(=O)(=O)[O-])ccc5F)c5ccc2[nH]5)C=C4)C=C3)cc1)C(C)C
REMARK SMILES IDX 17 1 16 2 14 3 15 4 13 5 12 6 10 7 11 8 5 10 4 11 2 12 1 13
REMARK SMILES IDX 3 14 6 15 7 16 8 18 9 19 85 22 86 23 87 24 18 25 19 26 20 27
REMARK SMILES IDX 21 28 22 29 23 30 84 31 24 32 83 33 25 34 26 35 27 36 77 37
REMARK SMILES IDX 28 38 82 39 76 40 78 41 29 42 81 43 75 44 74 45 30 47 62 48
REMARK SMILES IDX 42 49 61 50 43 51 46 52 60 53 79 54 44 55 45 56 59 58 80 59
REMARK SMILES IDX 47 60 31 61 32 62 40 63 33 64 39 65 41 66 38 67 34 68 35 69
REMARK SMILES IDX 36 70 37 71 63 72 64 73 72 74 65 75 71 76 73 77 70 78 66 79
REMARK SMILES IDX 67 80 68 81 69 82 48 83 49 84 57 85 50 86 56 87 58 88 55 89
REMARK SMILES IDX 51 90 52 91 53 92 54 93
REMARK H PARENT 12 9 6 17 8 20 8 21 78 46 46 57
REMARK Flexibility Score: inf
ROOT
ATOM      1  C   UNL A   1      34.929  21.654  25.143  1.00  0.00     0.274 C 
ENDROOT
BRANCH   1   2
ATOM      2  O   UNL A   1      34.164  22.730  24.560  1.00  0.00    -0.461 OA
BRANCH   2   3
ATOM      3  C   UNL A   1      34.111  23.890  25.280  1.00  0.00     0.329 C 
ATOM      4  O   UNL A   1      34.961  24.209  26.104  1.00  0.00    -0.250 OA
BRANCH   3   5
ATOM      5  C   UNL A   1      32.864  24.759  24.947  1.00  0.00     0.194 C 
BRANCH   5   6
ATOM      6  N   UNL A   1      33.095  26.171  25.260  1.00  0.00    -0.341 N 
ATOM      7  C   UNL A   1      33.050  27.262  24.444  1.00  0.00     0.243 C 
ATOM      8  O   UNL A   1      33.405  28.347  24.919  1.00  0.00    -0.273 OA
ATOM      9  H   UNL A   1      33.315  26.360  26.201  1.00  0.00     0.164 HD
BRANCH   7  10
ATOM     10  C   UNL A   1      32.562  27.198  22.974  1.00  0.00     0.173 C 
BRANCH  10  11
ATOM     11  C   UNL A   1      33.370  26.338  21.968  1.00  0.00     0.038 C 
BRANCH  11  12
ATOM     12  C   UNL A   1      32.624  25.230  21.208  1.00  0.00    -0.015 C 
ATOM     13  C   UNL A   1      32.593  25.478  19.694  1.00  0.00     0.007 C 
ATOM     14  C   UNL A   1      33.184  23.836  21.492  1.00  0.00     0.007 C 
ENDBRANCH  11  12
ENDBRANCH  10  11
BRANCH  10  15
ATOM     15  N   UNL A   1      32.101  28.527  22.539  1.00  0.00    -0.327 N 
ATOM     16  C   UNL A   1      30.845  28.914  22.213  1.00  0.00     0.312 C 
ATOM     17  H   UNL A   1      32.795  29.224  22.479  1.00  0.00     0.166 HD
ATOM     18  N   UNL A   1      30.807  30.145  21.653  1.00  0.00    -0.352 N 
ATOM     19  O   UNL A   1      29.826  28.251  22.333  1.00  0.00    -0.249 OA
ATOM     20  H   UNL A   1      31.635  30.670  21.562  1.00  0.00     0.161 HD
ATOM     21  H   UNL A   1      29.951  30.517  21.337  1.00  0.00     0.161 HD
ENDBRANCH  10  15
ENDBRANCH   7  10
ENDBRANCH   5   6
BRANCH   5  22
ATOM     22  C   UNL A   1      31.603  24.182  25.644  1.00  0.00     0.017 C 
ATOM     23  C   UNL A   1      31.755  23.510  27.010  1.00  0.00     0.010 C 
ATOM     24  C   UNL A   1      30.509  25.257  25.759  1.00  0.00     0.010 C 
ENDBRANCH   5  22
ENDBRANCH   3   5
ENDBRANCH   2   3
ENDBRANCH   1   2
BRANCH   1  25
ATOM     25  C   UNL A   1      36.148  21.313  24.286  1.00  0.00     0.275 C 
BRANCH  25  26
ATOM     26  O   UNL A   1      37.258  22.168  24.609  1.00  0.00    -0.458 OA
BRANCH  26  27
ATOM     27  C   UNL A   1      38.208  21.588  25.380  1.00  0.00     0.338 C 
ATOM     28  O   UNL A   1      38.628  20.445  25.292  1.00  0.00    -0.246 OA
BRANCH  27  29
ATOM     29  C   UNL A   1      38.786  22.560  26.320  1.00  0.00     0.060 A 
ATOM     30  C   UNL A   1      38.306  23.861  26.291  1.00  0.00     0.016 A 
ATOM     31  C   UNL A   1      39.967  22.272  26.997  1.00  0.00     0.016 A 
ATOM     32  C   UNL A   1      39.131  24.901  26.713  1.00  0.00     0.010 A 
ATOM     33  C   UNL A   1      40.679  23.310  27.613  1.00  0.00     0.010 A 
ATOM     34  C   UNL A   1      40.313  24.656  27.422  1.00  0.00    -0.014 A 
BRANCH  34  35
ATOM     35  C   UNL A   1      41.177  25.772  27.936  1.00  0.00     0.031 A 
ATOM     36  C   UNL A   1      40.571  26.852  28.804  1.00  0.00     0.074 A 
ATOM     37  C   UNL A   1      42.492  25.857  27.633  1.00  0.00     0.049 A 
ATOM     38  N   UNL A   1      40.972  28.081  29.007  1.00  0.00    -0.248 NA
ATOM     39  C   UNL A   1      39.332  26.504  29.518  1.00  0.00     0.031 C 
ATOM     40  C   UNL A   1      43.283  24.851  26.919  1.00  0.00     0.029 A 
ATOM     41  N   UNL A   1      43.404  26.859  27.881  1.00  0.00    -0.354 N 
ATOM     42  C   UNL A   1      39.991  28.680  29.796  1.00  0.00     0.074 A 
ATOM     43  C   UNL A   1      38.980  27.672  30.037  1.00  0.00     0.031 C 
ATOM     44  C   UNL A   1      44.553  25.261  26.825  1.00  0.00     0.029 A 
ATOM     45  C   UNL A   1      44.636  26.630  27.307  1.00  0.00     0.049 A 
ATOM     46  H   UNL A   1      43.197  27.659  28.415  1.00  0.00     0.167 HD
ATOM     47  C   UNL A   1      39.940  29.957  30.253  1.00  0.00     0.034 A 
ATOM     48  C   UNL A   1      45.686  27.446  27.086  1.00  0.00     0.034 A 
ATOM     49  C   UNL A   1      40.997  30.920  30.046  1.00  0.00     0.049 A 
ATOM     50  C   UNL A   1      45.575  28.888  27.502  1.00  0.00     0.074 A 
ATOM     51  C   UNL A   1      41.050  32.249  30.433  1.00  0.00     0.029 A 
ATOM     52  N   UNL A   1      42.205  30.646  29.413  1.00  0.00    -0.354 N 
ATOM     53  N   UNL A   1      44.578  29.499  28.100  1.00  0.00    -0.248 NA
ATOM     54  C   UNL A   1      46.718  29.755  27.194  1.00  0.00     0.031 C 
ATOM     55  C   UNL A   1      42.259  32.792  29.983  1.00  0.00     0.029 A 
ATOM     56  C   UNL A   1      42.998  31.783  29.388  1.00  0.00     0.049 A 
ATOM     57  H   UNL A   1      42.458  29.773  29.037  1.00  0.00     0.167 HD
ATOM     58  C   UNL A   1      44.995  30.815  28.274  1.00  0.00     0.074 A 
ATOM     59  C   UNL A   1      46.330  30.907  27.720  1.00  0.00     0.031 C 
ATOM     60  C   UNL A   1      44.334  31.852  28.847  1.00  0.00     0.034 A 
BRANCH  47  61
ATOM     61  C   UNL A   1      38.674  30.409  30.949  1.00  0.00     0.023 A 
ATOM     62  C   UNL A   1      37.611  31.021  30.264  1.00  0.00     0.031 A 
ATOM     63  C   UNL A   1      38.544  30.243  32.342  1.00  0.00     0.131 A 
ATOM     64  C   UNL A   1      36.504  31.509  30.979  1.00  0.00     0.055 A 
ATOM     65  C   UNL A   1      37.403  30.653  33.035  1.00  0.00     0.041 A 
ATOM     66  F   UNL A   1      39.533  29.686  33.060  1.00  0.00    -0.206 F 
ATOM     67  C   UNL A   1      36.381  31.305  32.355  1.00  0.00     0.022 A 
BRANCH  64  68
ATOM     68  S   UNL A   1      35.296  32.544  30.109  1.00  0.00     0.124 S 
ATOM     69  O   UNL A   1      36.145  33.618  29.597  1.00  0.00    -0.237 OA
ATOM     70  O   UNL A   1      34.754  31.628  29.113  1.00  0.00    -0.237 OA
ATOM     71  O   UNL A   1      34.364  32.945  31.162  1.00  0.00    -0.744 OA
ENDBRANCH  64  68
ENDBRANCH  47  61
BRANCH  48  72
ATOM     72  C   UNL A   1      46.883  26.957  26.339  1.00  0.00     0.023 A 
ATOM     73  C   UNL A   1      47.947  26.338  27.009  1.00  0.00     0.031 A 
ATOM     74  C   UNL A   1      47.002  27.139  24.947  1.00  0.00     0.131 A 
ATOM     75  C   UNL A   1      49.099  25.964  26.299  1.00  0.00     0.055 A 
ATOM     76  C   UNL A   1      48.117  26.699  24.234  1.00  0.00     0.041 A 
ATOM     77  F   UNL A   1      46.019  27.735  24.251  1.00  0.00    -0.206 F 
ATOM     78  C   UNL A   1      49.183  26.120  24.914  1.00  0.00     0.022 A 
BRANCH  75  79
ATOM     79  S   UNL A   1      50.535  25.368  27.231  1.00  0.00     0.124 S 
ATOM     80  O   UNL A   1      50.899  26.552  28.000  1.00  0.00    -0.237 OA
ATOM     81  O   UNL A   1      49.965  24.260  27.990  1.00  0.00    -0.237 OA
ATOM     82  O   UNL A   1      51.483  24.985  26.188  1.00  0.00    -0.744 OA
ENDBRANCH  75  79
ENDBRANCH  48  72
BRANCH  60  83
ATOM     83  C   UNL A   1      45.089  33.149  28.990  1.00  0.00     0.023 A 
ATOM     84  C   UNL A   1      45.867  33.440  30.123  1.00  0.00     0.031 A 
ATOM     85  C   UNL A   1      45.021  34.108  27.964  1.00  0.00     0.131 A 
ATOM     86  C   UNL A   1      46.512  34.683  30.222  1.00  0.00     0.055 A 
ATOM     87  C   UNL A   1      45.710  35.317  28.042  1.00  0.00     0.041 A 
ATOM     88  F   UNL A   1      44.286  33.878  26.863  1.00  0.00    -0.206 F 
ATOM     89  C   UNL A   1      46.453  35.614  29.180  1.00  0.00     0.022 A 
BRANCH  86  90
ATOM     90  S   UNL A   1      47.374  35.099  31.761  1.00  0.00     0.124 S 
ATOM     91  O   UNL A   1      48.644  34.397  31.597  1.00  0.00    -0.237 OA
ATOM     92  O   UNL A   1      47.439  36.556  31.700  1.00  0.00    -0.237 OA
ATOM     93  O   UNL A   1      46.499  34.563  32.802  1.00  0.00    -0.744 OA
ENDBRANCH  86  90
ENDBRANCH  60  83
ENDBRANCH  34  35
ENDBRANCH  27  29
ENDBRANCH  26  27
ENDBRANCH  25  26
ENDBRANCH   1  25
TORSDOF 20
ENDMDL
MODEL 2
REMARK VINA RESULT:     -10.6      1.981      2.999
REMARK SMILES CC(C)C[C@H](NC(N)=O)C(=O)N[C@@H](C(=O)OCCOC(=O)c1ccc(-c2c3nc(c(-c4cc(S(=O)(=O)[O-])ccc4F)c4ccc([nH]4)c(-c4cc(S(=O)(=O)[O-])ccc4F)c4nc(c(-c5cc(S(=O)(=O)[O-])ccc5F)c5ccc2[nH]5)C=C4)C=C3)cc1)C(C)C
REMARK SMILES IDX 17 1 16 2 14 3 15 4 13 5 12 6 10 7 11 8 5 10 4 11 2 12 1 13
REMARK SMILES IDX 3 14 6 15 7 16 8 18 9 19 85 22 86 23 87 24 18 25 19 26 20 27
REMARK SMILES IDX 21 28 22 29 23 30 84 31 24 32 83 33 25 34 26 35 27 36 77 37
REMARK SMILES IDX 28 38 82 39 76 40 78 41 29 42 81 43 75 44 74 45 30 47 62 48
REMARK SMILES IDX 42 49 61 50 43 51 46 52 60 53 79 54 44 55 45 56 59 58 80 59
REMARK SMILES IDX 47 60 31 61 32 62 40 63 33 64 39 65 41 66 38 67 34 68 35 69
REMARK SMILES IDX 36 70 37 71 63 72 64 73 72 74 65 75 71 76 73 77 70 78 66 79
REMARK SMILES IDX 67 80 68 81 69 82 48 83 49 84 57 85 50 86 56 87 58 88 55 89
REMARK SMILES IDX 51 90 52 91 53 92 54 93
REMARK H PARENT 12 9 6 17 8 20 8 21 78 46 46 57
REMARK Flexibility Score: inf
ROOT
ATOM      1  C   UNL A   1      36.353  23.637  23.372  1.00  0.00     0.274 C 
ENDROOT
BRANCH   1   2
ATOM      2  O   UNL A   1      34.991  24.101  23.259  1.00  0.00    -0.461 OA
BRANCH   2   3
ATOM      3  C   UNL A   1      34.482  24.745  24.351  1.00  0.00     0.329 C 
ATOM      4  O   UNL A   1      35.179  25.165  25.268  1.00  0.00    -0.250 OA
BRANCH   3   5
ATOM      5  C   UNL A   1      32.933  24.887  24.309  1.00  0.00     0.194 C 
BRANCH   5   6
ATOM      6  N   UNL A   1      32.336  23.972  23.335  1.00  0.00    -0.341 N 
ATOM      7  C   UNL A   1      31.851  22.709  23.509  1.00  0.00     0.243 C 
ATOM      8  O   UNL A   1      31.505  22.085  22.499  1.00  0.00    -0.273 OA
ATOM      9  H   UNL A   1      32.274  24.320  22.416  1.00  0.00     0.164 HD
BRANCH   7  10
ATOM     10  C   UNL A   1      31.706  22.045  24.902  1.00  0.00     0.173 C 
BRANCH  10  11
ATOM     11  C   UNL A   1      31.985  20.524  25.025  1.00  0.00     0.038 C 
BRANCH  11  12
ATOM     12  C   UNL A   1      33.258  20.084  25.764  1.00  0.00    -0.015 C 
ATOM     13  C   UNL A   1      34.308  19.489  24.817  1.00  0.00     0.007 C 
ATOM     14  C   UNL A   1      33.884  21.211  26.587  1.00  0.00     0.007 C 
ENDBRANCH  11  12
ENDBRANCH  10  11
BRANCH  10  15
ATOM     15  N   UNL A   1      30.533  22.595  25.600  1.00  0.00    -0.327 N 
ATOM     16  C   UNL A   1      30.504  23.349  26.725  1.00  0.00     0.312 C 
ATOM     17  H   UNL A   1      29.658  22.389  25.199  1.00  0.00     0.166 HD
ATOM     18  N   UNL A   1      29.253  23.507  27.216  1.00  0.00    -0.352 N 
ATOM     19  O   UNL A   1      31.468  23.818  27.312  1.00  0.00    -0.249 OA
ATOM     20  H   UNL A   1      28.484  23.125  26.734  1.00  0.00     0.161 HD
ATOM     21  H   UNL A   1      29.111  24.004  28.055  1.00  0.00     0.161 HD
ENDBRANCH  10  15
ENDBRANCH   7  10
ENDBRANCH   5   6
BRANCH   5  22
ATOM     22  C   UNL A   1      32.534  26.368  24.073  1.00  0.00     0.017 C 
ATOM     23  C   UNL A   1      33.547  27.312  23.422  1.00  0.00     0.010 C 
ATOM     24  C   UNL A   1      31.220  26.454  23.277  1.00  0.00     0.010 C 
ENDBRANCH   5  22
ENDBRANCH   3   5
ENDBRANCH   2   3
ENDBRANCH   1   2
BRANCH   1  25
ATOM     25  C   UNL A   1      36.408  22.194  23.872  1.00  0.00     0.275 C 
BRANCH  25  26
ATOM     26  O   UNL A   1      36.747  22.149  25.270  1.00  0.00    -0.458 OA
BRANCH  26  27
ATOM     27  C   UNL A   1      38.026  21.786  25.526  1.00  0.00     0.338 C 
ATOM     28  O   UNL A   1      38.645  20.868  25.013  1.00  0.00    -0.246 OA
BRANCH  27  29
ATOM     29  C   UNL A   1      38.659  22.727  26.463  1.00  0.00     0.060 A 
ATOM     30  C   UNL A   1      38.175  24.026  26.511  1.00  0.00     0.016 A 
ATOM     31  C   UNL A   1      39.882  22.420  27.052  1.00  0.00     0.016 A 
ATOM     32  C   UNL A   1      39.022  25.054  26.919  1.00  0.00     0.010 A 
ATOM     33  C   UNL A   1      40.629  23.439  27.660  1.00  0.00     0.010 A 
ATOM     34  C   UNL A   1      40.247  24.789  27.542  1.00  0.00    -0.014 A 
BRANCH  34  35
ATOM     35  C   UNL A   1      41.139  25.889  28.042  1.00  0.00     0.031 A 
ATOM     36  C   UNL A   1      40.566  26.983  28.915  1.00  0.00     0.074 A 
ATOM     37  C   UNL A   1      42.452  25.949  27.721  1.00  0.00     0.049 A 
ATOM     38  N   UNL A   1      40.993  28.205  29.108  1.00  0.00    -0.248 NA
ATOM     39  C   UNL A   1      39.330  26.661  29.646  1.00  0.00     0.031 C 
ATOM     40  C   UNL A   1      43.213  24.925  26.999  1.00  0.00     0.029 A 
ATOM     41  N   UNL A   1      43.386  26.934  27.953  1.00  0.00    -0.354 N 
ATOM     42  C   UNL A   1      40.034  28.825  29.908  1.00  0.00     0.074 A 
ATOM     43  C   UNL A   1      39.007  27.837  30.166  1.00  0.00     0.031 C 
ATOM     44  C   UNL A   1      44.490  25.311  26.887  1.00  0.00     0.029 A 
ATOM     45  C   UNL A   1      44.606  26.680  27.364  1.00  0.00     0.049 A 
ATOM     46  H   UNL A   1      43.201  27.739  28.487  1.00  0.00     0.167 HD
ATOM     47  C   UNL A   1      40.013  30.104  30.362  1.00  0.00     0.034 A 
ATOM     48  C   UNL A   1      45.667  27.475  27.126  1.00  0.00     0.034 A 
ATOM     49  C   UNL A   1      41.086  31.046  30.138  1.00  0.00     0.049 A 
ATOM     50  C   UNL A   1      45.589  28.920  27.540  1.00  0.00     0.074 A 
ATOM     51  C   UNL A   1      41.169  32.375  30.520  1.00  0.00     0.029 A 
ATOM     52  N   UNL A   1      42.279  30.748  29.489  1.00  0.00    -0.354 N 
ATOM     53  N   UNL A   1      44.613  29.552  28.149  1.00  0.00    -0.248 NA
ATOM     54  C   UNL A   1      46.745  29.765  27.214  1.00  0.00     0.031 C 
ATOM     55  C   UNL A   1      42.382  32.893  30.052  1.00  0.00     0.029 A 
ATOM     56  C   UNL A   1      43.094  31.868  29.450  1.00  0.00     0.049 A 
ATOM     57  H   UNL A   1      42.511  29.869  29.113  1.00  0.00     0.167 HD
ATOM     58  C   UNL A   1      45.057  30.860  28.313  1.00  0.00     0.074 A 
ATOM     59  C   UNL A   1      46.386  30.925  27.741  1.00  0.00     0.031 C 
ATOM     60  C   UNL A   1      44.424  31.911  28.892  1.00  0.00     0.034 A 
BRANCH  47  61
ATOM     61  C   UNL A   1      38.766  30.582  31.074  1.00  0.00     0.023 A 
ATOM     62  C   UNL A   1      37.671  31.139  30.390  1.00  0.00     0.031 A 
ATOM     63  C   UNL A   1      38.685  30.498  32.478  1.00  0.00     0.131 A 
ATOM     64  C   UNL A   1      36.583  31.655  31.113  1.00  0.00     0.055 A 
ATOM     65  C   UNL A   1      37.563  30.936  33.184  1.00  0.00     0.041 A 
ATOM     66  F   UNL A   1      39.706  29.997  33.192  1.00  0.00    -0.206 F 
ATOM     67  C   UNL A   1      36.509  31.533  32.503  1.00  0.00     0.022 A 
BRANCH  64  68
ATOM     68  S   UNL A   1      35.331  32.622  30.226  1.00  0.00     0.124 S 
ATOM     69  O   UNL A   1      36.104  33.792  29.811  1.00  0.00    -0.237 OA
ATOM     70  O   UNL A   1      34.927  31.713  29.160  1.00  0.00    -0.237 OA
ATOM     71  O   UNL A   1      34.314  32.885  31.242  1.00  0.00    -0.744 OA
ENDBRANCH  64  68
ENDBRANCH  47  61
BRANCH  48  72
ATOM     72  C   UNL A   1      46.845  26.961  26.365  1.00  0.00     0.023 A 
ATOM     73  C   UNL A   1      47.916  26.344  27.025  1.00  0.00     0.031 A 
ATOM     74  C   UNL A   1      46.938  27.118  24.968  1.00  0.00     0.131 A 
ATOM     75  C   UNL A   1      49.050  25.946  26.299  1.00  0.00     0.055 A 
ATOM     76  C   UNL A   1      48.035  26.655  24.241  1.00  0.00     0.041 A 
ATOM     77  F   UNL A   1      45.947  27.711  24.281  1.00  0.00    -0.206 F 
ATOM     78  C   UNL A   1      49.108  26.077  24.910  1.00  0.00     0.022 A 
BRANCH  75  79
ATOM     79  S   UNL A   1      50.498  25.352  27.214  1.00  0.00     0.124 S 
ATOM     80  O   UNL A   1      50.881  26.543  27.963  1.00  0.00    -0.237 OA
ATOM     81  O   UNL A   1      49.935  24.255  27.993  1.00  0.00    -0.237 OA
ATOM     82  O   UNL A   1      51.427  24.953  26.158  1.00  0.00    -0.744 OA
ENDBRANCH  75  79
ENDBRANCH  48  72
BRANCH  60  83
ATOM     83  C   UNL A   1      45.204  33.193  29.021  1.00  0.00     0.023 A 
ATOM     84  C   UNL A   1      45.254  34.145  27.989  1.00  0.00     0.031 A 
ATOM     85  C   UNL A   1      45.912  33.460  30.207  1.00  0.00     0.131 A 
ATOM     86  C   UNL A   1      46.033  35.301  28.147  1.00  0.00     0.055 A 
ATOM     87  C   UNL A   1      46.638  34.637  30.380  1.00  0.00     0.041 A 
ATOM     88  F   UNL A   1      45.900  32.578  31.221  1.00  0.00    -0.206 F 
ATOM     89  C   UNL A   1      46.710  35.561  29.343  1.00  0.00     0.022 A 
BRANCH  86  90
ATOM     90  S   UNL A   1      46.211  36.434  26.742  1.00  0.00     0.124 S 
ATOM     91  O   UNL A   1      46.162  35.517  25.606  1.00  0.00    -0.237 OA
ATOM     92  O   UNL A   1      45.058  37.314  26.900  1.00  0.00    -0.237 OA
ATOM     93  O   UNL A   1      47.509  37.067  26.972  1.00  0.00    -0.744 OA
ENDBRANCH  86  90
ENDBRANCH  60  83
ENDBRANCH  34  35
ENDBRANCH  27  29
ENDBRANCH  26  27
ENDBRANCH  25  26
ENDBRANCH   1  25
TORSDOF 20
ENDMDL
MODEL 3
REMARK VINA RESULT:     -10.2      1.605      2.383
REMARK SMILES CC(C)C[C@H](NC(N)=O)C(=O)N[C@@H](C(=O)OCCOC(=O)c1ccc(-c2c3nc(c(-c4cc(S(=O)(=O)[O-])ccc4F)c4ccc([nH]4)c(-c4cc(S(=O)(=O)[O-])ccc4F)c4nc(c(-c5cc(S(=O)(=O)[O-])ccc5F)c5ccc2[nH]5)C=C4)C=C3)cc1)C(C)C
REMARK SMILES IDX 17 1 16 2 14 3 15 4 13 5 12 6 10 7 11 8 5 10 4 11 2 12 1 13
REMARK SMILES IDX 3 14 6 15 7 16 8 18 9 19 85 22 86 23 87 24 18 25 19 26 20 27
REMARK SMILES IDX 21 28 22 29 23 30 84 31 24 32 83 33 25 34 26 35 27 36 77 37
REMARK SMILES IDX 28 38 82 39 76 40 78 41 29 42 81 43 75 44 74 45 30 47 62 48
REMARK SMILES IDX 42 49 61 50 43 51 46 52 60 53 79 54 44 55 45 56 59 58 80 59
REMARK SMILES IDX 47 60 31 61 32 62 40 63 33 64 39 65 41 66 38 67 34 68 35 69
REMARK SMILES IDX 36 70 37 71 63 72 64 73 72 74 65 75 71 76 73 77 70 78 66 79
REMARK SMILES IDX 67 80 68 81 69 82 48 83 49 84 57 85 50 86 56 87 58 88 55 89
REMARK SMILES IDX 51 90 52 91 53 92 54 93
REMARK H PARENT 12 9 6 17 8 20 8 21 78 46 46 57
REMARK Flexibility Score: inf
ROOT
ATOM      1  C   UNL A   1      34.001  21.891  25.172  1.00  0.00     0.274 C 
ENDROOT
BRANCH   1   2
ATOM      2  O   UNL A   1      33.835  23.260  25.595  1.00  0.00    -0.461 OA
BRANCH   2   3
ATOM      3  C   UNL A   1      34.033  24.214  24.637  1.00  0.00     0.329 C 
ATOM      4  O   UNL A   1      35.143  24.525  24.219  1.00  0.00    -0.250 OA
BRANCH   3   5
ATOM      5  C   UNL A   1      32.710  24.860  24.134  1.00  0.00     0.194 C 
BRANCH   5   6
ATOM      6  N   UNL A   1      31.717  24.953  25.207  1.00  0.00    -0.341 N 
ATOM      7  C   UNL A   1      31.160  26.055  25.786  1.00  0.00     0.243 C 
ATOM      8  O   UNL A   1      30.429  25.878  26.766  1.00  0.00    -0.273 OA
ATOM      9  H   UNL A   1      31.404  24.090  25.564  1.00  0.00     0.164 HD
BRANCH   7  10
ATOM     10  C   UNL A   1      31.394  27.495  25.259  1.00  0.00     0.173 C 
BRANCH  10  11
ATOM     11  C   UNL A   1      32.003  28.542  26.227  1.00  0.00     0.038 C 
BRANCH  11  12
ATOM     12  C   UNL A   1      33.367  29.150  25.863  1.00  0.00    -0.015 C 
ATOM     13  C   UNL A   1      34.440  28.852  26.920  1.00  0.00     0.007 C 
ATOM     14  C   UNL A   1      33.862  28.710  24.485  1.00  0.00     0.007 C 
ENDBRANCH  11  12
ENDBRANCH  10  11
BRANCH  10  15
ATOM     15  N   UNL A   1      30.266  27.907  24.408  1.00  0.00    -0.327 N 
ATOM     16  C   UNL A   1      30.175  27.865  23.057  1.00  0.00     0.312 C 
ATOM     17  H   UNL A   1      29.477  28.258  24.881  1.00  0.00     0.166 HD
ATOM     18  N   UNL A   1      29.087  28.517  22.587  1.00  0.00    -0.352 N 
ATOM     19  O   UNL A   1      30.980  27.360  22.290  1.00  0.00    -0.249 OA
ATOM     20  H   UNL A   1      28.445  28.919  23.215  1.00  0.00     0.161 HD
ATOM     21  H   UNL A   1      28.936  28.588  21.616  1.00  0.00     0.161 HD
ENDBRANCH  10  15
ENDBRANCH   7  10
ENDBRANCH   5   6
BRANCH   5  22
ATOM     22  C   UNL A   1      32.182  24.107  22.884  1.00  0.00     0.017 C 
ATOM     23  C   UNL A   1      33.179  23.355  21.999  1.00  0.00     0.010 C 
ATOM     24  C   UNL A   1      31.059  23.131  23.274  1.00  0.00     0.010 C 
ENDBRANCH   5  22
ENDBRANCH   3   5
ENDBRANCH   2   3
ENDBRANCH   1   2
BRANCH   1  25
ATOM     25  C   UNL A   1      35.149  21.215  25.922  1.00  0.00     0.275 C 
BRANCH  25  26
ATOM     26  O   UNL A   1      36.254  22.121  26.092  1.00  0.00    -0.458 OA
BRANCH  26  27
ATOM     27  C   UNL A   1      37.470  21.573  25.859  1.00  0.00     0.338 C 
ATOM     28  O   UNL A   1      37.704  20.429  25.504  1.00  0.00    -0.246 OA
BRANCH  27  29
ATOM     29  C   UNL A   1      38.532  22.583  25.986  1.00  0.00     0.060 A 
ATOM     30  C   UNL A   1      39.721  22.207  26.593  1.00  0.00     0.016 A 
ATOM     31  C   UNL A   1      38.251  23.931  25.785  1.00  0.00     0.016 A 
ATOM     32  C   UNL A   1      40.501  23.175  27.223  1.00  0.00     0.010 A 
ATOM     33  C   UNL A   1      39.163  24.898  26.233  1.00  0.00     0.010 A 
ATOM     34  C   UNL A   1      40.271  24.542  27.024  1.00  0.00    -0.014 A 
BRANCH  34  35
ATOM     35  C   UNL A   1      41.144  25.593  27.648  1.00  0.00     0.031 A 
ATOM     36  C   UNL A   1      40.537  26.616  28.581  1.00  0.00     0.074 A 
ATOM     37  C   UNL A   1      42.469  25.670  27.388  1.00  0.00     0.049 A 
ATOM     38  N   UNL A   1      40.958  27.817  28.890  1.00  0.00    -0.248 NA
ATOM     39  C   UNL A   1      39.271  26.244  29.231  1.00  0.00     0.031 C 
ATOM     40  C   UNL A   1      43.258  24.704  26.619  1.00  0.00     0.029 A 
ATOM     41  N   UNL A   1      43.395  26.628  27.738  1.00  0.00    -0.354 N 
ATOM     42  C   UNL A   1      39.967  28.375  29.696  1.00  0.00     0.074 A 
ATOM     43  C   UNL A   1      38.929  27.376  29.831  1.00  0.00     0.031 C 
ATOM     44  C   UNL A   1      44.540  25.090  26.591  1.00  0.00     0.029 A 
ATOM     45  C   UNL A   1      44.638  26.415  27.182  1.00  0.00     0.049 A 
ATOM     46  H   UNL A   1      43.189  27.389  28.327  1.00  0.00     0.167 HD
ATOM     47  C   UNL A   1      39.931  29.614  30.251  1.00  0.00     0.034 A 
ATOM     48  C   UNL A   1      45.710  27.221  27.053  1.00  0.00     0.034 A 
ATOM     49  C   UNL A   1      41.014  30.565  30.148  1.00  0.00     0.049 A 
ATOM     50  C   UNL A   1      45.618  28.628  27.578  1.00  0.00     0.074 A 
ATOM     51  C   UNL A   1      41.084  31.858  30.639  1.00  0.00     0.029 A 
ATOM     52  N   UNL A   1      42.233  30.313  29.528  1.00  0.00    -0.354 N 
ATOM     53  N   UNL A   1      44.619  29.215  28.195  1.00  0.00    -0.248 NA
ATOM     54  C   UNL A   1      46.789  29.490  27.370  1.00  0.00     0.031 C 
ATOM     55  C   UNL A   1      42.317  32.405  30.266  1.00  0.00     0.029 A 
ATOM     56  C   UNL A   1      43.051  31.428  29.614  1.00  0.00     0.049 A 
ATOM     57  H   UNL A   1      42.478  29.466  29.092  1.00  0.00     0.167 HD
ATOM     58  C   UNL A   1      45.058  30.503  28.483  1.00  0.00     0.074 A 
ATOM     59  C   UNL A   1      46.410  30.606  27.974  1.00  0.00     0.031 C 
ATOM     60  C   UNL A   1      44.404  31.508  29.117  1.00  0.00     0.034 A 
BRANCH  47  61
ATOM     61  C   UNL A   1      38.655  30.041  30.945  1.00  0.00     0.023 A 
ATOM     62  C   UNL A   1      37.661  30.798  30.303  1.00  0.00     0.031 A 
ATOM     63  C   UNL A   1      38.446  29.698  32.296  1.00  0.00     0.131 A 
ATOM     64  C   UNL A   1      36.545  31.248  31.029  1.00  0.00     0.055 A 
ATOM     65  C   UNL A   1      37.293  30.076  32.987  1.00  0.00     0.041 A 
ATOM     66  F   UNL A   1      39.368  28.995  32.974  1.00  0.00    -0.206 F 
ATOM     67  C   UNL A   1      36.341  30.870  32.358  1.00  0.00     0.022 A 
BRANCH  64  68
ATOM     68  S   UNL A   1      35.437  32.457  30.255  1.00  0.00     0.124 S 
ATOM     69  O   UNL A   1      36.283  33.648  30.218  1.00  0.00    -0.237 OA
ATOM     70  O   UNL A   1      35.145  31.840  28.967  1.00  0.00    -0.237 OA
ATOM     71  O   UNL A   1      34.308  32.532  31.181  1.00  0.00    -0.744 OA
ENDBRANCH  64  68
ENDBRANCH  47  61
BRANCH  48  72
ATOM     72  C   UNL A   1      46.918  26.763  26.303  1.00  0.00     0.023 A 
ATOM     73  C   UNL A   1      48.006  26.186  26.972  1.00  0.00     0.031 A 
ATOM     74  C   UNL A   1      47.022  26.936  24.909  1.00  0.00     0.131 A 
ATOM     75  C   UNL A   1      49.164  25.842  26.258  1.00  0.00     0.055 A 
ATOM     76  C   UNL A   1      48.146  26.525  24.192  1.00  0.00     0.041 A 
ATOM     77  F   UNL A   1      46.016  27.492  24.214  1.00  0.00    -0.206 F 
ATOM     78  C   UNL A   1      49.234  25.987  24.871  1.00  0.00     0.022 A 
BRANCH  75  79
ATOM     79  S   UNL A   1      50.625  25.301  27.186  1.00  0.00     0.124 S 
ATOM     80  O   UNL A   1      50.079  24.212  27.986  1.00  0.00    -0.237 OA
ATOM     81  O   UNL A   1      51.539  24.918  26.116  1.00  0.00    -0.237 OA
ATOM     82  O   UNL A   1      51.011  26.494  27.937  1.00  0.00    -0.744 OA
ENDBRANCH  75  79
ENDBRANCH  48  72
BRANCH  60  83
ATOM     83  C   UNL A   1      45.181  32.771  29.381  1.00  0.00     0.023 A 
ATOM     84  C   UNL A   1      45.189  33.847  28.478  1.00  0.00     0.031 A 
ATOM     85  C   UNL A   1      45.929  32.892  30.566  1.00  0.00     0.131 A 
ATOM     86  C   UNL A   1      45.967  34.982  28.755  1.00  0.00     0.055 A 
ATOM     87  C   UNL A   1      46.654  34.044  30.863  1.00  0.00     0.041 A 
ATOM     88  F   UNL A   1      45.957  31.888  31.459  1.00  0.00    -0.206 F 
ATOM     89  C   UNL A   1      46.684  35.094  29.950  1.00  0.00     0.022 A 
BRANCH  86  90
ATOM     90  S   UNL A   1      46.089  36.285  27.500  1.00  0.00     0.124 S 
ATOM     91  O   UNL A   1      45.248  35.756  26.430  1.00  0.00    -0.237 OA
ATOM     92  O   UNL A   1      45.564  37.450  28.205  1.00  0.00    -0.237 OA
ATOM     93  O   UNL A   1      47.518  36.338  27.197  1.00  0.00    -0.744 OA
ENDBRANCH  86  90
ENDBRANCH  60  83
ENDBRANCH  34  35
ENDBRANCH  27  29
ENDBRANCH  26  27
ENDBRANCH  25  26
ENDBRANCH   1  25
TORSDOF 20
ENDMDL
