MODEL 1
REMARK VINA RESULT:     -11.4      0.000      0.000
REMARK SMILES Cc1nc(CN(CC(=O)OCCOC(=O)c2ccc(-c3c4nc(c(-c5cc(S(=O)(=O)[O-])ccc5F)c5ccc([nH]5)c(-c5cc(S(=O)(=O)[O-])ccc5F)c5nc(c(-c6cc(S(=O)(=O)[O-])ccc6F)c6ccc3[nH]6)C=C5)C=C4)cc2)c2cccc(Cl)c2)sc1C
REMARK SMILES IDX 11 1 10 2 8 3 9 4 7 5 6 6 5 7 4 8 1 9 2 10 3 11 87 12 86 13
REMARK SMILES IDX 88 14 79 15 80 16 85 17 81 18 83 19 82 20 84 21 12 22 13 23
REMARK SMILES IDX 14 24 15 25 16 26 17 27 78 28 18 29 77 30 19 31 20 32 21 33
REMARK SMILES IDX 71 34 22 35 76 36 70 37 72 38 23 39 75 40 69 41 68 42 24 44
REMARK SMILES IDX 56 45 36 46 55 47 37 48 40 49 54 50 73 51 38 52 39 53 53 55
REMARK SMILES IDX 74 56 41 57 25 58 26 59 34 60 27 61 33 62 35 63 32 64 28 65
REMARK SMILES IDX 29 66 30 67 31 68 57 69 58 70 66 71 59 72 65 73 67 74 64 75
REMARK SMILES IDX 60 76 61 77 62 78 63 79 42 80 43 81 51 82 44 83 50 84 52 85
REMARK SMILES IDX 49 86 45 87 46 88 47 89 48 90
REMARK H PARENT 72 43 40 54
REMARK Flexibility Score: inf
ROOT
ATOM      1  C   UNL A   1      35.893  21.906  24.261  1.00  0.00     0.274 C 
ENDROOT
BRANCH   1   2
ATOM      2  O   UNL A   1      35.777  23.153  24.970  1.00  0.00    -0.461 OA
BRANCH   2   3
ATOM      3  C   UNL A   1      34.708  23.272  25.808  1.00  0.00     0.325 C 
ATOM      4  O   UNL A   1      34.771  23.127  27.026  1.00  0.00    -0.250 OA
BRANCH   3   5
ATOM      5  C   UNL A   1      33.398  23.640  25.107  1.00  0.00     0.239 C 
BRANCH   5   6
ATOM      6  N   UNL A   1      32.287  22.705  25.365  1.00  0.00    -0.354 N 
BRANCH   6   7
ATOM      7  C   UNL A   1      30.969  23.307  25.661  1.00  0.00     0.184 C 
BRANCH   7   8
ATOM      8  C   UNL A   1      30.889  24.819  25.684  1.00  0.00     0.112 A 
ATOM      9  C   UNL A   1      31.743  27.890  27.350  1.00  0.00     0.068 C 
ATOM     10  C   UNL A   1      31.260  26.904  26.345  1.00  0.00     0.051 A 
ATOM     11  N   UNL A   1      31.162  25.574  26.731  1.00  0.00    -0.244 NA
ATOM     12  C   UNL A   1      30.941  27.147  25.020  1.00  0.00     0.025 A 
ATOM     13  S   UNL A   1      30.523  25.679  24.242  1.00  0.00    -0.122 S 
ATOM     14  C   UNL A   1      30.969  28.427  24.262  1.00  0.00     0.058 C 
ENDBRANCH   7   8
ENDBRANCH   6   7
BRANCH   6  15
ATOM     15  C   UNL A   1      32.291  21.541  24.590  1.00  0.00     0.039 A 
ATOM     16  C   UNL A   1      32.151  21.629  23.201  1.00  0.00     0.026 A 
ATOM     17  C   UNL A   1      32.407  20.264  25.159  1.00  0.00     0.046 A 
ATOM     18  C   UNL A   1      32.130  20.479  22.404  1.00  0.00     0.004 A 
ATOM     19  C   UNL A   1      32.417  19.121  24.364  1.00  0.00     0.043 A 
ATOM     20  C   UNL A   1      32.272  19.220  22.986  1.00  0.00     0.020 A 
ATOM     21  Cl  UNL A   1      32.611  17.579  25.102  1.00  0.00    -0.084 Cl
ENDBRANCH   6  15
ENDBRANCH   5   6
ENDBRANCH   3   5
ENDBRANCH   2   3
ENDBRANCH   1   2
BRANCH   1  22
ATOM     22  C   UNL A   1      37.290  21.321  24.436  1.00  0.00     0.275 C 
BRANCH  22  23
ATOM     23  O   UNL A   1      37.653  21.347  25.826  1.00  0.00    -0.458 OA
BRANCH  23  24
ATOM     24  C   UNL A   1      38.976  21.202  26.072  1.00  0.00     0.338 C 
ATOM     25  O   UNL A   1      39.640  20.187  25.957  1.00  0.00    -0.246 OA
BRANCH  24  26
ATOM     26  C   UNL A   1      39.526  22.458  26.604  1.00  0.00     0.060 A 
ATOM     27  C   UNL A   1      39.060  23.698  26.164  1.00  0.00     0.016 A 
ATOM     28  C   UNL A   1      40.603  22.375  27.488  1.00  0.00     0.016 A 
ATOM     29  C   UNL A   1      39.717  24.863  26.563  1.00  0.00     0.010 A 
ATOM     30  C   UNL A   1      41.221  23.542  27.930  1.00  0.00     0.010 A 
ATOM     31  C   UNL A   1      40.803  24.793  27.450  1.00  0.00    -0.014 A 
BRANCH  31  32
ATOM     32  C   UNL A   1      41.503  26.019  27.904  1.00  0.00     0.031 A 
ATOM     33  C   UNL A   1      40.757  27.079  28.663  1.00  0.00     0.074 A 
ATOM     34  C   UNL A   1      42.796  26.193  27.573  1.00  0.00     0.049 A 
ATOM     35  N   UNL A   1      41.142  28.284  28.998  1.00  0.00    -0.248 NA
ATOM     36  C   UNL A   1      39.391  26.741  29.088  1.00  0.00     0.031 C 
ATOM     37  C   UNL A   1      43.615  25.222  26.846  1.00  0.00     0.029 A 
ATOM     38  N   UNL A   1      43.638  27.254  27.782  1.00  0.00    -0.354 N 
ATOM     39  C   UNL A   1      40.061  28.858  29.662  1.00  0.00     0.074 A 
ATOM     40  C   UNL A   1      38.998  27.874  29.655  1.00  0.00     0.031 C 
ATOM     41  C   UNL A   1      44.839  25.737  26.658  1.00  0.00     0.029 A 
ATOM     42  C   UNL A   1      44.872  27.091  27.198  1.00  0.00     0.049 A 
ATOM     43  H   UNL A   1      43.385  28.053  28.298  1.00  0.00     0.167 HD
ATOM     44  C   UNL A   1      39.973  30.092  30.221  1.00  0.00     0.034 A 
ATOM     45  C   UNL A   1      45.899  27.953  27.071  1.00  0.00     0.034 A 
ATOM     46  C   UNL A   1      41.047  31.059  30.201  1.00  0.00     0.049 A 
ATOM     47  C   UNL A   1      45.766  29.329  27.659  1.00  0.00     0.074 A 
ATOM     48  C   UNL A   1      41.076  32.335  30.737  1.00  0.00     0.029 A 
ATOM     49  N   UNL A   1      42.286  30.859  29.600  1.00  0.00    -0.354 N 
ATOM     50  N   UNL A   1      44.735  29.868  28.266  1.00  0.00    -0.248 NA
ATOM     51  C   UNL A   1      46.935  30.208  27.548  1.00  0.00     0.031 C 
ATOM     52  C   UNL A   1      42.307  32.923  30.415  1.00  0.00     0.029 A 
ATOM     53  C   UNL A   1      43.074  31.993  29.733  1.00  0.00     0.049 A 
ATOM     54  H   UNL A   1      42.564  30.030  29.147  1.00  0.00     0.167 HD
ATOM     55  C   UNL A   1      45.133  31.153  28.616  1.00  0.00     0.074 A 
ATOM     56  C   UNL A   1      46.506  31.297  28.170  1.00  0.00     0.031 C 
ATOM     57  C   UNL A   1      44.429  32.127  29.248  1.00  0.00     0.034 A 
BRANCH  44  58
ATOM     58  C   UNL A   1      38.650  30.477  30.845  1.00  0.00     0.023 A 
ATOM     59  C   UNL A   1      37.625  31.088  30.101  1.00  0.00     0.031 A 
ATOM     60  C   UNL A   1      38.423  30.257  32.216  1.00  0.00     0.131 A 
ATOM     61  C   UNL A   1      36.451  31.518  30.742  1.00  0.00     0.055 A 
ATOM     62  C   UNL A   1      37.225  30.623  32.834  1.00  0.00     0.041 A 
ATOM     63  F   UNL A   1      39.370  29.697  32.984  1.00  0.00    -0.206 F 
ATOM     64  C   UNL A   1      36.236  31.270  32.099  1.00  0.00     0.022 A 
BRANCH  61  65
ATOM     65  S   UNL A   1      35.263  32.522  29.808  1.00  0.00     0.124 S 
ATOM     66  O   UNL A   1      34.267  32.828  30.831  1.00  0.00    -0.237 OA
ATOM     67  O   UNL A   1      36.082  33.641  29.356  1.00  0.00    -0.237 OA
ATOM     68  O   UNL A   1      34.804  31.620  28.753  1.00  0.00    -0.744 OA
ENDBRANCH  61  65
ENDBRANCH  44  58
BRANCH  45  69
ATOM     69  C   UNL A   1      47.109  27.545  26.308  1.00  0.00     0.023 A 
ATOM     70  C   UNL A   1      47.218  27.788  24.932  1.00  0.00     0.031 A 
ATOM     71  C   UNL A   1      48.189  26.924  26.963  1.00  0.00     0.131 A 
ATOM     72  C   UNL A   1      48.380  27.397  24.247  1.00  0.00     0.055 A 
ATOM     73  C   UNL A   1      49.357  26.575  26.285  1.00  0.00     0.041 A 
ATOM     74  F   UNL A   1      48.135  26.681  28.282  1.00  0.00    -0.206 F 
ATOM     75  C   UNL A   1      49.454  26.806  24.917  1.00  0.00     0.022 A 
BRANCH  72  76
ATOM     76  S   UNL A   1      48.454  27.644  22.452  1.00  0.00     0.124 S 
ATOM     77  O   UNL A   1      48.583  26.274  21.967  1.00  0.00    -0.237 OA
ATOM     78  O   UNL A   1      47.181  28.302  22.182  1.00  0.00    -0.237 OA
ATOM     79  O   UNL A   1      49.637  28.483  22.273  1.00  0.00    -0.744 OA
ENDBRANCH  72  76
ENDBRANCH  45  69
BRANCH  57  80
ATOM     80  C   UNL A   1      45.159  33.421  29.502  1.00  0.00     0.023 A 
ATOM     81  C   UNL A   1      45.222  34.431  28.526  1.00  0.00     0.031 A 
ATOM     82  C   UNL A   1      45.834  33.626  30.717  1.00  0.00     0.131 A 
ATOM     83  C   UNL A   1      45.995  35.578  28.761  1.00  0.00     0.055 A 
ATOM     84  C   UNL A   1      46.559  34.791  30.964  1.00  0.00     0.041 A 
ATOM     85  F   UNL A   1      45.807  32.689  31.679  1.00  0.00    -0.206 F 
ATOM     86  C   UNL A   1      46.653  35.770  29.978  1.00  0.00     0.022 A 
BRANCH  83  87
ATOM     87  S   UNL A   1      46.202  36.779  27.416  1.00  0.00     0.124 S 
ATOM     88  O   UNL A   1      45.087  37.691  27.650  1.00  0.00    -0.237 OA
ATOM     89  O   UNL A   1      47.533  37.316  27.680  1.00  0.00    -0.237 OA
ATOM     90  O   UNL A   1      46.093  35.963  26.208  1.00  0.00    -0.744 OA
ENDBRANCH  83  87
ENDBRANCH  57  80
ENDBRANCH  31  32
ENDBRANCH  24  26
ENDBRANCH  23  24
ENDBRANCH  22  23
ENDBRANCH   1  22
TORSDOF 18
ENDMDL
MODEL 2
REMARK VINA RESULT:     -11.3      1.514      3.196
REMARK SMILES Cc1nc(CN(CC(=O)OCCOC(=O)c2ccc(-c3c4nc(c(-c5cc(S(=O)(=O)[O-])ccc5F)c5ccc([nH]5)c(-c5cc(S(=O)(=O)[O-])ccc5F)c5nc(c(-c6cc(S(=O)(=O)[O-])ccc6F)c6ccc3[nH]6)C=C5)C=C4)cc2)c2cccc(Cl)c2)sc1C
REMARK SMILES IDX 11 1 10 2 8 3 9 4 7 5 6 6 5 7 4 8 1 9 2 10 3 11 87 12 86 13
REMARK SMILES IDX 88 14 79 15 80 16 85 17 81 18 83 19 82 20 84 21 12 22 13 23
REMARK SMILES IDX 14 24 15 25 16 26 17 27 78 28 18 29 77 30 19 31 20 32 21 33
REMARK SMILES IDX 71 34 22 35 76 36 70 37 72 38 23 39 75 40 69 41 68 42 24 44
REMARK SMILES IDX 56 45 36 46 55 47 37 48 40 49 54 50 73 51 38 52 39 53 53 55
REMARK SMILES IDX 74 56 41 57 25 58 26 59 34 60 27 61 33 62 35 63 32 64 28 65
REMARK SMILES IDX 29 66 30 67 31 68 57 69 58 70 66 71 59 72 65 73 67 74 64 75
REMARK SMILES IDX 60 76 61 77 62 78 63 79 42 80 43 81 51 82 44 83 50 84 52 85
REMARK SMILES IDX 49 86 45 87 46 88 47 89 48 90
REMARK H PARENT 72 43 40 54
REMARK Flexibility Score: inf
ROOT
ATOM      1  C   UNL A   1      35.822  21.071  24.945  1.00  0.00     0.274 C 
ENDROOT
BRANCH   1   2
ATOM      2  O   UNL A   1      35.880  22.087  23.928  1.00  0.00    -0.461 OA
BRANCH   2   3
ATOM      3  C   UNL A   1      35.009  23.126  24.065  1.00  0.00     0.325 C 
ATOM      4  O   UNL A   1      34.812  23.975  23.199  1.00  0.00    -0.250 OA
BRANCH   3   5
ATOM      5  C   UNL A   1      34.253  23.142  25.396  1.00  0.00     0.239 C 
BRANCH   5   6
ATOM      6  N   UNL A   1      32.791  23.285  25.264  1.00  0.00    -0.354 N 
BRANCH   6   7
ATOM      7  C   UNL A   1      31.973  22.114  25.646  1.00  0.00     0.184 C 
BRANCH   7   8
ATOM      8  C   UNL A   1      32.303  20.794  24.982  1.00  0.00     0.112 A 
ATOM      9  C   UNL A   1      32.515  17.214  25.259  1.00  0.00     0.068 C 
ATOM     10  C   UNL A   1      32.499  18.600  24.716  1.00  0.00     0.051 A 
ATOM     11  N   UNL A   1      32.491  19.654  25.620  1.00  0.00    -0.244 NA
ATOM     12  C   UNL A   1      32.432  18.977  23.386  1.00  0.00     0.025 A 
ATOM     13  S   UNL A   1      32.345  20.684  23.268  1.00  0.00    -0.122 S 
ATOM     14  C   UNL A   1      32.383  18.128  22.164  1.00  0.00     0.058 C 
ENDBRANCH   7   8
ENDBRANCH   6   7
BRANCH   6  15
ATOM     15  C   UNL A   1      32.281  24.546  25.588  1.00  0.00     0.039 A 
ATOM     16  C   UNL A   1      30.906  24.784  25.503  1.00  0.00     0.026 A 
ATOM     17  C   UNL A   1      33.109  25.609  25.978  1.00  0.00     0.046 A 
ATOM     18  C   UNL A   1      30.373  26.043  25.801  1.00  0.00     0.004 A 
ATOM     19  C   UNL A   1      32.576  26.854  26.304  1.00  0.00     0.043 A 
ATOM     20  C   UNL A   1      31.209  27.079  26.212  1.00  0.00     0.020 A 
ATOM     21  Cl  UNL A   1      33.625  28.113  26.825  1.00  0.00    -0.084 Cl
ENDBRANCH   6  15
ENDBRANCH   5   6
ENDBRANCH   3   5
ENDBRANCH   2   3
ENDBRANCH   1   2
BRANCH   1  22
ATOM     22  C   UNL A   1      37.213  20.504  25.212  1.00  0.00     0.275 C 
BRANCH  22  23
ATOM     23  O   UNL A   1      38.158  21.580  25.324  1.00  0.00    -0.458 OA
BRANCH  23  24
ATOM     24  C   UNL A   1      39.205  21.334  26.147  1.00  0.00     0.338 C 
ATOM     25  O   UNL A   1      39.643  20.246  26.478  1.00  0.00    -0.246 OA
BRANCH  24  26
ATOM     26  C   UNL A   1      39.723  22.600  26.689  1.00  0.00     0.060 A 
ATOM     27  C   UNL A   1      39.299  23.832  26.186  1.00  0.00     0.016 A 
ATOM     28  C   UNL A   1      40.730  22.533  27.652  1.00  0.00     0.016 A 
ATOM     29  C   UNL A   1      39.933  25.002  26.605  1.00  0.00     0.010 A 
ATOM     30  C   UNL A   1      41.321  23.707  28.112  1.00  0.00     0.010 A 
ATOM     31  C   UNL A   1      40.948  24.948  27.573  1.00  0.00    -0.014 A 
BRANCH  31  32
ATOM     32  C   UNL A   1      41.621  26.181  28.049  1.00  0.00     0.031 A 
ATOM     33  C   UNL A   1      40.845  27.226  28.799  1.00  0.00     0.074 A 
ATOM     34  C   UNL A   1      42.918  26.377  27.746  1.00  0.00     0.049 A 
ATOM     35  N   UNL A   1      41.204  28.433  29.149  1.00  0.00    -0.248 NA
ATOM     36  C   UNL A   1      39.474  26.865  29.193  1.00  0.00     0.031 C 
ATOM     37  C   UNL A   1      43.766  25.422  27.030  1.00  0.00     0.029 A 
ATOM     38  N   UNL A   1      43.740  27.448  27.978  1.00  0.00    -0.354 N 
ATOM     39  C   UNL A   1      40.102  28.988  29.793  1.00  0.00     0.074 A 
ATOM     40  C   UNL A   1      39.054  27.988  29.759  1.00  0.00     0.031 C 
ATOM     41  C   UNL A   1      44.986  25.956  26.870  1.00  0.00     0.029 A 
ATOM     42  C   UNL A   1      44.988  27.307  27.420  1.00  0.00     0.049 A 
ATOM     43  H   UNL A   1      43.465  28.240  28.495  1.00  0.00     0.167 HD
ATOM     44  C   UNL A   1      39.984  30.217  30.358  1.00  0.00     0.034 A 
ATOM     45  C   UNL A   1      46.005  28.184  27.320  1.00  0.00     0.034 A 
ATOM     46  C   UNL A   1      41.044  31.200  30.367  1.00  0.00     0.049 A 
ATOM     47  C   UNL A   1      45.839  29.554  27.913  1.00  0.00     0.074 A 
ATOM     48  C   UNL A   1      41.044  32.471  30.912  1.00  0.00     0.029 A 
ATOM     49  N   UNL A   1      42.298  31.021  29.790  1.00  0.00    -0.354 N 
ATOM     50  N   UNL A   1      44.789  30.074  28.502  1.00  0.00    -0.248 NA
ATOM     51  C   UNL A   1      46.997  30.451  27.831  1.00  0.00     0.031 C 
ATOM     52  C   UNL A   1      42.272  33.079  30.618  1.00  0.00     0.029 A 
ATOM     53  C   UNL A   1      43.067  32.165  29.947  1.00  0.00     0.049 A 
ATOM     54  H   UNL A   1      42.597  30.199  29.338  1.00  0.00     0.167 HD
ATOM     55  C   UNL A   1      45.160  31.363  28.867  1.00  0.00     0.074 A 
ATOM     56  C   UNL A   1      46.539  31.529  28.451  1.00  0.00     0.031 C 
ATOM     57  C   UNL A   1      44.429  32.322  29.491  1.00  0.00     0.034 A 
BRANCH  44  58
ATOM     58  C   UNL A   1      38.643  30.578  30.957  1.00  0.00     0.023 A 
ATOM     59  C   UNL A   1      37.658  31.261  30.221  1.00  0.00     0.031 A 
ATOM     60  C   UNL A   1      38.358  30.263  32.298  1.00  0.00     0.131 A 
ATOM     61  C   UNL A   1      36.466  31.663  30.846  1.00  0.00     0.055 A 
ATOM     62  C   UNL A   1      37.142  30.603  32.894  1.00  0.00     0.041 A 
ATOM     63  F   UNL A   1      39.265  29.631  33.059  1.00  0.00    -0.206 F 
ATOM     64  C   UNL A   1      36.192  31.320  32.172  1.00  0.00     0.022 A 
BRANCH  61  65
ATOM     65  S   UNL A   1      35.332  32.755  29.943  1.00  0.00     0.124 S 
ATOM     66  O   UNL A   1      36.132  33.969  29.813  1.00  0.00    -0.237 OA
ATOM     67  O   UNL A   1      35.089  32.011  28.713  1.00  0.00    -0.237 OA
ATOM     68  O   UNL A   1      34.182  32.871  30.838  1.00  0.00    -0.744 OA
ENDBRANCH  61  65
ENDBRANCH  44  58
BRANCH  45  69
ATOM     69  C   UNL A   1      47.236  27.799  26.579  1.00  0.00     0.023 A 
ATOM     70  C   UNL A   1      47.301  27.880  25.181  1.00  0.00     0.031 A 
ATOM     71  C   UNL A   1      48.380  27.365  27.275  1.00  0.00     0.131 A 
ATOM     72  C   UNL A   1      48.483  27.516  24.518  1.00  0.00     0.055 A 
ATOM     73  C   UNL A   1      49.565  27.044  26.613  1.00  0.00     0.041 A 
ATOM     74  F   UNL A   1      48.369  27.281  28.615  1.00  0.00    -0.206 F 
ATOM     75  C   UNL A   1      49.619  27.114  25.225  1.00  0.00     0.022 A 
BRANCH  72  76
ATOM     76  S   UNL A   1      48.507  27.547  22.705  1.00  0.00     0.124 S 
ATOM     77  O   UNL A   1      49.762  28.239  22.433  1.00  0.00    -0.237 OA
ATOM     78  O   UNL A   1      48.474  26.125  22.377  1.00  0.00    -0.237 OA
ATOM     79  O   UNL A   1      47.297  28.291  22.361  1.00  0.00    -0.744 OA
ENDBRANCH  72  76
ENDBRANCH  45  69
BRANCH  57  80
ATOM     80  C   UNL A   1      45.134  33.625  29.768  1.00  0.00     0.023 A 
ATOM     81  C   UNL A   1      45.217  34.635  28.795  1.00  0.00     0.031 A 
ATOM     82  C   UNL A   1      45.768  33.838  31.005  1.00  0.00     0.131 A 
ATOM     83  C   UNL A   1      45.968  35.792  29.053  1.00  0.00     0.055 A 
ATOM     84  C   UNL A   1      46.470  35.012  31.275  1.00  0.00     0.041 A 
ATOM     85  F   UNL A   1      45.721  32.901  31.966  1.00  0.00    -0.206 F 
ATOM     86  C   UNL A   1      46.584  35.992  30.292  1.00  0.00     0.022 A 
BRANCH  83  87
ATOM     87  S   UNL A   1      46.204  36.995  27.716  1.00  0.00     0.124 S 
ATOM     88  O   UNL A   1      45.725  36.254  26.554  1.00  0.00    -0.237 OA
ATOM     89  O   UNL A   1      45.370  38.112  28.149  1.00  0.00    -0.237 OA
ATOM     90  O   UNL A   1      47.642  37.253  27.737  1.00  0.00    -0.744 OA
ENDBRANCH  83  87
ENDBRANCH  57  80
ENDBRANCH  31  32
ENDBRANCH  24  26
ENDBRANCH  23  24
ENDBRANCH  22  23
ENDBRANCH   1  22
TORSDOF 18
ENDMDL
MODEL 3
REMARK VINA RESULT:     -11.2      5.196      9.930
REMARK SMILES Cc1nc(CN(CC(=O)OCCOC(=O)c2ccc(-c3c4nc(c(-c5cc(S(=O)(=O)[O-])ccc5F)c5ccc([nH]5)c(-c5cc(S(=O)(=O)[O-])ccc5F)c5nc(c(-c6cc(S(=O)(=O)[O-])ccc6F)c6ccc3[nH]6)C=C5)C=C4)cc2)c2cccc(Cl)c2)sc1C
REMARK SMILES IDX 11 1 10 2 8 3 9 4 7 5 6 6 5 7 4 8 1 9 2 10 3 11 87 12 86 13
REMARK SMILES IDX 88 14 79 15 80 16 85 17 81 18 83 19 82 20 84 21 12 22 13 23
REMARK SMILES IDX 14 24 15 25 16 26 17 27 78 28 18 29 77 30 19 31 20 32 21 33
REMARK SMILES IDX 71 34 22 35 76 36 70 37 72 38 23 39 75 40 69 41 68 42 24 44
REMARK SMILES IDX 56 45 36 46 55 47 37 48 40 49 54 50 73 51 38 52 39 53 53 55
REMARK SMILES IDX 74 56 41 57 25 58 26 59 34 60 27 61 33 62 35 63 32 64 28 65
REMARK SMILES IDX 29 66 30 67 31 68 57 69 58 70 66 71 59 72 65 73 67 74 64 75
REMARK SMILES IDX 60 76 61 77 62 78 63 79 42 80 43 81 51 82 44 83 50 84 52 85
REMARK SMILES IDX 49 86 45 87 46 88 47 89 48 90
REMARK H PARENT 72 43 40 54
REMARK Flexibility Score: inf
ROOT
ATOM      1  C   UNL A   1      31.444  29.591  25.394  1.00  0.00     0.274 C 
ENDROOT
BRANCH   1   2
ATOM      2  O   UNL A   1      31.781  28.247  25.785  1.00  0.00    -0.461 OA
BRANCH   2   3
ATOM      3  C   UNL A   1      33.060  27.848  25.530  1.00  0.00     0.325 C 
ATOM      4  O   UNL A   1      33.895  27.625  26.403  1.00  0.00    -0.250 OA
BRANCH   3   5
ATOM      5  C   UNL A   1      33.378  27.665  24.045  1.00  0.00     0.239 C 
BRANCH   5   6
ATOM      6  N   UNL A   1      32.609  26.593  23.386  1.00  0.00    -0.354 N 
BRANCH   6   7
ATOM      7  C   UNL A   1      31.776  26.988  22.229  1.00  0.00     0.184 C 
BRANCH   7   8
ATOM      8  C   UNL A   1      30.551  27.830  22.515  1.00  0.00     0.112 A 
ATOM      9  C   UNL A   1      28.482  30.617  21.571  1.00  0.00     0.068 C 
ATOM     10  C   UNL A   1      28.997  29.390  22.237  1.00  0.00     0.051 A 
ATOM     11  N   UNL A   1      30.313  29.019  21.993  1.00  0.00    -0.244 NA
ATOM     12  C   UNL A   1      28.290  28.518  23.047  1.00  0.00     0.025 A 
ATOM     13  S   UNL A   1      29.291  27.203  23.500  1.00  0.00    -0.122 S 
ATOM     14  C   UNL A   1      26.869  28.575  23.483  1.00  0.00     0.058 C 
ENDBRANCH   7   8
ENDBRANCH   6   7
BRANCH   6  15
ATOM     15  C   UNL A   1      33.254  25.355  23.307  1.00  0.00     0.039 A 
ATOM     16  C   UNL A   1      32.740  24.353  22.479  1.00  0.00     0.026 A 
ATOM     17  C   UNL A   1      34.404  25.063  24.056  1.00  0.00     0.046 A 
ATOM     18  C   UNL A   1      33.355  23.098  22.398  1.00  0.00     0.004 A 
ATOM     19  C   UNL A   1      35.033  23.824  23.954  1.00  0.00     0.043 A 
ATOM     20  C   UNL A   1      34.510  22.835  23.131  1.00  0.00     0.020 A 
ATOM     21  Cl  UNL A   1      36.468  23.528  24.854  1.00  0.00    -0.084 Cl
ENDBRANCH   6  15
ENDBRANCH   5   6
ENDBRANCH   3   5
ENDBRANCH   2   3
ENDBRANCH   1   2
BRANCH   1  22
ATOM     22  C   UNL A   1      31.733  30.564  26.532  1.00  0.00     0.275 C 
BRANCH  22  23
ATOM     23  O   UNL A   1      32.956  31.269  26.265  1.00  0.00    -0.458 OA
BRANCH  23  24
ATOM     24  C   UNL A   1      33.357  32.107  27.250  1.00  0.00     0.338 C 
ATOM     25  O   UNL A   1      32.826  33.148  27.594  1.00  0.00    -0.246 OA
BRANCH  24  26
ATOM     26  C   UNL A   1      34.623  31.628  27.827  1.00  0.00     0.060 A 
ATOM     27  C   UNL A   1      34.764  30.315  28.279  1.00  0.00     0.016 A 
ATOM     28  C   UNL A   1      35.649  32.557  28.006  1.00  0.00     0.016 A 
ATOM     29  C   UNL A   1      35.918  29.945  28.972  1.00  0.00     0.010 A 
ATOM     30  C   UNL A   1      36.823  32.170  28.647  1.00  0.00     0.010 A 
ATOM     31  C   UNL A   1      36.956  30.870  29.160  1.00  0.00    -0.014 A 
BRANCH  31  32
ATOM     32  C   UNL A   1      38.200  30.492  29.874  1.00  0.00     0.031 A 
ATOM     33  C   UNL A   1      39.152  29.502  29.266  1.00  0.00     0.074 A 
ATOM     34  C   UNL A   1      38.431  31.003  31.098  1.00  0.00     0.049 A 
ATOM     35  N   UNL A   1      40.196  28.921  29.798  1.00  0.00    -0.248 NA
ATOM     36  C   UNL A   1      38.881  29.102  27.877  1.00  0.00     0.031 C 
ATOM     37  C   UNL A   1      37.576  31.979  31.776  1.00  0.00     0.029 A 
ATOM     38  N   UNL A   1      39.435  30.755  31.997  1.00  0.00    -0.354 N 
ATOM     39  C   UNL A   1      40.702  28.074  28.817  1.00  0.00     0.074 A 
ATOM     40  C   UNL A   1      39.830  28.200  27.668  1.00  0.00     0.031 C 
ATOM     41  C   UNL A   1      38.085  32.237  32.989  1.00  0.00     0.029 A 
ATOM     42  C   UNL A   1      39.266  31.406  33.195  1.00  0.00     0.049 A 
ATOM     43  H   UNL A   1      40.203  30.169  31.803  1.00  0.00     0.167 HD
ATOM     44  C   UNL A   1      41.793  27.268  28.878  1.00  0.00     0.034 A 
ATOM     45  C   UNL A   1      39.956  31.309  34.348  1.00  0.00     0.034 A 
ATOM     46  C   UNL A   1      42.639  27.153  30.045  1.00  0.00     0.049 A 
ATOM     47  C   UNL A   1      41.135  30.380  34.409  1.00  0.00     0.074 A 
ATOM     48  C   UNL A   1      43.771  26.377  30.223  1.00  0.00     0.029 A 
ATOM     49  N   UNL A   1      42.436  27.829  31.244  1.00  0.00    -0.354 N 
ATOM     50  N   UNL A   1      41.593  29.570  33.484  1.00  0.00    -0.248 NA
ATOM     51  C   UNL A   1      41.889  30.356  35.667  1.00  0.00     0.031 C 
ATOM     52  C   UNL A   1      44.219  26.542  31.540  1.00  0.00     0.029 A 
ATOM     53  C   UNL A   1      43.407  27.471  32.169  1.00  0.00     0.049 A 
ATOM     54  H   UNL A   1      41.709  28.472  31.411  1.00  0.00     0.167 HD
ATOM     55  C   UNL A   1      42.697  28.940  34.047  1.00  0.00     0.074 A 
ATOM     56  C   UNL A   1      42.846  29.483  35.384  1.00  0.00     0.031 C 
ATOM     57  C   UNL A   1      43.515  27.999  33.509  1.00  0.00     0.034 A 
BRANCH  44  58
ATOM     58  C   UNL A   1      42.091  26.412  27.669  1.00  0.00     0.023 A 
ATOM     59  C   UNL A   1      41.667  25.073  27.581  1.00  0.00     0.031 A 
ATOM     60  C   UNL A   1      42.840  26.933  26.598  1.00  0.00     0.131 A 
ATOM     61  C   UNL A   1      42.050  24.286  26.482  1.00  0.00     0.055 A 
ATOM     62  C   UNL A   1      43.158  26.165  25.475  1.00  0.00     0.041 A 
ATOM     63  F   UNL A   1      43.291  28.196  26.632  1.00  0.00    -0.206 F 
ATOM     64  C   UNL A   1      42.774  24.829  25.419  1.00  0.00     0.022 A 
BRANCH  61  65
ATOM     65  S   UNL A   1      41.701  22.505  26.521  1.00  0.00     0.124 S 
ATOM     66  O   UNL A   1      42.494  22.025  25.392  1.00  0.00    -0.237 OA
ATOM     67  O   UNL A   1      42.172  22.119  27.846  1.00  0.00    -0.237 OA
ATOM     68  O   UNL A   1      40.254  22.434  26.328  1.00  0.00    -0.744 OA
ENDBRANCH  61  65
ENDBRANCH  44  58
BRANCH  45  69
ATOM     69  C   UNL A   1      39.503  32.074  35.540  1.00  0.00     0.023 A 
ATOM     70  C   UNL A   1      39.895  33.404  35.745  1.00  0.00     0.031 A 
ATOM     71  C   UNL A   1      38.644  31.480  36.484  1.00  0.00     0.131 A 
ATOM     72  C   UNL A   1      39.440  34.096  36.878  1.00  0.00     0.055 A 
ATOM     73  C   UNL A   1      38.162  32.186  37.586  1.00  0.00     0.041 A 
ATOM     74  F   UNL A   1      38.232  30.212  36.325  1.00  0.00    -0.206 F 
ATOM     75  C   UNL A   1      38.565  33.501  37.791  1.00  0.00     0.022 A 
BRANCH  72  76
ATOM     76  S   UNL A   1      40.036  35.785  37.162  1.00  0.00     0.124 S 
ATOM     77  O   UNL A   1      41.465  35.570  37.359  1.00  0.00    -0.237 OA
ATOM     78  O   UNL A   1      39.653  36.455  35.923  1.00  0.00    -0.237 OA
ATOM     79  O   UNL A   1      39.299  36.211  38.350  1.00  0.00    -0.744 OA
ENDBRANCH  72  76
ENDBRANCH  45  69
BRANCH  57  80
ATOM     80  C   UNL A   1      44.650  27.524  34.380  1.00  0.00     0.023 A 
ATOM     81  C   UNL A   1      44.541  26.357  35.155  1.00  0.00     0.031 A 
ATOM     82  C   UNL A   1      45.836  28.274  34.468  1.00  0.00     0.131 A 
ATOM     83  C   UNL A   1      45.579  26.002  36.030  1.00  0.00     0.055 A 
ATOM     84  C   UNL A   1      46.885  27.888  35.301  1.00  0.00     0.041 A 
ATOM     85  F   UNL A   1      45.986  29.399  33.750  1.00  0.00    -0.206 F 
ATOM     86  C   UNL A   1      46.756  26.753  36.097  1.00  0.00     0.022 A 
BRANCH  83  87
ATOM     87  S   UNL A   1      45.335  24.593  37.146  1.00  0.00     0.124 S 
ATOM     88  O   UNL A   1      44.348  23.800  36.421  1.00  0.00    -0.237 OA
ATOM     89  O   UNL A   1      46.676  24.023  37.227  1.00  0.00    -0.237 OA
ATOM     90  O   UNL A   1      44.850  25.211  38.378  1.00  0.00    -0.744 OA
ENDBRANCH  83  87
ENDBRANCH  57  80
ENDBRANCH  31  32
ENDBRANCH  24  26
ENDBRANCH  23  24
ENDBRANCH  22  23
ENDBRANCH   1  22
TORSDOF 18
ENDMDL
