MODEL 1
REMARK VINA RESULT:     -10.7      0.000      0.000
REMARK SMILES O=C(CCCS(=O)(=O)Nc1ccc(Cl)cc1F)OCCOC(=O)c1ccc(-c2c3nc(c(-c4cc(S(=O)(=O)[O-])ccc4F)c4ccc([nH]4)c(-c4cc(S(=O)(=O)[O-])ccc4F)c4nc(c(-c5cc(S(=O)(=O)[O-])ccc5F)c5ccc2[nH]5)C=C4)C=C3)cc1
REMARK SMILES IDX 19 1 18 2 2 3 1 4 3 5 4 6 5 7 6 8 7 9 8 10 9 11 10 13 11 14
REMARK SMILES IDX 16 15 12 16 15 17 17 18 13 19 14 20 20 21 21 22 22 23 23 24
REMARK SMILES IDX 24 25 25 26 86 27 26 28 85 29 27 30 28 31 29 32 79 33 30 34
REMARK SMILES IDX 84 35 78 36 80 37 31 38 83 39 77 40 76 41 32 43 64 44 44 45
REMARK SMILES IDX 63 46 45 47 48 48 62 49 81 50 46 51 47 52 61 54 82 55 49 56
REMARK SMILES IDX 33 57 34 58 42 59 35 60 41 61 43 62 40 63 36 64 37 65 38 66
REMARK SMILES IDX 39 67 65 68 66 69 74 70 67 71 73 72 75 73 72 74 68 75 69 76
REMARK SMILES IDX 70 77 71 78 50 79 51 80 59 81 52 82 58 83 60 84 57 85 53 86
REMARK SMILES IDX 54 87 55 88 56 89
REMARK H PARENT 9 12 80 42 48 53
REMARK Flexibility Score: inf
ROOT
ATOM      1  C   UNL A   1      31.136  31.162  25.961  1.00  0.00     0.274 C 
ENDROOT
BRANCH   1   2
ATOM      2  O   UNL A   1      31.848  30.221  26.717  1.00  0.00    -0.462 OA
BRANCH   2   3
ATOM      3  C   UNL A   1      32.718  29.457  26.027  1.00  0.00     0.305 C 
ATOM      4  O   UNL A   1      32.930  29.739  24.849  1.00  0.00    -0.252 OA
BRANCH   3   5
ATOM      5  C   UNL A   1      33.229  28.135  26.634  1.00  0.00     0.124 C 
BRANCH   5   6
ATOM      6  C   UNL A   1      33.506  26.693  25.976  1.00  0.00     0.030 C 
BRANCH   6   7
ATOM      7  C   UNL A   1      32.766  25.262  26.041  1.00  0.00     0.160 C 
BRANCH   7   8
ATOM      8  S   UNL A   1      31.065  24.555  25.515  1.00  0.00     0.232 S 
ATOM      9  O   UNL A   1      31.385  23.286  24.872  1.00  0.00    -0.207 OA
ATOM     10  O   UNL A   1      30.378  24.450  26.795  1.00  0.00    -0.207 OA
BRANCH   8  11
ATOM     11  N   UNL A   1      29.867  25.261  24.498  1.00  0.00    -0.281 N 
ATOM     12  H   UNL A   1      29.226  24.555  24.255  1.00  0.00     0.180 HD
BRANCH  11  13
ATOM     13  C   UNL A   1      29.408  26.546  23.828  1.00  0.00     0.084 A 
ATOM     14  C   UNL A   1      30.396  27.450  23.441  1.00  0.00     0.031 A 
ATOM     15  C   UNL A   1      28.094  27.142  23.788  1.00  0.00     0.148 A 
ATOM     16  C   UNL A   1      30.086  28.744  22.925  1.00  0.00     0.023 A 
ATOM     17  C   UNL A   1      27.766  28.360  23.181  1.00  0.00     0.062 A 
ATOM     18  F   UNL A   1      26.997  26.622  24.326  1.00  0.00    -0.205 F 
ATOM     19  C   UNL A   1      28.773  29.169  22.742  1.00  0.00     0.044 A 
ATOM     20  Cl  UNL A   1      28.388  30.687  22.039  1.00  0.00    -0.084 Cl
ENDBRANCH  11  13
ENDBRANCH   8  11
ENDBRANCH   7   8
ENDBRANCH   6   7
ENDBRANCH   5   6
ENDBRANCH   3   5
ENDBRANCH   2   3
ENDBRANCH   1   2
BRANCH   1  21
ATOM     21  C   UNL A   1      31.286  32.562  26.563  1.00  0.00     0.275 C 
BRANCH  21  22
ATOM     22  O   UNL A   1      32.654  33.145  26.719  1.00  0.00    -0.458 OA
BRANCH  22  23
ATOM     23  C   UNL A   1      33.438  33.468  27.801  1.00  0.00     0.338 C 
ATOM     24  O   UNL A   1      33.184  34.157  28.774  1.00  0.00    -0.246 OA
BRANCH  23  25
ATOM     25  C   UNL A   1      34.664  32.722  28.020  1.00  0.00     0.060 A 
ATOM     26  C   UNL A   1      34.529  31.479  28.611  1.00  0.00     0.016 A 
ATOM     27  C   UNL A   1      35.864  33.469  28.107  1.00  0.00     0.016 A 
ATOM     28  C   UNL A   1      35.576  31.014  29.381  1.00  0.00     0.010 A 
ATOM     29  C   UNL A   1      36.929  32.973  28.839  1.00  0.00     0.010 A 
ATOM     30  C   UNL A   1      36.773  31.751  29.496  1.00  0.00    -0.014 A 
BRANCH  30  31
ATOM     31  C   UNL A   1      37.913  31.134  30.191  1.00  0.00     0.031 A 
ATOM     32  C   UNL A   1      38.795  30.122  29.532  1.00  0.00     0.074 A 
ATOM     33  C   UNL A   1      38.113  31.557  31.451  1.00  0.00     0.049 A 
ATOM     34  N   UNL A   1      39.829  29.497  30.030  1.00  0.00    -0.248 NA
ATOM     35  C   UNL A   1      38.476  29.756  28.145  1.00  0.00     0.031 C 
ATOM     36  C   UNL A   1      37.276  32.548  32.140  1.00  0.00     0.029 A 
ATOM     37  N   UNL A   1      39.072  31.236  32.362  1.00  0.00    -0.354 N 
ATOM     38  C   UNL A   1      40.285  28.650  29.026  1.00  0.00     0.074 A 
ATOM     39  C   UNL A   1      39.399  28.833  27.893  1.00  0.00     0.031 C 
ATOM     40  C   UNL A   1      37.792  32.789  33.349  1.00  0.00     0.029 A 
ATOM     41  C   UNL A   1      38.933  31.911  33.550  1.00  0.00     0.049 A 
ATOM     42  H   UNL A   1      39.793  30.588  32.188  1.00  0.00     0.167 HD
ATOM     43  C   UNL A   1      41.343  27.799  29.068  1.00  0.00     0.034 A 
ATOM     44  C   UNL A   1      39.633  31.804  34.690  1.00  0.00     0.034 A 
ATOM     45  C   UNL A   1      42.182  27.643  30.239  1.00  0.00     0.049 A 
ATOM     46  C   UNL A   1      40.776  30.834  34.715  1.00  0.00     0.074 A 
ATOM     47  C   UNL A   1      43.282  26.820  30.415  1.00  0.00     0.029 A 
ATOM     48  N   UNL A   1      42.003  28.319  31.444  1.00  0.00    -0.354 N 
ATOM     49  N   UNL A   1      41.202  30.038  33.759  1.00  0.00    -0.248 NA
ATOM     50  C   UNL A   1      41.534  30.754  35.962  1.00  0.00     0.031 C 
ATOM     51  C   UNL A   1      43.719  26.946  31.740  1.00  0.00     0.029 A 
ATOM     52  C   UNL A   1      42.950  27.911  32.373  1.00  0.00     0.049 A 
ATOM     53  H   UNL A   1      41.303  28.990  31.613  1.00  0.00     0.167 HD
ATOM     54  C   UNL A   1      42.302  29.374  34.287  1.00  0.00     0.074 A 
ATOM     55  C   UNL A   1      42.481  29.888  35.633  1.00  0.00     0.031 C 
ATOM     56  C   UNL A   1      43.091  28.427  33.717  1.00  0.00     0.034 A 
BRANCH  43  57
ATOM     57  C   UNL A   1      41.601  26.932  27.853  1.00  0.00     0.023 A 
ATOM     58  C   UNL A   1      41.234  25.575  27.805  1.00  0.00     0.031 A 
ATOM     59  C   UNL A   1      42.249  27.470  26.725  1.00  0.00     0.131 A 
ATOM     60  C   UNL A   1      41.578  24.791  26.691  1.00  0.00     0.055 A 
ATOM     61  C   UNL A   1      42.520  26.705  25.588  1.00  0.00     0.041 A 
ATOM     62  F   UNL A   1      42.646  28.753  26.712  1.00  0.00    -0.206 F 
ATOM     63  C   UNL A   1      42.198  25.352  25.572  1.00  0.00     0.022 A 
BRANCH  60  64
ATOM     64  S   UNL A   1      41.334  22.993  26.778  1.00  0.00     0.124 S 
ATOM     65  O   UNL A   1      39.877  22.893  26.803  1.00  0.00    -0.237 OA
ATOM     66  O   UNL A   1      41.986  22.526  25.559  1.00  0.00    -0.237 OA
ATOM     67  O   UNL A   1      41.997  22.615  28.024  1.00  0.00    -0.744 OA
ENDBRANCH  60  64
ENDBRANCH  43  57
BRANCH  44  68
ATOM     68  C   UNL A   1      39.248  32.616  35.874  1.00  0.00     0.023 A 
ATOM     69  C   UNL A   1      39.701  33.934  36.020  1.00  0.00     0.031 A 
ATOM     70  C   UNL A   1      38.407  32.089  36.872  1.00  0.00     0.131 A 
ATOM     71  C   UNL A   1      39.341  34.669  37.158  1.00  0.00     0.055 A 
ATOM     72  C   UNL A   1      38.004  32.845  37.971  1.00  0.00     0.041 A 
ATOM     73  F   UNL A   1      37.933  30.837  36.771  1.00  0.00    -0.206 F 
ATOM     74  C   UNL A   1      38.483  34.141  38.126  1.00  0.00     0.022 A 
BRANCH  71  75
ATOM     75  S   UNL A   1      40.082  36.307  37.392  1.00  0.00     0.124 S 
ATOM     76  O   UNL A   1      41.429  35.967  37.826  1.00  0.00    -0.237 OA
ATOM     77  O   UNL A   1      39.961  36.887  36.060  1.00  0.00    -0.237 OA
ATOM     78  O   UNL A   1      39.231  36.919  38.417  1.00  0.00    -0.744 OA
ENDBRANCH  71  75
ENDBRANCH  44  68
BRANCH  56  79
ATOM     79  C   UNL A   1      44.243  27.936  34.559  1.00  0.00     0.023 A 
ATOM     80  C   UNL A   1      44.044  27.061  35.640  1.00  0.00     0.031 A 
ATOM     81  C   UNL A   1      45.545  28.405  34.315  1.00  0.00     0.131 A 
ATOM     82  C   UNL A   1      45.114  26.751  36.491  1.00  0.00     0.055 A 
ATOM     83  C   UNL A   1      46.620  28.033  35.120  1.00  0.00     0.041 A 
ATOM     84  F   UNL A   1      45.789  29.247  33.298  1.00  0.00    -0.206 F 
ATOM     85  C   UNL A   1      46.405  27.217  36.228  1.00  0.00     0.022 A 
BRANCH  82  86
ATOM     86  S   UNL A   1      44.769  25.846  38.025  1.00  0.00     0.124 S 
ATOM     87  O   UNL A   1      43.446  26.350  38.380  1.00  0.00    -0.237 OA
ATOM     88  O   UNL A   1      44.826  24.456  37.586  1.00  0.00    -0.237 OA
ATOM     89  O   UNL A   1      45.850  26.260  38.917  1.00  0.00    -0.744 OA
ENDBRANCH  82  86
ENDBRANCH  56  79
ENDBRANCH  30  31
ENDBRANCH  23  25
ENDBRANCH  22  23
ENDBRANCH  21  22
ENDBRANCH   1  21
TORSDOF 19
ENDMDL
MODEL 2
REMARK VINA RESULT:     -10.6      2.291      8.583
REMARK SMILES O=C(CCCS(=O)(=O)Nc1ccc(Cl)cc1F)OCCOC(=O)c1ccc(-c2c3nc(c(-c4cc(S(=O)(=O)[O-])ccc4F)c4ccc([nH]4)c(-c4cc(S(=O)(=O)[O-])ccc4F)c4nc(c(-c5cc(S(=O)(=O)[O-])ccc5F)c5ccc2[nH]5)C=C4)C=C3)cc1
REMARK SMILES IDX 19 1 18 2 2 3 1 4 3 5 4 6 5 7 6 8 7 9 8 10 9 11 10 13 11 14
REMARK SMILES IDX 16 15 12 16 15 17 17 18 13 19 14 20 20 21 21 22 22 23 23 24
REMARK SMILES IDX 24 25 25 26 86 27 26 28 85 29 27 30 28 31 29 32 79 33 30 34
REMARK SMILES IDX 84 35 78 36 80 37 31 38 83 39 77 40 76 41 32 43 64 44 44 45
REMARK SMILES IDX 63 46 45 47 48 48 62 49 81 50 46 51 47 52 61 54 82 55 49 56
REMARK SMILES IDX 33 57 34 58 42 59 35 60 41 61 43 62 40 63 36 64 37 65 38 66
REMARK SMILES IDX 39 67 65 68 66 69 74 70 67 71 73 72 75 73 72 74 68 75 69 76
REMARK SMILES IDX 70 77 71 78 50 79 51 80 59 81 52 82 58 83 60 84 57 85 53 86
REMARK SMILES IDX 54 87 55 88 56 89
REMARK H PARENT 9 12 80 42 48 53
REMARK Flexibility Score: inf
ROOT
ATOM      1  C   UNL A   1      31.063  29.589  24.780  1.00  0.00     0.274 C 
ENDROOT
BRANCH   1   2
ATOM      2  O   UNL A   1      31.086  29.689  23.383  1.00  0.00    -0.462 OA
BRANCH   2   3
ATOM      3  C   UNL A   1      30.270  28.842  22.725  1.00  0.00     0.305 C 
ATOM      4  O   UNL A   1      29.815  29.200  21.639  1.00  0.00    -0.252 OA
BRANCH   3   5
ATOM      5  C   UNL A   1      29.736  27.582  23.435  1.00  0.00     0.124 C 
BRANCH   5   6
ATOM      6  C   UNL A   1      30.336  26.095  23.567  1.00  0.00     0.030 C 
BRANCH   6   7
ATOM      7  C   UNL A   1      30.277  24.951  24.702  1.00  0.00     0.160 C 
BRANCH   7   8
ATOM      8  S   UNL A   1      31.115  24.633  26.395  1.00  0.00     0.232 S 
ATOM      9  O   UNL A   1      31.393  25.966  26.917  1.00  0.00    -0.207 OA
ATOM     10  O   UNL A   1      30.082  23.889  27.104  1.00  0.00    -0.207 OA
BRANCH   8  11
ATOM     11  N   UNL A   1      32.540  23.730  26.746  1.00  0.00    -0.281 N 
ATOM     12  H   UNL A   1      32.463  23.395  27.668  1.00  0.00     0.180 HD
BRANCH  11  13
ATOM     13  C   UNL A   1      33.870  23.246  26.192  1.00  0.00     0.084 A 
ATOM     14  C   UNL A   1      34.226  21.924  26.457  1.00  0.00     0.031 A 
ATOM     15  C   UNL A   1      34.986  24.008  25.686  1.00  0.00     0.148 A 
ATOM     16  C   UNL A   1      35.504  21.393  26.106  1.00  0.00     0.023 A 
ATOM     17  C   UNL A   1      36.200  23.479  25.232  1.00  0.00     0.062 A 
ATOM     18  F   UNL A   1      35.027  25.331  25.575  1.00  0.00    -0.205 F 
ATOM     19  C   UNL A   1      36.461  22.157  25.443  1.00  0.00     0.044 A 
ATOM     20  Cl  UNL A   1      37.966  21.504  24.936  1.00  0.00    -0.084 Cl
ENDBRANCH  11  13
ENDBRANCH   8  11
ENDBRANCH   7   8
ENDBRANCH   6   7
ENDBRANCH   5   6
ENDBRANCH   3   5
ENDBRANCH   2   3
ENDBRANCH   1   2
BRANCH   1  21
ATOM     21  C   UNL A   1      32.466  29.795  25.359  1.00  0.00     0.275 C 
BRANCH  21  22
ATOM     22  O   UNL A   1      32.615  30.478  26.681  1.00  0.00    -0.458 OA
BRANCH  22  23
ATOM     23  C   UNL A   1      33.491  31.411  27.182  1.00  0.00     0.338 C 
ATOM     24  O   UNL A   1      33.282  32.540  27.592  1.00  0.00    -0.246 OA
BRANCH  23  25
ATOM     25  C   UNL A   1      34.830  30.986  27.544  1.00  0.00     0.060 A 
ATOM     26  C   UNL A   1      34.954  29.700  28.041  1.00  0.00     0.016 A 
ATOM     27  C   UNL A   1      35.766  32.003  27.853  1.00  0.00     0.016 A 
ATOM     28  C   UNL A   1      35.975  29.449  28.935  1.00  0.00     0.010 A 
ATOM     29  C   UNL A   1      36.818  31.730  28.711  1.00  0.00     0.010 A 
ATOM     30  C   UNL A   1      36.906  30.454  29.270  1.00  0.00    -0.014 A 
BRANCH  30  31
ATOM     31  C   UNL A   1      38.066  30.087  30.096  1.00  0.00     0.031 A 
ATOM     32  C   UNL A   1      38.265  30.628  31.476  1.00  0.00     0.074 A 
ATOM     33  C   UNL A   1      38.923  29.220  29.530  1.00  0.00     0.049 A 
ATOM     34  N   UNL A   1      39.243  30.391  32.310  1.00  0.00    -0.248 NA
ATOM     35  C   UNL A   1      37.247  31.558  31.985  1.00  0.00     0.031 C 
ATOM     36  C   UNL A   1      38.770  28.661  28.180  1.00  0.00     0.029 A 
ATOM     37  N   UNL A   1      40.062  28.645  30.005  1.00  0.00    -0.354 N 
ATOM     38  C   UNL A   1      38.972  31.150  33.444  1.00  0.00     0.074 A 
ATOM     39  C   UNL A   1      37.742  31.868  33.179  1.00  0.00     0.031 C 
ATOM     40  C   UNL A   1      39.754  27.784  27.957  1.00  0.00     0.029 A 
ATOM     41  C   UNL A   1      40.647  27.789  29.105  1.00  0.00     0.049 A 
ATOM     42  H   UNL A   1      40.428  28.824  30.901  1.00  0.00     0.167 HD
ATOM     43  C   UNL A   1      39.702  31.233  34.587  1.00  0.00     0.034 A 
ATOM     44  C   UNL A   1      41.801  27.107  29.188  1.00  0.00     0.034 A 
ATOM     45  C   UNL A   1      40.939  30.504  34.786  1.00  0.00     0.049 A 
ATOM     46  C   UNL A   1      42.598  27.242  30.450  1.00  0.00     0.074 A 
ATOM     47  C   UNL A   1      41.773  30.496  35.891  1.00  0.00     0.029 A 
ATOM     48  N   UNL A   1      41.528  29.662  33.846  1.00  0.00    -0.354 N 
ATOM     49  N   UNL A   1      42.334  27.961  31.519  1.00  0.00    -0.248 NA
ATOM     50  C   UNL A   1      43.839  26.472  30.522  1.00  0.00     0.031 C 
ATOM     51  C   UNL A   1      42.894  29.711  35.593  1.00  0.00     0.029 A 
ATOM     52  C   UNL A   1      42.725  29.155  34.334  1.00  0.00     0.049 A 
ATOM     53  H   UNL A   1      41.150  29.456  32.960  1.00  0.00     0.167 HD
ATOM     54  C   UNL A   1      43.372  27.709  32.406  1.00  0.00     0.074 A 
ATOM     55  C   UNL A   1      44.246  26.753  31.750  1.00  0.00     0.031 C 
ATOM     56  C   UNL A   1      43.587  28.219  33.647  1.00  0.00     0.034 A 
BRANCH  43  57
ATOM     57  C   UNL A   1      39.223  32.184  35.663  1.00  0.00     0.023 A 
ATOM     58  C   UNL A   1      39.674  33.514  35.747  1.00  0.00     0.031 A 
ATOM     59  C   UNL A   1      38.310  31.744  36.642  1.00  0.00     0.131 A 
ATOM     60  C   UNL A   1      39.270  34.329  36.819  1.00  0.00     0.055 A 
ATOM     61  C   UNL A   1      37.852  32.583  37.661  1.00  0.00     0.041 A 
ATOM     62  F   UNL A   1      37.856  30.481  36.633  1.00  0.00    -0.206 F 
ATOM     63  C   UNL A   1      38.344  33.879  37.763  1.00  0.00     0.022 A 
BRANCH  60  64
ATOM     64  S   UNL A   1      40.079  35.938  37.046  1.00  0.00     0.124 S 
ATOM     65  O   UNL A   1      39.685  36.643  35.829  1.00  0.00    -0.237 OA
ATOM     66  O   UNL A   1      39.481  36.421  38.286  1.00  0.00    -0.237 OA
ATOM     67  O   UNL A   1      41.499  35.602  37.128  1.00  0.00    -0.744 OA
ENDBRANCH  60  64
ENDBRANCH  43  57
BRANCH  44  68
ATOM     68  C   UNL A   1      42.253  26.276  28.042  1.00  0.00     0.023 A 
ATOM     69  C   UNL A   1      41.830  24.947  27.906  1.00  0.00     0.031 A 
ATOM     70  C   UNL A   1      43.106  26.805  27.055  1.00  0.00     0.131 A 
ATOM     71  C   UNL A   1      42.291  24.178  26.827  1.00  0.00     0.055 A 
ATOM     72  C   UNL A   1      43.512  26.055  25.952  1.00  0.00     0.041 A 
ATOM     73  F   UNL A   1      43.527  28.078  27.130  1.00  0.00    -0.206 F 
ATOM     74  C   UNL A   1      43.115  24.727  25.841  1.00  0.00     0.022 A 
BRANCH  71  75
ATOM     75  S   UNL A   1      41.857  22.420  26.779  1.00  0.00     0.124 S 
ATOM     76  O   UNL A   1      42.181  22.068  25.404  1.00  0.00    -0.237 OA
ATOM     77  O   UNL A   1      42.727  21.865  27.809  1.00  0.00    -0.237 OA
ATOM     78  O   UNL A   1      40.427  22.417  27.105  1.00  0.00    -0.744 OA
ENDBRANCH  71  75
ENDBRANCH  44  68
BRANCH  56  79
ATOM     79  C   UNL A   1      44.804  27.698  34.370  1.00  0.00     0.023 A 
ATOM     80  C   UNL A   1      44.746  26.549  35.178  1.00  0.00     0.031 A 
ATOM     81  C   UNL A   1      46.020  28.401  34.303  1.00  0.00     0.131 A 
ATOM     82  C   UNL A   1      45.856  26.187  35.954  1.00  0.00     0.055 A 
ATOM     83  C   UNL A   1      47.144  27.992  35.019  1.00  0.00     0.041 A 
ATOM     84  F   UNL A   1      46.128  29.508  33.550  1.00  0.00    -0.206 F 
ATOM     85  C   UNL A   1      47.060  26.891  35.867  1.00  0.00     0.022 A 
BRANCH  82  86
ATOM     86  S   UNL A   1      45.660  24.869  37.185  1.00  0.00     0.124 S 
ATOM     87  O   UNL A   1      46.847  25.052  38.015  1.00  0.00    -0.237 OA
ATOM     88  O   UNL A   1      44.386  25.212  37.810  1.00  0.00    -0.237 OA
ATOM     89  O   UNL A   1      45.648  23.648  36.380  1.00  0.00    -0.744 OA
ENDBRANCH  82  86
ENDBRANCH  56  79
ENDBRANCH  30  31
ENDBRANCH  23  25
ENDBRANCH  22  23
ENDBRANCH  21  22
ENDBRANCH   1  21
TORSDOF 19
ENDMDL
MODEL 3
REMARK VINA RESULT:     -10.6      2.711      3.646
REMARK SMILES O=C(CCCS(=O)(=O)Nc1ccc(Cl)cc1F)OCCOC(=O)c1ccc(-c2c3nc(c(-c4cc(S(=O)(=O)[O-])ccc4F)c4ccc([nH]4)c(-c4cc(S(=O)(=O)[O-])ccc4F)c4nc(c(-c5cc(S(=O)(=O)[O-])ccc5F)c5ccc2[nH]5)C=C4)C=C3)cc1
REMARK SMILES IDX 19 1 18 2 2 3 1 4 3 5 4 6 5 7 6 8 7 9 8 10 9 11 10 13 11 14
REMARK SMILES IDX 16 15 12 16 15 17 17 18 13 19 14 20 20 21 21 22 22 23 23 24
REMARK SMILES IDX 24 25 25 26 86 27 26 28 85 29 27 30 28 31 29 32 79 33 30 34
REMARK SMILES IDX 84 35 78 36 80 37 31 38 83 39 77 40 76 41 32 43 64 44 44 45
REMARK SMILES IDX 63 46 45 47 48 48 62 49 81 50 46 51 47 52 61 54 82 55 49 56
REMARK SMILES IDX 33 57 34 58 42 59 35 60 41 61 43 62 40 63 36 64 37 65 38 66
REMARK SMILES IDX 39 67 65 68 66 69 74 70 67 71 73 72 75 73 72 74 68 75 69 76
REMARK SMILES IDX 70 77 71 78 50 79 51 80 59 81 52 82 58 83 60 84 57 85 53 86
REMARK SMILES IDX 54 87 55 88 56 89
REMARK H PARENT 9 12 80 42 48 53
REMARK Flexibility Score: inf
ROOT
ATOM      1  C   UNL A   1      31.198  29.827  24.909  1.00  0.00     0.274 C 
ENDROOT
BRANCH   1   2
ATOM      2  O   UNL A   1      31.490  29.247  23.667  1.00  0.00    -0.462 OA
BRANCH   2   3
ATOM      3  C   UNL A   1      30.437  28.728  23.004  1.00  0.00     0.305 C 
ATOM      4  O   UNL A   1      30.219  29.124  21.861  1.00  0.00    -0.252 OA
BRANCH   3   5
ATOM      5  C   UNL A   1      29.409  27.859  23.756  1.00  0.00     0.124 C 
BRANCH   5   6
ATOM      6  C   UNL A   1      29.334  26.273  24.011  1.00  0.00     0.030 C 
BRANCH   6   7
ATOM      7  C   UNL A   1      30.254  25.212  24.803  1.00  0.00     0.160 C 
BRANCH   7   8
ATOM      8  S   UNL A   1      31.488  25.268  26.267  1.00  0.00     0.232 S 
ATOM      9  O   UNL A   1      31.321  26.602  26.830  1.00  0.00    -0.207 OA
ATOM     10  O   UNL A   1      31.010  24.174  27.102  1.00  0.00    -0.207 OA
BRANCH   8  11
ATOM     11  N   UNL A   1      33.193  25.018  26.256  1.00  0.00    -0.281 N 
ATOM     12  H   UNL A   1      33.624  25.884  26.438  1.00  0.00     0.180 HD
BRANCH  11  13
ATOM     13  C   UNL A   1      34.295  23.987  26.075  1.00  0.00     0.084 A 
ATOM     14  C   UNL A   1      35.410  24.371  25.330  1.00  0.00     0.031 A 
ATOM     15  C   UNL A   1      34.262  22.560  26.288  1.00  0.00     0.148 A 
ATOM     16  C   UNL A   1      36.446  23.453  24.980  1.00  0.00     0.023 A 
ATOM     17  C   UNL A   1      35.318  21.672  26.053  1.00  0.00     0.062 A 
ATOM     18  F   UNL A   1      33.218  21.874  26.740  1.00  0.00    -0.205 F 
ATOM     19  C   UNL A   1      36.423  22.124  25.394  1.00  0.00     0.044 A 
ATOM     20  Cl  UNL A   1      37.706  21.035  25.055  1.00  0.00    -0.084 Cl
ENDBRANCH  11  13
ENDBRANCH   8  11
ENDBRANCH   7   8
ENDBRANCH   6   7
ENDBRANCH   5   6
ENDBRANCH   3   5
ENDBRANCH   2   3
ENDBRANCH   1   2
BRANCH   1  21
ATOM     21  C   UNL A   1      32.468  29.963  25.753  1.00  0.00     0.275 C 
BRANCH  21  22
ATOM     22  O   UNL A   1      32.490  30.942  26.883  1.00  0.00    -0.458 OA
BRANCH  22  23
ATOM     23  C   UNL A   1      33.423  31.833  27.359  1.00  0.00     0.338 C 
ATOM     24  O   UNL A   1      33.272  32.951  27.821  1.00  0.00    -0.246 OA
BRANCH  23  25
ATOM     25  C   UNL A   1      34.770  31.359  27.620  1.00  0.00     0.060 A 
ATOM     26  C   UNL A   1      34.888  30.049  28.050  1.00  0.00     0.016 A 
ATOM     27  C   UNL A   1      35.749  32.338  27.915  1.00  0.00     0.016 A 
ATOM     28  C   UNL A   1      35.954  29.733  28.868  1.00  0.00     0.010 A 
ATOM     29  C   UNL A   1      36.843  32.001  28.694  1.00  0.00     0.010 A 
ATOM     30  C   UNL A   1      36.931  30.699  29.190  1.00  0.00    -0.014 A 
BRANCH  30  31
ATOM     31  C   UNL A   1      38.128  30.267  29.926  1.00  0.00     0.031 A 
ATOM     32  C   UNL A   1      39.173  29.395  29.307  1.00  0.00     0.074 A 
ATOM     33  C   UNL A   1      38.222  30.725  31.186  1.00  0.00     0.049 A 
ATOM     34  N   UNL A   1      40.273  28.937  29.843  1.00  0.00    -0.248 NA
ATOM     35  C   UNL A   1      38.957  28.974  27.916  1.00  0.00     0.031 C 
ATOM     36  C   UNL A   1      37.224  31.583  31.837  1.00  0.00     0.029 A 
ATOM     37  N   UNL A   1      39.190  30.560  32.130  1.00  0.00    -0.354 N 
ATOM     38  C   UNL A   1      40.884  28.161  28.864  1.00  0.00     0.074 A 
ATOM     39  C   UNL A   1      40.016  28.199  27.704  1.00  0.00     0.031 C 
ATOM     40  C   UNL A   1      37.659  31.910  33.058  1.00  0.00     0.029 A 
ATOM     41  C   UNL A   1      38.912  31.215  33.304  1.00  0.00     0.049 A 
ATOM     42  H   UNL A   1      40.005  30.027  31.986  1.00  0.00     0.167 HD
ATOM     43  C   UNL A   1      42.056  27.480  28.949  1.00  0.00     0.034 A 
ATOM     44  C   UNL A   1      39.584  31.224  34.466  1.00  0.00     0.034 A 
ATOM     45  C   UNL A   1      42.872  27.462  30.147  1.00  0.00     0.049 A 
ATOM     46  C   UNL A   1      40.859  30.439  34.538  1.00  0.00     0.074 A 
ATOM     47  C   UNL A   1      44.077  26.817  30.366  1.00  0.00     0.029 A 
ATOM     48  N   UNL A   1      42.555  28.113  31.337  1.00  0.00    -0.354 N 
ATOM     49  N   UNL A   1      41.431  29.708  33.606  1.00  0.00    -0.248 NA
ATOM     50  C   UNL A   1      41.581  30.484  35.808  1.00  0.00     0.031 C 
ATOM     51  C   UNL A   1      44.448  27.017  31.702  1.00  0.00     0.029 A 
ATOM     52  C   UNL A   1      43.523  27.860  32.299  1.00  0.00     0.049 A 
ATOM     53  H   UNL A   1      41.756  28.672  31.476  1.00  0.00     0.167 HD
ATOM     54  C   UNL A   1      42.601  29.223  34.174  1.00  0.00     0.074 A 
ATOM     55  C   UNL A   1      42.658  29.769  35.519  1.00  0.00     0.031 C 
ATOM     56  C   UNL A   1      43.542  28.402  33.640  1.00  0.00     0.034 A 
BRANCH  43  57
ATOM     57  C   UNL A   1      42.480  26.652  27.753  1.00  0.00     0.023 A 
ATOM     58  C   UNL A   1      42.209  25.276  27.656  1.00  0.00     0.031 A 
ATOM     59  C   UNL A   1      43.192  27.251  26.696  1.00  0.00     0.131 A 
ATOM     60  C   UNL A   1      42.704  24.534  26.570  1.00  0.00     0.055 A 
ATOM     61  C   UNL A   1      43.616  26.524  25.580  1.00  0.00     0.041 A 
ATOM     62  F   UNL A   1      43.504  28.556  26.734  1.00  0.00    -0.206 F 
ATOM     63  C   UNL A   1      43.385  25.154  25.519  1.00  0.00     0.022 A 
BRANCH  60  64
ATOM     64  S   UNL A   1      42.571  22.724  26.614  1.00  0.00     0.124 S 
ATOM     65  O   UNL A   1      42.207  22.420  25.232  1.00  0.00    -0.237 OA
ATOM     66  O   UNL A   1      43.911  22.318  27.025  1.00  0.00    -0.237 OA
ATOM     67  O   UNL A   1      41.517  22.478  27.595  1.00  0.00    -0.744 OA
ENDBRANCH  60  64
ENDBRANCH  43  57
BRANCH  44  68
ATOM     68  C   UNL A   1      39.044  31.978  35.627  1.00  0.00     0.023 A 
ATOM     69  C   UNL A   1      38.381  31.318  36.670  1.00  0.00     0.031 A 
ATOM     70  C   UNL A   1      39.198  33.375  35.719  1.00  0.00     0.131 A 
ATOM     71  C   UNL A   1      37.861  32.057  37.742  1.00  0.00     0.055 A 
ATOM     72  C   UNL A   1      38.732  34.097  36.817  1.00  0.00     0.041 A 
ATOM     73  F   UNL A   1      39.841  34.054  34.755  1.00  0.00    -0.206 F 
ATOM     74  C   UNL A   1      38.047  33.439  37.831  1.00  0.00     0.022 A 
BRANCH  71  75
ATOM     75  S   UNL A   1      36.866  31.187  38.982  1.00  0.00     0.124 S 
ATOM     76  O   UNL A   1      36.758  29.857  38.401  1.00  0.00    -0.237 OA
ATOM     77  O   UNL A   1      37.697  31.305  40.174  1.00  0.00    -0.237 OA
ATOM     78  O   UNL A   1      35.619  31.959  39.014  1.00  0.00    -0.744 OA
ENDBRANCH  71  75
ENDBRANCH  44  68
BRANCH  56  79
ATOM     79  C   UNL A   1      44.727  28.097  34.522  1.00  0.00     0.023 A 
ATOM     80  C   UNL A   1      44.761  26.957  35.343  1.00  0.00     0.031 A 
ATOM     81  C   UNL A   1      45.805  28.997  34.590  1.00  0.00     0.131 A 
ATOM     82  C   UNL A   1      45.807  26.791  36.261  1.00  0.00     0.055 A 
ATOM     83  C   UNL A   1      46.881  28.786  35.451  1.00  0.00     0.041 A 
ATOM     84  F   UNL A   1      45.820  30.104  33.831  1.00  0.00    -0.206 F 
ATOM     85  C   UNL A   1      46.876  27.689  36.308  1.00  0.00     0.022 A 
BRANCH  82  86
ATOM     86  S   UNL A   1      45.681  25.462  37.489  1.00  0.00     0.124 S 
ATOM     87  O   UNL A   1      45.196  24.348  36.679  1.00  0.00    -0.237 OA
ATOM     88  O   UNL A   1      47.054  25.350  37.970  1.00  0.00    -0.237 OA
ATOM     89  O   UNL A   1      44.723  25.984  38.462  1.00  0.00    -0.744 OA
ENDBRANCH  82  86
ENDBRANCH  56  79
ENDBRANCH  30  31
ENDBRANCH  23  25
ENDBRANCH  22  23
ENDBRANCH  21  22
ENDBRANCH   1  21
TORSDOF 19
ENDMDL
