MODEL 1
REMARK VINA RESULT:     -12.2      0.000      0.000
REMARK SMILES C[C@H]1OCC[C@@H]1C(=O)Nc1sc2c(c1C(=O)OCCOC(=O)c1ccc(-c3c4nc(c(-c5cc(S(=O)(=O)[O-])ccc5F)c5ccc([nH]5)c(-c5cc(S(=O)(=O)[O-])ccc5F)c5nc(c(-c6cc(S(=O)(=O)[O-])ccc6F)c6ccc3[nH]6)C=C5)C=C4)cc1)CCC2
REMARK SMILES IDX 19 1 18 2 17 3 15 4 16 5 14 6 10 7 11 8 12 9 13 10 88 11
REMARK SMILES IDX 86 12 87 13 9 14 7 15 8 16 6 18 1 19 2 20 3 21 4 22 5 23
REMARK SMILES IDX 20 24 21 25 22 26 23 27 24 28 85 29 25 30 84 31 26 32 27 33
REMARK SMILES IDX 28 34 78 35 29 36 83 37 77 38 79 39 30 40 82 41 76 42 75 43
REMARK SMILES IDX 31 45 63 46 43 47 62 48 44 49 47 50 61 51 80 52 45 53 46 54
REMARK SMILES IDX 60 56 81 57 48 58 32 59 33 60 41 61 34 62 40 63 42 64 39 65
REMARK SMILES IDX 35 66 36 67 37 68 38 69 64 70 65 71 73 72 66 73 72 74 74 75
REMARK SMILES IDX 71 76 67 77 68 78 69 79 70 80 49 81 50 82 58 83 51 84 57 85
REMARK SMILES IDX 59 86 56 87 52 88 53 89 54 90 55 91
REMARK H PARENT 9 17 79 44 47 55
REMARK Flexibility Score: inf
ROOT
ATOM      1  C   UNL A   1      35.157  29.691  27.453  1.00  0.00     0.275 C 
ENDROOT
BRANCH   1   2
ATOM      2  C   UNL A   1      33.655  29.467  27.393  1.00  0.00     0.275 C 
BRANCH   2   3
ATOM      3  O   UNL A   1      33.349  28.149  26.892  1.00  0.00    -0.458 OA
BRANCH   3   4
ATOM      4  C   UNL A   1      32.038  27.784  26.941  1.00  0.00     0.341 C 
ATOM      5  O   UNL A   1      31.395  27.671  27.981  1.00  0.00    -0.246 OA
BRANCH   4   6
ATOM      6  C   UNL A   1      31.461  27.541  25.623  1.00  0.00     0.098 A 
ATOM      7  C   UNL A   1      31.001  26.293  25.222  1.00  0.00     0.110 A 
ATOM      8  S   UNL A   1      30.636  26.179  23.552  1.00  0.00    -0.122 S 
ATOM      9  C   UNL A   1      30.595  27.844  23.480  1.00  0.00     0.011 A 
ATOM     10  C   UNL A   1      31.030  28.466  24.623  1.00  0.00    -0.017 A 
ATOM     11  C   UNL A   1      30.007  28.747  22.468  1.00  0.00     0.047 C 
ATOM     12  C   UNL A   1      30.769  29.929  24.537  1.00  0.00     0.038 C 
ATOM     13  C   UNL A   1      29.746  30.002  23.351  1.00  0.00     0.010 C 
BRANCH   7  14
ATOM     14  N   UNL A   1      30.688  25.164  25.942  1.00  0.00    -0.317 N 
ATOM     15  C   UNL A   1      31.686  24.320  26.376  1.00  0.00     0.230 C 
ATOM     16  O   UNL A   1      31.570  23.897  27.533  1.00  0.00    -0.274 OA
ATOM     17  H   UNL A   1      29.747  24.959  26.149  1.00  0.00     0.170 HD
BRANCH  15  18
ATOM     18  C   UNL A   1      32.819  23.782  25.490  1.00  0.00     0.110 C 
ATOM     19  C   UNL A   1      32.017  22.614  23.384  1.00  0.00     0.039 C 
ATOM     20  C   UNL A   1      32.516  22.441  24.815  1.00  0.00     0.127 C 
ATOM     21  O   UNL A   1      33.777  21.723  24.746  1.00  0.00    -0.378 OA
ATOM     22  C   UNL A   1      34.818  22.691  24.922  1.00  0.00     0.161 C 
ATOM     23  C   UNL A   1      34.234  23.591  25.974  1.00  0.00     0.044 C 
ENDBRANCH  15  18
ENDBRANCH   7  14
ENDBRANCH   4   6
ENDBRANCH   3   4
ENDBRANCH   2   3
ENDBRANCH   1   2
BRANCH   1  24
ATOM     24  O   UNL A   1      35.556  30.399  28.638  1.00  0.00    -0.458 OA
BRANCH  24  25
ATOM     25  C   UNL A   1      36.521  29.695  29.273  1.00  0.00     0.338 C 
ATOM     26  O   UNL A   1      36.514  29.403  30.463  1.00  0.00    -0.246 OA
BRANCH  25  27
ATOM     27  C   UNL A   1      37.619  29.230  28.416  1.00  0.00     0.060 A 
ATOM     28  C   UNL A   1      37.849  27.858  28.330  1.00  0.00     0.016 A 
ATOM     29  C   UNL A   1      38.669  30.143  28.332  1.00  0.00     0.016 A 
ATOM     30  C   UNL A   1      39.148  27.396  28.519  1.00  0.00     0.010 A 
ATOM     31  C   UNL A   1      39.960  29.682  28.472  1.00  0.00     0.010 A 
ATOM     32  C   UNL A   1      40.186  28.317  28.698  1.00  0.00    -0.014 A 
BRANCH  32  33
ATOM     33  C   UNL A   1      41.567  27.861  28.933  1.00  0.00     0.031 A 
ATOM     34  C   UNL A   1      42.041  28.048  30.337  1.00  0.00     0.074 A 
ATOM     35  C   UNL A   1      42.180  27.069  28.018  1.00  0.00     0.049 A 
ATOM     36  N   UNL A   1      43.241  28.237  30.785  1.00  0.00    -0.248 NA
ATOM     37  C   UNL A   1      41.006  28.106  31.393  1.00  0.00     0.031 C 
ATOM     38  C   UNL A   1      41.650  26.722  26.691  1.00  0.00     0.029 A 
ATOM     39  N   UNL A   1      43.267  26.238  28.138  1.00  0.00    -0.354 N 
ATOM     40  C   UNL A   1      43.124  28.205  32.174  1.00  0.00     0.074 A 
ATOM     41  C   UNL A   1      41.732  28.321  32.483  1.00  0.00     0.031 C 
ATOM     42  C   UNL A   1      42.224  25.578  26.270  1.00  0.00     0.029 A 
ATOM     43  C   UNL A   1      43.199  25.150  27.260  1.00  0.00     0.049 A 
ATOM     44  H   UNL A   1      44.008  26.391  28.768  1.00  0.00     0.167 HD
ATOM     45  C   UNL A   1      44.137  27.778  32.970  1.00  0.00     0.034 A 
ATOM     46  C   UNL A   1      43.768  23.920  27.390  1.00  0.00     0.034 A 
ATOM     47  C   UNL A   1      45.423  28.024  32.371  1.00  0.00     0.049 A 
ATOM     48  C   UNL A   1      44.844  24.020  28.401  1.00  0.00     0.074 A 
ATOM     49  C   UNL A   1      46.049  29.156  31.884  1.00  0.00     0.029 A 
ATOM     50  N   UNL A   1      46.165  26.962  31.914  1.00  0.00    -0.354 N 
ATOM     51  N   UNL A   1      45.951  24.685  28.232  1.00  0.00    -0.248 NA
ATOM     52  C   UNL A   1      44.524  23.692  29.783  1.00  0.00     0.031 C 
ATOM     53  C   UNL A   1      46.842  28.707  30.793  1.00  0.00     0.029 A 
ATOM     54  C   UNL A   1      46.696  27.323  30.701  1.00  0.00     0.049 A 
ATOM     55  H   UNL A   1      46.293  26.100  32.374  1.00  0.00     0.167 HD
ATOM     56  C   UNL A   1      46.236  25.222  29.476  1.00  0.00     0.074 A 
ATOM     57  C   UNL A   1      45.404  24.475  30.412  1.00  0.00     0.031 C 
ATOM     58  C   UNL A   1      46.897  26.410  29.594  1.00  0.00     0.034 A 
BRANCH  45  59
ATOM     59  C   UNL A   1      43.916  26.797  34.106  1.00  0.00     0.023 A 
ATOM     60  C   UNL A   1      44.151  27.260  35.411  1.00  0.00     0.031 A 
ATOM     61  C   UNL A   1      43.788  25.391  33.969  1.00  0.00     0.131 A 
ATOM     62  C   UNL A   1      44.364  26.357  36.466  1.00  0.00     0.055 A 
ATOM     63  C   UNL A   1      43.919  24.503  35.037  1.00  0.00     0.041 A 
ATOM     64  F   UNL A   1      43.622  24.782  32.788  1.00  0.00    -0.206 F 
ATOM     65  C   UNL A   1      44.248  24.981  36.291  1.00  0.00     0.022 A 
BRANCH  62  66
ATOM     66  S   UNL A   1      45.012  27.011  38.025  1.00  0.00     0.124 S 
ATOM     67  O   UNL A   1      44.560  25.999  38.973  1.00  0.00    -0.237 OA
ATOM     68  O   UNL A   1      46.445  27.051  37.756  1.00  0.00    -0.237 OA
ATOM     69  O   UNL A   1      44.360  28.313  38.141  1.00  0.00    -0.744 OA
ENDBRANCH  62  66
ENDBRANCH  45  59
BRANCH  46  70
ATOM     70  C   UNL A   1      43.235  22.613  26.896  1.00  0.00     0.023 A 
ATOM     71  C   UNL A   1      43.987  21.748  26.072  1.00  0.00     0.031 A 
ATOM     72  C   UNL A   1      42.022  22.092  27.404  1.00  0.00     0.131 A 
ATOM     73  C   UNL A   1      43.505  20.452  25.766  1.00  0.00     0.055 A 
ATOM     74  C   UNL A   1      41.534  20.826  27.072  1.00  0.00     0.041 A 
ATOM     75  F   UNL A   1      41.298  22.763  28.315  1.00  0.00    -0.206 F 
ATOM     76  C   UNL A   1      42.278  19.996  26.254  1.00  0.00     0.022 A 
BRANCH  73  77
ATOM     77  S   UNL A   1      44.534  19.282  24.820  1.00  0.00     0.124 S 
ATOM     78  O   UNL A   1      45.882  19.638  25.244  1.00  0.00    -0.237 OA
ATOM     79  O   UNL A   1      44.030  17.989  25.267  1.00  0.00    -0.237 OA
ATOM     80  O   UNL A   1      44.223  19.606  23.426  1.00  0.00    -0.744 OA
ENDBRANCH  73  77
ENDBRANCH  46  70
BRANCH  58  81
ATOM     81  C   UNL A   1      47.666  26.941  28.403  1.00  0.00     0.023 A 
ATOM     82  C   UNL A   1      47.099  27.222  27.141  1.00  0.00     0.031 A 
ATOM     83  C   UNL A   1      49.012  27.293  28.608  1.00  0.00     0.131 A 
ATOM     84  C   UNL A   1      47.881  27.824  26.137  1.00  0.00     0.055 A 
ATOM     85  C   UNL A   1      49.777  27.910  27.619  1.00  0.00     0.041 A 
ATOM     86  F   UNL A   1      49.601  27.077  29.797  1.00  0.00    -0.206 F 
ATOM     87  C   UNL A   1      49.214  28.172  26.376  1.00  0.00     0.022 A 
BRANCH  84  88
ATOM     88  S   UNL A   1      47.178  28.151  24.490  1.00  0.00     0.124 S 
ATOM     89  O   UNL A   1      46.554  29.461  24.638  1.00  0.00    -0.237 OA
ATOM     90  O   UNL A   1      48.356  28.094  23.629  1.00  0.00    -0.237 OA
ATOM     91  O   UNL A   1      46.234  27.047  24.301  1.00  0.00    -0.744 OA
ENDBRANCH  84  88
ENDBRANCH  58  81
ENDBRANCH  32  33
ENDBRANCH  25  27
ENDBRANCH  24  25
ENDBRANCH   1  24
TORSDOF 16
ENDMDL
MODEL 2
REMARK VINA RESULT:     -12.0      4.824      9.083
REMARK SMILES C[C@H]1OCC[C@@H]1C(=O)Nc1sc2c(c1C(=O)OCCOC(=O)c1ccc(-c3c4nc(c(-c5cc(S(=O)(=O)[O-])ccc5F)c5ccc([nH]5)c(-c5cc(S(=O)(=O)[O-])ccc5F)c5nc(c(-c6cc(S(=O)(=O)[O-])ccc6F)c6ccc3[nH]6)C=C5)C=C4)cc1)CCC2
REMARK SMILES IDX 19 1 18 2 17 3 15 4 16 5 14 6 10 7 11 8 12 9 13 10 88 11
REMARK SMILES IDX 86 12 87 13 9 14 7 15 8 16 6 18 1 19 2 20 3 21 4 22 5 23
REMARK SMILES IDX 20 24 21 25 22 26 23 27 24 28 85 29 25 30 84 31 26 32 27 33
REMARK SMILES IDX 28 34 78 35 29 36 83 37 77 38 79 39 30 40 82 41 76 42 75 43
REMARK SMILES IDX 31 45 63 46 43 47 62 48 44 49 47 50 61 51 80 52 45 53 46 54
REMARK SMILES IDX 60 56 81 57 48 58 32 59 33 60 41 61 34 62 40 63 42 64 39 65
REMARK SMILES IDX 35 66 36 67 37 68 38 69 64 70 65 71 73 72 66 73 72 74 74 75
REMARK SMILES IDX 71 76 67 77 68 78 69 79 70 80 49 81 50 82 58 83 51 84 57 85
REMARK SMILES IDX 59 86 56 87 52 88 53 89 54 90 55 91
REMARK H PARENT 9 17 79 44 47 55
REMARK Flexibility Score: inf
ROOT
ATOM      1  C   UNL A   1      38.519  23.296  26.593  1.00  0.00     0.275 C 
ENDROOT
BRANCH   1   2
ATOM      2  C   UNL A   1      37.855  23.654  25.274  1.00  0.00     0.275 C 
BRANCH   2   3
ATOM      3  O   UNL A   1      37.181  22.511  24.709  1.00  0.00    -0.458 OA
BRANCH   3   4
ATOM      4  C   UNL A   1      36.107  22.787  23.916  1.00  0.00     0.341 C 
ATOM      5  O   UNL A   1      36.186  23.054  22.721  1.00  0.00    -0.246 OA
BRANCH   4   6
ATOM      6  C   UNL A   1      34.837  22.732  24.633  1.00  0.00     0.098 A 
ATOM      7  C   UNL A   1      34.402  21.597  25.307  1.00  0.00     0.110 A 
ATOM      8  S   UNL A   1      32.771  21.667  25.826  1.00  0.00    -0.122 S 
ATOM      9  C   UNL A   1      32.810  23.321  25.624  1.00  0.00     0.011 A 
ATOM     10  C   UNL A   1      33.944  23.784  25.005  1.00  0.00    -0.017 A 
ATOM     11  C   UNL A   1      31.920  24.375  26.154  1.00  0.00     0.047 C 
ATOM     12  C   UNL A   1      33.979  25.272  25.051  1.00  0.00     0.038 C 
ATOM     13  C   UNL A   1      32.903  25.582  26.149  1.00  0.00     0.010 C 
BRANCH   7  14
ATOM     14  N   UNL A   1      35.075  20.472  25.722  1.00  0.00    -0.317 N 
ATOM     15  C   UNL A   1      35.085  19.341  24.937  1.00  0.00     0.230 C 
ATOM     16  O   UNL A   1      36.173  18.760  24.842  1.00  0.00    -0.274 OA
ATOM     17  H   UNL A   1      35.551  20.475  26.584  1.00  0.00     0.170 HD
BRANCH  15  18
ATOM     18  C   UNL A   1      33.837  18.705  24.307  1.00  0.00     0.110 C 
ATOM     19  C   UNL A   1      33.544  16.244  24.860  1.00  0.00     0.039 C 
ATOM     20  C   UNL A   1      34.031  17.261  23.833  1.00  0.00     0.127 C 
ATOM     21  O   UNL A   1      33.205  17.105  22.649  1.00  0.00    -0.378 OA
ATOM     22  C   UNL A   1      32.249  18.172  22.664  1.00  0.00     0.161 C 
ATOM     23  C   UNL A   1      33.074  19.324  23.165  1.00  0.00     0.044 C 
ENDBRANCH  15  18
ENDBRANCH   7  14
ENDBRANCH   4   6
ENDBRANCH   3   4
ENDBRANCH   2   3
ENDBRANCH   1   2
BRANCH   1  24
ATOM     24  O   UNL A   1      39.948  23.435  26.541  1.00  0.00    -0.458 OA
BRANCH  24  25
ATOM     25  C   UNL A   1      40.354  24.234  27.553  1.00  0.00     0.338 C 
ATOM     26  O   UNL A   1      41.274  23.985  28.324  1.00  0.00    -0.246 OA
BRANCH  25  27
ATOM     27  C   UNL A   1      39.635  25.509  27.669  1.00  0.00     0.060 A 
ATOM     28  C   UNL A   1      40.049  26.572  26.869  1.00  0.00     0.016 A 
ATOM     29  C   UNL A   1      39.113  25.727  28.944  1.00  0.00     0.016 A 
ATOM     30  C   UNL A   1      40.272  27.804  27.476  1.00  0.00     0.010 A 
ATOM     31  C   UNL A   1      39.293  26.961  29.530  1.00  0.00     0.010 A 
ATOM     32  C   UNL A   1      39.992  27.960  28.838  1.00  0.00    -0.014 A 
BRANCH  32  33
ATOM     33  C   UNL A   1      40.248  29.241  29.519  1.00  0.00     0.031 A 
ATOM     34  C   UNL A   1      39.098  30.193  29.485  1.00  0.00     0.074 A 
ATOM     35  C   UNL A   1      41.315  29.360  30.349  1.00  0.00     0.049 A 
ATOM     36  N   UNL A   1      39.096  31.487  29.512  1.00  0.00    -0.248 NA
ATOM     37  C   UNL A   1      37.748  29.608  29.319  1.00  0.00     0.031 C 
ATOM     38  C   UNL A   1      42.374  28.357  30.536  1.00  0.00     0.029 A 
ATOM     39  N   UNL A   1      41.576  30.268  31.346  1.00  0.00    -0.354 N 
ATOM     40  C   UNL A   1      37.753  31.851  29.599  1.00  0.00     0.074 A 
ATOM     41  C   UNL A   1      36.980  30.690  29.280  1.00  0.00     0.031 C 
ATOM     42  C   UNL A   1      42.962  28.552  31.733  1.00  0.00     0.029 A 
ATOM     43  C   UNL A   1      42.370  29.721  32.362  1.00  0.00     0.049 A 
ATOM     44  H   UNL A   1      41.244  31.194  31.346  1.00  0.00     0.167 HD
ATOM     45  C   UNL A   1      37.356  32.990  30.223  1.00  0.00     0.034 A 
ATOM     46  C   UNL A   1      42.439  30.087  33.672  1.00  0.00     0.034 A 
ATOM     47  C   UNL A   1      38.367  34.013  30.152  1.00  0.00     0.049 A 
ATOM     48  C   UNL A   1      41.866  31.445  33.797  1.00  0.00     0.074 A 
ATOM     49  C   UNL A   1      39.047  34.614  29.109  1.00  0.00     0.029 A 
ATOM     50  N   UNL A   1      39.047  34.365  31.293  1.00  0.00    -0.354 N 
ATOM     51  N   UNL A   1      42.413  32.520  33.308  1.00  0.00    -0.248 NA
ATOM     52  C   UNL A   1      40.458  31.569  34.143  1.00  0.00     0.031 C 
ATOM     53  C   UNL A   1      40.343  34.896  29.620  1.00  0.00     0.029 A 
ATOM     54  C   UNL A   1      40.371  34.498  30.956  1.00  0.00     0.049 A 
ATOM     55  H   UNL A   1      38.656  34.497  32.187  1.00  0.00     0.167 HD
ATOM     56  C   UNL A   1      41.349  33.301  32.890  1.00  0.00     0.074 A 
ATOM     57  C   UNL A   1      40.178  32.729  33.544  1.00  0.00     0.031 C 
ATOM     58  C   UNL A   1      41.475  34.152  31.829  1.00  0.00     0.034 A 
BRANCH  45  59
ATOM     59  C   UNL A   1      36.210  33.012  31.215  1.00  0.00     0.023 A 
ATOM     60  C   UNL A   1      35.153  33.901  30.958  1.00  0.00     0.031 A 
ATOM     61  C   UNL A   1      36.235  32.451  32.518  1.00  0.00     0.131 A 
ATOM     62  C   UNL A   1      34.271  34.284  31.982  1.00  0.00     0.055 A 
ATOM     63  C   UNL A   1      35.304  32.773  33.507  1.00  0.00     0.041 A 
ATOM     64  F   UNL A   1      37.205  31.633  32.945  1.00  0.00    -0.206 F 
ATOM     65  C   UNL A   1      34.337  33.725  33.256  1.00  0.00     0.022 A 
BRANCH  62  66
ATOM     66  S   UNL A   1      33.174  35.690  31.675  1.00  0.00     0.124 S 
ATOM     67  O   UNL A   1      33.890  36.768  32.350  1.00  0.00    -0.237 OA
ATOM     68  O   UNL A   1      33.156  35.739  30.218  1.00  0.00    -0.237 OA
ATOM     69  O   UNL A   1      31.920  35.283  32.304  1.00  0.00    -0.744 OA
ENDBRANCH  62  66
ENDBRANCH  45  59
BRANCH  46  70
ATOM     70  C   UNL A   1      42.710  29.205  34.850  1.00  0.00     0.023 A 
ATOM     71  C   UNL A   1      41.896  28.097  35.172  1.00  0.00     0.031 A 
ATOM     72  C   UNL A   1      43.917  29.325  35.577  1.00  0.00     0.131 A 
ATOM     73  C   UNL A   1      42.285  27.197  36.194  1.00  0.00     0.055 A 
ATOM     74  C   UNL A   1      44.279  28.455  36.608  1.00  0.00     0.041 A 
ATOM     75  F   UNL A   1      44.838  30.248  35.257  1.00  0.00    -0.206 F 
ATOM     76  C   UNL A   1      43.465  27.381  36.918  1.00  0.00     0.022 A 
BRANCH  73  77
ATOM     77  S   UNL A   1      41.312  25.690  36.519  1.00  0.00     0.124 S 
ATOM     78  O   UNL A   1      40.456  26.104  37.623  1.00  0.00    -0.237 OA
ATOM     79  O   UNL A   1      40.657  25.457  35.237  1.00  0.00    -0.237 OA
ATOM     80  O   UNL A   1      42.330  24.698  36.871  1.00  0.00    -0.744 OA
ENDBRANCH  73  77
ENDBRANCH  46  70
BRANCH  58  81
ATOM     81  C   UNL A   1      42.861  34.541  31.365  1.00  0.00     0.023 A 
ATOM     82  C   UNL A   1      43.555  33.924  30.302  1.00  0.00     0.031 A 
ATOM     83  C   UNL A   1      43.444  35.677  31.955  1.00  0.00     0.131 A 
ATOM     84  C   UNL A   1      44.794  34.442  29.876  1.00  0.00     0.055 A 
ATOM     85  C   UNL A   1      44.659  36.201  31.515  1.00  0.00     0.041 A 
ATOM     86  F   UNL A   1      42.819  36.325  32.952  1.00  0.00    -0.206 F 
ATOM     87  C   UNL A   1      45.342  35.580  30.476  1.00  0.00     0.022 A 
BRANCH  84  88
ATOM     88  S   UNL A   1      45.723  33.632  28.538  1.00  0.00     0.124 S 
ATOM     89  O   UNL A   1      45.667  34.598  27.447  1.00  0.00    -0.237 OA
ATOM     90  O   UNL A   1      47.034  33.425  29.147  1.00  0.00    -0.237 OA
ATOM     91  O   UNL A   1      44.965  32.402  28.298  1.00  0.00    -0.744 OA
ENDBRANCH  84  88
ENDBRANCH  58  81
ENDBRANCH  32  33
ENDBRANCH  25  27
ENDBRANCH  24  25
ENDBRANCH   1  24
TORSDOF 16
ENDMDL
MODEL 3
REMARK VINA RESULT:     -12.0      5.173     10.701
REMARK SMILES C[C@H]1OCC[C@@H]1C(=O)Nc1sc2c(c1C(=O)OCCOC(=O)c1ccc(-c3c4nc(c(-c5cc(S(=O)(=O)[O-])ccc5F)c5ccc([nH]5)c(-c5cc(S(=O)(=O)[O-])ccc5F)c5nc(c(-c6cc(S(=O)(=O)[O-])ccc6F)c6ccc3[nH]6)C=C5)C=C4)cc1)CCC2
REMARK SMILES IDX 19 1 18 2 17 3 15 4 16 5 14 6 10 7 11 8 12 9 13 10 88 11
REMARK SMILES IDX 86 12 87 13 9 14 7 15 8 16 6 18 1 19 2 20 3 21 4 22 5 23
REMARK SMILES IDX 20 24 21 25 22 26 23 27 24 28 85 29 25 30 84 31 26 32 27 33
REMARK SMILES IDX 28 34 78 35 29 36 83 37 77 38 79 39 30 40 82 41 76 42 75 43
REMARK SMILES IDX 31 45 63 46 43 47 62 48 44 49 47 50 61 51 80 52 45 53 46 54
REMARK SMILES IDX 60 56 81 57 48 58 32 59 33 60 41 61 34 62 40 63 42 64 39 65
REMARK SMILES IDX 35 66 36 67 37 68 38 69 64 70 65 71 73 72 66 73 72 74 74 75
REMARK SMILES IDX 71 76 67 77 68 78 69 79 70 80 49 81 50 82 58 83 51 84 57 85
REMARK SMILES IDX 59 86 56 87 52 88 53 89 54 90 55 91
REMARK H PARENT 9 17 79 44 47 55
REMARK Flexibility Score: inf
ROOT
ATOM      1  C   UNL A   1      38.189  23.972  26.535  1.00  0.00     0.275 C 
ENDROOT
BRANCH   1   2
ATOM      2  C   UNL A   1      37.459  23.070  25.554  1.00  0.00     0.275 C 
BRANCH   2   3
ATOM      3  O   UNL A   1      36.491  23.816  24.787  1.00  0.00    -0.458 OA
BRANCH   3   4
ATOM      4  C   UNL A   1      35.984  23.183  23.693  1.00  0.00     0.341 C 
ATOM      5  O   UNL A   1      36.557  23.117  22.610  1.00  0.00    -0.246 OA
BRANCH   4   6
ATOM      6  C   UNL A   1      34.678  22.578  23.935  1.00  0.00     0.098 A 
ATOM      7  C   UNL A   1      33.501  23.094  23.409  1.00  0.00     0.110 A 
ATOM      8  S   UNL A   1      32.075  22.398  24.056  1.00  0.00    -0.122 S 
ATOM      9  C   UNL A   1      32.989  21.121  24.613  1.00  0.00     0.011 A 
ATOM     10  C   UNL A   1      34.343  21.304  24.490  1.00  0.00    -0.017 A 
ATOM     11  C   UNL A   1      32.584  19.768  25.049  1.00  0.00     0.047 C 
ATOM     12  C   UNL A   1      35.061  20.043  24.824  1.00  0.00     0.038 C 
ATOM     13  C   UNL A   1      33.901  18.990  24.760  1.00  0.00     0.010 C 
BRANCH   7  14
ATOM     14  N   UNL A   1      33.275  23.990  22.391  1.00  0.00    -0.317 N 
ATOM     15  C   UNL A   1      33.358  25.344  22.627  1.00  0.00     0.230 C 
ATOM     16  O   UNL A   1      33.940  26.009  21.760  1.00  0.00    -0.274 OA
ATOM     17  H   UNL A   1      33.054  23.662  21.489  1.00  0.00     0.170 HD
BRANCH  15  18
ATOM     18  C   UNL A   1      32.673  26.070  23.794  1.00  0.00     0.110 C 
ATOM     19  C   UNL A   1      30.160  25.725  23.890  1.00  0.00     0.039 C 
ATOM     20  C   UNL A   1      31.295  26.649  23.461  1.00  0.00     0.127 C 
ATOM     21  O   UNL A   1      31.168  27.873  24.233  1.00  0.00    -0.378 OA
ATOM     22  C   UNL A   1      32.146  27.810  25.278  1.00  0.00     0.161 C 
ATOM     23  C   UNL A   1      33.318  27.187  24.573  1.00  0.00     0.044 C 
ENDBRANCH  15  18
ENDBRANCH   7  14
ENDBRANCH   4   6
ENDBRANCH   3   4
ENDBRANCH   2   3
ENDBRANCH   1   2
BRANCH   1  24
ATOM     24  O   UNL A   1      39.612  23.957  26.335  1.00  0.00    -0.458 OA
BRANCH  24  25
ATOM     25  C   UNL A   1      40.104  25.198  26.547  1.00  0.00     0.338 C 
ATOM     26  O   UNL A   1      40.939  25.756  25.845  1.00  0.00    -0.246 OA
BRANCH  25  27
ATOM     27  C   UNL A   1      39.530  25.909  27.696  1.00  0.00     0.060 A 
ATOM     28  C   UNL A   1      38.696  26.997  27.446  1.00  0.00     0.016 A 
ATOM     29  C   UNL A   1      40.349  25.873  28.824  1.00  0.00     0.016 A 
ATOM     30  C   UNL A   1      38.946  28.187  28.123  1.00  0.00     0.010 A 
ATOM     31  C   UNL A   1      40.562  27.041  29.525  1.00  0.00     0.010 A 
ATOM     32  C   UNL A   1      39.958  28.229  29.089  1.00  0.00    -0.014 A 
BRANCH  32  33
ATOM     33  C   UNL A   1      40.271  29.480  29.799  1.00  0.00     0.031 A 
ATOM     34  C   UNL A   1      41.593  30.074  29.438  1.00  0.00     0.074 A 
ATOM     35  C   UNL A   1      39.288  30.146  30.456  1.00  0.00     0.049 A 
ATOM     36  N   UNL A   1      42.386  30.813  30.145  1.00  0.00    -0.248 NA
ATOM     37  C   UNL A   1      42.145  29.726  28.110  1.00  0.00     0.031 C 
ATOM     38  C   UNL A   1      37.917  29.657  30.673  1.00  0.00     0.029 A 
ATOM     39  N   UNL A   1      39.214  31.453  30.872  1.00  0.00    -0.354 N 
ATOM     40  C   UNL A   1      43.404  31.199  29.273  1.00  0.00     0.074 A 
ATOM     41  C   UNL A   1      43.312  30.356  28.120  1.00  0.00     0.031 C 
ATOM     42  C   UNL A   1      37.103  30.708  30.891  1.00  0.00     0.029 A 
ATOM     43  C   UNL A   1      37.897  31.926  30.893  1.00  0.00     0.049 A 
ATOM     44  H   UNL A   1      39.997  31.993  31.125  1.00  0.00     0.167 HD
ATOM     45  C   UNL A   1      44.061  32.379  29.412  1.00  0.00     0.034 A 
ATOM     46  C   UNL A   1      37.455  33.208  30.768  1.00  0.00     0.034 A 
ATOM     47  C   UNL A   1      44.106  32.802  30.787  1.00  0.00     0.049 A 
ATOM     48  C   UNL A   1      38.596  34.111  31.036  1.00  0.00     0.074 A 
ATOM     49  C   UNL A   1      44.557  32.214  31.954  1.00  0.00     0.029 A 
ATOM     50  N   UNL A   1      43.358  33.886  31.181  1.00  0.00    -0.354 N 
ATOM     51  N   UNL A   1      39.161  34.255  32.200  1.00  0.00    -0.248 NA
ATOM     52  C   UNL A   1      39.381  34.584  29.905  1.00  0.00     0.031 C 
ATOM     53  C   UNL A   1      43.685  32.686  32.973  1.00  0.00     0.029 A 
ATOM     54  C   UNL A   1      42.782  33.571  32.385  1.00  0.00     0.049 A 
ATOM     55  H   UNL A   1      43.255  34.733  30.688  1.00  0.00     0.167 HD
ATOM     56  C   UNL A   1      40.506  34.429  31.924  1.00  0.00     0.074 A 
ATOM     57  C   UNL A   1      40.563  34.753  30.503  1.00  0.00     0.031 C 
ATOM     58  C   UNL A   1      41.465  34.011  32.801  1.00  0.00     0.034 A 
BRANCH  45  59
ATOM     59  C   UNL A   1      44.311  33.308  28.240  1.00  0.00     0.023 A 
ATOM     60  C   UNL A   1      45.545  33.193  27.579  1.00  0.00     0.031 A 
ATOM     61  C   UNL A   1      43.559  34.472  27.935  1.00  0.00     0.131 A 
ATOM     62  C   UNL A   1      46.028  34.238  26.773  1.00  0.00     0.055 A 
ATOM     63  C   UNL A   1      44.009  35.468  27.067  1.00  0.00     0.041 A 
ATOM     64  F   UNL A   1      42.391  34.764  28.521  1.00  0.00    -0.206 F 
ATOM     65  C   UNL A   1      45.270  35.374  26.509  1.00  0.00     0.022 A 
BRANCH  62  66
ATOM     66  S   UNL A   1      47.761  34.175  26.253  1.00  0.00     0.124 S 
ATOM     67  O   UNL A   1      47.695  34.826  24.948  1.00  0.00    -0.237 OA
ATOM     68  O   UNL A   1      48.416  34.926  27.317  1.00  0.00    -0.237 OA
ATOM     69  O   UNL A   1      48.053  32.745  26.224  1.00  0.00    -0.744 OA
ENDBRANCH  62  66
ENDBRANCH  45  59
BRANCH  46  70
ATOM     70  C   UNL A   1      36.176  33.674  30.149  1.00  0.00     0.023 A 
ATOM     71  C   UNL A   1      35.188  34.369  30.879  1.00  0.00     0.031 A 
ATOM     72  C   UNL A   1      35.991  33.616  28.748  1.00  0.00     0.131 A 
ATOM     73  C   UNL A   1      34.072  34.934  30.214  1.00  0.00     0.055 A 
ATOM     74  C   UNL A   1      34.872  34.143  28.101  1.00  0.00     0.041 A 
ATOM     75  F   UNL A   1      36.936  33.113  27.937  1.00  0.00    -0.206 F 
ATOM     76  C   UNL A   1      33.907  34.811  28.833  1.00  0.00     0.022 A 
BRANCH  73  77
ATOM     77  S   UNL A   1      32.868  35.951  31.130  1.00  0.00     0.124 S 
ATOM     78  O   UNL A   1      32.301  34.993  32.070  1.00  0.00    -0.237 OA
ATOM     79  O   UNL A   1      33.708  37.000  31.694  1.00  0.00    -0.237 OA
ATOM     80  O   UNL A   1      31.945  36.406  30.087  1.00  0.00    -0.744 OA
ENDBRANCH  73  77
ENDBRANCH  46  70
BRANCH  58  81
ATOM     81  C   UNL A   1      41.070  33.726  34.233  1.00  0.00     0.023 A 
ATOM     82  C   UNL A   1      40.088  32.791  34.626  1.00  0.00     0.031 A 
ATOM     83  C   UNL A   1      41.821  34.349  35.246  1.00  0.00     0.131 A 
ATOM     84  C   UNL A   1      39.882  32.519  35.992  1.00  0.00     0.055 A 
ATOM     85  C   UNL A   1      41.631  34.060  36.597  1.00  0.00     0.041 A 
ATOM     86  F   UNL A   1      42.790  35.227  34.936  1.00  0.00    -0.206 F 
ATOM     87  C   UNL A   1      40.654  33.147  36.975  1.00  0.00     0.022 A 
BRANCH  84  88
ATOM     88  S   UNL A   1      38.589  31.350  36.516  1.00  0.00     0.124 S 
ATOM     89  O   UNL A   1      38.396  31.663  37.928  1.00  0.00    -0.237 OA
ATOM     90  O   UNL A   1      37.482  31.687  35.626  1.00  0.00    -0.237 OA
ATOM     91  O   UNL A   1      39.195  30.041  36.263  1.00  0.00    -0.744 OA
ENDBRANCH  84  88
ENDBRANCH  58  81
ENDBRANCH  32  33
ENDBRANCH  25  27
ENDBRANCH  24  25
ENDBRANCH   1  24
TORSDOF 16
ENDMDL
