MODEL 1
REMARK VINA RESULT:     -15.1      0.000      0.000
REMARK SMILES Cc1ccc(-c2nc(NC(=O)[C@H]3[C@@H](C(=O)OCCOC(=O)c4ccc(-c5c6nc(c(-c7cc(S(=O)(=O)[O-])ccc7F)c7ccc([nH]7)c(-c7cc(S(=O)(=O)[O-])ccc7F)c7nc(c(-c8cc(S(=O)(=O)[O-])ccc8F)c8ccc5[nH]8)C=C7)C=C6)cc4)[C@@H]4CC[C@H]3O4)sc2C)cc1
REMARK SMILES IDX 17 1 16 2 14 3 15 4 13 5 12 6 88 7 85 8 87 9 89 10 86 11
REMARK SMILES IDX 10 12 9 13 11 15 8 16 6 17 7 18 91 19 90 20 92 21 5 22 1 23
REMARK SMILES IDX 2 24 3 25 94 26 4 27 93 28 18 29 19 30 20 31 21 32 22 33
REMARK SMILES IDX 23 34 84 35 24 36 83 37 25 38 26 39 27 40 77 41 28 42 82 43
REMARK SMILES IDX 76 44 78 45 29 46 81 47 75 48 74 49 30 51 62 52 42 53 61 54
REMARK SMILES IDX 43 55 46 56 60 57 79 58 44 59 45 60 59 62 80 63 47 64 31 65
REMARK SMILES IDX 32 66 40 67 33 68 39 69 41 70 38 71 34 72 35 73 36 74 37 75
REMARK SMILES IDX 63 76 64 77 72 78 65 79 71 80 73 81 70 82 66 83 67 84 68 85
REMARK SMILES IDX 69 86 48 87 49 88 57 89 50 90 56 91 58 92 55 93 51 94 52 95
REMARK SMILES IDX 53 96 54 97
REMARK H PARENT 9 14 78 50 46 61
REMARK Flexibility Score: inf
ROOT
ATOM      1  C   UNL A   1      33.725  26.027  26.233  1.00  0.00     0.274 C 
ENDROOT
BRANCH   1   2
ATOM      2  O   UNL A   1      34.967  25.215  25.314  1.00  0.00    -0.462 OA
BRANCH   2   3
ATOM      3  C   UNL A   1      35.798  24.011  25.422  1.00  0.00     0.312 C 
ATOM      4  O   UNL A   1      37.003  24.008  25.188  1.00  0.00    -0.252 OA
BRANCH   3   5
ATOM      5  C   UNL A   1      35.016  22.591  25.654  1.00  0.00     0.143 C 
ATOM      6  C   UNL A   1      34.964  21.952  24.315  1.00  0.00     0.124 C 
ATOM      7  C   UNL A   1      33.706  21.112  24.252  1.00  0.00     0.132 C 
ATOM      8  C   UNL A   1      33.497  22.290  26.068  1.00  0.00     0.133 C 
ATOM      9  C   UNL A   1      33.651  20.039  25.330  1.00  0.00     0.035 C 
ATOM     10  O   UNL A   1      32.799  22.095  24.783  1.00  0.00    -0.373 OA
ATOM     11  C   UNL A   1      33.180  20.861  26.527  1.00  0.00     0.036 C 
BRANCH   6  12
ATOM     12  C   UNL A   1      34.739  23.018  23.284  1.00  0.00     0.232 C 
ATOM     13  N   UNL A   1      33.330  23.515  23.089  1.00  0.00    -0.302 N 
ATOM     14  H   UNL A   1      32.769  22.709  23.023  1.00  0.00     0.172 HD
ATOM     15  O   UNL A   1      35.780  23.257  22.668  1.00  0.00    -0.274 OA
BRANCH  13  16
ATOM     16  C   UNL A   1      32.338  24.744  22.942  1.00  0.00     0.190 A 
ATOM     17  C   UNL A   1      31.395  26.738  23.482  1.00  0.00     0.086 A 
ATOM     18  N   UNL A   1      32.497  26.073  22.803  1.00  0.00    -0.220 NA
ATOM     19  C   UNL A   1      30.814  25.863  24.387  1.00  0.00     0.031 A 
ATOM     20  S   UNL A   1      30.647  24.523  23.409  1.00  0.00    -0.101 S 
ATOM     21  C   UNL A   1      30.026  25.883  25.623  1.00  0.00     0.059 C 
BRANCH  17  22
ATOM     22  C   UNL A   1      30.774  28.076  23.348  1.00  0.00     0.001 A 
ATOM     23  C   UNL A   1      27.792  31.221  23.599  1.00  0.00     0.044 C 
ATOM     24  C   UNL A   1      28.927  30.258  23.383  1.00  0.00    -0.051 A 
ATOM     25  C   UNL A   1      28.746  29.210  22.493  1.00  0.00     0.004 A 
ATOM     26  C   UNL A   1      30.104  30.274  24.153  1.00  0.00     0.004 A 
ATOM     27  C   UNL A   1      29.678  28.173  22.448  1.00  0.00     0.010 A 
ATOM     28  C   UNL A   1      31.024  29.187  24.145  1.00  0.00     0.010 A 
ENDBRANCH  17  22
ENDBRANCH  13  16
ENDBRANCH   6  12
ENDBRANCH   3   5
ENDBRANCH   2   3
ENDBRANCH   1   2
BRANCH   1  29
ATOM     29  C   UNL A   1      33.372  27.875  26.496  1.00  0.00     0.275 C 
BRANCH  29  30
ATOM     30  O   UNL A   1      34.299  29.128  27.456  1.00  0.00    -0.458 OA
BRANCH  30  31
ATOM     31  C   UNL A   1      35.471  29.861  28.125  1.00  0.00     0.338 C 
ATOM     32  O   UNL A   1      35.161  30.806  28.853  1.00  0.00    -0.246 OA
BRANCH  31  33
ATOM     33  C   UNL A   1      37.123  29.574  28.035  1.00  0.00     0.060 A 
ATOM     34  C   UNL A   1      38.040  29.769  26.985  1.00  0.00     0.016 A 
ATOM     35  C   UNL A   1      37.848  29.105  29.095  1.00  0.00     0.016 A 
ATOM     36  C   UNL A   1      39.454  29.292  27.057  1.00  0.00     0.010 A 
ATOM     37  C   UNL A   1      39.056  28.460  29.162  1.00  0.00     0.010 A 
ATOM     38  C   UNL A   1      39.943  28.560  28.160  1.00  0.00    -0.014 A 
BRANCH  38  39
ATOM     39  C   UNL A   1      41.045  27.603  28.442  1.00  0.00     0.031 A 
ATOM     40  C   UNL A   1      40.929  26.088  28.391  1.00  0.00     0.074 A 
ATOM     41  C   UNL A   1      42.228  28.085  27.987  1.00  0.00     0.049 A 
ATOM     42  N   UNL A   1      41.845  25.273  28.804  1.00  0.00    -0.248 NA
ATOM     43  C   UNL A   1      39.843  25.350  27.731  1.00  0.00     0.031 C 
ATOM     44  C   UNL A   1      43.481  27.441  27.621  1.00  0.00     0.029 A 
ATOM     45  N   UNL A   1      42.503  29.425  27.718  1.00  0.00    -0.354 N 
ATOM     46  C   UNL A   1      41.680  24.052  28.155  1.00  0.00     0.074 A 
ATOM     47  C   UNL A   1      40.366  24.128  27.572  1.00  0.00     0.031 C 
ATOM     48  C   UNL A   1      44.454  28.377  27.599  1.00  0.00     0.029 A 
ATOM     49  C   UNL A   1      43.857  29.662  27.946  1.00  0.00     0.049 A 
ATOM     50  H   UNL A   1      41.846  30.094  27.417  1.00  0.00     0.167 HD
ATOM     51  C   UNL A   1      42.729  23.176  28.016  1.00  0.00     0.034 A 
ATOM     52  C   UNL A   1      44.170  30.453  29.008  1.00  0.00     0.034 A 
ATOM     53  C   UNL A   1      43.987  23.825  28.440  1.00  0.00     0.049 A 
ATOM     54  C   UNL A   1      44.609  29.508  30.119  1.00  0.00     0.074 A 
ATOM     55  C   UNL A   1      45.159  24.170  27.785  1.00  0.00     0.029 A 
ATOM     56  N   UNL A   1      44.031  24.512  29.659  1.00  0.00    -0.354 N 
ATOM     57  N   UNL A   1      44.312  28.227  30.132  1.00  0.00    -0.248 NA
ATOM     58  C   UNL A   1      45.591  29.840  31.140  1.00  0.00     0.031 C 
ATOM     59  C   UNL A   1      45.826  25.168  28.569  1.00  0.00     0.029 A 
ATOM     60  C   UNL A   1      45.080  25.411  29.716  1.00  0.00     0.049 A 
ATOM     61  H   UNL A   1      43.388  24.371  30.391  1.00  0.00     0.167 HD
ATOM     62  C   UNL A   1      45.179  27.548  30.932  1.00  0.00     0.074 A 
ATOM     63  C   UNL A   1      45.907  28.617  31.610  1.00  0.00     0.031 C 
ATOM     64  C   UNL A   1      45.325  26.182  30.938  1.00  0.00     0.034 A 
BRANCH  51  65
ATOM     65  C   UNL A   1      42.686  21.828  27.265  1.00  0.00     0.023 A 
ATOM     66  C   UNL A   1      43.738  21.439  26.396  1.00  0.00     0.031 A 
ATOM     67  C   UNL A   1      41.675  20.848  27.410  1.00  0.00     0.131 A 
ATOM     68  C   UNL A   1      43.708  20.220  25.669  1.00  0.00     0.055 A 
ATOM     69  C   UNL A   1      41.614  19.665  26.647  1.00  0.00     0.041 A 
ATOM     70  F   UNL A   1      40.735  20.940  28.361  1.00  0.00    -0.206 F 
ATOM     71  C   UNL A   1      42.629  19.350  25.762  1.00  0.00     0.022 A 
BRANCH  68  72
ATOM     72  S   UNL A   1      45.137  19.732  24.647  1.00  0.00     0.124 S 
ATOM     73  O   UNL A   1      45.227  18.299  24.907  1.00  0.00    -0.237 OA
ATOM     74  O   UNL A   1      44.713  20.122  23.308  1.00  0.00    -0.237 OA
ATOM     75  O   UNL A   1      46.237  20.528  25.194  1.00  0.00    -0.744 OA
ENDBRANCH  68  72
ENDBRANCH  51  65
BRANCH  52  76
ATOM     76  C   UNL A   1      43.403  31.762  28.992  1.00  0.00     0.023 A 
ATOM     77  C   UNL A   1      42.386  31.942  29.983  1.00  0.00     0.031 A 
ATOM     78  C   UNL A   1      43.842  32.931  28.352  1.00  0.00     0.131 A 
ATOM     79  C   UNL A   1      41.926  33.228  30.370  1.00  0.00     0.055 A 
ATOM     80  C   UNL A   1      43.372  34.211  28.728  1.00  0.00     0.041 A 
ATOM     81  F   UNL A   1      44.815  32.880  27.430  1.00  0.00    -0.206 F 
ATOM     82  C   UNL A   1      42.441  34.369  29.759  1.00  0.00     0.022 A 
BRANCH  79  83
ATOM     83  S   UNL A   1      40.894  33.454  31.890  1.00  0.00     0.124 S 
ATOM     84  O   UNL A   1      39.946  34.445  31.495  1.00  0.00    -0.237 OA
ATOM     85  O   UNL A   1      40.364  32.099  32.131  1.00  0.00    -0.237 OA
ATOM     86  O   UNL A   1      41.881  33.880  32.899  1.00  0.00    -0.744 OA
ENDBRANCH  79  83
ENDBRANCH  52  76
BRANCH  64  87
ATOM     87  C   UNL A   1      45.774  25.420  32.160  1.00  0.00     0.023 A 
ATOM     88  C   UNL A   1      44.918  24.542  32.827  1.00  0.00     0.031 A 
ATOM     89  C   UNL A   1      47.120  25.425  32.605  1.00  0.00     0.131 A 
ATOM     90  C   UNL A   1      45.354  23.806  33.931  1.00  0.00     0.055 A 
ATOM     91  C   UNL A   1      47.582  24.596  33.626  1.00  0.00     0.041 A 
ATOM     92  F   UNL A   1      48.057  26.213  32.059  1.00  0.00    -0.206 F 
ATOM     93  C   UNL A   1      46.690  23.794  34.316  1.00  0.00     0.022 A 
BRANCH  90  94
ATOM     94  S   UNL A   1      44.089  22.962  34.898  1.00  0.00     0.124 S 
ATOM     95  O   UNL A   1      44.458  21.561  34.707  1.00  0.00    -0.237 OA
ATOM     96  O   UNL A   1      44.310  23.494  36.239  1.00  0.00    -0.237 OA
ATOM     97  O   UNL A   1      42.842  23.371  34.259  1.00  0.00    -0.744 OA
ENDBRANCH  90  94
ENDBRANCH  64  87
ENDBRANCH  38  39
ENDBRANCH  31  33
ENDBRANCH  30  31
ENDBRANCH  29  30
ENDBRANCH   1  29
TORSDOF 17
ENDMDL
MODEL 2
REMARK VINA RESULT:     -14.6      3.941     10.520
REMARK SMILES Cc1ccc(-c2nc(NC(=O)[C@H]3[C@@H](C(=O)OCCOC(=O)c4ccc(-c5c6nc(c(-c7cc(S(=O)(=O)[O-])ccc7F)c7ccc([nH]7)c(-c7cc(S(=O)(=O)[O-])ccc7F)c7nc(c(-c8cc(S(=O)(=O)[O-])ccc8F)c8ccc5[nH]8)C=C7)C=C6)cc4)[C@@H]4CC[C@H]3O4)sc2C)cc1
REMARK SMILES IDX 17 1 16 2 14 3 15 4 13 5 12 6 88 7 85 8 87 9 89 10 86 11
REMARK SMILES IDX 10 12 9 13 11 15 8 16 6 17 7 18 91 19 90 20 92 21 5 22 1 23
REMARK SMILES IDX 2 24 3 25 94 26 4 27 93 28 18 29 19 30 20 31 21 32 22 33
REMARK SMILES IDX 23 34 84 35 24 36 83 37 25 38 26 39 27 40 77 41 28 42 82 43
REMARK SMILES IDX 76 44 78 45 29 46 81 47 75 48 74 49 30 51 62 52 42 53 61 54
REMARK SMILES IDX 43 55 46 56 60 57 79 58 44 59 45 60 59 62 80 63 47 64 31 65
REMARK SMILES IDX 32 66 40 67 33 68 39 69 41 70 38 71 34 72 35 73 36 74 37 75
REMARK SMILES IDX 63 76 64 77 72 78 65 79 71 80 73 81 70 82 66 83 67 84 68 85
REMARK SMILES IDX 69 86 48 87 49 88 57 89 50 90 56 91 58 92 55 93 51 94 52 95
REMARK SMILES IDX 53 96 54 97
REMARK H PARENT 9 14 78 50 46 61
REMARK Flexibility Score: inf
ROOT
ATOM      1  C   UNL A   1      34.885  25.131  25.120  1.00  0.00     0.274 C 
ENDROOT
BRANCH   1   2
ATOM      2  O   UNL A   1      33.871  26.198  26.058  1.00  0.00    -0.462 OA
BRANCH   2   3
ATOM      3  C   UNL A   1      33.580  27.633  26.147  1.00  0.00     0.312 C 
ATOM      4  O   UNL A   1      33.834  28.305  27.141  1.00  0.00    -0.252 OA
BRANCH   3   5
ATOM      5  C   UNL A   1      32.684  28.282  24.940  1.00  0.00     0.143 C 
ATOM      6  C   UNL A   1      31.283  28.239  25.429  1.00  0.00     0.124 C 
ATOM      7  C   UNL A   1      30.377  28.083  24.225  1.00  0.00     0.132 C 
ATOM      8  C   UNL A   1      32.385  27.750  23.458  1.00  0.00     0.133 C 
ATOM      9  C   UNL A   1      30.529  29.210  23.214  1.00  0.00     0.035 C 
ATOM     10  O   UNL A   1      31.107  27.023  23.581  1.00  0.00    -0.373 OA
ATOM     11  C   UNL A   1      31.785  28.761  22.472  1.00  0.00     0.036 C 
BRANCH   6  12
ATOM     12  C   UNL A   1      31.083  26.969  26.200  1.00  0.00     0.232 C 
ATOM     13  N   UNL A   1      30.856  25.703  25.414  1.00  0.00    -0.302 N 
ATOM     14  H   UNL A   1      30.173  25.926  24.741  1.00  0.00     0.172 HD
ATOM     15  O   UNL A   1      31.040  27.194  27.412  1.00  0.00    -0.274 OA
BRANCH  13  16
ATOM     16  C   UNL A   1      31.215  24.177  25.176  1.00  0.00     0.190 A 
ATOM     17  C   UNL A   1      32.564  22.379  24.849  1.00  0.00     0.086 A 
ATOM     18  N   UNL A   1      31.964  23.271  25.831  1.00  0.00    -0.220 NA
ATOM     19  C   UNL A   1      32.541  22.982  23.601  1.00  0.00     0.031 A 
ATOM     20  S   UNL A   1      30.953  23.490  23.567  1.00  0.00    -0.101 S 
ATOM     21  C   UNL A   1      33.250  22.940  22.319  1.00  0.00     0.059 C 
BRANCH  17  22
ATOM     22  C   UNL A   1      33.103  21.001  24.920  1.00  0.00     0.001 A 
ATOM     23  C   UNL A   1      34.344  17.047  23.626  1.00  0.00     0.044 C 
ATOM     24  C   UNL A   1      33.926  18.342  24.267  1.00  0.00    -0.051 A 
ATOM     25  C   UNL A   1      32.578  18.665  24.289  1.00  0.00     0.004 A 
ATOM     26  C   UNL A   1      34.845  19.314  24.705  1.00  0.00     0.004 A 
ATOM     27  C   UNL A   1      32.182  19.951  24.656  1.00  0.00     0.010 A 
ATOM     28  C   UNL A   1      34.441  20.642  25.024  1.00  0.00     0.010 A 
ENDBRANCH  17  22
ENDBRANCH  13  16
ENDBRANCH   6  12
ENDBRANCH   3   5
ENDBRANCH   2   3
ENDBRANCH   1   2
BRANCH   1  29
ATOM     29  C   UNL A   1      36.284  23.957  25.642  1.00  0.00     0.275 C 
BRANCH  29  30
ATOM     30  O   UNL A   1      38.054  24.298  25.958  1.00  0.00    -0.458 OA
BRANCH  30  31
ATOM     31  C   UNL A   1      39.326  24.822  26.640  1.00  0.00     0.338 C 
ATOM     32  O   UNL A   1      40.386  24.352  26.221  1.00  0.00    -0.246 OA
BRANCH  31  33
ATOM     33  C   UNL A   1      39.512  25.952  27.868  1.00  0.00     0.060 A 
ATOM     34  C   UNL A   1      38.921  26.039  29.143  1.00  0.00     0.016 A 
ATOM     35  C   UNL A   1      40.379  27.004  27.776  1.00  0.00     0.016 A 
ATOM     36  C   UNL A   1      39.102  27.227  30.030  1.00  0.00     0.010 A 
ATOM     37  C   UNL A   1      40.430  28.207  28.432  1.00  0.00     0.010 A 
ATOM     38  C   UNL A   1      39.829  28.365  29.621  1.00  0.00    -0.014 A 
BRANCH  38  39
ATOM     39  C   UNL A   1      39.896  29.809  29.967  1.00  0.00     0.031 A 
ATOM     40  C   UNL A   1      38.705  30.750  30.053  1.00  0.00     0.074 A 
ATOM     41  C   UNL A   1      40.851  30.034  30.904  1.00  0.00     0.049 A 
ATOM     42  N   UNL A   1      38.799  32.033  30.187  1.00  0.00    -0.248 NA
ATOM     43  C   UNL A   1      37.302  30.323  30.153  1.00  0.00     0.031 C 
ATOM     44  C   UNL A   1      41.053  31.104  31.869  1.00  0.00     0.029 A 
ATOM     45  N   UNL A   1      41.920  29.186  31.186  1.00  0.00    -0.354 N 
ATOM     46  C   UNL A   1      37.619  32.509  30.752  1.00  0.00     0.074 A 
ATOM     47  C   UNL A   1      36.691  31.417  30.624  1.00  0.00     0.031 C 
ATOM     48  C   UNL A   1      42.332  31.059  32.298  1.00  0.00     0.029 A 
ATOM     49  C   UNL A   1      42.999  29.950  31.624  1.00  0.00     0.049 A 
ATOM     50  H   UNL A   1      41.913  28.206  31.090  1.00  0.00     0.167 HD
ATOM     51  C   UNL A   1      37.591  33.700  31.436  1.00  0.00     0.034 A 
ATOM     52  C   UNL A   1      44.077  30.020  30.797  1.00  0.00     0.034 A 
ATOM     53  C   UNL A   1      38.968  34.202  31.631  1.00  0.00     0.049 A 
ATOM     54  C   UNL A   1      43.981  31.371  30.098  1.00  0.00     0.074 A 
ATOM     55  C   UNL A   1      39.758  34.435  32.746  1.00  0.00     0.029 A 
ATOM     56  N   UNL A   1      39.848  34.239  30.543  1.00  0.00    -0.354 N 
ATOM     57  N   UNL A   1      42.867  32.065  30.026  1.00  0.00    -0.248 NA
ATOM     58  C   UNL A   1      45.128  32.151  29.659  1.00  0.00     0.031 C 
ATOM     59  C   UNL A   1      41.125  34.474  32.319  1.00  0.00     0.029 A 
ATOM     60  C   UNL A   1      41.171  34.297  30.941  1.00  0.00     0.049 A 
ATOM     61  H   UNL A   1      39.558  34.223  29.602  1.00  0.00     0.167 HD
ATOM     62  C   UNL A   1      43.142  33.378  29.789  1.00  0.00     0.074 A 
ATOM     63  C   UNL A   1      44.568  33.364  29.479  1.00  0.00     0.031 C 
ATOM     64  C   UNL A   1      42.238  34.401  29.942  1.00  0.00     0.034 A 
BRANCH  51  65
ATOM     65  C   UNL A   1      36.365  34.299  32.159  1.00  0.00     0.023 A 
ATOM     66  C   UNL A   1      35.284  34.856  31.429  1.00  0.00     0.031 A 
ATOM     67  C   UNL A   1      36.164  34.291  33.560  1.00  0.00     0.131 A 
ATOM     68  C   UNL A   1      34.160  35.442  32.069  1.00  0.00     0.055 A 
ATOM     69  C   UNL A   1      35.078  34.922  34.199  1.00  0.00     0.041 A 
ATOM     70  F   UNL A   1      36.961  33.598  34.383  1.00  0.00    -0.206 F 
ATOM     71  C   UNL A   1      34.073  35.512  33.454  1.00  0.00     0.022 A 
BRANCH  68  72
ATOM     72  S   UNL A   1      32.759  36.051  31.076  1.00  0.00     0.124 S 
ATOM     73  O   UNL A   1      33.228  37.366  30.652  1.00  0.00    -0.237 OA
ATOM     74  O   UNL A   1      32.648  35.037  30.033  1.00  0.00    -0.237 OA
ATOM     75  O   UNL A   1      31.647  36.070  32.027  1.00  0.00    -0.744 OA
ENDBRANCH  68  72
ENDBRANCH  51  65
BRANCH  52  76
ATOM     76  C   UNL A   1      44.550  28.648  30.357  1.00  0.00     0.023 A 
ATOM     77  C   UNL A   1      44.465  28.337  28.962  1.00  0.00     0.031 A 
ATOM     78  C   UNL A   1      45.391  27.818  31.115  1.00  0.00     0.131 A 
ATOM     79  C   UNL A   1      45.259  27.324  28.363  1.00  0.00     0.055 A 
ATOM     80  C   UNL A   1      46.171  26.799  30.519  1.00  0.00     0.041 A 
ATOM     81  F   UNL A   1      45.569  28.041  32.425  1.00  0.00    -0.206 F 
ATOM     82  C   UNL A   1      46.135  26.570  29.140  1.00  0.00     0.022 A 
BRANCH  79  83
ATOM     83  S   UNL A   1      45.403  27.190  26.522  1.00  0.00     0.124 S 
ATOM     84  O   UNL A   1      44.681  28.330  26.056  1.00  0.00    -0.237 OA
ATOM     85  O   UNL A   1      46.862  27.204  26.305  1.00  0.00    -0.237 OA
ATOM     86  O   UNL A   1      44.784  25.882  26.238  1.00  0.00    -0.744 OA
ENDBRANCH  79  83
ENDBRANCH  52  76
BRANCH  64  87
ATOM     87  C   UNL A   1      42.314  35.676  29.141  1.00  0.00     0.023 A 
ATOM     88  C   UNL A   1      43.299  36.634  29.387  1.00  0.00     0.031 A 
ATOM     89  C   UNL A   1      41.503  35.906  28.001  1.00  0.00     0.131 A 
ATOM     90  C   UNL A   1      43.390  37.793  28.612  1.00  0.00     0.055 A 
ATOM     91  C   UNL A   1      41.679  37.001  27.156  1.00  0.00     0.041 A 
ATOM     92  F   UNL A   1      40.519  35.072  27.637  1.00  0.00    -0.206 F 
ATOM     93  C   UNL A   1      42.615  37.970  27.473  1.00  0.00     0.022 A 
BRANCH  90  94
ATOM     94  S   UNL A   1      44.480  39.095  29.220  1.00  0.00     0.124 S 
ATOM     95  O   UNL A   1      44.924  38.536  30.495  1.00  0.00    -0.237 OA
ATOM     96  O   UNL A   1      45.497  39.167  28.176  1.00  0.00    -0.237 OA
ATOM     97  O   UNL A   1      43.601  40.256  29.321  1.00  0.00    -0.744 OA
ENDBRANCH  90  94
ENDBRANCH  64  87
ENDBRANCH  38  39
ENDBRANCH  31  33
ENDBRANCH  30  31
ENDBRANCH  29  30
ENDBRANCH   1  29
TORSDOF 17
ENDMDL
MODEL 3
REMARK VINA RESULT:     -14.6      2.619      5.140
REMARK SMILES Cc1ccc(-c2nc(NC(=O)[C@H]3[C@@H](C(=O)OCCOC(=O)c4ccc(-c5c6nc(c(-c7cc(S(=O)(=O)[O-])ccc7F)c7ccc([nH]7)c(-c7cc(S(=O)(=O)[O-])ccc7F)c7nc(c(-c8cc(S(=O)(=O)[O-])ccc8F)c8ccc5[nH]8)C=C7)C=C6)cc4)[C@@H]4CC[C@H]3O4)sc2C)cc1
REMARK SMILES IDX 17 1 16 2 14 3 15 4 13 5 12 6 88 7 85 8 87 9 89 10 86 11
REMARK SMILES IDX 10 12 9 13 11 15 8 16 6 17 7 18 91 19 90 20 92 21 5 22 1 23
REMARK SMILES IDX 2 24 3 25 94 26 4 27 93 28 18 29 19 30 20 31 21 32 22 33
REMARK SMILES IDX 23 34 84 35 24 36 83 37 25 38 26 39 27 40 77 41 28 42 82 43
REMARK SMILES IDX 76 44 78 45 29 46 81 47 75 48 74 49 30 51 62 52 42 53 61 54
REMARK SMILES IDX 43 55 46 56 60 57 79 58 44 59 45 60 59 62 80 63 47 64 31 65
REMARK SMILES IDX 32 66 40 67 33 68 39 69 41 70 38 71 34 72 35 73 36 74 37 75
REMARK SMILES IDX 63 76 64 77 72 78 65 79 71 80 73 81 70 82 66 83 67 84 68 85
REMARK SMILES IDX 69 86 48 87 49 88 57 89 50 90 56 91 58 92 55 93 51 94 52 95
REMARK SMILES IDX 53 96 54 97
REMARK H PARENT 9 14 78 50 46 61
REMARK Flexibility Score: inf
ROOT
ATOM      1  C   UNL A   1      33.026  29.648  27.217  1.00  0.00     0.274 C 
ENDROOT
BRANCH   1   2
ATOM      2  O   UNL A   1      33.508  28.160  26.443  1.00  0.00    -0.462 OA
BRANCH   2   3
ATOM      3  C   UNL A   1      33.073  27.319  25.323  1.00  0.00     0.312 C 
ATOM      4  O   UNL A   1      33.618  26.257  25.035  1.00  0.00    -0.252 OA
BRANCH   3   5
ATOM      5  C   UNL A   1      31.957  27.956  24.309  1.00  0.00     0.143 C 
ATOM      6  C   UNL A   1      30.651  27.729  24.975  1.00  0.00     0.124 C 
ATOM      7  C   UNL A   1      29.602  27.566  23.895  1.00  0.00     0.132 C 
ATOM      8  C   UNL A   1      31.503  27.506  22.839  1.00  0.00     0.133 C 
ATOM      9  C   UNL A   1      29.501  28.774  22.975  1.00  0.00     0.035 C 
ATOM     10  O   UNL A   1      30.330  26.640  23.068  1.00  0.00    -0.373 OA
ATOM     11  C   UNL A   1      30.675  28.517  22.036  1.00  0.00     0.036 C 
BRANCH   6  12
ATOM     12  C   UNL A   1      30.684  26.391  25.652  1.00  0.00     0.232 C 
ATOM     13  N   UNL A   1      30.442  25.171  24.800  1.00  0.00    -0.302 N 
ATOM     14  H   UNL A   1      29.644  25.376  24.262  1.00  0.00     0.172 HD
ATOM     15  O   UNL A   1      30.816  26.520  26.871  1.00  0.00    -0.274 OA
BRANCH  13  16
ATOM     16  C   UNL A   1      30.885  23.709  24.376  1.00  0.00     0.190 A 
ATOM     17  C   UNL A   1      32.066  21.772  24.493  1.00  0.00     0.086 A 
ATOM     18  N   UNL A   1      30.922  22.517  24.998  1.00  0.00    -0.220 NA
ATOM     19  C   UNL A   1      32.961  22.648  23.899  1.00  0.00     0.031 A 
ATOM     20  S   UNL A   1      31.907  23.520  22.945  1.00  0.00    -0.101 S 
ATOM     21  C   UNL A   1      34.387  22.749  23.574  1.00  0.00     0.059 C 
BRANCH  17  22
ATOM     22  C   UNL A   1      32.401  20.330  24.439  1.00  0.00     0.001 A 
ATOM     23  C   UNL A   1      34.409  16.661  23.280  1.00  0.00     0.044 C 
ATOM     24  C   UNL A   1      33.567  17.810  23.762  1.00  0.00    -0.051 A 
ATOM     25  C   UNL A   1      32.758  18.468  22.848  1.00  0.00     0.004 A 
ATOM     26  C   UNL A   1      33.677  18.351  25.057  1.00  0.00     0.004 A 
ATOM     27  C   UNL A   1      32.153  19.673  23.204  1.00  0.00     0.010 A 
ATOM     28  C   UNL A   1      33.104  19.610  25.397  1.00  0.00     0.010 A 
ENDBRANCH  17  22
ENDBRANCH  13  16
ENDBRANCH   6  12
ENDBRANCH   3   5
ENDBRANCH   2   3
ENDBRANCH   1   2
BRANCH   1  29
ATOM     29  C   UNL A   1      33.960  31.282  27.475  1.00  0.00     0.275 C 
BRANCH  29  30
ATOM     30  O   UNL A   1      35.669  31.585  28.057  1.00  0.00    -0.458 OA
BRANCH  30  31
ATOM     31  C   UNL A   1      37.094  31.315  28.558  1.00  0.00     0.338 C 
ATOM     32  O   UNL A   1      37.788  32.315  28.752  1.00  0.00    -0.246 OA
BRANCH  31  33
ATOM     33  C   UNL A   1      37.866  29.864  28.902  1.00  0.00     0.060 A 
ATOM     34  C   UNL A   1      37.615  28.894  29.890  1.00  0.00     0.016 A 
ATOM     35  C   UNL A   1      38.911  29.391  28.157  1.00  0.00     0.016 A 
ATOM     36  C   UNL A   1      38.532  27.739  30.130  1.00  0.00     0.010 A 
ATOM     37  C   UNL A   1      39.901  28.487  28.443  1.00  0.00     0.010 A 
ATOM     38  C   UNL A   1      39.741  27.580  29.420  1.00  0.00    -0.014 A 
BRANCH  38  39
ATOM     39  C   UNL A   1      41.045  26.893  29.609  1.00  0.00     0.031 A 
ATOM     40  C   UNL A   1      41.541  25.708  28.797  1.00  0.00     0.074 A 
ATOM     41  C   UNL A   1      42.014  27.784  29.940  1.00  0.00     0.049 A 
ATOM     42  N   UNL A   1      42.597  25.018  29.085  1.00  0.00    -0.248 NA
ATOM     43  C   UNL A   1      40.987  25.285  27.503  1.00  0.00     0.031 C 
ATOM     44  C   UNL A   1      43.464  27.751  29.827  1.00  0.00     0.029 A 
ATOM     45  N   UNL A   1      41.794  29.051  30.478  1.00  0.00    -0.354 N 
ATOM     46  C   UNL A   1      43.055  24.401  27.924  1.00  0.00     0.074 A 
ATOM     47  C   UNL A   1      41.965  24.526  26.993  1.00  0.00     0.031 C 
ATOM     48  C   UNL A   1      43.978  28.702  30.636  1.00  0.00     0.029 A 
ATOM     49  C   UNL A   1      42.872  29.387  31.295  1.00  0.00     0.049 A 
ATOM     50  H   UNL A   1      41.006  29.616  30.307  1.00  0.00     0.167 HD
ATOM     51  C   UNL A   1      44.367  24.011  27.800  1.00  0.00     0.034 A 
ATOM     52  C   UNL A   1      42.629  29.456  32.631  1.00  0.00     0.034 A 
ATOM     53  C   UNL A   1      45.158  24.537  28.933  1.00  0.00     0.049 A 
ATOM     54  C   UNL A   1      43.163  28.158  33.223  1.00  0.00     0.074 A 
ATOM     55  C   UNL A   1      46.211  25.433  29.036  1.00  0.00     0.029 A 
ATOM     56  N   UNL A   1      44.682  24.377  30.238  1.00  0.00    -0.354 N 
ATOM     57  N   UNL A   1      43.392  27.081  32.503  1.00  0.00    -0.248 NA
ATOM     58  C   UNL A   1      43.708  28.030  34.566  1.00  0.00     0.031 C 
ATOM     59  C   UNL A   1      46.261  25.901  30.389  1.00  0.00     0.029 A 
ATOM     60  C   UNL A   1      45.263  25.269  31.121  1.00  0.00     0.049 A 
ATOM     61  H   UNL A   1      44.009  23.706  30.499  1.00  0.00     0.167 HD
ATOM     62  C   UNL A   1      44.272  26.262  33.143  1.00  0.00     0.074 A 
ATOM     63  C   UNL A   1      44.371  26.861  34.471  1.00  0.00     0.031 C 
ATOM     64  C   UNL A   1      44.933  25.215  32.548  1.00  0.00     0.034 A 
BRANCH  51  65
ATOM     65  C   UNL A   1      45.007  23.379  26.545  1.00  0.00     0.023 A 
ATOM     66  C   UNL A   1      44.793  22.015  26.221  1.00  0.00     0.031 A 
ATOM     67  C   UNL A   1      45.780  24.079  25.587  1.00  0.00     0.131 A 
ATOM     68  C   UNL A   1      45.395  21.402  25.091  1.00  0.00     0.055 A 
ATOM     69  C   UNL A   1      46.426  23.460  24.499  1.00  0.00     0.041 A 
ATOM     70  F   UNL A   1      45.884  25.414  25.604  1.00  0.00    -0.206 F 
ATOM     71  C   UNL A   1      46.244  22.111  24.250  1.00  0.00     0.022 A 
BRANCH  68  72
ATOM     72  S   UNL A   1      45.001  19.672  24.674  1.00  0.00     0.124 S 
ATOM     73  O   UNL A   1      44.529  19.786  23.298  1.00  0.00    -0.237 OA
ATOM     74  O   UNL A   1      46.283  19.002  24.864  1.00  0.00    -0.237 OA
ATOM     75  O   UNL A   1      43.973  19.309  25.650  1.00  0.00    -0.744 OA
ENDBRANCH  68  72
ENDBRANCH  51  65
BRANCH  52  76
ATOM     76  C   UNL A   1      41.434  30.335  32.951  1.00  0.00     0.023 A 
ATOM     77  C   UNL A   1      41.501  31.709  32.555  1.00  0.00     0.031 A 
ATOM     78  C   UNL A   1      40.151  29.851  33.251  1.00  0.00     0.131 A 
ATOM     79  C   UNL A   1      40.338  32.503  32.376  1.00  0.00     0.055 A 
ATOM     80  C   UNL A   1      38.993  30.647  33.086  1.00  0.00     0.041 A 
ATOM     81  F   UNL A   1      39.970  28.569  33.601  1.00  0.00    -0.206 F 
ATOM     82  C   UNL A   1      39.078  31.961  32.616  1.00  0.00     0.022 A 
BRANCH  79  83
ATOM     83  S   UNL A   1      40.426  34.142  31.521  1.00  0.00     0.124 S 
ATOM     84  O   UNL A   1      39.098  34.649  31.653  1.00  0.00    -0.237 OA
ATOM     85  O   UNL A   1      41.476  34.850  32.276  1.00  0.00    -0.237 OA
ATOM     86  O   UNL A   1      40.836  33.779  30.152  1.00  0.00    -0.744 OA
ENDBRANCH  79  83
ENDBRANCH  52  76
BRANCH  64  87
ATOM     87  C   UNL A   1      45.384  23.999  33.318  1.00  0.00     0.023 A 
ATOM     88  C   UNL A   1      46.630  23.954  33.945  1.00  0.00     0.031 A 
ATOM     89  C   UNL A   1      44.521  22.906  33.583  1.00  0.00     0.131 A 
ATOM     90  C   UNL A   1      47.024  22.841  34.693  1.00  0.00     0.055 A 
ATOM     91  C   UNL A   1      44.869  21.856  34.431  1.00  0.00     0.041 A 
ATOM     92  F   UNL A   1      43.293  22.812  33.053  1.00  0.00    -0.206 F 
ATOM     93  C   UNL A   1      46.141  21.806  34.976  1.00  0.00     0.022 A 
BRANCH  90  94
ATOM     94  S   UNL A   1      48.757  22.759  35.179  1.00  0.00     0.124 S 
ATOM     95  O   UNL A   1      48.780  23.648  36.339  1.00  0.00    -0.237 OA
ATOM     96  O   UNL A   1      48.936  21.341  35.470  1.00  0.00    -0.237 OA
ATOM     97  O   UNL A   1      49.466  23.252  34.002  1.00  0.00    -0.744 OA
ENDBRANCH  90  94
ENDBRANCH  64  87
ENDBRANCH  38  39
ENDBRANCH  31  33
ENDBRANCH  30  31
ENDBRANCH  29  30
ENDBRANCH   1  29
TORSDOF 17
ENDMDL
