MODEL 1
REMARK VINA RESULT:     -11.2      0.000      0.000
REMARK SMILES COC[C@H]1CC[N@@H+]([C@H]2CCC[C@]([NH2+]C(C)C)(C(=O)OCCOC(=O)c3ccc(-c4c5nc(c(-c6cc(S(=O)(=O)[O-])ccc6F)c6ccc([nH]6)c(-c6cc(S(=O)(=O)[O-])ccc6F)c6nc(c(-c7cc(S(=O)(=O)[O-])ccc7F)c7ccc4[nH]7)C=C6)C=C5)cc3)C2)C1
REMARK SMILES IDX 20 1 19 2 17 3 18 4 12 5 8 6 9 7 88 8 10 9 11 10 7 11 4 12
REMARK SMILES IDX 5 13 89 14 6 15 3 17 2 18 1 19 13 20 14 23 15 24 16 25 21 26
REMARK SMILES IDX 22 27 23 28 24 29 25 30 26 31 87 32 27 33 86 34 28 35 29 36
REMARK SMILES IDX 30 37 80 38 31 39 85 40 79 41 81 42 32 43 84 44 78 45 77 46
REMARK SMILES IDX 33 48 65 49 45 50 64 51 46 52 49 53 63 54 82 55 47 56 48 57
REMARK SMILES IDX 62 59 83 60 50 61 34 62 35 63 43 64 36 65 42 66 44 67 41 68
REMARK SMILES IDX 37 69 38 70 39 71 40 72 66 73 67 74 75 75 68 76 74 77 76 78
REMARK SMILES IDX 73 79 69 80 70 81 71 82 72 83 51 84 52 85 60 86 53 87 59 88
REMARK SMILES IDX 61 89 58 90 54 91 55 92 56 93 57 94
REMARK H PARENT 7 16 13 21 13 22 81 47 49 58
REMARK Flexibility Score: inf
ROOT
ATOM      1  C   UNL A   1      31.419  29.390  24.536  1.00  0.00     0.274 C 
ENDROOT
BRANCH   1   2
ATOM      2  O   UNL A   1      30.946  28.153  25.078  1.00  0.00    -0.457 OA
BRANCH   2   3
ATOM      3  C   UNL A   1      30.416  27.193  24.262  1.00  0.00     0.368 C 
ATOM      4  O   UNL A   1      29.512  27.388  23.462  1.00  0.00    -0.245 OA
BRANCH   3   5
ATOM      5  C   UNL A   1      31.197  25.850  24.494  1.00  0.00     0.200 C 
ATOM      6  C   UNL A   1      31.021  23.250  24.790  1.00  0.00     0.190 C 
ATOM      7  C   UNL A   1      30.855  23.362  26.303  1.00  0.00     0.065 C 
ATOM      8  C   UNL A   1      30.417  24.563  24.182  1.00  0.00     0.146 C 
ATOM      9  C   UNL A   1      31.572  24.561  26.876  1.00  0.00     0.013 C 
ATOM     10  C   UNL A   1      31.480  25.848  26.055  1.00  0.00     0.081 C 
BRANCH   6  11
ATOM     11  N   UNL A   1      32.324  22.721  24.278  1.00  0.00    -0.332 N 
ATOM     12  C   UNL A   1      33.355  20.481  24.174  1.00  0.00     0.076 C 
ATOM     13  C   UNL A   1      32.267  20.599  23.130  1.00  0.00     0.073 C 
ATOM     14  C   UNL A   1      33.120  21.721  25.037  1.00  0.00     0.268 C 
ATOM     15  C   UNL A   1      32.170  22.108  22.938  1.00  0.00     0.263 C 
ATOM     16  H   UNL A   1      32.846  23.595  24.342  1.00  0.00     0.348 HD
BRANCH  12  17
ATOM     17  C   UNL A   1      33.404  19.170  24.965  1.00  0.00     0.169 C 
BRANCH  17  18
ATOM     18  O   UNL A   1      32.379  18.271  24.547  1.00  0.00    -0.384 OA
ATOM     19  C   UNL A   1      32.900  17.029  24.074  1.00  0.00     0.194 C 
ENDBRANCH  17  18
ENDBRANCH  12  17
ENDBRANCH   6  11
BRANCH   5  20
ATOM     20  N   UNL A   1      32.431  25.852  23.650  1.00  0.00    -0.330 N 
ATOM     21  H   UNL A   1      32.682  24.875  23.500  1.00  0.00     0.347 HD
ATOM     22  H   UNL A   1      33.074  26.433  24.188  1.00  0.00     0.347 HD
BRANCH  20  23
ATOM     23  C   UNL A   1      32.433  26.500  22.318  1.00  0.00     0.176 C 
ATOM     24  C   UNL A   1      33.680  27.401  22.271  1.00  0.00     0.075 C 
ATOM     25  C   UNL A   1      32.530  25.575  21.100  1.00  0.00     0.075 C 
ENDBRANCH  20  23
ENDBRANCH   5  20
ENDBRANCH   3   5
ENDBRANCH   2   3
ENDBRANCH   1   2
BRANCH   1  26
ATOM     26  C   UNL A   1      31.565  30.372  25.707  1.00  0.00     0.275 C 
BRANCH  26  27
ATOM     27  O   UNL A   1      32.937  30.414  26.151  1.00  0.00    -0.458 OA
BRANCH  27  28
ATOM     28  C   UNL A   1      33.246  31.433  26.992  1.00  0.00     0.338 C 
ATOM     29  O   UNL A   1      32.553  32.409  27.256  1.00  0.00    -0.246 OA
BRANCH  28  30
ATOM     30  C   UNL A   1      34.538  31.157  27.642  1.00  0.00     0.060 A 
ATOM     31  C   UNL A   1      34.844  29.842  28.006  1.00  0.00     0.016 A 
ATOM     32  C   UNL A   1      35.430  32.192  27.928  1.00  0.00     0.016 A 
ATOM     33  C   UNL A   1      36.055  29.549  28.634  1.00  0.00     0.010 A 
ATOM     34  C   UNL A   1      36.637  31.900  28.570  1.00  0.00     0.010 A 
ATOM     35  C   UNL A   1      36.959  30.578  28.921  1.00  0.00    -0.014 A 
BRANCH  35  36
ATOM     36  C   UNL A   1      38.199  30.301  29.681  1.00  0.00     0.031 A 
ATOM     37  C   UNL A   1      39.191  29.333  29.114  1.00  0.00     0.074 A 
ATOM     38  C   UNL A   1      38.419  30.880  30.874  1.00  0.00     0.049 A 
ATOM     39  N   UNL A   1      40.247  28.803  29.669  1.00  0.00    -0.248 NA
ATOM     40  C   UNL A   1      38.949  28.904  27.729  1.00  0.00     0.031 C 
ATOM     41  C   UNL A   1      37.562  31.894  31.488  1.00  0.00     0.029 A 
ATOM     42  N   UNL A   1      39.417  30.678  31.794  1.00  0.00    -0.354 N 
ATOM     43  C   UNL A   1      40.796  27.964  28.707  1.00  0.00     0.074 A 
ATOM     44  C   UNL A   1      39.940  28.048  27.541  1.00  0.00     0.031 C 
ATOM     45  C   UNL A   1      38.055  32.201  32.700  1.00  0.00     0.029 A 
ATOM     46  C   UNL A   1      39.224  31.365  32.969  1.00  0.00     0.049 A 
ATOM     47  H   UNL A   1      40.196  30.099  31.628  1.00  0.00     0.167 HD
ATOM     48  C   UNL A   1      41.905  27.187  28.796  1.00  0.00     0.034 A 
ATOM     49  C   UNL A   1      39.880  31.284  34.145  1.00  0.00     0.034 A 
ATOM     50  C   UNL A   1      42.712  27.083  29.987  1.00  0.00     0.049 A 
ATOM     51  C   UNL A   1      41.039  30.324  34.271  1.00  0.00     0.074 A 
ATOM     52  C   UNL A   1      43.835  26.306  30.206  1.00  0.00     0.029 A 
ATOM     53  N   UNL A   1      42.466  27.767  31.173  1.00  0.00    -0.354 N 
ATOM     54  N   UNL A   1      41.535  29.505  33.372  1.00  0.00    -0.248 NA
ATOM     55  C   UNL A   1      41.721  30.271  35.571  1.00  0.00     0.031 C 
ATOM     56  C   UNL A   1      44.225  26.465  31.543  1.00  0.00     0.029 A 
ATOM     57  C   UNL A   1      43.395  27.404  32.136  1.00  0.00     0.049 A 
ATOM     58  H   UNL A   1      41.738  28.416  31.309  1.00  0.00     0.167 HD
ATOM     59  C   UNL A   1      42.604  28.862  33.988  1.00  0.00     0.074 A 
ATOM     60  C   UNL A   1      42.681  29.385  35.337  1.00  0.00     0.031 C 
ATOM     61  C   UNL A   1      43.453  27.931  33.481  1.00  0.00     0.034 A 
BRANCH  48  62
ATOM     62  C   UNL A   1      42.229  26.331  27.596  1.00  0.00     0.023 A 
ATOM     63  C   UNL A   1      41.705  25.034  27.453  1.00  0.00     0.031 A 
ATOM     64  C   UNL A   1      43.152  26.778  26.636  1.00  0.00     0.131 A 
ATOM     65  C   UNL A   1      42.184  24.196  26.436  1.00  0.00     0.055 A 
ATOM     66  C   UNL A   1      43.557  25.970  25.572  1.00  0.00     0.041 A 
ATOM     67  F   UNL A   1      43.706  27.997  26.735  1.00  0.00    -0.206 F 
ATOM     68  C   UNL A   1      43.090  24.662  25.480  1.00  0.00     0.022 A 
BRANCH  65  69
ATOM     69  S   UNL A   1      41.760  22.433  26.499  1.00  0.00     0.124 S 
ATOM     70  O   UNL A   1      42.269  22.053  27.816  1.00  0.00    -0.237 OA
ATOM     71  O   UNL A   1      40.309  22.452  26.357  1.00  0.00    -0.237 OA
ATOM     72  O   UNL A   1      42.492  21.862  25.371  1.00  0.00    -0.744 OA
ENDBRANCH  65  69
ENDBRANCH  48  62
BRANCH  49  73
ATOM     73  C   UNL A   1      39.406  32.071  35.319  1.00  0.00     0.023 A 
ATOM     74  C   UNL A   1      39.847  33.384  35.549  1.00  0.00     0.031 A 
ATOM     75  C   UNL A   1      38.512  31.504  36.246  1.00  0.00     0.131 A 
ATOM     76  C   UNL A   1      39.414  34.076  36.691  1.00  0.00     0.055 A 
ATOM     77  C   UNL A   1      38.048  32.212  37.355  1.00  0.00     0.041 A 
ATOM     78  F   UNL A   1      38.062  30.250  36.074  1.00  0.00    -0.206 F 
ATOM     79  C   UNL A   1      38.506  33.505  37.587  1.00  0.00     0.022 A 
BRANCH  76  80
ATOM     80  S   UNL A   1      40.091  35.726  37.023  1.00  0.00     0.124 S 
ATOM     81  O   UNL A   1      39.447  36.061  38.289  1.00  0.00    -0.237 OA
ATOM     82  O   UNL A   1      41.525  35.461  37.082  1.00  0.00    -0.237 OA
ATOM     83  O   UNL A   1      39.653  36.512  35.873  1.00  0.00    -0.744 OA
ENDBRANCH  76  80
ENDBRANCH  49  73
BRANCH  61  84
ATOM     84  C   UNL A   1      44.580  27.464  34.368  1.00  0.00     0.023 A 
ATOM     85  C   UNL A   1      44.451  26.354  35.221  1.00  0.00     0.031 A 
ATOM     86  C   UNL A   1      45.819  28.129  34.328  1.00  0.00     0.131 A 
ATOM     87  C   UNL A   1      45.535  25.961  36.022  1.00  0.00     0.055 A 
ATOM     88  C   UNL A   1      46.908  27.704  35.091  1.00  0.00     0.041 A 
ATOM     89  F   UNL A   1      45.996  29.194  33.531  1.00  0.00    -0.206 F 
ATOM     90  C   UNL A   1      46.767  26.618  35.950  1.00  0.00     0.022 A 
BRANCH  87  91
ATOM     91  S   UNL A   1      45.306  24.602  37.204  1.00  0.00     0.124 S 
ATOM     92  O   UNL A   1      44.916  23.502  36.329  1.00  0.00    -0.237 OA
ATOM     93  O   UNL A   1      46.624  24.494  37.817  1.00  0.00    -0.237 OA
ATOM     94  O   UNL A   1      44.251  25.093  38.089  1.00  0.00    -0.744 OA
ENDBRANCH  87  91
ENDBRANCH  61  84
ENDBRANCH  35  36
ENDBRANCH  28  30
ENDBRANCH  27  28
ENDBRANCH  26  27
ENDBRANCH   1  26
TORSDOF 19
ENDMDL
MODEL 2
REMARK VINA RESULT:     -11.0      4.672      9.950
REMARK SMILES COC[C@H]1CC[N@@H+]([C@H]2CCC[C@]([NH2+]C(C)C)(C(=O)OCCOC(=O)c3ccc(-c4c5nc(c(-c6cc(S(=O)(=O)[O-])ccc6F)c6ccc([nH]6)c(-c6cc(S(=O)(=O)[O-])ccc6F)c6nc(c(-c7cc(S(=O)(=O)[O-])ccc7F)c7ccc4[nH]7)C=C6)C=C5)cc3)C2)C1
REMARK SMILES IDX 20 1 19 2 17 3 18 4 12 5 8 6 9 7 88 8 10 9 11 10 7 11 4 12
REMARK SMILES IDX 5 13 89 14 6 15 3 17 2 18 1 19 13 20 14 23 15 24 16 25 21 26
REMARK SMILES IDX 22 27 23 28 24 29 25 30 26 31 87 32 27 33 86 34 28 35 29 36
REMARK SMILES IDX 30 37 80 38 31 39 85 40 79 41 81 42 32 43 84 44 78 45 77 46
REMARK SMILES IDX 33 48 65 49 45 50 64 51 46 52 49 53 63 54 82 55 47 56 48 57
REMARK SMILES IDX 62 59 83 60 50 61 34 62 35 63 43 64 36 65 42 66 44 67 41 68
REMARK SMILES IDX 37 69 38 70 39 71 40 72 66 73 67 74 75 75 68 76 74 77 76 78
REMARK SMILES IDX 73 79 69 80 70 81 71 82 72 83 51 84 52 85 60 86 53 87 59 88
REMARK SMILES IDX 61 89 58 90 54 91 55 92 56 93 57 94
REMARK H PARENT 7 16 13 21 13 22 81 47 49 58
REMARK Flexibility Score: inf
ROOT
ATOM      1  C   UNL A   1      34.593  21.926  24.785  1.00  0.00     0.274 C 
ENDROOT
BRANCH   1   2
ATOM      2  O   UNL A   1      34.678  23.348  24.646  1.00  0.00    -0.457 OA
BRANCH   2   3
ATOM      3  C   UNL A   1      34.201  23.968  23.526  1.00  0.00     0.368 C 
ATOM      4  O   UNL A   1      34.413  23.589  22.383  1.00  0.00    -0.245 OA
BRANCH   3   5
ATOM      5  C   UNL A   1      33.311  25.185  23.967  1.00  0.00     0.200 C 
ATOM      6  C   UNL A   1      32.735  27.715  23.583  1.00  0.00     0.190 C 
ATOM      7  C   UNL A   1      33.788  28.180  24.584  1.00  0.00     0.065 C 
ATOM      8  C   UNL A   1      33.262  26.366  22.984  1.00  0.00     0.146 C 
ATOM      9  C   UNL A   1      34.007  27.185  25.697  1.00  0.00     0.013 C 
ATOM     10  C   UNL A   1      34.026  25.713  25.281  1.00  0.00     0.081 C 
BRANCH   6  11
ATOM     11  N   UNL A   1      31.299  27.842  23.985  1.00  0.00    -0.332 N 
ATOM     12  C   UNL A   1      29.509  29.470  23.502  1.00  0.00     0.076 C 
ATOM     13  C   UNL A   1      29.751  28.593  22.293  1.00  0.00     0.073 C 
ATOM     14  C   UNL A   1      30.707  29.143  24.392  1.00  0.00     0.268 C 
ATOM     15  C   UNL A   1      30.392  27.360  22.917  1.00  0.00     0.263 C 
ATOM     16  H   UNL A   1      31.360  27.288  24.840  1.00  0.00     0.348 HD
BRANCH  12  17
ATOM     17  C   UNL A   1      29.320  30.966  23.234  1.00  0.00     0.169 C 
BRANCH  17  18
ATOM     18  O   UNL A   1      29.055  31.220  21.856  1.00  0.00    -0.384 OA
ATOM     19  C   UNL A   1      28.324  32.429  21.652  1.00  0.00     0.194 C 
ENDBRANCH  17  18
ENDBRANCH  12  17
ENDBRANCH   6  11
BRANCH   5  20
ATOM     20  N   UNL A   1      31.910  24.712  24.182  1.00  0.00    -0.330 N 
ATOM     21  H   UNL A   1      31.754  23.953  23.519  1.00  0.00     0.347 HD
ATOM     22  H   UNL A   1      31.362  25.565  24.068  1.00  0.00     0.347 HD
BRANCH  20  23
ATOM     23  C   UNL A   1      31.477  24.214  25.507  1.00  0.00     0.176 C 
ATOM     24  C   UNL A   1      30.265  25.068  25.922  1.00  0.00     0.075 C 
ATOM     25  C   UNL A   1      31.013  22.755  25.580  1.00  0.00     0.075 C 
ENDBRANCH  20  23
ENDBRANCH   5  20
ENDBRANCH   3   5
ENDBRANCH   2   3
ENDBRANCH   1   2
BRANCH   1  26
ATOM     26  C   UNL A   1      36.015  21.369  24.626  1.00  0.00     0.275 C 
BRANCH  26  27
ATOM     27  O   UNL A   1      36.789  21.638  25.813  1.00  0.00    -0.458 OA
BRANCH  27  28
ATOM     28  C   UNL A   1      38.097  21.283  25.748  1.00  0.00     0.338 C 
ATOM     29  O   UNL A   1      38.555  20.217  25.354  1.00  0.00    -0.246 OA
BRANCH  28  30
ATOM     30  C   UNL A   1      38.935  22.428  26.142  1.00  0.00     0.060 A 
ATOM     31  C   UNL A   1      40.030  22.206  26.982  1.00  0.00     0.016 A 
ATOM     32  C   UNL A   1      38.623  23.722  25.720  1.00  0.00     0.016 A 
ATOM     33  C   UNL A   1      40.837  23.272  27.383  1.00  0.00     0.010 A 
ATOM     34  C   UNL A   1      39.423  24.791  26.133  1.00  0.00     0.010 A 
ATOM     35  C   UNL A   1      40.537  24.571  26.962  1.00  0.00    -0.014 A 
BRANCH  35  36
ATOM     36  C   UNL A   1      41.318  25.725  27.463  1.00  0.00     0.031 A 
ATOM     37  C   UNL A   1      40.618  26.769  28.278  1.00  0.00     0.074 A 
ATOM     38  C   UNL A   1      42.623  25.854  27.168  1.00  0.00     0.049 A 
ATOM     39  N   UNL A   1      41.043  27.940  28.671  1.00  0.00    -0.248 NA
ATOM     40  C   UNL A   1      39.250  26.441  28.702  1.00  0.00     0.031 C 
ATOM     41  C   UNL A   1      43.424  24.864  26.449  1.00  0.00     0.029 A 
ATOM     42  N   UNL A   1      43.496  26.883  27.413  1.00  0.00    -0.354 N 
ATOM     43  C   UNL A   1      39.988  28.502  29.381  1.00  0.00     0.074 A 
ATOM     44  C   UNL A   1      38.902  27.544  29.346  1.00  0.00     0.031 C 
ATOM     45  C   UNL A   1      44.666  25.351  26.282  1.00  0.00     0.029 A 
ATOM     46  C   UNL A   1      44.728  26.706  26.829  1.00  0.00     0.049 A 
ATOM     47  H   UNL A   1      43.263  27.672  27.956  1.00  0.00     0.167 HD
ATOM     48  C   UNL A   1      39.931  29.712  29.993  1.00  0.00     0.034 A 
ATOM     49  C   UNL A   1      45.764  27.560  26.701  1.00  0.00     0.034 A 
ATOM     50  C   UNL A   1      41.010  30.668  29.971  1.00  0.00     0.049 A 
ATOM     51  C   UNL A   1      45.643  28.949  27.281  1.00  0.00     0.074 A 
ATOM     52  C   UNL A   1      41.055  31.935  30.525  1.00  0.00     0.029 A 
ATOM     53  N   UNL A   1      42.233  30.469  29.338  1.00  0.00    -0.354 N 
ATOM     54  N   UNL A   1      44.632  29.491  27.921  1.00  0.00    -0.248 NA
ATOM     55  C   UNL A   1      46.797  29.843  27.115  1.00  0.00     0.031 C 
ATOM     56  C   UNL A   1      42.274  32.527  30.168  1.00  0.00     0.029 A 
ATOM     57  C   UNL A   1      43.024  31.601  29.459  1.00  0.00     0.049 A 
ATOM     58  H   UNL A   1      42.498  29.643  28.871  1.00  0.00     0.167 HD
ATOM     59  C   UNL A   1      45.040  30.779  28.259  1.00  0.00     0.074 A 
ATOM     60  C   UNL A   1      46.388  30.934  27.750  1.00  0.00     0.031 C 
ATOM     61  C   UNL A   1      44.365  31.742  28.939  1.00  0.00     0.034 A 
BRANCH  48  62
ATOM     62  C   UNL A   1      38.621  30.077  30.647  1.00  0.00     0.023 A 
ATOM     63  C   UNL A   1      37.596  30.722  29.932  1.00  0.00     0.031 A 
ATOM     64  C   UNL A   1      38.433  29.869  32.023  1.00  0.00     0.131 A 
ATOM     65  C   UNL A   1      36.479  31.227  30.615  1.00  0.00     0.055 A 
ATOM     66  C   UNL A   1      37.278  30.294  32.681  1.00  0.00     0.041 A 
ATOM     67  F   UNL A   1      39.387  29.282  32.763  1.00  0.00    -0.206 F 
ATOM     68  C   UNL A   1      36.302  30.998  31.982  1.00  0.00     0.022 A 
BRANCH  65  69
ATOM     69  S   UNL A   1      35.366  32.357  29.733  1.00  0.00     0.124 S 
ATOM     70  O   UNL A   1      34.392  32.684  30.773  1.00  0.00    -0.237 OA
ATOM     71  O   UNL A   1      36.262  33.436  29.336  1.00  0.00    -0.237 OA
ATOM     72  O   UNL A   1      34.845  31.541  28.639  1.00  0.00    -0.744 OA
ENDBRANCH  65  69
ENDBRANCH  48  62
BRANCH  49  73
ATOM     73  C   UNL A   1      46.970  27.158  25.922  1.00  0.00     0.023 A 
ATOM     74  C   UNL A   1      47.151  27.560  24.590  1.00  0.00     0.031 A 
ATOM     75  C   UNL A   1      47.956  26.339  26.504  1.00  0.00     0.131 A 
ATOM     76  C   UNL A   1      48.278  27.122  23.875  1.00  0.00     0.055 A 
ATOM     77  C   UNL A   1      49.097  25.944  25.804  1.00  0.00     0.041 A 
ATOM     78  F   UNL A   1      47.830  25.924  27.775  1.00  0.00    -0.206 F 
ATOM     79  C   UNL A   1      49.258  26.330  24.478  1.00  0.00     0.022 A 
BRANCH  76  80
ATOM     80  S   UNL A   1      48.426  27.561  22.122  1.00  0.00     0.124 S 
ATOM     81  O   UNL A   1      49.587  28.443  22.135  1.00  0.00    -0.237 OA
ATOM     82  O   UNL A   1      48.617  26.257  21.495  1.00  0.00    -0.237 OA
ATOM     83  O   UNL A   1      47.152  28.211  21.824  1.00  0.00    -0.744 OA
ENDBRANCH  76  80
ENDBRANCH  49  73
BRANCH  61  84
ATOM     84  C   UNL A   1      45.097  33.029  29.229  1.00  0.00     0.023 A 
ATOM     85  C   UNL A   1      45.889  33.196  30.378  1.00  0.00     0.031 A 
ATOM     86  C   UNL A   1      45.023  34.094  28.312  1.00  0.00     0.131 A 
ATOM     87  C   UNL A   1      46.552  34.415  30.595  1.00  0.00     0.055 A 
ATOM     88  C   UNL A   1      45.723  35.285  28.510  1.00  0.00     0.041 A 
ATOM     89  F   UNL A   1      44.280  33.986  27.199  1.00  0.00    -0.206 F 
ATOM     90  C   UNL A   1      46.488  35.453  29.660  1.00  0.00     0.022 A 
BRANCH  87  91
ATOM     91  S   UNL A   1      47.469  34.651  32.143  1.00  0.00     0.124 S 
ATOM     92  O   UNL A   1      47.626  33.280  32.615  1.00  0.00    -0.237 OA
ATOM     93  O   UNL A   1      48.687  35.314  31.689  1.00  0.00    -0.237 OA
ATOM     94  O   UNL A   1      46.576  35.485  32.946  1.00  0.00    -0.744 OA
ENDBRANCH  87  91
ENDBRANCH  61  84
ENDBRANCH  35  36
ENDBRANCH  28  30
ENDBRANCH  27  28
ENDBRANCH  26  27
ENDBRANCH   1  26
TORSDOF 19
ENDMDL
MODEL 3
REMARK VINA RESULT:     -11.0      5.078     10.149
REMARK SMILES COC[C@H]1CC[N@@H+]([C@H]2CCC[C@]([NH2+]C(C)C)(C(=O)OCCOC(=O)c3ccc(-c4c5nc(c(-c6cc(S(=O)(=O)[O-])ccc6F)c6ccc([nH]6)c(-c6cc(S(=O)(=O)[O-])ccc6F)c6nc(c(-c7cc(S(=O)(=O)[O-])ccc7F)c7ccc4[nH]7)C=C6)C=C5)cc3)C2)C1
REMARK SMILES IDX 20 1 19 2 17 3 18 4 12 5 8 6 9 7 88 8 10 9 11 10 7 11 4 12
REMARK SMILES IDX 5 13 89 14 6 15 3 17 2 18 1 19 13 20 14 23 15 24 16 25 21 26
REMARK SMILES IDX 22 27 23 28 24 29 25 30 26 31 87 32 27 33 86 34 28 35 29 36
REMARK SMILES IDX 30 37 80 38 31 39 85 40 79 41 81 42 32 43 84 44 78 45 77 46
REMARK SMILES IDX 33 48 65 49 45 50 64 51 46 52 49 53 63 54 82 55 47 56 48 57
REMARK SMILES IDX 62 59 83 60 50 61 34 62 35 63 43 64 36 65 42 66 44 67 41 68
REMARK SMILES IDX 37 69 38 70 39 71 40 72 66 73 67 74 75 75 68 76 74 77 76 78
REMARK SMILES IDX 73 79 69 80 70 81 71 82 72 83 51 84 52 85 60 86 53 87 59 88
REMARK SMILES IDX 61 89 58 90 54 91 55 92 56 93 57 94
REMARK H PARENT 7 16 13 21 13 22 81 47 49 58
REMARK Flexibility Score: inf
ROOT
ATOM      1  C   UNL A   1      34.575  20.886  25.402  1.00  0.00     0.274 C 
ENDROOT
BRANCH   1   2
ATOM      2  O   UNL A   1      34.266  22.244  25.076  1.00  0.00    -0.457 OA
BRANCH   2   3
ATOM      3  C   UNL A   1      33.876  23.122  26.048  1.00  0.00     0.368 C 
ATOM      4  O   UNL A   1      34.187  23.030  27.227  1.00  0.00    -0.245 OA
BRANCH   3   5
ATOM      5  C   UNL A   1      33.032  24.267  25.381  1.00  0.00     0.200 C 
ATOM      6  C   UNL A   1      31.724  26.509  25.754  1.00  0.00     0.190 C 
ATOM      7  C   UNL A   1      30.416  25.779  26.051  1.00  0.00     0.065 C 
ATOM      8  C   UNL A   1      32.877  25.551  26.212  1.00  0.00     0.146 C 
ATOM      9  C   UNL A   1      30.306  24.468  25.313  1.00  0.00     0.013 C 
ATOM     10  C   UNL A   1      31.585  23.632  25.245  1.00  0.00     0.081 C 
BRANCH   6  11
ATOM     11  N   UNL A   1      31.827  27.230  24.447  1.00  0.00    -0.332 N 
ATOM     12  C   UNL A   1      30.735  29.223  23.484  1.00  0.00     0.076 C 
ATOM     13  C   UNL A   1      31.755  29.641  24.520  1.00  0.00     0.073 C 
ATOM     14  C   UNL A   1      30.626  27.716  23.718  1.00  0.00     0.268 C 
ATOM     15  C   UNL A   1      32.684  28.434  24.559  1.00  0.00     0.263 C 
ATOM     16  H   UNL A   1      32.182  26.446  23.900  1.00  0.00     0.348 HD
BRANCH  12  17
ATOM     17  C   UNL A   1      29.391  29.957  23.514  1.00  0.00     0.169 C 
BRANCH  17  18
ATOM     18  O   UNL A   1      28.488  29.432  22.543  1.00  0.00    -0.384 OA
ATOM     19  C   UNL A   1      27.256  28.999  23.118  1.00  0.00     0.194 C 
ENDBRANCH  17  18
ENDBRANCH  12  17
ENDBRANCH   6  11
BRANCH   5  20
ATOM     20  N   UNL A   1      33.661  24.640  24.078  1.00  0.00    -0.330 N 
ATOM     21  H   UNL A   1      34.521  24.098  24.003  1.00  0.00     0.347 HD
ATOM     22  H   UNL A   1      33.740  25.655  24.146  1.00  0.00     0.347 HD
BRANCH  20  23
ATOM     23  C   UNL A   1      32.928  24.450  22.805  1.00  0.00     0.176 C 
ATOM     24  C   UNL A   1      33.273  25.658  21.915  1.00  0.00     0.075 C 
ATOM     25  C   UNL A   1      33.279  23.203  21.985  1.00  0.00     0.075 C 
ENDBRANCH  20  23
ENDBRANCH   5  20
ENDBRANCH   3   5
ENDBRANCH   2   3
ENDBRANCH   1   2
BRANCH   1  26
ATOM     26  C   UNL A   1      36.037  20.644  25.003  1.00  0.00     0.275 C 
BRANCH  26  27
ATOM     27  O   UNL A   1      36.905  21.540  25.729  1.00  0.00    -0.458 OA
BRANCH  27  28
ATOM     28  C   UNL A   1      38.216  21.192  25.749  1.00  0.00     0.338 C 
ATOM     29  O   UNL A   1      38.698  20.108  25.441  1.00  0.00    -0.246 OA
BRANCH  28  30
ATOM     30  C   UNL A   1      39.028  22.364  26.117  1.00  0.00     0.060 A 
ATOM     31  C   UNL A   1      40.203  22.170  26.848  1.00  0.00     0.016 A 
ATOM     32  C   UNL A   1      38.616  23.655  25.777  1.00  0.00     0.016 A 
ATOM     33  C   UNL A   1      40.989  23.261  27.222  1.00  0.00     0.010 A 
ATOM     34  C   UNL A   1      39.396  24.748  26.164  1.00  0.00     0.010 A 
ATOM     35  C   UNL A   1      40.588  24.557  26.883  1.00  0.00    -0.014 A 
BRANCH  35  36
ATOM     36  C   UNL A   1      41.352  25.731  27.363  1.00  0.00     0.031 A 
ATOM     37  C   UNL A   1      40.651  26.752  28.205  1.00  0.00     0.074 A 
ATOM     38  C   UNL A   1      42.642  25.898  27.024  1.00  0.00     0.049 A 
ATOM     39  N   UNL A   1      41.055  27.934  28.588  1.00  0.00    -0.248 NA
ATOM     40  C   UNL A   1      39.308  26.384  28.673  1.00  0.00     0.031 C 
ATOM     41  C   UNL A   1      43.447  24.934  26.275  1.00  0.00     0.029 A 
ATOM     42  N   UNL A   1      43.494  26.951  27.244  1.00  0.00    -0.354 N 
ATOM     43  C   UNL A   1      40.010  28.464  29.335  1.00  0.00     0.074 A 
ATOM     44  C   UNL A   1      38.951  27.475  29.333  1.00  0.00     0.031 C 
ATOM     45  C   UNL A   1      44.668  25.456  26.068  1.00  0.00     0.029 A 
ATOM     46  C   UNL A   1      44.710  26.811  26.619  1.00  0.00     0.049 A 
ATOM     47  H   UNL A   1      43.257  27.731  27.798  1.00  0.00     0.167 HD
ATOM     48  C   UNL A   1      39.939  29.669  29.953  1.00  0.00     0.034 A 
ATOM     49  C   UNL A   1      45.717  27.695  26.459  1.00  0.00     0.034 A 
ATOM     50  C   UNL A   1      40.989  30.656  29.899  1.00  0.00     0.049 A 
ATOM     51  C   UNL A   1      45.576  29.078  27.048  1.00  0.00     0.074 A 
ATOM     52  C   UNL A   1      41.017  31.922  30.456  1.00  0.00     0.029 A 
ATOM     53  N   UNL A   1      42.195  30.494  29.224  1.00  0.00    -0.354 N 
ATOM     54  N   UNL A   1      44.572  29.589  27.724  1.00  0.00    -0.248 NA
ATOM     55  C   UNL A   1      46.697  30.005  26.847  1.00  0.00     0.031 C 
ATOM     56  C   UNL A   1      42.205  32.550  30.060  1.00  0.00     0.029 A 
ATOM     57  C   UNL A   1      42.957  31.647  29.323  1.00  0.00     0.049 A 
ATOM     58  H   UNL A   1      42.467  29.677  28.746  1.00  0.00     0.167 HD
ATOM     59  C   UNL A   1      44.954  30.887  28.053  1.00  0.00     0.074 A 
ATOM     60  C   UNL A   1      46.279  31.081  27.500  1.00  0.00     0.031 C 
ATOM     61  C   UNL A   1      44.275  31.828  28.759  1.00  0.00     0.034 A 
BRANCH  48  62
ATOM     62  C   UNL A   1      38.641  29.995  30.652  1.00  0.00     0.023 A 
ATOM     63  C   UNL A   1      37.608  30.692  30.000  1.00  0.00     0.031 A 
ATOM     64  C   UNL A   1      38.475  29.695  32.014  1.00  0.00     0.131 A 
ATOM     65  C   UNL A   1      36.506  31.154  30.734  1.00  0.00     0.055 A 
ATOM     66  C   UNL A   1      37.333  30.079  32.719  1.00  0.00     0.041 A 
ATOM     67  F   UNL A   1      39.438  29.055  32.696  1.00  0.00    -0.206 F 
ATOM     68  C   UNL A   1      36.350  30.833  32.085  1.00  0.00     0.022 A 
BRANCH  65  69
ATOM     69  S   UNL A   1      35.385  32.346  29.949  1.00  0.00     0.124 S 
ATOM     70  O   UNL A   1      36.289  33.459  29.666  1.00  0.00    -0.237 OA
ATOM     71  O   UNL A   1      34.901  31.606  28.790  1.00  0.00    -0.237 OA
ATOM     72  O   UNL A   1      34.388  32.612  30.984  1.00  0.00    -0.744 OA
ENDBRANCH  65  69
ENDBRANCH  48  62
BRANCH  49  73
ATOM     73  C   UNL A   1      46.907  27.329  25.639  1.00  0.00     0.023 A 
ATOM     74  C   UNL A   1      47.037  27.750  24.306  1.00  0.00     0.031 A 
ATOM     75  C   UNL A   1      47.929  26.527  26.180  1.00  0.00     0.131 A 
ATOM     76  C   UNL A   1      48.150  27.346  23.552  1.00  0.00     0.055 A 
ATOM     77  C   UNL A   1      49.056  26.166  25.441  1.00  0.00     0.041 A 
ATOM     78  F   UNL A   1      47.852  26.095  27.449  1.00  0.00    -0.206 F 
ATOM     79  C   UNL A   1      49.167  26.571  24.115  1.00  0.00     0.022 A 
BRANCH  76  80
ATOM     80  S   UNL A   1      48.234  27.809  21.800  1.00  0.00     0.124 S 
ATOM     81  O   UNL A   1      46.994  28.559  21.633  1.00  0.00    -0.237 OA
ATOM     82  O   UNL A   1      49.467  28.587  21.749  1.00  0.00    -0.237 OA
ATOM     83  O   UNL A   1      48.283  26.523  21.109  1.00  0.00    -0.744 OA
ENDBRANCH  76  80
ENDBRANCH  49  73
BRANCH  61  84
ATOM     84  C   UNL A   1      44.980  33.134  29.029  1.00  0.00     0.023 A 
ATOM     85  C   UNL A   1      44.915  34.218  28.137  1.00  0.00     0.031 A 
ATOM     86  C   UNL A   1      45.703  33.301  30.224  1.00  0.00     0.131 A 
ATOM     87  C   UNL A   1      45.587  35.413  28.442  1.00  0.00     0.055 A 
ATOM     88  C   UNL A   1      46.330  34.506  30.543  1.00  0.00     0.041 A 
ATOM     89  F   UNL A   1      45.798  32.297  31.110  1.00  0.00    -0.206 F 
ATOM     90  C   UNL A   1      46.280  35.569  29.647  1.00  0.00     0.022 A 
BRANCH  87  91
ATOM     91  S   UNL A   1      45.589  36.755  27.220  1.00  0.00     0.124 S 
ATOM     92  O   UNL A   1      46.103  36.083  26.032  1.00  0.00    -0.237 OA
ATOM     93  O   UNL A   1      44.184  37.143  27.177  1.00  0.00    -0.237 OA
ATOM     94  O   UNL A   1      46.487  37.750  27.806  1.00  0.00    -0.744 OA
ENDBRANCH  87  91
ENDBRANCH  61  84
ENDBRANCH  35  36
ENDBRANCH  28  30
ENDBRANCH  27  28
ENDBRANCH  26  27
ENDBRANCH   1  26
TORSDOF 19
ENDMDL
