MODEL 1
REMARK VINA RESULT:     -12.6      0.000      0.000
REMARK SMILES NC(=O)[C@@H]1CCC[N@@H+]1[C@@H](C(=O)OCCOC(=O)c1ccc(-c2c3nc(c(-c4cc(S(=O)(=O)[O-])ccc4F)c4ccc([nH]4)c(-c4cc(S(=O)(=O)[O-])ccc4F)c4nc(c(-c5cc(S(=O)(=O)[O-])ccc5F)c5ccc2[nH]5)C=C4)C=C3)cc1)c1c[nH]c2cc(OCc3ccccc3)ccc12
REMARK SMILES IDX 13 1 12 2 10 3 11 4 9 5 8 6 4 7 5 8 6 9 7 10 2 12 1 13 3 16
REMARK SMILES IDX 81 17 82 18 97 19 83 20 84 21 96 22 85 24 95 25 86 26 87 27
REMARK SMILES IDX 88 28 89 29 90 30 94 31 91 32 93 33 92 34 14 35 15 36 16 37
REMARK SMILES IDX 17 38 18 39 19 40 80 41 20 42 79 43 21 44 22 45 23 46 73 47
REMARK SMILES IDX 24 48 78 49 72 50 74 51 25 52 77 53 71 54 70 55 26 57 58 58
REMARK SMILES IDX 38 59 57 60 39 61 42 62 56 63 75 64 40 65 41 66 55 68 76 69
REMARK SMILES IDX 43 70 27 71 28 72 36 73 29 74 35 75 37 76 34 77 30 78 31 79
REMARK SMILES IDX 32 80 33 81 59 82 60 83 68 84 61 85 67 86 69 87 66 88 62 89
REMARK SMILES IDX 63 90 64 91 65 92 44 93 45 94 53 95 46 96 52 97 54 98 51 99
REMARK SMILES IDX 47 100 48 101 49 102 50 103
REMARK H PARENT 8 11 1 14 1 15 83 23 74 56 42 67
REMARK Flexibility Score: inf
ROOT
ATOM      1  C   UNL A   1      36.627  22.329  23.922  1.00  0.00     0.274 C 
ENDROOT
BRANCH   1   2
ATOM      2  O   UNL A   1      35.659  22.744  24.921  1.00  0.00    -0.457 OA
BRANCH   2   3
ATOM      3  C   UNL A   1      34.546  23.351  24.428  1.00  0.00     0.370 C 
ATOM      4  O   UNL A   1      34.514  23.890  23.318  1.00  0.00    -0.245 OA
BRANCH   3   5
ATOM      5  C   UNL A   1      33.352  23.423  25.374  1.00  0.00     0.329 C 
BRANCH   5   6
ATOM      6  N   UNL A   1      32.199  22.430  25.170  1.00  0.00    -0.309 N 
ATOM      7  C   UNL A   1      32.427  21.042  24.684  1.00  0.00     0.275 C 
ATOM      8  C   UNL A   1      32.470  21.107  23.158  1.00  0.00     0.081 C 
ATOM      9  C   UNL A   1      31.816  22.446  22.833  1.00  0.00     0.068 C 
ATOM     10  C   UNL A   1      31.207  22.858  24.159  1.00  0.00     0.264 C 
ATOM     11  H   UNL A   1      31.936  22.427  26.156  1.00  0.00     0.349 HD
BRANCH   7  12
ATOM     12  C   UNL A   1      33.430  20.111  25.354  1.00  0.00     0.275 C 
ATOM     13  N   UNL A   1      33.530  20.255  26.714  1.00  0.00    -0.365 N 
ATOM     14  H   UNL A   1      34.156  19.691  27.224  1.00  0.00     0.159 HD
ATOM     15  H   UNL A   1      32.975  20.920  27.181  1.00  0.00     0.159 HD
ATOM     16  O   UNL A   1      34.048  19.199  24.813  1.00  0.00    -0.268 OA
ENDBRANCH   7  12
ENDBRANCH   5   6
BRANCH   5  17
ATOM     17  C   UNL A   1      32.834  24.785  25.915  1.00  0.00     0.046 A 
ATOM     18  C   UNL A   1      31.943  24.840  26.988  1.00  0.00     0.094 A 
ATOM     19  C   UNL A   1      32.804  26.142  25.419  1.00  0.00     0.009 A 
ATOM     20  N   UNL A   1      31.041  25.837  26.704  1.00  0.00    -0.361 N 
ATOM     21  C   UNL A   1      31.497  26.575  25.642  1.00  0.00     0.050 A 
ATOM     22  C   UNL A   1      33.620  27.080  24.769  1.00  0.00     0.015 A 
ATOM     23  H   UNL A   1      30.199  25.998  27.188  1.00  0.00     0.166 HD
ATOM     24  C   UNL A   1      30.896  27.597  24.895  1.00  0.00     0.073 A 
ATOM     25  C   UNL A   1      33.103  28.278  24.242  1.00  0.00     0.047 A 
ATOM     26  C   UNL A   1      31.732  28.461  24.183  1.00  0.00     0.121 A 
BRANCH  26  27
ATOM     27  O   UNL A   1      31.091  29.442  23.477  1.00  0.00    -0.489 OA
BRANCH  27  28
ATOM     28  C   UNL A   1      29.667  29.359  23.340  1.00  0.00     0.265 C 
BRANCH  28  29
ATOM     29  C   UNL A   1      29.051  30.562  22.664  1.00  0.00    -0.011 A 
ATOM     30  C   UNL A   1      29.041  31.804  23.320  1.00  0.00     0.007 A 
ATOM     31  C   UNL A   1      28.531  30.488  21.367  1.00  0.00     0.007 A 
ATOM     32  C   UNL A   1      28.490  32.928  22.700  1.00  0.00     0.000 A 
ATOM     33  C   UNL A   1      27.978  31.605  20.756  1.00  0.00     0.000 A 
ATOM     34  C   UNL A   1      27.952  32.824  21.422  1.00  0.00     0.000 A 
ENDBRANCH  28  29
ENDBRANCH  27  28
ENDBRANCH  26  27
ENDBRANCH   5  17
ENDBRANCH   3   5
ENDBRANCH   2   3
ENDBRANCH   1   2
BRANCH   1  35
ATOM     35  C   UNL A   1      37.342  21.061  24.360  1.00  0.00     0.275 C 
BRANCH  35  36
ATOM     36  O   UNL A   1      37.656  21.186  25.759  1.00  0.00    -0.458 OA
BRANCH  36  37
ATOM     37  C   UNL A   1      38.977  21.189  26.034  1.00  0.00     0.338 C 
ATOM     38  O   UNL A   1      39.789  20.351  25.665  1.00  0.00    -0.246 OA
BRANCH  37  39
ATOM     39  C   UNL A   1      39.412  22.424  26.738  1.00  0.00     0.060 A 
ATOM     40  C   UNL A   1      38.998  23.685  26.307  1.00  0.00     0.016 A 
ATOM     41  C   UNL A   1      40.512  22.325  27.595  1.00  0.00     0.016 A 
ATOM     42  C   UNL A   1      39.755  24.818  26.606  1.00  0.00     0.010 A 
ATOM     43  C   UNL A   1      41.208  23.475  27.986  1.00  0.00     0.010 A 
ATOM     44  C   UNL A   1      40.856  24.730  27.470  1.00  0.00    -0.014 A 
BRANCH  44  45
ATOM     45  C   UNL A   1      41.524  25.965  27.957  1.00  0.00     0.031 A 
ATOM     46  C   UNL A   1      40.792  27.038  28.717  1.00  0.00     0.074 A 
ATOM     47  C   UNL A   1      42.834  26.110  27.682  1.00  0.00     0.049 A 
ATOM     48  N   UNL A   1      41.181  28.259  28.991  1.00  0.00    -0.248 NA
ATOM     49  C   UNL A   1      39.468  26.697  29.255  1.00  0.00     0.031 C 
ATOM     50  C   UNL A   1      43.675  25.096  27.037  1.00  0.00     0.029 A 
ATOM     51  N   UNL A   1      43.691  27.157  27.903  1.00  0.00    -0.354 N 
ATOM     52  C   UNL A   1      40.141  28.849  29.705  1.00  0.00     0.074 A 
ATOM     53  C   UNL A   1      39.111  27.839  29.838  1.00  0.00     0.031 C 
ATOM     54  C   UNL A   1      44.924  25.561  26.932  1.00  0.00     0.029 A 
ATOM     55  C   UNL A   1      44.944  26.946  27.379  1.00  0.00     0.049 A 
ATOM     56  H   UNL A   1      43.436  27.975  28.388  1.00  0.00     0.167 HD
ATOM     57  C   UNL A   1      40.066  30.119  30.183  1.00  0.00     0.034 A 
ATOM     58  C   UNL A   1      45.976  27.788  27.193  1.00  0.00     0.034 A 
ATOM     59  C   UNL A   1      41.133  31.094  30.052  1.00  0.00     0.049 A 
ATOM     60  C   UNL A   1      45.833  29.210  27.641  1.00  0.00     0.074 A 
ATOM     61  C   UNL A   1      41.158  32.408  30.493  1.00  0.00     0.029 A 
ATOM     62  N   UNL A   1      42.361  30.865  29.442  1.00  0.00    -0.354 N 
ATOM     63  N   UNL A   1      44.803  29.795  28.205  1.00  0.00    -0.248 NA
ATOM     64  C   UNL A   1      46.990  30.082  27.428  1.00  0.00     0.031 C 
ATOM     65  C   UNL A   1      42.364  32.991  30.088  1.00  0.00     0.029 A 
ATOM     66  C   UNL A   1      43.136  32.019  29.476  1.00  0.00     0.049 A 
ATOM     67  H   UNL A   1      42.642  30.010  29.043  1.00  0.00     0.167 HD
ATOM     68  C   UNL A   1      45.195  31.109  28.430  1.00  0.00     0.074 A 
ATOM     69  C   UNL A   1      46.564  31.216  27.964  1.00  0.00     0.031 C 
ATOM     70  C   UNL A   1      44.487  32.131  28.975  1.00  0.00     0.034 A 
BRANCH  57  71
ATOM     71  C   UNL A   1      38.779  30.590  30.830  1.00  0.00     0.023 A 
ATOM     72  C   UNL A   1      37.740  31.206  30.110  1.00  0.00     0.031 A 
ATOM     73  C   UNL A   1      38.554  30.307  32.193  1.00  0.00     0.131 A 
ATOM     74  C   UNL A   1      36.527  31.513  30.755  1.00  0.00     0.055 A 
ATOM     75  C   UNL A   1      37.334  30.573  32.817  1.00  0.00     0.041 A 
ATOM     76  F   UNL A   1      39.516  29.738  32.939  1.00  0.00    -0.206 F 
ATOM     77  C   UNL A   1      36.315  31.187  32.099  1.00  0.00     0.022 A 
BRANCH  74  78
ATOM     78  S   UNL A   1      35.251  32.465  29.874  1.00  0.00     0.124 S 
ATOM     79  O   UNL A   1      34.774  31.511  28.876  1.00  0.00    -0.237 OA
ATOM     80  O   UNL A   1      34.317  32.795  30.943  1.00  0.00    -0.237 OA
ATOM     81  O   UNL A   1      36.001  33.594  29.325  1.00  0.00    -0.744 OA
ENDBRANCH  74  78
ENDBRANCH  57  71
BRANCH  58  82
ATOM     82  C   UNL A   1      47.190  27.308  26.477  1.00  0.00     0.023 A 
ATOM     83  C   UNL A   1      48.182  26.575  27.140  1.00  0.00     0.031 A 
ATOM     84  C   UNL A   1      47.355  27.558  25.100  1.00  0.00     0.131 A 
ATOM     85  C   UNL A   1      49.304  26.127  26.429  1.00  0.00     0.055 A 
ATOM     86  C   UNL A   1      48.440  27.055  24.385  1.00  0.00     0.041 A 
ATOM     87  F   UNL A   1      46.433  28.258  24.420  1.00  0.00    -0.206 F 
ATOM     88  C   UNL A   1      49.429  26.340  25.053  1.00  0.00     0.022 A 
BRANCH  85  89
ATOM     89  S   UNL A   1      50.640  25.314  27.344  1.00  0.00     0.124 S 
ATOM     90  O   UNL A   1      51.567  24.968  26.273  1.00  0.00    -0.237 OA
ATOM     91  O   UNL A   1      51.073  26.371  28.252  1.00  0.00    -0.237 OA
ATOM     92  O   UNL A   1      49.973  24.181  27.983  1.00  0.00    -0.744 OA
ENDBRANCH  85  89
ENDBRANCH  58  82
BRANCH  70  93
ATOM     93  C   UNL A   1      45.217  33.444  29.123  1.00  0.00     0.023 A 
ATOM     94  C   UNL A   1      45.251  34.387  28.080  1.00  0.00     0.031 A 
ATOM     95  C   UNL A   1      45.957  33.717  30.287  1.00  0.00     0.131 A 
ATOM     96  C   UNL A   1      46.083  35.511  28.183  1.00  0.00     0.055 A 
ATOM     97  C   UNL A   1      46.721  34.878  30.414  1.00  0.00     0.041 A 
ATOM     98  F   UNL A   1      45.965  32.851  31.312  1.00  0.00    -0.206 F 
ATOM     99  C   UNL A   1      46.805  35.772  29.351  1.00  0.00     0.022 A 
BRANCH  96 100
ATOM    100  S   UNL A   1      46.324  36.547  26.714  1.00  0.00     0.124 S 
ATOM    101  O   UNL A   1      46.359  35.552  25.647  1.00  0.00    -0.237 OA
ATOM    102  O   UNL A   1      45.148  37.410  26.744  1.00  0.00    -0.237 OA
ATOM    103  O   UNL A   1      47.594  37.221  26.975  1.00  0.00    -0.744 OA
ENDBRANCH  96 100
ENDBRANCH  70  93
ENDBRANCH  44  45
ENDBRANCH  37  39
ENDBRANCH  36  37
ENDBRANCH  35  36
ENDBRANCH   1  35
TORSDOF 20
ENDMDL
MODEL 2
REMARK VINA RESULT:     -12.4      2.027      2.356
REMARK SMILES NC(=O)[C@@H]1CCC[N@@H+]1[C@@H](C(=O)OCCOC(=O)c1ccc(-c2c3nc(c(-c4cc(S(=O)(=O)[O-])ccc4F)c4ccc([nH]4)c(-c4cc(S(=O)(=O)[O-])ccc4F)c4nc(c(-c5cc(S(=O)(=O)[O-])ccc5F)c5ccc2[nH]5)C=C4)C=C3)cc1)c1c[nH]c2cc(OCc3ccccc3)ccc12
REMARK SMILES IDX 13 1 12 2 10 3 11 4 9 5 8 6 4 7 5 8 6 9 7 10 2 12 1 13 3 16
REMARK SMILES IDX 81 17 82 18 97 19 83 20 84 21 96 22 85 24 95 25 86 26 87 27
REMARK SMILES IDX 88 28 89 29 90 30 94 31 91 32 93 33 92 34 14 35 15 36 16 37
REMARK SMILES IDX 17 38 18 39 19 40 80 41 20 42 79 43 21 44 22 45 23 46 73 47
REMARK SMILES IDX 24 48 78 49 72 50 74 51 25 52 77 53 71 54 70 55 26 57 58 58
REMARK SMILES IDX 38 59 57 60 39 61 42 62 56 63 75 64 40 65 41 66 55 68 76 69
REMARK SMILES IDX 43 70 27 71 28 72 36 73 29 74 35 75 37 76 34 77 30 78 31 79
REMARK SMILES IDX 32 80 33 81 59 82 60 83 68 84 61 85 67 86 69 87 66 88 62 89
REMARK SMILES IDX 63 90 64 91 65 92 44 93 45 94 53 95 46 96 52 97 54 98 51 99
REMARK SMILES IDX 47 100 48 101 49 102 50 103
REMARK H PARENT 8 11 1 14 1 15 83 23 74 56 42 67
REMARK Flexibility Score: inf
ROOT
ATOM      1  C   UNL A   1      36.755  22.265  23.702  1.00  0.00     0.274 C 
ENDROOT
BRANCH   1   2
ATOM      2  O   UNL A   1      35.912  23.058  24.579  1.00  0.00    -0.457 OA
BRANCH   2   3
ATOM      3  C   UNL A   1      34.814  23.600  23.987  1.00  0.00     0.370 C 
ATOM      4  O   UNL A   1      34.740  23.804  22.773  1.00  0.00    -0.245 OA
BRANCH   3   5
ATOM      5  C   UNL A   1      33.700  24.044  24.931  1.00  0.00     0.329 C 
BRANCH   5   6
ATOM      6  N   UNL A   1      32.571  23.053  25.244  1.00  0.00    -0.309 N 
ATOM      7  C   UNL A   1      32.780  21.579  25.211  1.00  0.00     0.275 C 
ATOM      8  C   UNL A   1      32.594  21.136  23.761  1.00  0.00     0.081 C 
ATOM      9  C   UNL A   1      31.845  22.299  23.119  1.00  0.00     0.068 C 
ATOM     10  C   UNL A   1      31.423  23.133  24.313  1.00  0.00     0.264 C 
ATOM     11  H   UNL A   1      32.458  23.378  26.204  1.00  0.00     0.349 HD
BRANCH   7  12
ATOM     12  C   UNL A   1      33.908  20.911  25.987  1.00  0.00     0.275 C 
ATOM     13  N   UNL A   1      34.428  19.788  25.397  1.00  0.00    -0.365 N 
ATOM     14  H   UNL A   1      35.161  19.297  25.835  1.00  0.00     0.159 HD
ATOM     15  H   UNL A   1      34.069  19.474  24.537  1.00  0.00     0.159 HD
ATOM     16  O   UNL A   1      34.448  21.345  27.001  1.00  0.00    -0.268 OA
ENDBRANCH   7  12
ENDBRANCH   5   6
BRANCH   5  17
ATOM     17  C   UNL A   1      33.181  25.509  24.930  1.00  0.00     0.046 A 
ATOM     18  C   UNL A   1      33.061  26.230  26.118  1.00  0.00     0.094 A 
ATOM     19  C   UNL A   1      32.471  26.345  23.989  1.00  0.00     0.009 A 
ATOM     20  N   UNL A   1      31.900  26.959  26.026  1.00  0.00    -0.361 N 
ATOM     21  C   UNL A   1      31.445  26.929  24.733  1.00  0.00     0.050 A 
ATOM     22  C   UNL A   1      32.462  26.685  22.628  1.00  0.00     0.015 A 
ATOM     23  H   UNL A   1      31.463  27.430  26.772  1.00  0.00     0.166 HD
ATOM     24  C   UNL A   1      30.256  27.394  24.156  1.00  0.00     0.073 A 
ATOM     25  C   UNL A   1      31.405  27.412  22.049  1.00  0.00     0.047 A 
ATOM     26  C   UNL A   1      30.251  27.635  22.779  1.00  0.00     0.121 A 
BRANCH  26  27
ATOM     27  O   UNL A   1      29.065  28.092  22.273  1.00  0.00    -0.489 OA
BRANCH  27  28
ATOM     28  C   UNL A   1      28.279  28.978  23.079  1.00  0.00     0.265 C 
BRANCH  28  29
ATOM     29  C   UNL A   1      28.275  30.406  22.584  1.00  0.00    -0.011 A 
ATOM     30  C   UNL A   1      28.070  30.674  21.221  1.00  0.00     0.007 A 
ATOM     31  C   UNL A   1      28.420  31.487  23.462  1.00  0.00     0.007 A 
ATOM     32  C   UNL A   1      28.049  31.990  20.752  1.00  0.00     0.000 A 
ATOM     33  C   UNL A   1      28.404  32.794  22.993  1.00  0.00     0.000 A 
ATOM     34  C   UNL A   1      28.224  33.046  21.639  1.00  0.00     0.000 A 
ENDBRANCH  28  29
ENDBRANCH  27  28
ENDBRANCH  26  27
ENDBRANCH   5  17
ENDBRANCH   3   5
ENDBRANCH   2   3
ENDBRANCH   1   2
BRANCH   1  35
ATOM     35  C   UNL A   1      37.437  21.149  24.477  1.00  0.00     0.275 C 
BRANCH  35  36
ATOM     36  O   UNL A   1      37.685  21.621  25.815  1.00  0.00    -0.458 OA
BRANCH  36  37
ATOM     37  C   UNL A   1      38.975  21.543  26.202  1.00  0.00     0.338 C 
ATOM     38  O   UNL A   1      39.739  20.615  25.969  1.00  0.00    -0.246 OA
BRANCH  37  39
ATOM     39  C   UNL A   1      39.457  22.793  26.846  1.00  0.00     0.060 A 
ATOM     40  C   UNL A   1      39.090  24.046  26.353  1.00  0.00     0.016 A 
ATOM     41  C   UNL A   1      40.553  22.694  27.708  1.00  0.00     0.016 A 
ATOM     42  C   UNL A   1      39.890  25.163  26.597  1.00  0.00     0.010 A 
ATOM     43  C   UNL A   1      41.292  23.835  28.042  1.00  0.00     0.010 A 
ATOM     44  C   UNL A   1      40.987  25.076  27.466  1.00  0.00    -0.014 A 
BRANCH  44  45
ATOM     45  C   UNL A   1      41.702  26.307  27.892  1.00  0.00     0.031 A 
ATOM     46  C   UNL A   1      41.050  27.377  28.725  1.00  0.00     0.074 A 
ATOM     47  C   UNL A   1      42.980  26.451  27.492  1.00  0.00     0.049 A 
ATOM     48  N   UNL A   1      41.466  28.596  28.967  1.00  0.00    -0.248 NA
ATOM     49  C   UNL A   1      39.783  27.035  29.387  1.00  0.00     0.031 C 
ATOM     50  C   UNL A   1      43.752  25.439  26.763  1.00  0.00     0.029 A 
ATOM     51  N   UNL A   1      43.857  27.496  27.635  1.00  0.00    -0.354 N 
ATOM     52  C   UNL A   1      40.501  29.184  29.782  1.00  0.00     0.074 A 
ATOM     53  C   UNL A   1      39.487  28.174  30.008  1.00  0.00     0.031 C 
ATOM     54  C   UNL A   1      44.986  25.903  26.540  1.00  0.00     0.029 A 
ATOM     55  C   UNL A   1      45.052  27.286  26.990  1.00  0.00     0.049 A 
ATOM     56  H   UNL A   1      43.652  28.311  28.146  1.00  0.00     0.167 HD
ATOM     57  C   UNL A   1      40.475  30.450  30.271  1.00  0.00     0.034 A 
ATOM     58  C   UNL A   1      46.063  28.127  26.710  1.00  0.00     0.034 A 
ATOM     59  C   UNL A   1      41.527  31.425  30.043  1.00  0.00     0.049 A 
ATOM     60  C   UNL A   1      45.967  29.547  27.178  1.00  0.00     0.074 A 
ATOM     61  C   UNL A   1      41.597  32.736  30.486  1.00  0.00     0.029 A 
ATOM     62  N   UNL A   1      42.690  31.198  29.316  1.00  0.00    -0.354 N 
ATOM     63  N   UNL A   1      44.997  30.131  27.842  1.00  0.00    -0.248 NA
ATOM     64  C   UNL A   1      47.100  30.419  26.858  1.00  0.00     0.031 C 
ATOM     65  C   UNL A   1      42.759  33.319  29.970  1.00  0.00     0.029 A 
ATOM     66  C   UNL A   1      43.467  32.350  29.280  1.00  0.00     0.049 A 
ATOM     67  H   UNL A   1      42.928  30.344  28.887  1.00  0.00     0.167 HD
ATOM     68  C   UNL A   1      45.412  31.442  28.035  1.00  0.00     0.074 A 
ATOM     69  C   UNL A   1      46.730  31.550  27.440  1.00  0.00     0.031 C 
ATOM     70  C   UNL A   1      44.762  32.462  28.651  1.00  0.00     0.034 A 
BRANCH  57  71
ATOM     71  C   UNL A   1      39.258  30.920  31.043  1.00  0.00     0.023 A 
ATOM     72  C   UNL A   1      38.201  31.632  30.448  1.00  0.00     0.031 A 
ATOM     73  C   UNL A   1      39.114  30.539  32.393  1.00  0.00     0.131 A 
ATOM     74  C   UNL A   1      37.051  31.935  31.199  1.00  0.00     0.055 A 
ATOM     75  C   UNL A   1      37.953  30.804  33.121  1.00  0.00     0.041 A 
ATOM     76  F   UNL A   1      40.097  29.876  33.022  1.00  0.00    -0.206 F 
ATOM     77  C   UNL A   1      36.916  31.513  32.527  1.00  0.00     0.022 A 
BRANCH  74  78
ATOM     78  S   UNL A   1      35.762  33.004  30.487  1.00  0.00     0.124 S 
ATOM     79  O   UNL A   1      36.024  34.291  31.129  1.00  0.00    -0.237 OA
ATOM     80  O   UNL A   1      36.052  32.931  29.060  1.00  0.00    -0.237 OA
ATOM     81  O   UNL A   1      34.522  32.356  30.910  1.00  0.00    -0.744 OA
ENDBRANCH  74  78
ENDBRANCH  57  71
BRANCH  58  82
ATOM     82  C   UNL A   1      47.201  27.649  25.877  1.00  0.00     0.023 A 
ATOM     83  C   UNL A   1      47.261  27.923  24.505  1.00  0.00     0.031 A 
ATOM     84  C   UNL A   1      48.264  26.931  26.460  1.00  0.00     0.131 A 
ATOM     85  C   UNL A   1      48.356  27.470  23.755  1.00  0.00     0.055 A 
ATOM     86  C   UNL A   1      49.379  26.540  25.723  1.00  0.00     0.041 A 
ATOM     87  F   UNL A   1      48.251  26.641  27.771  1.00  0.00    -0.206 F 
ATOM     88  C   UNL A   1      49.426  26.802  24.357  1.00  0.00     0.022 A 
BRANCH  85  89
ATOM     89  S   UNL A   1      48.332  27.708  21.959  1.00  0.00     0.124 S 
ATOM     90  O   UNL A   1      47.001  28.267  21.752  1.00  0.00    -0.237 OA
ATOM     91  O   UNL A   1      49.450  28.624  21.760  1.00  0.00    -0.237 OA
ATOM     92  O   UNL A   1      48.532  26.359  21.435  1.00  0.00    -0.744 OA
ENDBRANCH  85  89
ENDBRANCH  58  82
BRANCH  70  93
ATOM     93  C   UNL A   1      45.506  33.773  28.735  1.00  0.00     0.023 A 
ATOM     94  C   UNL A   1      46.335  34.078  29.830  1.00  0.00     0.031 A 
ATOM     95  C   UNL A   1      45.316  34.762  27.754  1.00  0.00     0.131 A 
ATOM     96  C   UNL A   1      46.868  35.369  29.964  1.00  0.00     0.055 A 
ATOM     97  C   UNL A   1      45.912  36.019  27.854  1.00  0.00     0.041 A 
ATOM     98  F   UNL A   1      44.531  34.529  26.690  1.00  0.00    -0.206 F 
ATOM     99  C   UNL A   1      46.675  36.336  28.975  1.00  0.00     0.022 A 
BRANCH  96 100
ATOM    100  S   UNL A   1      47.686  35.810  31.521  1.00  0.00     0.124 S 
ATOM    101  O   UNL A   1      48.360  37.054  31.165  1.00  0.00    -0.237 OA
ATOM    102  O   UNL A   1      46.561  35.934  32.441  1.00  0.00    -0.237 OA
ATOM    103  O   UNL A   1      48.572  34.675  31.776  1.00  0.00    -0.744 OA
ENDBRANCH  96 100
ENDBRANCH  70  93
ENDBRANCH  44  45
ENDBRANCH  37  39
ENDBRANCH  36  37
ENDBRANCH  35  36
ENDBRANCH   1  35
TORSDOF 20
ENDMDL
MODEL 3
REMARK VINA RESULT:     -12.3      2.297      3.203
REMARK SMILES NC(=O)[C@@H]1CCC[N@@H+]1[C@@H](C(=O)OCCOC(=O)c1ccc(-c2c3nc(c(-c4cc(S(=O)(=O)[O-])ccc4F)c4ccc([nH]4)c(-c4cc(S(=O)(=O)[O-])ccc4F)c4nc(c(-c5cc(S(=O)(=O)[O-])ccc5F)c5ccc2[nH]5)C=C4)C=C3)cc1)c1c[nH]c2cc(OCc3ccccc3)ccc12
REMARK SMILES IDX 13 1 12 2 10 3 11 4 9 5 8 6 4 7 5 8 6 9 7 10 2 12 1 13 3 16
REMARK SMILES IDX 81 17 82 18 97 19 83 20 84 21 96 22 85 24 95 25 86 26 87 27
REMARK SMILES IDX 88 28 89 29 90 30 94 31 91 32 93 33 92 34 14 35 15 36 16 37
REMARK SMILES IDX 17 38 18 39 19 40 80 41 20 42 79 43 21 44 22 45 23 46 73 47
REMARK SMILES IDX 24 48 78 49 72 50 74 51 25 52 77 53 71 54 70 55 26 57 58 58
REMARK SMILES IDX 38 59 57 60 39 61 42 62 56 63 75 64 40 65 41 66 55 68 76 69
REMARK SMILES IDX 43 70 27 71 28 72 36 73 29 74 35 75 37 76 34 77 30 78 31 79
REMARK SMILES IDX 32 80 33 81 59 82 60 83 68 84 61 85 67 86 69 87 66 88 62 89
REMARK SMILES IDX 63 90 64 91 65 92 44 93 45 94 53 95 46 96 52 97 54 98 51 99
REMARK SMILES IDX 47 100 48 101 49 102 50 103
REMARK H PARENT 8 11 1 14 1 15 83 23 74 56 42 67
REMARK Flexibility Score: inf
ROOT
ATOM      1  C   UNL A   1      36.655  23.190  23.889  1.00  0.00     0.274 C 
ENDROOT
BRANCH   1   2
ATOM      2  O   UNL A   1      35.501  23.659  24.636  1.00  0.00    -0.457 OA
BRANCH   2   3
ATOM      3  C   UNL A   1      34.384  23.880  23.891  1.00  0.00     0.370 C 
ATOM      4  O   UNL A   1      34.407  23.974  22.662  1.00  0.00    -0.245 OA
BRANCH   3   5
ATOM      5  C   UNL A   1      33.096  24.109  24.676  1.00  0.00     0.329 C 
BRANCH   5   6
ATOM      6  N   UNL A   1      32.252  22.888  25.066  1.00  0.00    -0.309 N 
ATOM      7  C   UNL A   1      32.783  21.805  25.939  1.00  0.00     0.275 C 
ATOM      8  C   UNL A   1      33.537  20.834  25.032  1.00  0.00     0.081 C 
ATOM      9  C   UNL A   1      33.019  21.162  23.637  1.00  0.00     0.068 C 
ATOM     10  C   UNL A   1      31.827  22.057  23.917  1.00  0.00     0.264 C 
ATOM     11  H   UNL A   1      31.555  23.441  25.564  1.00  0.00     0.349 HD
BRANCH   7  12
ATOM     12  C   UNL A   1      33.415  22.103  27.293  1.00  0.00     0.275 C 
ATOM     13  N   UNL A   1      34.785  22.146  27.292  1.00  0.00    -0.365 N 
ATOM     14  H   UNL A   1      35.272  22.333  28.128  1.00  0.00     0.159 HD
ATOM     15  H   UNL A   1      35.282  21.991  26.457  1.00  0.00     0.159 HD
ATOM     16  O   UNL A   1      32.818  22.410  28.320  1.00  0.00    -0.268 OA
ENDBRANCH   7  12
ENDBRANCH   5   6
BRANCH   5  17
ATOM     17  C   UNL A   1      32.201  25.350  24.408  1.00  0.00     0.046 A 
ATOM     18  C   UNL A   1      31.713  25.623  23.129  1.00  0.00     0.094 A 
ATOM     19  C   UNL A   1      31.903  26.574  25.119  1.00  0.00     0.009 A 
ATOM     20  N   UNL A   1      31.787  26.984  22.957  1.00  0.00    -0.361 N 
ATOM     21  C   UNL A   1      32.039  27.583  24.165  1.00  0.00     0.050 A 
ATOM     22  C   UNL A   1      31.594  27.035  26.407  1.00  0.00     0.015 A 
ATOM     23  H   UNL A   1      31.675  27.456  22.101  1.00  0.00     0.166 HD
ATOM     24  C   UNL A   1      32.331  28.912  24.499  1.00  0.00     0.073 A 
ATOM     25  C   UNL A   1      31.597  28.406  26.727  1.00  0.00     0.047 A 
ATOM     26  C   UNL A   1      32.100  29.317  25.816  1.00  0.00     0.121 A 
BRANCH  26  27
ATOM     27  O   UNL A   1      32.399  30.626  26.083  1.00  0.00    -0.489 OA
BRANCH  27  28
ATOM     28  C   UNL A   1      32.880  30.959  27.391  1.00  0.00     0.265 C 
BRANCH  28  29
ATOM     29  C   UNL A   1      34.355  30.690  27.581  1.00  0.00    -0.011 A 
ATOM     30  C   UNL A   1      35.248  31.762  27.744  1.00  0.00     0.007 A 
ATOM     31  C   UNL A   1      34.859  29.386  27.654  1.00  0.00     0.007 A 
ATOM     32  C   UNL A   1      36.611  31.527  27.936  1.00  0.00     0.000 A 
ATOM     33  C   UNL A   1      36.215  29.154  27.839  1.00  0.00     0.000 A 
ATOM     34  C   UNL A   1      37.092  30.223  27.975  1.00  0.00     0.000 A 
ENDBRANCH  28  29
ENDBRANCH  27  28
ENDBRANCH  26  27
ENDBRANCH   5  17
ENDBRANCH   3   5
ENDBRANCH   2   3
ENDBRANCH   1   2
BRANCH   1  35
ATOM     35  C   UNL A   1      37.077  21.809  24.363  1.00  0.00     0.275 C 
BRANCH  35  36
ATOM     36  O   UNL A   1      37.389  21.894  25.766  1.00  0.00    -0.458 OA
BRANCH  36  37
ATOM     37  C   UNL A   1      38.700  21.750  26.054  1.00  0.00     0.338 C 
ATOM     38  O   UNL A   1      39.413  20.821  25.701  1.00  0.00    -0.246 OA
BRANCH  37  39
ATOM     39  C   UNL A   1      39.266  22.935  26.749  1.00  0.00     0.060 A 
ATOM     40  C   UNL A   1      38.939  24.231  26.349  1.00  0.00     0.016 A 
ATOM     41  C   UNL A   1      40.392  22.734  27.554  1.00  0.00     0.016 A 
ATOM     42  C   UNL A   1      39.801  25.294  26.625  1.00  0.00     0.010 A 
ATOM     43  C   UNL A   1      41.198  23.817  27.923  1.00  0.00     0.010 A 
ATOM     44  C   UNL A   1      40.928  25.104  27.436  1.00  0.00    -0.014 A 
BRANCH  44  45
ATOM     45  C   UNL A   1      41.717  26.274  27.904  1.00  0.00     0.031 A 
ATOM     46  C   UNL A   1      41.147  27.327  28.815  1.00  0.00     0.074 A 
ATOM     47  C   UNL A   1      42.988  26.377  27.469  1.00  0.00     0.049 A 
ATOM     48  N   UNL A   1      41.632  28.508  29.107  1.00  0.00    -0.248 NA
ATOM     49  C   UNL A   1      39.886  27.011  29.500  1.00  0.00     0.031 C 
ATOM     50  C   UNL A   1      43.684  25.370  26.661  1.00  0.00     0.029 A 
ATOM     51  N   UNL A   1      43.921  27.368  27.638  1.00  0.00    -0.354 N 
ATOM     52  C   UNL A   1      40.724  29.096  29.985  1.00  0.00     0.074 A 
ATOM     53  C   UNL A   1      39.668  28.127  30.191  1.00  0.00     0.031 C 
ATOM     54  C   UNL A   1      44.932  25.784  26.421  1.00  0.00     0.029 A 
ATOM     55  C   UNL A   1      45.083  27.135  26.942  1.00  0.00     0.049 A 
ATOM     56  H   UNL A   1      43.774  28.163  28.199  1.00  0.00     0.167 HD
ATOM     57  C   UNL A   1      40.778  30.334  30.543  1.00  0.00     0.034 A 
ATOM     58  C   UNL A   1      46.126  27.939  26.673  1.00  0.00     0.034 A 
ATOM     59  C   UNL A   1      41.871  31.266  30.331  1.00  0.00     0.049 A 
ATOM     60  C   UNL A   1      46.117  29.334  27.220  1.00  0.00     0.074 A 
ATOM     61  C   UNL A   1      42.021  32.546  30.842  1.00  0.00     0.029 A 
ATOM     62  N   UNL A   1      42.997  31.023  29.554  1.00  0.00    -0.354 N 
ATOM     63  N   UNL A   1      45.200  29.927  27.948  1.00  0.00    -0.248 NA
ATOM     64  C   UNL A   1      47.282  30.166  26.909  1.00  0.00     0.031 C 
ATOM     65  C   UNL A   1      43.195  33.099  30.318  1.00  0.00     0.029 A 
ATOM     66  C   UNL A   1      43.830  32.136  29.554  1.00  0.00     0.049 A 
ATOM     67  H   UNL A   1      43.178  30.184  29.072  1.00  0.00     0.167 HD
ATOM     68  C   UNL A   1      45.687  31.205  28.196  1.00  0.00     0.074 A 
ATOM     69  C   UNL A   1      46.990  31.280  27.563  1.00  0.00     0.031 C 
ATOM     70  C   UNL A   1      45.110  32.219  28.888  1.00  0.00     0.034 A 
BRANCH  57  71
ATOM     71  C   UNL A   1      39.612  30.820  31.379  1.00  0.00     0.023 A 
ATOM     72  C   UNL A   1      38.705  31.798  30.935  1.00  0.00     0.031 A 
ATOM     73  C   UNL A   1      39.346  30.193  32.614  1.00  0.00     0.131 A 
ATOM     74  C   UNL A   1      37.579  32.117  31.717  1.00  0.00     0.055 A 
ATOM     75  C   UNL A   1      38.206  30.480  33.365  1.00  0.00     0.041 A 
ATOM     76  F   UNL A   1      40.186  29.264  33.101  1.00  0.00    -0.206 F 
ATOM     77  C   UNL A   1      37.318  31.454  32.922  1.00  0.00     0.022 A 
BRANCH  74  78
ATOM     78  S   UNL A   1      36.504  33.502  31.231  1.00  0.00     0.124 S 
ATOM     79  O   UNL A   1      35.217  32.845  31.013  1.00  0.00    -0.237 OA
ATOM     80  O   UNL A   1      36.586  34.380  32.392  1.00  0.00    -0.237 OA
ATOM     81  O   UNL A   1      37.142  34.006  30.016  1.00  0.00    -0.744 OA
ENDBRANCH  74  78
ENDBRANCH  57  71
BRANCH  58  82
ATOM     82  C   UNL A   1      47.212  27.454  25.778  1.00  0.00     0.023 A 
ATOM     83  C   UNL A   1      47.272  27.841  24.433  1.00  0.00     0.031 A 
ATOM     84  C   UNL A   1      48.226  26.609  26.273  1.00  0.00     0.131 A 
ATOM     85  C   UNL A   1      48.317  27.375  23.624  1.00  0.00     0.055 A 
ATOM     86  C   UNL A   1      49.297  26.202  25.481  1.00  0.00     0.041 A 
ATOM     87  F   UNL A   1      48.211  26.208  27.554  1.00  0.00    -0.206 F 
ATOM     88  C   UNL A   1      49.342  26.579  24.143  1.00  0.00     0.022 A 
BRANCH  85  89
ATOM     89  S   UNL A   1      48.284  27.772  21.856  1.00  0.00     0.124 S 
ATOM     90  O   UNL A   1      46.967  28.381  21.713  1.00  0.00    -0.237 OA
ATOM     91  O   UNL A   1      49.425  28.673  21.726  1.00  0.00    -0.237 OA
ATOM     92  O   UNL A   1      48.444  26.469  21.213  1.00  0.00    -0.744 OA
ENDBRANCH  85  89
ENDBRANCH  58  82
BRANCH  70  93
ATOM     93  C   UNL A   1      45.921  33.485  29.017  1.00  0.00     0.023 A 
ATOM     94  C   UNL A   1      45.703  34.587  28.171  1.00  0.00     0.031 A 
ATOM     95  C   UNL A   1      46.980  33.559  29.939  1.00  0.00     0.131 A 
ATOM     96  C   UNL A   1      46.588  35.675  28.198  1.00  0.00     0.055 A 
ATOM     97  C   UNL A   1      47.811  34.678  30.015  1.00  0.00     0.041 A 
ATOM     98  F   UNL A   1      47.239  32.536  30.768  1.00  0.00    -0.206 F 
ATOM     99  C   UNL A   1      47.631  35.735  29.126  1.00  0.00     0.022 A 
BRANCH  96 100
ATOM    100  S   UNL A   1      46.449  36.937  26.903  1.00  0.00     0.124 S 
ATOM    101  O   UNL A   1      47.080  36.273  25.767  1.00  0.00    -0.237 OA
ATOM    102  O   UNL A   1      45.006  37.129  26.809  1.00  0.00    -0.237 OA
ATOM    103  O   UNL A   1      47.191  38.071  27.449  1.00  0.00    -0.744 OA
ENDBRANCH  96 100
ENDBRANCH  70  93
ENDBRANCH  44  45
ENDBRANCH  37  39
ENDBRANCH  36  37
ENDBRANCH  35  36
ENDBRANCH   1  35
TORSDOF 20
ENDMDL
