MODEL 1
REMARK VINA RESULT:     -11.2      0.000      0.000
REMARK SMILES C[C@H]1CC[C@@H](Nc2cncc(C(=O)OCCOC(=O)c3ccc(-c4c5nc(c(-c6cc(S(=O)(=O)[O-])ccc6F)c6ccc([nH]6)c(-c6cc(S(=O)(=O)[O-])ccc6F)c6nc(c(-c7cc(S(=O)(=O)[O-])ccc7F)c7ccc4[nH]7)C=C6)C=C5)cc3)n2)[C@H](C)C1
REMARK SMILES IDX 16 1 15 2 14 3 12 4 13 5 11 6 7 7 8 8 83 9 9 10 10 11 6 12
REMARK SMILES IDX 5 14 1 15 2 16 3 17 86 18 4 19 84 20 85 21 17 22 18 23 19 24
REMARK SMILES IDX 20 25 21 26 82 27 22 28 81 29 23 30 24 31 25 32 75 33 26 34
REMARK SMILES IDX 80 35 74 36 76 37 27 38 79 39 73 40 72 41 28 43 60 44 40 45
REMARK SMILES IDX 59 46 41 47 44 48 58 49 77 50 42 51 43 52 57 54 78 55 45 56
REMARK SMILES IDX 29 57 30 58 38 59 31 60 37 61 39 62 36 63 32 64 33 65 34 66
REMARK SMILES IDX 35 67 61 68 62 69 70 70 63 71 69 72 71 73 68 74 64 75 65 76
REMARK SMILES IDX 66 77 67 78 46 79 47 80 55 81 48 82 54 83 56 84 53 85 49 86
REMARK SMILES IDX 50 87 51 88 52 89
REMARK H PARENT 6 13 76 42 44 53
REMARK Flexibility Score: inf
ROOT
ATOM      1  C   UNL A   1      41.098  21.306  26.124  1.00  0.00     0.275 C 
ENDROOT
BRANCH   1   2
ATOM      2  C   UNL A   1      41.103  19.788  26.305  1.00  0.00     0.275 C 
BRANCH   2   3
ATOM      3  O   UNL A   1      41.941  19.130  25.334  1.00  0.00    -0.457 OA
BRANCH   3   4
ATOM      4  C   UNL A   1      43.066  18.553  25.835  1.00  0.00     0.358 C 
ATOM      5  O   UNL A   1      43.100  17.565  26.551  1.00  0.00    -0.244 OA
BRANCH   4   6
ATOM      6  C   UNL A   1      44.300  19.244  25.380  1.00  0.00     0.169 A 
ATOM      7  C   UNL A   1      45.396  21.062  24.492  1.00  0.00     0.145 A 
ATOM      8  C   UNL A   1      46.583  20.328  24.552  1.00  0.00     0.157 A 
ATOM      9  N   UNL A   1      44.238  20.533  24.944  1.00  0.00    -0.221 NA
ATOM     10  N   UNL A   1      46.661  19.054  25.006  1.00  0.00    -0.258 NA
ATOM     11  C   UNL A   1      45.487  18.526  25.414  1.00  0.00     0.147 A 
BRANCH   7  12
ATOM     12  N   UNL A   1      45.325  22.358  24.025  1.00  0.00    -0.366 N 
ATOM     13  H   UNL A   1      45.034  22.498  23.095  1.00  0.00     0.162 HD
BRANCH  12  14
ATOM     14  C   UNL A   1      45.656  23.550  24.831  1.00  0.00     0.083 C 
ATOM     15  C   UNL A   1      42.931  23.700  28.279  1.00  0.00     0.007 C 
ATOM     16  C   UNL A   1      44.086  24.063  27.342  1.00  0.00    -0.014 C 
ATOM     17  C   UNL A   1      45.046  22.876  27.223  1.00  0.00     0.005 C 
ATOM     18  C   UNL A   1      43.537  24.500  25.978  1.00  0.00     0.008 C 
ATOM     19  C   UNL A   1      46.163  23.144  26.223  1.00  0.00     0.025 C 
ATOM     20  C   UNL A   1      44.600  24.677  24.875  1.00  0.00     0.008 C 
ATOM     21  C   UNL A   1      45.295  26.040  25.057  1.00  0.00     0.010 C 
ENDBRANCH  12  14
ENDBRANCH   7  12
ENDBRANCH   4   6
ENDBRANCH   3   4
ENDBRANCH   2   3
ENDBRANCH   1   2
BRANCH   1  22
ATOM     22  O   UNL A   1      40.213  21.933  27.069  1.00  0.00    -0.458 OA
BRANCH  22  23
ATOM     23  C   UNL A   1      39.248  22.715  26.532  1.00  0.00     0.338 C 
ATOM     24  O   UNL A   1      38.325  22.367  25.813  1.00  0.00    -0.246 OA
BRANCH  23  25
ATOM     25  C   UNL A   1      39.431  24.103  26.979  1.00  0.00     0.060 A 
ATOM     26  C   UNL A   1      39.932  25.036  26.073  1.00  0.00     0.016 A 
ATOM     27  C   UNL A   1      39.242  24.448  28.318  1.00  0.00     0.016 A 
ATOM     28  C   UNL A   1      40.277  26.315  26.508  1.00  0.00     0.010 A 
ATOM     29  C   UNL A   1      39.551  25.746  28.744  1.00  0.00     0.010 A 
ATOM     30  C   UNL A   1      40.096  26.686  27.850  1.00  0.00    -0.014 A 
BRANCH  30  31
ATOM     31  C   UNL A   1      40.542  28.030  28.322  1.00  0.00     0.031 A 
ATOM     32  C   UNL A   1      42.003  28.400  28.272  1.00  0.00     0.074 A 
ATOM     33  C   UNL A   1      39.641  28.931  28.765  1.00  0.00     0.049 A 
ATOM     34  N   UNL A   1      42.607  29.461  28.744  1.00  0.00    -0.248 NA
ATOM     35  C   UNL A   1      42.904  27.444  27.610  1.00  0.00     0.031 C 
ATOM     36  C   UNL A   1      38.193  28.721  28.821  1.00  0.00     0.029 A 
ATOM     37  N   UNL A   1      39.807  30.208  29.245  1.00  0.00    -0.354 N 
ATOM     38  C   UNL A   1      43.962  29.280  28.481  1.00  0.00     0.074 A 
ATOM     39  C   UNL A   1      44.089  28.003  27.809  1.00  0.00     0.031 C 
ATOM     40  C   UNL A   1      37.604  29.837  29.278  1.00  0.00     0.029 A 
ATOM     41  C   UNL A   1      38.632  30.816  29.623  1.00  0.00     0.049 A 
ATOM     42  H   UNL A   1      40.686  30.647  29.314  1.00  0.00     0.167 HD
ATOM     43  C   UNL A   1      45.000  30.102  28.774  1.00  0.00     0.034 A 
ATOM     44  C   UNL A   1      38.405  32.008  30.213  1.00  0.00     0.034 A 
ATOM     45  C   UNL A   1      44.856  31.394  29.399  1.00  0.00     0.049 A 
ATOM     46  C   UNL A   1      39.581  32.887  30.556  1.00  0.00     0.074 A 
ATOM     47  C   UNL A   1      45.844  32.314  29.715  1.00  0.00     0.029 A 
ATOM     48  N   UNL A   1      43.652  31.957  29.798  1.00  0.00    -0.354 N 
ATOM     49  N   UNL A   1      40.860  32.679  30.341  1.00  0.00    -0.248 NA
ATOM     50  C   UNL A   1      39.284  34.158  31.231  1.00  0.00     0.031 C 
ATOM     51  C   UNL A   1      45.244  33.405  30.352  1.00  0.00     0.029 A 
ATOM     52  C   UNL A   1      43.875  33.199  30.377  1.00  0.00     0.049 A 
ATOM     53  H   UNL A   1      42.769  31.538  29.687  1.00  0.00     0.167 HD
ATOM     54  C   UNL A   1      41.516  33.801  30.841  1.00  0.00     0.074 A 
ATOM     55  C   UNL A   1      40.491  34.692  31.345  1.00  0.00     0.031 C 
ATOM     56  C   UNL A   1      42.844  34.070  30.885  1.00  0.00     0.034 A 
BRANCH  43  57
ATOM     57  C   UNL A   1      46.394  29.602  28.479  1.00  0.00     0.023 A 
ATOM     58  C   UNL A   1      47.130  28.842  29.403  1.00  0.00     0.031 A 
ATOM     59  C   UNL A   1      46.991  29.894  27.239  1.00  0.00     0.131 A 
ATOM     60  C   UNL A   1      48.441  28.445  29.091  1.00  0.00     0.055 A 
ATOM     61  C   UNL A   1      48.268  29.439  26.909  1.00  0.00     0.041 A 
ATOM     62  F   UNL A   1      46.340  30.633  26.326  1.00  0.00    -0.206 F 
ATOM     63  C   UNL A   1      49.005  28.718  27.842  1.00  0.00     0.022 A 
BRANCH  60  64
ATOM     64  S   UNL A   1      49.442  27.651  30.379  1.00  0.00     0.124 S 
ATOM     65  O   UNL A   1      48.741  28.062  31.593  1.00  0.00    -0.237 OA
ATOM     66  O   UNL A   1      49.344  26.238  30.032  1.00  0.00    -0.237 OA
ATOM     67  O   UNL A   1      50.766  28.247  30.202  1.00  0.00    -0.744 OA
ENDBRANCH  60  64
ENDBRANCH  43  57
BRANCH  44  68
ATOM     68  C   UNL A   1      37.020  32.420  30.588  1.00  0.00     0.023 A 
ATOM     69  C   UNL A   1      36.135  32.950  29.636  1.00  0.00     0.031 A 
ATOM     70  C   UNL A   1      36.584  32.350  31.925  1.00  0.00     0.131 A 
ATOM     71  C   UNL A   1      34.879  33.433  30.041  1.00  0.00     0.055 A 
ATOM     72  C   UNL A   1      35.314  32.775  32.311  1.00  0.00     0.041 A 
ATOM     73  F   UNL A   1      37.393  31.860  32.878  1.00  0.00    -0.206 F 
ATOM     74  C   UNL A   1      34.457  33.335  31.368  1.00  0.00     0.022 A 
BRANCH  71  75
ATOM     75  S   UNL A   1      33.843  34.292  28.823  1.00  0.00     0.124 S 
ATOM     76  O   UNL A   1      33.478  33.204  27.922  1.00  0.00    -0.237 OA
ATOM     77  O   UNL A   1      32.771  34.822  29.659  1.00  0.00    -0.237 OA
ATOM     78  O   UNL A   1      34.745  35.294  28.258  1.00  0.00    -0.744 OA
ENDBRANCH  71  75
ENDBRANCH  44  68
BRANCH  56  79
ATOM     79  C   UNL A   1      43.249  35.403  31.461  1.00  0.00     0.023 A 
ATOM     80  C   UNL A   1      43.262  35.634  32.849  1.00  0.00     0.031 A 
ATOM     81  C   UNL A   1      43.602  36.465  30.609  1.00  0.00     0.131 A 
ATOM     82  C   UNL A   1      43.567  36.912  33.341  1.00  0.00     0.055 A 
ATOM     83  C   UNL A   1      43.956  37.719  31.108  1.00  0.00     0.041 A 
ATOM     84  F   UNL A   1      43.605  36.298  29.277  1.00  0.00    -0.206 F 
ATOM     85  C   UNL A   1      43.926  37.951  32.479  1.00  0.00     0.022 A 
BRANCH  82  86
ATOM     86  S   UNL A   1      43.406  37.221  35.121  1.00  0.00     0.124 S 
ATOM     87  O   UNL A   1      41.987  36.970  35.347  1.00  0.00    -0.237 OA
ATOM     88  O   UNL A   1      44.326  36.242  35.693  1.00  0.00    -0.237 OA
ATOM     89  O   UNL A   1      43.820  38.616  35.266  1.00  0.00    -0.744 OA
ENDBRANCH  82  86
ENDBRANCH  56  79
ENDBRANCH  30  31
ENDBRANCH  23  25
ENDBRANCH  22  23
ENDBRANCH   1  22
TORSDOF 16
ENDMDL
MODEL 2
REMARK VINA RESULT:     -11.2      1.701      2.040
REMARK SMILES C[C@H]1CC[C@@H](Nc2cncc(C(=O)OCCOC(=O)c3ccc(-c4c5nc(c(-c6cc(S(=O)(=O)[O-])ccc6F)c6ccc([nH]6)c(-c6cc(S(=O)(=O)[O-])ccc6F)c6nc(c(-c7cc(S(=O)(=O)[O-])ccc7F)c7ccc4[nH]7)C=C6)C=C5)cc3)n2)[C@H](C)C1
REMARK SMILES IDX 16 1 15 2 14 3 12 4 13 5 11 6 7 7 8 8 83 9 9 10 10 11 6 12
REMARK SMILES IDX 5 14 1 15 2 16 3 17 86 18 4 19 84 20 85 21 17 22 18 23 19 24
REMARK SMILES IDX 20 25 21 26 82 27 22 28 81 29 23 30 24 31 25 32 75 33 26 34
REMARK SMILES IDX 80 35 74 36 76 37 27 38 79 39 73 40 72 41 28 43 60 44 40 45
REMARK SMILES IDX 59 46 41 47 44 48 58 49 77 50 42 51 43 52 57 54 78 55 45 56
REMARK SMILES IDX 29 57 30 58 38 59 31 60 37 61 39 62 36 63 32 64 33 65 34 66
REMARK SMILES IDX 35 67 61 68 62 69 70 70 63 71 69 72 71 73 68 74 64 75 65 76
REMARK SMILES IDX 66 77 67 78 46 79 47 80 55 81 48 82 54 83 56 84 53 85 49 86
REMARK SMILES IDX 50 87 51 88 52 89
REMARK H PARENT 6 13 76 42 44 53
REMARK Flexibility Score: inf
ROOT
ATOM      1  C   UNL A   1      40.995  21.385  26.143  1.00  0.00     0.275 C 
ENDROOT
BRANCH   1   2
ATOM      2  C   UNL A   1      41.148  19.890  26.425  1.00  0.00     0.275 C 
BRANCH   2   3
ATOM      3  O   UNL A   1      41.883  19.215  25.385  1.00  0.00    -0.457 OA
BRANCH   3   4
ATOM      4  C   UNL A   1      43.025  18.598  25.789  1.00  0.00     0.358 C 
ATOM      5  O   UNL A   1      43.085  17.547  26.408  1.00  0.00    -0.244 OA
BRANCH   4   6
ATOM      6  C   UNL A   1      44.242  19.332  25.358  1.00  0.00     0.169 A 
ATOM      7  C   UNL A   1      45.289  21.191  24.494  1.00  0.00     0.145 A 
ATOM      8  C   UNL A   1      46.499  20.498  24.571  1.00  0.00     0.157 A 
ATOM      9  N   UNL A   1      44.143  20.621  24.925  1.00  0.00    -0.221 NA
ATOM     10  N   UNL A   1      46.614  19.226  25.021  1.00  0.00    -0.258 NA
ATOM     11  C   UNL A   1      45.453  18.656  25.408  1.00  0.00     0.147 A 
BRANCH   7  12
ATOM     12  N   UNL A   1      45.181  22.486  24.031  1.00  0.00    -0.366 N 
ATOM     13  H   UNL A   1      44.907  22.620  23.095  1.00  0.00     0.162 HD
BRANCH  12  14
ATOM     14  C   UNL A   1      45.448  23.685  24.850  1.00  0.00     0.083 C 
ATOM     15  C   UNL A   1      42.894  23.529  28.425  1.00  0.00     0.007 C 
ATOM     16  C   UNL A   1      43.966  24.009  27.444  1.00  0.00    -0.014 C 
ATOM     17  C   UNL A   1      45.017  22.913  27.250  1.00  0.00     0.005 C 
ATOM     18  C   UNL A   1      43.315  24.425  26.118  1.00  0.00     0.008 C 
ATOM     19  C   UNL A   1      46.056  23.296  26.206  1.00  0.00     0.025 C 
ATOM     20  C   UNL A   1      44.304  24.715  24.971  1.00  0.00     0.008 C 
ATOM     21  C   UNL A   1      44.887  26.129  25.153  1.00  0.00     0.010 C 
ENDBRANCH  12  14
ENDBRANCH   7  12
ENDBRANCH   4   6
ENDBRANCH   3   4
ENDBRANCH   2   3
ENDBRANCH   1   2
BRANCH   1  22
ATOM     22  O   UNL A   1      40.053  21.985  27.049  1.00  0.00    -0.458 OA
BRANCH  22  23
ATOM     23  C   UNL A   1      39.144  22.811  26.481  1.00  0.00     0.338 C 
ATOM     24  O   UNL A   1      38.264  22.513  25.691  1.00  0.00    -0.246 OA
BRANCH  23  25
ATOM     25  C   UNL A   1      39.331  24.176  26.992  1.00  0.00     0.060 A 
ATOM     26  C   UNL A   1      39.891  25.135  26.149  1.00  0.00     0.016 A 
ATOM     27  C   UNL A   1      39.083  24.472  28.333  1.00  0.00     0.016 A 
ATOM     28  C   UNL A   1      40.238  26.388  26.651  1.00  0.00     0.010 A 
ATOM     29  C   UNL A   1      39.394  25.747  28.825  1.00  0.00     0.010 A 
ATOM     30  C   UNL A   1      39.998  26.710  27.997  1.00  0.00    -0.014 A 
BRANCH  30  31
ATOM     31  C   UNL A   1      40.444  28.025  28.543  1.00  0.00     0.031 A 
ATOM     32  C   UNL A   1      41.916  28.324  28.681  1.00  0.00     0.074 A 
ATOM     33  C   UNL A   1      39.539  28.964  28.886  1.00  0.00     0.049 A 
ATOM     34  N   UNL A   1      42.506  29.349  29.243  1.00  0.00    -0.248 NA
ATOM     35  C   UNL A   1      42.847  27.332  28.120  1.00  0.00     0.031 C 
ATOM     36  C   UNL A   1      38.087  28.825  28.757  1.00  0.00     0.029 A 
ATOM     37  N   UNL A   1      39.704  30.226  29.404  1.00  0.00    -0.354 N 
ATOM     38  C   UNL A   1      43.873  29.105  29.147  1.00  0.00     0.074 A 
ATOM     39  C   UNL A   1      44.022  27.830  28.475  1.00  0.00     0.031 C 
ATOM     40  C   UNL A   1      37.499  29.963  29.156  1.00  0.00     0.029 A 
ATOM     41  C   UNL A   1      38.520  30.887  29.643  1.00  0.00     0.049 A 
ATOM     42  H   UNL A   1      40.587  30.621  29.589  1.00  0.00     0.167 HD
ATOM     43  C   UNL A   1      44.904  29.871  29.581  1.00  0.00     0.034 A 
ATOM     44  C   UNL A   1      38.278  32.082  30.220  1.00  0.00     0.034 A 
ATOM     45  C   UNL A   1      44.745  31.163  30.205  1.00  0.00     0.049 A 
ATOM     46  C   UNL A   1      39.442  32.899  30.722  1.00  0.00     0.074 A 
ATOM     47  C   UNL A   1      45.727  32.029  30.656  1.00  0.00     0.029 A 
ATOM     48  N   UNL A   1      43.528  31.780  30.460  1.00  0.00    -0.354 N 
ATOM     49  N   UNL A   1      40.726  32.631  30.664  1.00  0.00    -0.248 NA
ATOM     50  C   UNL A   1      39.124  34.176  31.376  1.00  0.00     0.031 C 
ATOM     51  C   UNL A   1      45.104  33.142  31.232  1.00  0.00     0.029 A 
ATOM     52  C   UNL A   1      43.735  33.002  31.083  1.00  0.00     0.049 A 
ATOM     53  H   UNL A   1      42.647  31.405  30.233  1.00  0.00     0.167 HD
ATOM     54  C   UNL A   1      41.367  33.714  31.261  1.00  0.00     0.074 A 
ATOM     55  C   UNL A   1      40.330  34.649  31.648  1.00  0.00     0.031 C 
ATOM     56  C   UNL A   1      42.691  33.918  31.474  1.00  0.00     0.034 A 
BRANCH  43  57
ATOM     57  C   UNL A   1      46.299  29.307  29.453  1.00  0.00     0.023 A 
ATOM     58  C   UNL A   1      47.096  29.523  28.317  1.00  0.00     0.031 A 
ATOM     59  C   UNL A   1      46.837  28.538  30.502  1.00  0.00     0.131 A 
ATOM     60  C   UNL A   1      48.367  28.933  28.235  1.00  0.00     0.055 A 
ATOM     61  C   UNL A   1      48.127  28.010  30.443  1.00  0.00     0.041 A 
ATOM     62  F   UNL A   1      46.112  28.284  31.603  1.00  0.00    -0.206 F 
ATOM     63  C   UNL A   1      48.897  28.198  29.300  1.00  0.00     0.022 A 
BRANCH  60  64
ATOM     64  S   UNL A   1      49.285  29.051  26.675  1.00  0.00     0.124 S 
ATOM     65  O   UNL A   1      50.427  28.179  26.937  1.00  0.00    -0.237 OA
ATOM     66  O   UNL A   1      48.318  28.561  25.699  1.00  0.00    -0.237 OA
ATOM     67  O   UNL A   1      49.607  30.473  26.573  1.00  0.00    -0.744 OA
ENDBRANCH  60  64
ENDBRANCH  43  57
BRANCH  44  68
ATOM     68  C   UNL A   1      36.878  32.557  30.427  1.00  0.00     0.023 A 
ATOM     69  C   UNL A   1      36.169  33.203  29.402  1.00  0.00     0.031 A 
ATOM     70  C   UNL A   1      36.252  32.430  31.681  1.00  0.00     0.131 A 
ATOM     71  C   UNL A   1      34.896  33.739  29.661  1.00  0.00     0.055 A 
ATOM     72  C   UNL A   1      34.964  32.911  31.916  1.00  0.00     0.041 A 
ATOM     73  F   UNL A   1      36.887  31.829  32.700  1.00  0.00    -0.206 F 
ATOM     74  C   UNL A   1      34.283  33.583  30.905  1.00  0.00     0.022 A 
BRANCH  71  75
ATOM     75  S   UNL A   1      34.095  34.738  28.376  1.00  0.00     0.124 S 
ATOM     76  O   UNL A   1      34.208  36.083  28.930  1.00  0.00    -0.237 OA
ATOM     77  O   UNL A   1      34.922  34.452  27.209  1.00  0.00    -0.237 OA
ATOM     78  O   UNL A   1      32.738  34.198  28.323  1.00  0.00    -0.744 OA
ENDBRANCH  71  75
ENDBRANCH  44  68
BRANCH  56  79
ATOM     79  C   UNL A   1      43.083  35.223  32.119  1.00  0.00     0.023 A 
ATOM     80  C   UNL A   1      43.501  36.326  31.354  1.00  0.00     0.031 A 
ATOM     81  C   UNL A   1      43.062  35.355  33.519  1.00  0.00     0.131 A 
ATOM     82  C   UNL A   1      43.935  37.496  31.997  1.00  0.00     0.055 A 
ATOM     83  C   UNL A   1      43.445  36.539  34.150  1.00  0.00     0.041 A 
ATOM     84  F   UNL A   1      42.671  34.330  34.295  1.00  0.00    -0.206 F 
ATOM     85  C   UNL A   1      43.897  37.613  33.389  1.00  0.00     0.022 A 
BRANCH  82  86
ATOM     86  S   UNL A   1      44.631  38.836  30.992  1.00  0.00     0.124 S 
ATOM     87  O   UNL A   1      45.733  39.303  31.826  1.00  0.00    -0.237 OA
ATOM     88  O   UNL A   1      45.009  38.142  29.764  1.00  0.00    -0.237 OA
ATOM     89  O   UNL A   1      43.518  39.774  30.853  1.00  0.00    -0.744 OA
ENDBRANCH  82  86
ENDBRANCH  56  79
ENDBRANCH  30  31
ENDBRANCH  23  25
ENDBRANCH  22  23
ENDBRANCH   1  22
TORSDOF 16
ENDMDL
MODEL 3
REMARK VINA RESULT:     -11.0      3.811     12.286
REMARK SMILES C[C@H]1CC[C@@H](Nc2cncc(C(=O)OCCOC(=O)c3ccc(-c4c5nc(c(-c6cc(S(=O)(=O)[O-])ccc6F)c6ccc([nH]6)c(-c6cc(S(=O)(=O)[O-])ccc6F)c6nc(c(-c7cc(S(=O)(=O)[O-])ccc7F)c7ccc4[nH]7)C=C6)C=C5)cc3)n2)[C@H](C)C1
REMARK SMILES IDX 16 1 15 2 14 3 12 4 13 5 11 6 7 7 8 8 83 9 9 10 10 11 6 12
REMARK SMILES IDX 5 14 1 15 2 16 3 17 86 18 4 19 84 20 85 21 17 22 18 23 19 24
REMARK SMILES IDX 20 25 21 26 82 27 22 28 81 29 23 30 24 31 25 32 75 33 26 34
REMARK SMILES IDX 80 35 74 36 76 37 27 38 79 39 73 40 72 41 28 43 60 44 40 45
REMARK SMILES IDX 59 46 41 47 44 48 58 49 77 50 42 51 43 52 57 54 78 55 45 56
REMARK SMILES IDX 29 57 30 58 38 59 31 60 37 61 39 62 36 63 32 64 33 65 34 66
REMARK SMILES IDX 35 67 61 68 62 69 70 70 63 71 69 72 71 73 68 74 64 75 65 76
REMARK SMILES IDX 66 77 67 78 46 79 47 80 55 81 48 82 54 83 56 84 53 85 49 86
REMARK SMILES IDX 50 87 51 88 52 89
REMARK H PARENT 6 13 76 42 44 53
REMARK Flexibility Score: inf
ROOT
ATOM      1  C   UNL A   1      33.311  32.837  28.029  1.00  0.00     0.275 C 
ENDROOT
BRANCH   1   2
ATOM      2  C   UNL A   1      33.551  34.319  28.313  1.00  0.00     0.275 C 
BRANCH   2   3
ATOM      3  O   UNL A   1      32.663  34.827  29.328  1.00  0.00    -0.457 OA
BRANCH   3   4
ATOM      4  C   UNL A   1      32.954  36.075  29.782  1.00  0.00     0.358 C 
ATOM      5  O   UNL A   1      32.841  37.109  29.142  1.00  0.00    -0.244 OA
BRANCH   4   6
ATOM      6  C   UNL A   1      33.405  36.066  31.197  1.00  0.00     0.169 A 
ATOM      7  C   UNL A   1      34.045  34.967  33.115  1.00  0.00     0.145 A 
ATOM      8  C   UNL A   1      34.149  36.208  33.747  1.00  0.00     0.157 A 
ATOM      9  N   UNL A   1      33.703  34.887  31.810  1.00  0.00    -0.221 NA
ATOM     10  N   UNL A   1      33.878  37.389  33.141  1.00  0.00    -0.258 NA
ATOM     11  C   UNL A   1      33.497  37.288  31.850  1.00  0.00     0.147 A 
BRANCH   7  12
ATOM     12  N   UNL A   1      34.320  33.768  33.740  1.00  0.00    -0.366 N 
ATOM     13  H   UNL A   1      33.615  33.368  34.299  1.00  0.00     0.162 HD
BRANCH  12  14
ATOM     14  C   UNL A   1      35.603  33.047  33.624  1.00  0.00     0.083 C 
ATOM     15  C   UNL A   1      37.500  34.179  29.822  1.00  0.00     0.007 C 
ATOM     16  C   UNL A   1      37.306  33.532  31.196  1.00  0.00    -0.014 C 
ATOM     17  C   UNL A   1      37.083  34.618  32.251  1.00  0.00     0.005 C 
ATOM     18  C   UNL A   1      36.145  32.531  31.145  1.00  0.00     0.008 C 
ATOM     19  C   UNL A   1      36.784  34.029  33.623  1.00  0.00     0.025 C 
ATOM     20  C   UNL A   1      35.702  31.977  32.514  1.00  0.00     0.008 C 
ATOM     21  C   UNL A   1      36.674  30.862  32.946  1.00  0.00     0.010 C 
ENDBRANCH  12  14
ENDBRANCH   7  12
ENDBRANCH   4   6
ENDBRANCH   3   4
ENDBRANCH   2   3
ENDBRANCH   1   2
BRANCH   1  22
ATOM     22  O   UNL A   1      34.503  32.211  27.522  1.00  0.00    -0.458 OA
BRANCH  22  23
ATOM     23  C   UNL A   1      34.560  30.866  27.665  1.00  0.00     0.338 C 
ATOM     24  O   UNL A   1      33.728  30.046  27.313  1.00  0.00    -0.246 OA
BRANCH  23  25
ATOM     25  C   UNL A   1      35.835  30.491  28.293  1.00  0.00     0.060 A 
ATOM     26  C   UNL A   1      37.017  31.014  27.771  1.00  0.00     0.016 A 
ATOM     27  C   UNL A   1      35.874  29.524  29.299  1.00  0.00     0.016 A 
ATOM     28  C   UNL A   1      38.249  30.549  28.230  1.00  0.00     0.010 A 
ATOM     29  C   UNL A   1      37.113  29.088  29.787  1.00  0.00     0.010 A 
ATOM     30  C   UNL A   1      38.314  29.577  29.241  1.00  0.00    -0.014 A 
BRANCH  30  31
ATOM     31  C   UNL A   1      39.634  29.030  29.669  1.00  0.00     0.031 A 
ATOM     32  C   UNL A   1      40.381  29.670  30.812  1.00  0.00     0.074 A 
ATOM     33  C   UNL A   1      40.152  27.943  29.061  1.00  0.00     0.049 A 
ATOM     34  N   UNL A   1      41.588  29.427  31.255  1.00  0.00    -0.248 NA
ATOM     35  C   UNL A   1      39.677  30.733  31.547  1.00  0.00     0.031 C 
ATOM     36  C   UNL A   1      39.512  27.197  27.976  1.00  0.00     0.029 A 
ATOM     37  N   UNL A   1      41.331  27.269  29.273  1.00  0.00    -0.354 N 
ATOM     38  C   UNL A   1      41.809  30.335  32.287  1.00  0.00     0.074 A 
ATOM     39  C   UNL A   1      40.608  31.137  32.399  1.00  0.00     0.031 C 
ATOM     40  C   UNL A   1      40.290  26.156  27.640  1.00  0.00     0.029 A 
ATOM     41  C   UNL A   1      41.519  26.201  28.427  1.00  0.00     0.049 A 
ATOM     42  H   UNL A   1      41.982  27.529  29.966  1.00  0.00     0.167 HD
ATOM     43  C   UNL A   1      42.910  30.485  33.065  1.00  0.00     0.034 A 
ATOM     44  C   UNL A   1      42.574  25.373  28.273  1.00  0.00     0.034 A 
ATOM     45  C   UNL A   1      44.082  29.647  32.976  1.00  0.00     0.049 A 
ATOM     46  C   UNL A   1      43.798  25.583  29.129  1.00  0.00     0.074 A 
ATOM     47  C   UNL A   1      45.239  29.701  33.736  1.00  0.00     0.029 A 
ATOM     48  N   UNL A   1      44.247  28.598  32.081  1.00  0.00    -0.354 N 
ATOM     49  N   UNL A   1      44.006  26.476  30.068  1.00  0.00    -0.248 NA
ATOM     50  C   UNL A   1      44.932  24.678  28.897  1.00  0.00     0.031 C 
ATOM     51  C   UNL A   1      46.123  28.723  33.265  1.00  0.00     0.029 A 
ATOM     52  C   UNL A   1      45.494  28.016  32.255  1.00  0.00     0.049 A 
ATOM     53  H   UNL A   1      43.577  28.311  31.420  1.00  0.00     0.167 HD
ATOM     54  C   UNL A   1      45.289  26.229  30.548  1.00  0.00     0.074 A 
ATOM     55  C   UNL A   1      45.797  25.088  29.813  1.00  0.00     0.031 C 
ATOM     56  C   UNL A   1      45.989  26.886  31.506  1.00  0.00     0.034 A 
BRANCH  43  57
ATOM     57  C   UNL A   1      42.928  31.638  34.039  1.00  0.00     0.023 A 
ATOM     58  C   UNL A   1      42.544  31.491  35.382  1.00  0.00     0.031 A 
ATOM     59  C   UNL A   1      43.344  32.909  33.605  1.00  0.00     0.131 A 
ATOM     60  C   UNL A   1      42.536  32.611  36.231  1.00  0.00     0.055 A 
ATOM     61  C   UNL A   1      43.398  34.003  34.470  1.00  0.00     0.041 A 
ATOM     62  F   UNL A   1      43.704  33.110  32.327  1.00  0.00    -0.206 F 
ATOM     63  C   UNL A   1      42.983  33.860  35.789  1.00  0.00     0.022 A 
BRANCH  60  64
ATOM     64  S   UNL A   1      41.836  32.439  37.895  1.00  0.00     0.124 S 
ATOM     65  O   UNL A   1      42.526  31.248  38.384  1.00  0.00    -0.237 OA
ATOM     66  O   UNL A   1      42.209  33.699  38.528  1.00  0.00    -0.237 OA
ATOM     67  O   UNL A   1      40.405  32.265  37.650  1.00  0.00    -0.744 OA
ENDBRANCH  60  64
ENDBRANCH  43  57
BRANCH  44  68
ATOM     68  C   UNL A   1      42.561  24.312  27.222  1.00  0.00     0.023 A 
ATOM     69  C   UNL A   1      41.759  23.167  27.353  1.00  0.00     0.031 A 
ATOM     70  C   UNL A   1      43.406  24.399  26.100  1.00  0.00     0.131 A 
ATOM     71  C   UNL A   1      41.852  22.135  26.404  1.00  0.00     0.055 A 
ATOM     72  C   UNL A   1      43.451  23.399  25.129  1.00  0.00     0.041 A 
ATOM     73  F   UNL A   1      44.201  25.468  25.929  1.00  0.00    -0.206 F 
ATOM     74  C   UNL A   1      42.681  22.250  25.286  1.00  0.00     0.022 A 
BRANCH  71  75
ATOM     75  S   UNL A   1      40.954  20.589  26.709  1.00  0.00     0.124 S 
ATOM     76  O   UNL A   1      40.895  20.560  28.166  1.00  0.00    -0.237 OA
ATOM     77  O   UNL A   1      39.691  20.832  26.020  1.00  0.00    -0.237 OA
ATOM     78  O   UNL A   1      41.810  19.573  26.099  1.00  0.00    -0.744 OA
ENDBRANCH  71  75
ENDBRANCH  44  68
BRANCH  56  79
ATOM     79  C   UNL A   1      47.360  26.352  31.834  1.00  0.00     0.023 A 
ATOM     80  C   UNL A   1      47.554  25.385  32.837  1.00  0.00     0.031 A 
ATOM     81  C   UNL A   1      48.491  26.836  31.151  1.00  0.00     0.131 A 
ATOM     82  C   UNL A   1      48.855  24.973  33.168  1.00  0.00     0.055 A 
ATOM     83  C   UNL A   1      49.776  26.383  31.449  1.00  0.00     0.041 A 
ATOM     84  F   UNL A   1      48.360  27.760  30.186  1.00  0.00    -0.206 F 
ATOM     85  C   UNL A   1      49.965  25.457  32.470  1.00  0.00     0.022 A 
BRANCH  82  86
ATOM     86  S   UNL A   1      49.083  23.858  34.579  1.00  0.00     0.124 S 
ATOM     87  O   UNL A   1      49.810  24.702  35.521  1.00  0.00    -0.237 OA
ATOM     88  O   UNL A   1      47.708  23.531  34.946  1.00  0.00    -0.237 OA
ATOM     89  O   UNL A   1      49.853  22.748  34.020  1.00  0.00    -0.744 OA
ENDBRANCH  82  86
ENDBRANCH  56  79
ENDBRANCH  30  31
ENDBRANCH  23  25
ENDBRANCH  22  23
ENDBRANCH   1  22
TORSDOF 16
ENDMDL
