MODEL 1
REMARK VINA RESULT:     -11.7      0.000      0.000
REMARK SMILES CC[C@@](O)(C(=O)OCCOC(=O)c1ccc(-c2c3nc(c(-c4cc(S(=O)(=O)[O-])ccc4F)c4ccc([nH]4)c(-c4cc(S(=O)(=O)[O-])ccc4F)c4nc(c(-c5cc(S(=O)(=O)[O-])ccc5F)c5ccc2[nH]5)C=C4)C=C3)cc1)[C@H]1CCCc2ccccc21
REMARK SMILES IDX 9 1 8 2 7 3 5 4 6 5 3 6 2 7 1 8 4 9 76 11 77 12 85 13 78 14
REMARK SMILES IDX 80 15 84 16 79 17 81 18 83 19 82 20 10 21 11 22 12 23 13 24
REMARK SMILES IDX 14 25 75 26 15 27 74 28 16 29 17 30 18 31 68 32 19 33 73 34
REMARK SMILES IDX 67 35 69 36 20 37 72 38 66 39 65 40 21 42 53 43 33 44 52 45
REMARK SMILES IDX 34 46 37 47 51 48 70 49 35 50 36 51 50 53 71 54 38 55 22 56
REMARK SMILES IDX 23 57 31 58 24 59 30 60 32 61 29 62 25 63 26 64 27 65 28 66
REMARK SMILES IDX 54 67 55 68 63 69 56 70 62 71 64 72 61 73 57 74 58 75 59 76
REMARK SMILES IDX 60 77 39 78 40 79 48 80 41 81 47 82 49 83 46 84 42 85 43 86
REMARK SMILES IDX 44 87 45 88
REMARK H PARENT 4 10 69 41 37 52
REMARK Flexibility Score: inf
ROOT
ATOM      1  C   UNL A   1      31.881  29.688  25.115  1.00  0.00     0.275 C 
ENDROOT
BRANCH   1   2
ATOM      2  C   UNL A   1      32.911  28.890  24.314  1.00  0.00     0.274 C 
BRANCH   2   3
ATOM      3  O   UNL A   1      32.592  27.480  24.351  1.00  0.00    -0.460 OA
BRANCH   3   4
ATOM      4  C   UNL A   1      33.014  26.693  23.310  1.00  0.00     0.338 C 
ATOM      5  O   UNL A   1      33.586  27.135  22.323  1.00  0.00    -0.249 OA
BRANCH   4   6
ATOM      6  C   UNL A   1      32.524  25.212  23.492  1.00  0.00     0.168 C 
BRANCH   6   7
ATOM      7  C   UNL A   1      31.318  25.182  24.467  1.00  0.00     0.044 C 
ATOM      8  C   UNL A   1      29.967  25.535  23.865  1.00  0.00     0.007 C 
ENDBRANCH   6   7
BRANCH   6   9
ATOM      9  O   UNL A   1      32.057  24.881  22.165  1.00  0.00    -0.378 OA
ATOM     10  H   UNL A   1      31.554  24.052  22.196  1.00  0.00     0.212 HD
ENDBRANCH   6   9
BRANCH   6  11
ATOM     11  C   UNL A   1      33.760  24.307  23.907  1.00  0.00     0.063 C 
ATOM     12  C   UNL A   1      34.432  24.819  25.215  1.00  0.00     0.012 C 
ATOM     13  C   UNL A   1      33.639  22.787  24.081  1.00  0.00    -0.038 A 
ATOM     14  C   UNL A   1      35.734  24.093  25.608  1.00  0.00     0.006 C 
ATOM     15  C   UNL A   1      34.814  22.107  24.500  1.00  0.00    -0.044 A 
ATOM     16  C   UNL A   1      32.481  22.033  23.891  1.00  0.00     0.004 A 
ATOM     17  C   UNL A   1      36.070  22.912  24.710  1.00  0.00     0.036 C 
ATOM     18  C   UNL A   1      34.801  20.735  24.758  1.00  0.00     0.004 A 
ATOM     19  C   UNL A   1      32.467  20.663  24.173  1.00  0.00     0.000 A 
ATOM     20  C   UNL A   1      33.621  20.017  24.614  1.00  0.00     0.000 A 
ENDBRANCH   6  11
ENDBRANCH   4   6
ENDBRANCH   3   4
ENDBRANCH   2   3
ENDBRANCH   1   2
BRANCH   1  21
ATOM     21  O   UNL A   1      32.362  29.787  26.463  1.00  0.00    -0.458 OA
BRANCH  21  22
ATOM     22  C   UNL A   1      32.815  30.989  26.882  1.00  0.00     0.338 C 
ATOM     23  O   UNL A   1      32.184  32.035  26.934  1.00  0.00    -0.246 OA
BRANCH  22  24
ATOM     24  C   UNL A   1      34.204  30.822  27.363  1.00  0.00     0.060 A 
ATOM     25  C   UNL A   1      34.701  29.536  27.556  1.00  0.00     0.016 A 
ATOM     26  C   UNL A   1      34.981  31.915  27.739  1.00  0.00     0.016 A 
ATOM     27  C   UNL A   1      35.901  29.339  28.230  1.00  0.00     0.010 A 
ATOM     28  C   UNL A   1      36.245  31.707  28.319  1.00  0.00     0.010 A 
ATOM     29  C   UNL A   1      36.704  30.412  28.631  1.00  0.00    -0.014 A 
BRANCH  29  30
ATOM     30  C   UNL A   1      37.950  30.182  29.440  1.00  0.00     0.031 A 
ATOM     31  C   UNL A   1      39.090  29.371  28.862  1.00  0.00     0.074 A 
ATOM     32  C   UNL A   1      38.122  30.732  30.664  1.00  0.00     0.049 A 
ATOM     33  N   UNL A   1      40.103  28.808  29.471  1.00  0.00    -0.248 NA
ATOM     34  C   UNL A   1      39.071  29.142  27.409  1.00  0.00     0.031 C 
ATOM     35  C   UNL A   1      37.181  31.625  31.345  1.00  0.00     0.029 A 
ATOM     36  N   UNL A   1      39.170  30.637  31.552  1.00  0.00    -0.354 N 
ATOM     37  C   UNL A   1      40.778  28.073  28.498  1.00  0.00     0.074 A 
ATOM     38  C   UNL A   1      40.066  28.280  27.254  1.00  0.00     0.031 C 
ATOM     39  C   UNL A   1      37.726  32.060  32.489  1.00  0.00     0.029 A 
ATOM     40  C   UNL A   1      38.980  31.354  32.713  1.00  0.00     0.049 A 
ATOM     41  H   UNL A   1      39.981  30.107  31.373  1.00  0.00     0.167 HD
ATOM     42  C   UNL A   1      41.878  27.291  28.637  1.00  0.00     0.034 A 
ATOM     43  C   UNL A   1      39.680  31.389  33.865  1.00  0.00     0.034 A 
ATOM     44  C   UNL A   1      42.637  27.179  29.861  1.00  0.00     0.049 A 
ATOM     45  C   UNL A   1      40.875  30.487  34.016  1.00  0.00     0.074 A 
ATOM     46  C   UNL A   1      43.770  26.421  30.109  1.00  0.00     0.029 A 
ATOM     47  N   UNL A   1      42.362  27.869  31.033  1.00  0.00    -0.354 N 
ATOM     48  N   UNL A   1      41.407  29.667  33.140  1.00  0.00    -0.248 NA
ATOM     49  C   UNL A   1      41.540  30.485  35.326  1.00  0.00     0.031 C 
ATOM     50  C   UNL A   1      44.148  26.614  31.443  1.00  0.00     0.029 A 
ATOM     51  C   UNL A   1      43.292  27.543  32.009  1.00  0.00     0.049 A 
ATOM     52  H   UNL A   1      41.616  28.499  31.154  1.00  0.00     0.167 HD
ATOM     53  C   UNL A   1      42.471  29.054  33.795  1.00  0.00     0.074 A 
ATOM     54  C   UNL A   1      42.523  29.619  35.128  1.00  0.00     0.031 C 
ATOM     55  C   UNL A   1      43.323  28.101  33.339  1.00  0.00     0.034 A 
BRANCH  42  56
ATOM     56  C   UNL A   1      42.281  26.428  27.462  1.00  0.00     0.023 A 
ATOM     57  C   UNL A   1      41.853  25.099  27.310  1.00  0.00     0.031 A 
ATOM     58  C   UNL A   1      43.137  26.959  26.478  1.00  0.00     0.131 A 
ATOM     59  C   UNL A   1      42.332  24.328  26.238  1.00  0.00     0.055 A 
ATOM     60  C   UNL A   1      43.547  26.212  25.372  1.00  0.00     0.041 A 
ATOM     61  F   UNL A   1      43.596  28.217  26.578  1.00  0.00    -0.206 F 
ATOM     62  C   UNL A   1      43.156  24.884  25.254  1.00  0.00     0.022 A 
BRANCH  59  63
ATOM     63  S   UNL A   1      41.976  22.550  26.215  1.00  0.00     0.124 S 
ATOM     64  O   UNL A   1      40.516  22.542  26.170  1.00  0.00    -0.237 OA
ATOM     65  O   UNL A   1      42.656  22.108  25.002  1.00  0.00    -0.237 OA
ATOM     66  O   UNL A   1      42.556  22.067  27.466  1.00  0.00    -0.744 OA
ENDBRANCH  59  63
ENDBRANCH  42  56
BRANCH  43  67
ATOM     67  C   UNL A   1      39.207  32.217  35.015  1.00  0.00     0.023 A 
ATOM     68  C   UNL A   1      39.690  33.518  35.223  1.00  0.00     0.031 A 
ATOM     69  C   UNL A   1      38.293  31.697  35.954  1.00  0.00     0.131 A 
ATOM     70  C   UNL A   1      39.282  34.243  36.353  1.00  0.00     0.055 A 
ATOM     71  C   UNL A   1      37.841  32.448  37.039  1.00  0.00     0.041 A 
ATOM     72  F   UNL A   1      37.808  30.453  35.815  1.00  0.00    -0.206 F 
ATOM     73  C   UNL A   1      38.346  33.725  37.251  1.00  0.00     0.022 A 
BRANCH  70  74
ATOM     74  S   UNL A   1      40.063  35.846  36.689  1.00  0.00     0.124 S 
ATOM     75  O   UNL A   1      41.474  35.481  36.751  1.00  0.00    -0.237 OA
ATOM     76  O   UNL A   1      39.653  36.632  35.530  1.00  0.00    -0.237 OA
ATOM     77  O   UNL A   1      39.467  36.256  37.959  1.00  0.00    -0.744 OA
ENDBRANCH  70  74
ENDBRANCH  43  67
BRANCH  55  78
ATOM     78  C   UNL A   1      44.402  27.647  34.288  1.00  0.00     0.023 A 
ATOM     79  C   UNL A   1      44.241  26.510  35.099  1.00  0.00     0.031 A 
ATOM     80  C   UNL A   1      45.594  28.383  34.405  1.00  0.00     0.131 A 
ATOM     81  C   UNL A   1      45.233  26.170  36.030  1.00  0.00     0.055 A 
ATOM     82  C   UNL A   1      46.602  28.010  35.296  1.00  0.00     0.041 A 
ATOM     83  F   UNL A   1      45.796  29.479  33.657  1.00  0.00    -0.206 F 
ATOM     84  C   UNL A   1      46.418  26.906  36.125  1.00  0.00     0.022 A 
BRANCH  81  85
ATOM     85  S   UNL A   1      44.919  24.804  37.181  1.00  0.00     0.124 S 
ATOM     86  O   UNL A   1      44.643  23.697  36.270  1.00  0.00    -0.237 OA
ATOM     87  O   UNL A   1      46.175  24.723  37.920  1.00  0.00    -0.237 OA
ATOM     88  O   UNL A   1      43.773  25.267  37.961  1.00  0.00    -0.744 OA
ENDBRANCH  81  85
ENDBRANCH  55  78
ENDBRANCH  29  30
ENDBRANCH  22  24
ENDBRANCH  21  22
ENDBRANCH   1  21
TORSDOF 17
ENDMDL
MODEL 2
REMARK VINA RESULT:     -11.7      4.698      9.944
REMARK SMILES CC[C@@](O)(C(=O)OCCOC(=O)c1ccc(-c2c3nc(c(-c4cc(S(=O)(=O)[O-])ccc4F)c4ccc([nH]4)c(-c4cc(S(=O)(=O)[O-])ccc4F)c4nc(c(-c5cc(S(=O)(=O)[O-])ccc5F)c5ccc2[nH]5)C=C4)C=C3)cc1)[C@H]1CCCc2ccccc21
REMARK SMILES IDX 9 1 8 2 7 3 5 4 6 5 3 6 2 7 1 8 4 9 76 11 77 12 85 13 78 14
REMARK SMILES IDX 80 15 84 16 79 17 81 18 83 19 82 20 10 21 11 22 12 23 13 24
REMARK SMILES IDX 14 25 75 26 15 27 74 28 16 29 17 30 18 31 68 32 19 33 73 34
REMARK SMILES IDX 67 35 69 36 20 37 72 38 66 39 65 40 21 42 53 43 33 44 52 45
REMARK SMILES IDX 34 46 37 47 51 48 70 49 35 50 36 51 50 53 71 54 38 55 22 56
REMARK SMILES IDX 23 57 31 58 24 59 30 60 32 61 29 62 25 63 26 64 27 65 28 66
REMARK SMILES IDX 54 67 55 68 63 69 56 70 62 71 64 72 61 73 57 74 58 75 59 76
REMARK SMILES IDX 60 77 39 78 40 79 48 80 41 81 47 82 49 83 46 84 42 85 43 86
REMARK SMILES IDX 44 87 45 88
REMARK H PARENT 4 10 69 41 37 52
REMARK Flexibility Score: inf
ROOT
ATOM      1  C   UNL A   1      35.907  20.848  25.139  1.00  0.00     0.275 C 
ENDROOT
BRANCH   1   2
ATOM      2  C   UNL A   1      34.780  21.598  24.429  1.00  0.00     0.274 C 
BRANCH   2   3
ATOM      3  O   UNL A   1      34.763  22.984  24.840  1.00  0.00    -0.460 OA
BRANCH   3   4
ATOM      4  C   UNL A   1      34.168  23.900  24.010  1.00  0.00     0.338 C 
ATOM      5  O   UNL A   1      34.540  24.106  22.862  1.00  0.00    -0.249 OA
BRANCH   4   6
ATOM      6  C   UNL A   1      33.081  24.733  24.778  1.00  0.00     0.168 C 
BRANCH   6   7
ATOM      7  C   UNL A   1      31.672  24.176  24.447  1.00  0.00     0.044 C 
ATOM      8  C   UNL A   1      31.252  22.929  25.209  1.00  0.00     0.007 C 
ENDBRANCH   6   7
BRANCH   6   9
ATOM      9  O   UNL A   1      33.386  24.431  26.158  1.00  0.00    -0.378 OA
ATOM     10  H   UNL A   1      32.843  24.987  26.739  1.00  0.00     0.212 HD
ENDBRANCH   6   9
BRANCH   6  11
ATOM     11  C   UNL A   1      33.297  26.274  24.467  1.00  0.00     0.063 C 
ATOM     12  C   UNL A   1      32.661  26.679  23.105  1.00  0.00     0.012 C 
ATOM     13  C   UNL A   1      32.879  27.374  25.453  1.00  0.00    -0.038 A 
ATOM     14  C   UNL A   1      32.955  28.121  22.648  1.00  0.00     0.006 C 
ATOM     15  C   UNL A   1      33.089  28.712  25.026  1.00  0.00    -0.044 A 
ATOM     16  C   UNL A   1      32.294  27.171  26.703  1.00  0.00     0.004 A 
ATOM     17  C   UNL A   1      33.717  28.943  23.677  1.00  0.00     0.036 C 
ATOM     18  C   UNL A   1      32.681  29.793  25.812  1.00  0.00     0.004 A 
ATOM     19  C   UNL A   1      31.866  28.255  27.475  1.00  0.00     0.000 A 
ATOM     20  C   UNL A   1      32.051  29.562  27.028  1.00  0.00     0.000 A 
ENDBRANCH   6  11
ENDBRANCH   4   6
ENDBRANCH   3   4
ENDBRANCH   2   3
ENDBRANCH   1   2
BRANCH   1  21
ATOM     21  O   UNL A   1      37.124  21.569  24.904  1.00  0.00    -0.458 OA
BRANCH  21  22
ATOM     22  C   UNL A   1      38.254  21.101  25.478  1.00  0.00     0.338 C 
ATOM     23  O   UNL A   1      38.722  19.977  25.371  1.00  0.00    -0.246 OA
BRANCH  22  24
ATOM     24  C   UNL A   1      38.900  22.214  26.208  1.00  0.00     0.060 A 
ATOM     25  C   UNL A   1      38.424  23.509  26.024  1.00  0.00     0.016 A 
ATOM     26  C   UNL A   1      40.044  22.013  26.977  1.00  0.00     0.016 A 
ATOM     27  C   UNL A   1      39.148  24.599  26.494  1.00  0.00     0.010 A 
ATOM     28  C   UNL A   1      40.708  23.116  27.544  1.00  0.00     0.010 A 
ATOM     29  C   UNL A   1      40.306  24.436  27.262  1.00  0.00    -0.014 A 
BRANCH  29  30
ATOM     30  C   UNL A   1      41.126  25.625  27.681  1.00  0.00     0.031 A 
ATOM     31  C   UNL A   1      40.522  26.682  28.582  1.00  0.00     0.074 A 
ATOM     32  C   UNL A   1      42.425  25.760  27.329  1.00  0.00     0.049 A 
ATOM     33  N   UNL A   1      40.929  27.904  28.818  1.00  0.00    -0.248 NA
ATOM     34  C   UNL A   1      39.283  26.323  29.288  1.00  0.00     0.031 C 
ATOM     35  C   UNL A   1      43.209  24.798  26.552  1.00  0.00     0.029 A 
ATOM     36  N   UNL A   1      43.329  26.762  27.602  1.00  0.00    -0.354 N 
ATOM     37  C   UNL A   1      39.944  28.491  29.611  1.00  0.00     0.074 A 
ATOM     38  C   UNL A   1      38.930  27.481  29.828  1.00  0.00     0.031 C 
ATOM     39  C   UNL A   1      44.482  25.209  26.486  1.00  0.00     0.029 A 
ATOM     40  C   UNL A   1      44.580  26.541  27.068  1.00  0.00     0.049 A 
ATOM     41  H   UNL A   1      43.104  27.562  28.131  1.00  0.00     0.167 HD
ATOM     42  C   UNL A   1      39.889  29.757  30.096  1.00  0.00     0.034 A 
ATOM     43  C   UNL A   1      45.665  27.336  26.976  1.00  0.00     0.034 A 
ATOM     44  C   UNL A   1      40.958  30.720  29.958  1.00  0.00     0.049 A 
ATOM     45  C   UNL A   1      45.575  28.749  27.485  1.00  0.00     0.074 A 
ATOM     46  C   UNL A   1      41.009  32.026  30.417  1.00  0.00     0.029 A 
ATOM     47  N   UNL A   1      42.177  30.471  29.345  1.00  0.00    -0.354 N 
ATOM     48  N   UNL A   1      44.573  29.348  28.085  1.00  0.00    -0.248 NA
ATOM     49  C   UNL A   1      46.747  29.606  27.267  1.00  0.00     0.031 C 
ATOM     50  C   UNL A   1      42.236  32.581  30.036  1.00  0.00     0.029 A 
ATOM     51  C   UNL A   1      42.979  31.602  29.398  1.00  0.00     0.049 A 
ATOM     52  H   UNL A   1      42.437  29.616  28.931  1.00  0.00     0.167 HD
ATOM     53  C   UNL A   1      44.999  30.653  28.318  1.00  0.00     0.074 A 
ATOM     54  C   UNL A   1      46.355  30.744  27.820  1.00  0.00     0.031 C 
ATOM     55  C   UNL A   1      44.324  31.686  28.883  1.00  0.00     0.034 A 
BRANCH  42  56
ATOM     56  C   UNL A   1      38.600  30.205  30.748  1.00  0.00     0.023 A 
ATOM     57  C   UNL A   1      37.579  30.864  30.044  1.00  0.00     0.031 A 
ATOM     58  C   UNL A   1      38.408  29.977  32.125  1.00  0.00     0.131 A 
ATOM     59  C   UNL A   1      36.443  31.326  30.731  1.00  0.00     0.055 A 
ATOM     60  C   UNL A   1      37.243  30.371  32.785  1.00  0.00     0.041 A 
ATOM     61  F   UNL A   1      39.358  29.371  32.855  1.00  0.00    -0.206 F 
ATOM     62  C   UNL A   1      36.257  31.062  32.090  1.00  0.00     0.022 A 
BRANCH  59  63
ATOM     63  S   UNL A   1      35.272  32.398  29.853  1.00  0.00     0.124 S 
ATOM     64  O   UNL A   1      34.350  32.767  30.925  1.00  0.00    -0.237 OA
ATOM     65  O   UNL A   1      36.134  33.465  29.356  1.00  0.00    -0.237 OA
ATOM     66  O   UNL A   1      34.707  31.524  28.828  1.00  0.00    -0.744 OA
ENDBRANCH  59  63
ENDBRANCH  42  56
BRANCH  43  67
ATOM     67  C   UNL A   1      46.895  26.863  26.272  1.00  0.00     0.023 A 
ATOM     68  C   UNL A   1      47.953  26.267  26.976  1.00  0.00     0.031 A 
ATOM     69  C   UNL A   1      47.048  27.042  24.883  1.00  0.00     0.131 A 
ATOM     70  C   UNL A   1      49.125  25.900  26.297  1.00  0.00     0.055 A 
ATOM     71  C   UNL A   1      48.189  26.615  24.203  1.00  0.00     0.041 A 
ATOM     72  F   UNL A   1      46.075  27.620  24.160  1.00  0.00    -0.206 F 
ATOM     73  C   UNL A   1      49.242  26.050  24.913  1.00  0.00     0.022 A 
BRANCH  70  74
ATOM     74  S   UNL A   1      50.541  25.302  27.263  1.00  0.00     0.124 S 
ATOM     75  O   UNL A   1      50.884  26.483  28.047  1.00  0.00    -0.237 OA
ATOM     76  O   UNL A   1      49.955  24.188  28.000  1.00  0.00    -0.237 OA
ATOM     77  O   UNL A   1      51.515  24.927  26.240  1.00  0.00    -0.744 OA
ENDBRANCH  70  74
ENDBRANCH  43  67
BRANCH  55  78
ATOM     78  C   UNL A   1      45.071  32.987  29.021  1.00  0.00     0.023 A 
ATOM     79  C   UNL A   1      45.109  33.929  27.978  1.00  0.00     0.031 A 
ATOM     80  C   UNL A   1      45.780  33.273  30.201  1.00  0.00     0.131 A 
ATOM     81  C   UNL A   1      45.885  35.089  28.113  1.00  0.00     0.055 A 
ATOM     82  C   UNL A   1      46.508  34.454  30.351  1.00  0.00     0.041 A 
ATOM     83  F   UNL A   1      45.778  32.406  31.225  1.00  0.00    -0.206 F 
ATOM     84  C   UNL A   1      46.574  35.364  29.299  1.00  0.00     0.022 A 
BRANCH  81  85
ATOM     85  S   UNL A   1      46.056  36.198  26.687  1.00  0.00     0.124 S 
ATOM     86  O   UNL A   1      44.942  37.120  26.885  1.00  0.00    -0.237 OA
ATOM     87  O   UNL A   1      47.389  36.757  26.884  1.00  0.00    -0.237 OA
ATOM     88  O   UNL A   1      45.924  35.303  25.539  1.00  0.00    -0.744 OA
ENDBRANCH  81  85
ENDBRANCH  55  78
ENDBRANCH  29  30
ENDBRANCH  22  24
ENDBRANCH  21  22
ENDBRANCH   1  21
TORSDOF 17
ENDMDL
MODEL 3
REMARK VINA RESULT:     -11.6      1.610      2.067
REMARK SMILES CC[C@@](O)(C(=O)OCCOC(=O)c1ccc(-c2c3nc(c(-c4cc(S(=O)(=O)[O-])ccc4F)c4ccc([nH]4)c(-c4cc(S(=O)(=O)[O-])ccc4F)c4nc(c(-c5cc(S(=O)(=O)[O-])ccc5F)c5ccc2[nH]5)C=C4)C=C3)cc1)[C@H]1CCCc2ccccc21
REMARK SMILES IDX 9 1 8 2 7 3 5 4 6 5 3 6 2 7 1 8 4 9 76 11 77 12 85 13 78 14
REMARK SMILES IDX 80 15 84 16 79 17 81 18 83 19 82 20 10 21 11 22 12 23 13 24
REMARK SMILES IDX 14 25 75 26 15 27 74 28 16 29 17 30 18 31 68 32 19 33 73 34
REMARK SMILES IDX 67 35 69 36 20 37 72 38 66 39 65 40 21 42 53 43 33 44 52 45
REMARK SMILES IDX 34 46 37 47 51 48 70 49 35 50 36 51 50 53 71 54 38 55 22 56
REMARK SMILES IDX 23 57 31 58 24 59 30 60 32 61 29 62 25 63 26 64 27 65 28 66
REMARK SMILES IDX 54 67 55 68 63 69 56 70 62 71 64 72 61 73 57 74 58 75 59 76
REMARK SMILES IDX 60 77 39 78 40 79 48 80 41 81 47 82 49 83 46 84 42 85 43 86
REMARK SMILES IDX 44 87 45 88
REMARK H PARENT 4 10 69 41 37 52
REMARK Flexibility Score: inf
ROOT
ATOM      1  C   UNL A   1      31.691  30.123  25.387  1.00  0.00     0.275 C 
ENDROOT
BRANCH   1   2
ATOM      2  C   UNL A   1      31.419  28.684  24.947  1.00  0.00     0.274 C 
BRANCH   2   3
ATOM      3  O   UNL A   1      32.337  27.778  25.601  1.00  0.00    -0.460 OA
BRANCH   3   4
ATOM      4  C   UNL A   1      31.934  26.483  25.806  1.00  0.00     0.338 C 
ATOM      5  O   UNL A   1      31.172  26.152  26.705  1.00  0.00    -0.249 OA
BRANCH   4   6
ATOM      6  C   UNL A   1      32.698  25.499  24.851  1.00  0.00     0.168 C 
BRANCH   6   7
ATOM      7  C   UNL A   1      31.702  24.891  23.829  1.00  0.00     0.044 C 
ATOM      8  C   UNL A   1      31.272  25.806  22.694  1.00  0.00     0.007 C 
ENDBRANCH   6   7
BRANCH   6   9
ATOM      9  O   UNL A   1      33.596  26.389  24.151  1.00  0.00    -0.378 OA
ATOM     10  H   UNL A   1      34.475  26.350  24.559  1.00  0.00     0.212 HD
ENDBRANCH   6   9
BRANCH   6  11
ATOM     11  C   UNL A   1      33.502  24.448  25.729  1.00  0.00     0.063 C 
ATOM     12  C   UNL A   1      32.563  23.356  26.318  1.00  0.00     0.012 C 
ATOM     13  C   UNL A   1      34.718  23.687  25.183  1.00  0.00    -0.038 A 
ATOM     14  C   UNL A   1      33.232  22.383  27.309  1.00  0.00     0.006 C 
ATOM     15  C   UNL A   1      35.314  22.744  26.062  1.00  0.00    -0.044 A 
ATOM     16  C   UNL A   1      35.261  23.824  23.906  1.00  0.00     0.004 A 
ATOM     17  C   UNL A   1      34.734  22.586  27.443  1.00  0.00     0.036 C 
ATOM     18  C   UNL A   1      36.381  21.944  25.647  1.00  0.00     0.004 A 
ATOM     19  C   UNL A   1      36.315  23.005  23.488  1.00  0.00     0.000 A 
ATOM     20  C   UNL A   1      36.868  22.062  24.352  1.00  0.00     0.000 A 
ENDBRANCH   6  11
ENDBRANCH   4   6
ENDBRANCH   3   4
ENDBRANCH   2   3
ENDBRANCH   1   2
BRANCH   1  21
ATOM     21  O   UNL A   1      32.443  30.069  26.606  1.00  0.00    -0.458 OA
BRANCH  21  22
ATOM     22  C   UNL A   1      32.933  31.229  27.095  1.00  0.00     0.338 C 
ATOM     23  O   UNL A   1      32.330  32.285  27.226  1.00  0.00    -0.246 OA
BRANCH  22  24
ATOM     24  C   UNL A   1      34.325  30.997  27.540  1.00  0.00     0.060 A 
ATOM     25  C   UNL A   1      34.737  29.697  27.816  1.00  0.00     0.016 A 
ATOM     26  C   UNL A   1      35.191  32.056  27.803  1.00  0.00     0.016 A 
ATOM     27  C   UNL A   1      35.946  29.464  28.462  1.00  0.00     0.010 A 
ATOM     28  C   UNL A   1      36.460  31.800  28.353  1.00  0.00     0.010 A 
ATOM     29  C   UNL A   1      36.838  30.502  28.750  1.00  0.00    -0.014 A 
BRANCH  29  30
ATOM     30  C   UNL A   1      38.096  30.243  29.531  1.00  0.00     0.031 A 
ATOM     31  C   UNL A   1      39.201  29.399  28.931  1.00  0.00     0.074 A 
ATOM     32  C   UNL A   1      38.310  30.793  30.749  1.00  0.00     0.049 A 
ATOM     33  N   UNL A   1      40.213  28.813  29.520  1.00  0.00    -0.248 NA
ATOM     34  C   UNL A   1      39.143  29.165  27.480  1.00  0.00     0.031 C 
ATOM     35  C   UNL A   1      37.409  31.712  31.446  1.00  0.00     0.029 A 
ATOM     36  N   UNL A   1      39.376  30.674  31.613  1.00  0.00    -0.354 N 
ATOM     37  C   UNL A   1      40.846  28.057  28.535  1.00  0.00     0.074 A 
ATOM     38  C   UNL A   1      40.112  28.277  27.307  1.00  0.00     0.031 C 
ATOM     39  C   UNL A   1      37.991  32.138  32.576  1.00  0.00     0.029 A 
ATOM     40  C   UNL A   1      39.231  31.400  32.775  1.00  0.00     0.049 A 
ATOM     41  H   UNL A   1      40.168  30.122  31.418  1.00  0.00     0.167 HD
ATOM     42  C   UNL A   1      41.928  27.246  28.652  1.00  0.00     0.034 A 
ATOM     43  C   UNL A   1      39.958  31.422  33.911  1.00  0.00     0.034 A 
ATOM     44  C   UNL A   1      42.712  27.120  29.860  1.00  0.00     0.049 A 
ATOM     45  C   UNL A   1      41.132  30.489  34.038  1.00  0.00     0.074 A 
ATOM     46  C   UNL A   1      43.830  26.333  30.085  1.00  0.00     0.029 A 
ATOM     47  N   UNL A   1      42.482  27.822  31.034  1.00  0.00    -0.354 N 
ATOM     48  N   UNL A   1      41.622  29.652  33.154  1.00  0.00    -0.248 NA
ATOM     49  C   UNL A   1      41.826  30.476  35.332  1.00  0.00     0.031 C 
ATOM     50  C   UNL A   1      44.243  26.522  31.409  1.00  0.00     0.029 A 
ATOM     51  C   UNL A   1      43.425  27.475  31.991  1.00  0.00     0.049 A 
ATOM     52  H   UNL A   1      41.755  28.472  31.169  1.00  0.00     0.167 HD
ATOM     53  C   UNL A   1      42.685  29.014  33.788  1.00  0.00     0.074 A 
ATOM     54  C   UNL A   1      42.782  29.583  35.116  1.00  0.00     0.031 C 
ATOM     55  C   UNL A   1      43.500  28.037  33.317  1.00  0.00     0.034 A 
BRANCH  42  56
ATOM     56  C   UNL A   1      42.281  26.369  27.473  1.00  0.00     0.023 A 
ATOM     57  C   UNL A   1      41.850  25.037  27.358  1.00  0.00     0.031 A 
ATOM     58  C   UNL A   1      43.092  26.889  26.445  1.00  0.00     0.131 A 
ATOM     59  C   UNL A   1      42.285  24.253  26.275  1.00  0.00     0.055 A 
ATOM     60  C   UNL A   1      43.456  26.127  25.332  1.00  0.00     0.041 A 
ATOM     61  F   UNL A   1      43.552  28.148  26.508  1.00  0.00    -0.206 F 
ATOM     62  C   UNL A   1      43.063  24.797  25.250  1.00  0.00     0.022 A 
BRANCH  59  63
ATOM     63  S   UNL A   1      41.932  22.474  26.292  1.00  0.00     0.124 S 
ATOM     64  O   UNL A   1      42.661  22.017  25.112  1.00  0.00    -0.237 OA
ATOM     65  O   UNL A   1      42.475  22.057  27.580  1.00  0.00    -0.237 OA
ATOM     66  O   UNL A   1      40.477  22.411  26.179  1.00  0.00    -0.744 OA
ENDBRANCH  59  63
ENDBRANCH  42  56
BRANCH  43  67
ATOM     67  C   UNL A   1      39.532  32.266  35.067  1.00  0.00     0.023 A 
ATOM     68  C   UNL A   1      38.838  31.713  36.155  1.00  0.00     0.031 A 
ATOM     69  C   UNL A   1      39.775  33.653  35.079  1.00  0.00     0.131 A 
ATOM     70  C   UNL A   1      38.387  32.545  37.191  1.00  0.00     0.055 A 
ATOM     71  C   UNL A   1      39.383  34.464  36.144  1.00  0.00     0.041 A 
ATOM     72  F   UNL A   1      40.422  34.240  34.059  1.00  0.00    -0.206 F 
ATOM     73  C   UNL A   1      38.673  33.912  37.204  1.00  0.00     0.022 A 
BRANCH  70  74
ATOM     74  S   UNL A   1      37.338  31.830  38.488  1.00  0.00     0.124 S 
ATOM     75  O   UNL A   1      38.185  31.976  39.667  1.00  0.00    -0.237 OA
ATOM     76  O   UNL A   1      36.160  32.689  38.433  1.00  0.00    -0.237 OA
ATOM     77  O   UNL A   1      37.127  30.456  38.037  1.00  0.00    -0.744 OA
ENDBRANCH  70  74
ENDBRANCH  43  67
BRANCH  55  78
ATOM     78  C   UNL A   1      44.589  27.560  34.243  1.00  0.00     0.023 A 
ATOM     79  C   UNL A   1      44.401  26.459  35.097  1.00  0.00     0.031 A 
ATOM     80  C   UNL A   1      45.820  28.237  34.294  1.00  0.00     0.131 A 
ATOM     81  C   UNL A   1      45.407  26.099  36.005  1.00  0.00     0.055 A 
ATOM     82  C   UNL A   1      46.839  27.841  35.162  1.00  0.00     0.041 A 
ATOM     83  F   UNL A   1      46.050  29.296  33.502  1.00  0.00    -0.206 F 
ATOM     84  C   UNL A   1      46.630  26.775  36.033  1.00  0.00     0.022 A 
BRANCH  81  85
ATOM     85  S   UNL A   1      45.066  24.788  37.212  1.00  0.00     0.124 S 
ATOM     86  O   UNL A   1      43.974  25.367  37.989  1.00  0.00    -0.237 OA
ATOM     87  O   UNL A   1      44.712  23.660  36.357  1.00  0.00    -0.237 OA
ATOM     88  O   UNL A   1      46.331  24.646  37.931  1.00  0.00    -0.744 OA
ENDBRANCH  81  85
ENDBRANCH  55  78
ENDBRANCH  29  30
ENDBRANCH  22  24
ENDBRANCH  21  22
ENDBRANCH   1  21
TORSDOF 17
ENDMDL
