MODEL 1
REMARK VINA RESULT:     -12.3      0.000      0.000
REMARK SMILES O=C(CNC(=O)N1CC(OCCOC(=O)c2ccc(-c3c4nc(c(-c5cc(S(=O)(=O)[O-])ccc5F)c5ccc([nH]5)c(-c5cc(S(=O)(=O)[O-])ccc5F)c5nc(c(-c6cc(S(=O)(=O)[O-])ccc6F)c6ccc3[nH]6)C=C5)C=C4)cc2)=Nc2ccccc21)N[C@H](C(=O)[O-])c1ccccc1
REMARK SMILES IDX 11 1 10 2 9 3 7 4 8 5 85 6 80 7 84 8 79 9 81 10 83 11 82 12
REMARK SMILES IDX 5 13 4 14 6 16 3 17 2 18 1 19 86 20 87 22 91 23 92 24 96 25
REMARK SMILES IDX 93 26 95 27 94 28 88 29 89 30 90 31 12 32 13 33 14 34 15 35
REMARK SMILES IDX 16 36 17 37 78 38 18 39 77 40 19 41 20 42 21 43 71 44 22 45
REMARK SMILES IDX 76 46 70 47 72 48 23 49 75 50 69 51 68 52 24 54 56 55 36 56
REMARK SMILES IDX 55 57 37 58 40 59 54 60 73 61 38 62 39 63 53 65 74 66 41 67
REMARK SMILES IDX 25 68 26 69 34 70 27 71 33 72 35 73 32 74 28 75 29 76 30 77
REMARK SMILES IDX 31 78 57 79 58 80 66 81 59 82 65 83 67 84 64 85 60 86 61 87
REMARK SMILES IDX 62 88 63 89 42 90 43 91 51 92 44 93 50 94 52 95 49 96 45 97
REMARK SMILES IDX 46 98 47 99 48 100
REMARK H PARENT 4 15 86 21 72 53 40 64
REMARK Flexibility Score: inf
ROOT
ATOM      1  C   UNL A   1      35.670  21.026  24.794  1.00  0.00     0.272 C 
ENDROOT
BRANCH   1   2
ATOM      2  O   UNL A   1      35.375  22.106  23.876  1.00  0.00    -0.476 OA
BRANCH   2   3
ATOM      3  C   UNL A   1      34.139  22.665  23.904  1.00  0.00     0.209 C 
ATOM      4  N   UNL A   1      32.873  24.429  22.776  1.00  0.00    -0.283 N 
ATOM      5  C   UNL A   1      33.755  23.293  22.586  1.00  0.00     0.224 C 
ATOM      6  C   UNL A   1      31.944  24.347  23.857  1.00  0.00     0.072 A 
ATOM      7  C   UNL A   1      32.188  23.390  24.884  1.00  0.00     0.091 A 
ATOM      8  C   UNL A   1      30.910  25.277  24.025  1.00  0.00     0.029 A 
ATOM      9  N   UNL A   1      33.361  22.603  24.937  1.00  0.00    -0.214 NA
ATOM     10  C   UNL A   1      31.408  23.406  26.049  1.00  0.00     0.030 A 
ATOM     11  C   UNL A   1      30.156  25.288  25.209  1.00  0.00     0.002 A 
ATOM     12  C   UNL A   1      30.409  24.361  26.220  1.00  0.00     0.002 A 
BRANCH   4  13
ATOM     13  C   UNL A   1      32.830  25.335  21.740  1.00  0.00     0.322 C 
ATOM     14  N   UNL A   1      33.589  26.468  21.873  1.00  0.00    -0.329 N 
ATOM     15  H   UNL A   1      33.898  26.893  21.040  1.00  0.00     0.165 HD
ATOM     16  O   UNL A   1      32.308  25.070  20.658  1.00  0.00    -0.248 OA
BRANCH  14  17
ATOM     17  C   UNL A   1      33.987  27.107  23.119  1.00  0.00     0.218 C 
BRANCH  17  18
ATOM     18  C   UNL A   1      33.465  28.491  23.542  1.00  0.00     0.240 C 
ATOM     19  O   UNL A   1      33.933  29.495  23.011  1.00  0.00    -0.273 OA
ATOM     20  N   UNL A   1      32.383  28.495  24.393  1.00  0.00    -0.342 N 
ATOM     21  H   UNL A   1      32.092  27.634  24.772  1.00  0.00     0.164 HD
BRANCH  20  22
ATOM     22  C   UNL A   1      31.620  29.722  24.784  1.00  0.00     0.158 C 
BRANCH  22  23
ATOM     23  C   UNL A   1      30.242  29.835  24.130  1.00  0.00    -0.020 A 
ATOM     24  C   UNL A   1      29.619  28.755  23.484  1.00  0.00     0.006 A 
ATOM     25  C   UNL A   1      29.534  31.051  24.186  1.00  0.00     0.006 A 
ATOM     26  C   UNL A   1      28.380  28.911  22.848  1.00  0.00     0.000 A 
ATOM     27  C   UNL A   1      28.315  31.218  23.526  1.00  0.00     0.000 A 
ATOM     28  C   UNL A   1      27.741  30.149  22.850  1.00  0.00     0.000 A 
ENDBRANCH  22  23
BRANCH  22  29
ATOM     29  C   UNL A   1      31.724  30.071  26.320  1.00  0.00     0.068 C 
ATOM     30  O   UNL A   1      31.544  29.155  27.173  1.00  0.00    -0.548 OA
ATOM     31  O   UNL A   1      32.012  31.292  26.563  1.00  0.00    -0.548 OA
ENDBRANCH  22  29
ENDBRANCH  20  22
ENDBRANCH  17  18
ENDBRANCH  14  17
ENDBRANCH   4  13
ENDBRANCH   2   3
ENDBRANCH   1   2
BRANCH   1  32
ATOM     32  C   UNL A   1      36.821  21.349  25.768  1.00  0.00     0.274 C 
BRANCH  32  33
ATOM     33  O   UNL A   1      38.112  21.482  25.124  1.00  0.00    -0.458 OA
BRANCH  33  34
ATOM     34  C   UNL A   1      39.135  21.066  25.904  1.00  0.00     0.338 C 
ATOM     35  O   UNL A   1      39.763  20.021  25.724  1.00  0.00    -0.246 OA
BRANCH  34  36
ATOM     36  C   UNL A   1      39.678  22.136  26.779  1.00  0.00     0.060 A 
ATOM     37  C   UNL A   1      39.156  23.387  26.500  1.00  0.00     0.016 A 
ATOM     38  C   UNL A   1      40.765  22.062  27.644  1.00  0.00     0.016 A 
ATOM     39  C   UNL A   1      39.749  24.561  26.923  1.00  0.00     0.010 A 
ATOM     40  C   UNL A   1      41.324  23.260  28.173  1.00  0.00     0.010 A 
ATOM     41  C   UNL A   1      40.839  24.527  27.785  1.00  0.00    -0.014 A 
BRANCH  41  42
ATOM     42  C   UNL A   1      41.448  25.855  28.108  1.00  0.00     0.031 A 
ATOM     43  C   UNL A   1      42.752  26.261  27.467  1.00  0.00     0.074 A 
ATOM     44  C   UNL A   1      40.711  26.799  28.738  1.00  0.00     0.049 A 
ATOM     45  N   UNL A   1      43.412  27.389  27.581  1.00  0.00    -0.248 NA
ATOM     46  C   UNL A   1      43.369  25.292  26.551  1.00  0.00     0.031 C 
ATOM     47  C   UNL A   1      39.342  26.603  29.227  1.00  0.00     0.029 A 
ATOM     48  N   UNL A   1      40.962  28.125  29.010  1.00  0.00    -0.354 N 
ATOM     49  C   UNL A   1      44.538  27.252  26.773  1.00  0.00     0.074 A 
ATOM     50  C   UNL A   1      44.456  25.943  26.161  1.00  0.00     0.031 C 
ATOM     51  C   UNL A   1      38.856  27.774  29.666  1.00  0.00     0.029 A 
ATOM     52  C   UNL A   1      39.907  28.785  29.605  1.00  0.00     0.049 A 
ATOM     53  H   UNL A   1      41.818  28.562  28.800  1.00  0.00     0.167 HD
ATOM     54  C   UNL A   1      45.559  28.127  26.587  1.00  0.00     0.034 A 
ATOM     55  C   UNL A   1      39.803  30.044  30.086  1.00  0.00     0.034 A 
ATOM     56  C   UNL A   1      45.637  29.423  27.224  1.00  0.00     0.049 A 
ATOM     57  C   UNL A   1      41.011  30.947  29.992  1.00  0.00     0.074 A 
ATOM     58  C   UNL A   1      46.692  30.321  27.237  1.00  0.00     0.029 A 
ATOM     59  N   UNL A   1      44.615  30.010  27.960  1.00  0.00    -0.354 N 
ATOM     60  N   UNL A   1      42.156  30.737  29.385  1.00  0.00    -0.248 NA
ATOM     61  C   UNL A   1      40.923  32.246  30.673  1.00  0.00     0.031 C 
ATOM     62  C   UNL A   1      46.329  31.419  28.028  1.00  0.00     0.029 A 
ATOM     63  C   UNL A   1      45.021  31.246  28.449  1.00  0.00     0.049 A 
ATOM     64  H   UNL A   1      43.730  29.607  28.115  1.00  0.00     0.167 HD
ATOM     65  C   UNL A   1      42.919  31.881  29.605  1.00  0.00     0.074 A 
ATOM     66  C   UNL A   1      42.089  32.793  30.364  1.00  0.00     0.031 C 
ATOM     67  C   UNL A   1      44.195  32.148  29.221  1.00  0.00     0.034 A 
BRANCH  54  68
ATOM     68  C   UNL A   1      46.740  27.629  25.787  1.00  0.00     0.023 A 
ATOM     69  C   UNL A   1      46.950  27.963  24.435  1.00  0.00     0.031 A 
ATOM     70  C   UNL A   1      47.653  26.751  26.401  1.00  0.00     0.131 A 
ATOM     71  C   UNL A   1      48.029  27.393  23.735  1.00  0.00     0.055 A 
ATOM     72  C   UNL A   1      48.742  26.218  25.713  1.00  0.00     0.041 A 
ATOM     73  F   UNL A   1      47.496  26.391  27.685  1.00  0.00    -0.206 F 
ATOM     74  C   UNL A   1      48.928  26.529  24.371  1.00  0.00     0.022 A 
BRANCH  71  75
ATOM     75  S   UNL A   1      48.228  27.724  21.958  1.00  0.00     0.124 S 
ATOM     76  O   UNL A   1      48.465  26.395  21.408  1.00  0.00    -0.237 OA
ATOM     77  O   UNL A   1      46.950  28.341  21.613  1.00  0.00    -0.237 OA
ATOM     78  O   UNL A   1      49.379  28.625  21.903  1.00  0.00    -0.744 OA
ENDBRANCH  71  75
ENDBRANCH  54  68
BRANCH  55  79
ATOM     79  C   UNL A   1      38.570  30.503  30.804  1.00  0.00     0.023 A 
ATOM     80  C   UNL A   1      37.520  31.163  30.137  1.00  0.00     0.031 A 
ATOM     81  C   UNL A   1      38.468  30.375  32.203  1.00  0.00     0.131 A 
ATOM     82  C   UNL A   1      36.450  31.704  30.871  1.00  0.00     0.055 A 
ATOM     83  C   UNL A   1      37.366  30.848  32.918  1.00  0.00     0.041 A 
ATOM     84  F   UNL A   1      39.447  29.787  32.907  1.00  0.00    -0.206 F 
ATOM     85  C   UNL A   1      36.356  31.531  32.253  1.00  0.00     0.022 A 
BRANCH  82  86
ATOM     86  S   UNL A   1      35.234  32.754  30.019  1.00  0.00     0.124 S 
ATOM     87  O   UNL A   1      36.056  33.875  29.587  1.00  0.00    -0.237 OA
ATOM     88  O   UNL A   1      34.750  31.866  28.965  1.00  0.00    -0.237 OA
ATOM     89  O   UNL A   1      34.258  33.062  31.063  1.00  0.00    -0.744 OA
ENDBRANCH  82  86
ENDBRANCH  55  79
BRANCH  67  90
ATOM     90  C   UNL A   1      44.751  33.504  29.595  1.00  0.00     0.023 A 
ATOM     91  C   UNL A   1      44.701  34.600  28.713  1.00  0.00     0.031 A 
ATOM     92  C   UNL A   1      45.373  33.690  30.842  1.00  0.00     0.131 A 
ATOM     93  C   UNL A   1      45.317  35.813  29.065  1.00  0.00     0.055 A 
ATOM     94  C   UNL A   1      45.931  34.916  31.210  1.00  0.00     0.041 A 
ATOM     95  F   UNL A   1      45.457  32.681  31.723  1.00  0.00    -0.206 F 
ATOM     96  C   UNL A   1      45.919  35.981  30.314  1.00  0.00     0.022 A 
BRANCH  93  97
ATOM     97  S   UNL A   1      45.421  37.139  27.828  1.00  0.00     0.124 S 
ATOM     98  O   UNL A   1      46.593  37.884  28.272  1.00  0.00    -0.237 OA
ATOM     99  O   UNL A   1      45.571  36.394  26.582  1.00  0.00    -0.237 OA
ATOM    100  O   UNL A   1      44.148  37.845  27.973  1.00  0.00    -0.744 OA
ENDBRANCH  93  97
ENDBRANCH  67  90
ENDBRANCH  41  42
ENDBRANCH  34  36
ENDBRANCH  33  34
ENDBRANCH  32  33
ENDBRANCH   1  32
TORSDOF 19
ENDMDL
MODEL 2
REMARK VINA RESULT:     -11.8      2.612      3.735
REMARK SMILES O=C(CNC(=O)N1CC(OCCOC(=O)c2ccc(-c3c4nc(c(-c5cc(S(=O)(=O)[O-])ccc5F)c5ccc([nH]5)c(-c5cc(S(=O)(=O)[O-])ccc5F)c5nc(c(-c6cc(S(=O)(=O)[O-])ccc6F)c6ccc3[nH]6)C=C5)C=C4)cc2)=Nc2ccccc21)N[C@H](C(=O)[O-])c1ccccc1
REMARK SMILES IDX 11 1 10 2 9 3 7 4 8 5 85 6 80 7 84 8 79 9 81 10 83 11 82 12
REMARK SMILES IDX 5 13 4 14 6 16 3 17 2 18 1 19 86 20 87 22 91 23 92 24 96 25
REMARK SMILES IDX 93 26 95 27 94 28 88 29 89 30 90 31 12 32 13 33 14 34 15 35
REMARK SMILES IDX 16 36 17 37 78 38 18 39 77 40 19 41 20 42 21 43 71 44 22 45
REMARK SMILES IDX 76 46 70 47 72 48 23 49 75 50 69 51 68 52 24 54 56 55 36 56
REMARK SMILES IDX 55 57 37 58 40 59 54 60 73 61 38 62 39 63 53 65 74 66 41 67
REMARK SMILES IDX 25 68 26 69 34 70 27 71 33 72 35 73 32 74 28 75 29 76 30 77
REMARK SMILES IDX 31 78 57 79 58 80 66 81 59 82 65 83 67 84 64 85 60 86 61 87
REMARK SMILES IDX 62 88 63 89 42 90 43 91 51 92 44 93 50 94 52 95 49 96 45 97
REMARK SMILES IDX 46 98 47 99 48 100
REMARK H PARENT 4 15 86 21 72 53 40 64
REMARK Flexibility Score: inf
ROOT
ATOM      1  C   UNL A   1      38.229  19.916  25.017  1.00  0.00     0.272 C 
ENDROOT
BRANCH   1   2
ATOM      2  O   UNL A   1      37.977  21.257  24.532  1.00  0.00    -0.476 OA
BRANCH   2   3
ATOM      3  C   UNL A   1      36.691  21.665  24.386  1.00  0.00     0.209 C 
ATOM      4  N   UNL A   1      34.423  20.812  24.728  1.00  0.00    -0.283 N 
ATOM      5  C   UNL A   1      35.744  20.943  25.313  1.00  0.00     0.224 C 
ATOM      6  C   UNL A   1      33.976  21.889  23.903  1.00  0.00     0.072 A 
ATOM      7  C   UNL A   1      34.951  22.798  23.396  1.00  0.00     0.091 A 
ATOM      8  C   UNL A   1      32.656  21.982  23.445  1.00  0.00     0.029 A 
ATOM      9  N   UNL A   1      36.340  22.614  23.579  1.00  0.00    -0.214 NA
ATOM     10  C   UNL A   1      34.579  23.751  22.438  1.00  0.00     0.030 A 
ATOM     11  C   UNL A   1      32.313  22.930  22.470  1.00  0.00     0.002 A 
ATOM     12  C   UNL A   1      33.272  23.806  21.962  1.00  0.00     0.002 A 
BRANCH   4  13
ATOM     13  C   UNL A   1      33.633  19.810  25.244  1.00  0.00     0.322 C 
ATOM     14  N   UNL A   1      33.036  20.049  26.454  1.00  0.00    -0.329 N 
ATOM     15  H   UNL A   1      32.191  19.575  26.632  1.00  0.00     0.165 HD
ATOM     16  O   UNL A   1      33.301  18.828  24.580  1.00  0.00    -0.248 OA
BRANCH  14  17
ATOM     17  C   UNL A   1      33.522  20.933  27.504  1.00  0.00     0.218 C 
BRANCH  17  18
ATOM     18  C   UNL A   1      32.893  22.308  27.786  1.00  0.00     0.240 C 
ATOM     19  O   UNL A   1      33.226  22.922  28.797  1.00  0.00    -0.273 OA
ATOM     20  N   UNL A   1      32.099  22.826  26.787  1.00  0.00    -0.342 N 
ATOM     21  H   UNL A   1      31.885  22.245  26.022  1.00  0.00     0.164 HD
BRANCH  20  22
ATOM     22  C   UNL A   1      31.538  24.214  26.789  1.00  0.00     0.158 C 
BRANCH  22  23
ATOM     23  C   UNL A   1      32.177  25.145  25.758  1.00  0.00    -0.020 A 
ATOM     24  C   UNL A   1      33.542  25.475  25.776  1.00  0.00     0.006 A 
ATOM     25  C   UNL A   1      31.393  25.689  24.720  1.00  0.00     0.006 A 
ATOM     26  C   UNL A   1      34.079  26.377  24.847  1.00  0.00     0.000 A 
ATOM     27  C   UNL A   1      31.919  26.611  23.815  1.00  0.00     0.000 A 
ATOM     28  C   UNL A   1      33.262  26.961  23.882  1.00  0.00     0.000 A 
ENDBRANCH  22  23
BRANCH  22  29
ATOM     29  C   UNL A   1      29.967  24.262  26.935  1.00  0.00     0.068 C 
ATOM     30  O   UNL A   1      29.346  25.301  26.568  1.00  0.00    -0.548 OA
ATOM     31  O   UNL A   1      29.451  23.194  27.411  1.00  0.00    -0.548 OA
ENDBRANCH  22  29
ENDBRANCH  20  22
ENDBRANCH  17  18
ENDBRANCH  14  17
ENDBRANCH   4  13
ENDBRANCH   2   3
ENDBRANCH   1   2
BRANCH   1  32
ATOM     32  C   UNL A   1      39.424  19.832  25.988  1.00  0.00     0.274 C 
BRANCH  32  33
ATOM     33  O   UNL A   1      40.521  19.023  25.498  1.00  0.00    -0.458 OA
BRANCH  33  34
ATOM     34  C   UNL A   1      41.730  19.469  25.908  1.00  0.00     0.338 C 
ATOM     35  O   UNL A   1      42.805  19.015  25.514  1.00  0.00    -0.246 OA
BRANCH  34  36
ATOM     36  C   UNL A   1      41.668  20.784  26.595  1.00  0.00     0.060 A 
ATOM     37  C   UNL A   1      41.695  21.858  25.720  1.00  0.00     0.016 A 
ATOM     38  C   UNL A   1      41.813  21.045  27.953  1.00  0.00     0.016 A 
ATOM     39  C   UNL A   1      42.000  23.145  26.120  1.00  0.00     0.010 A 
ATOM     40  C   UNL A   1      42.024  22.384  28.391  1.00  0.00     0.010 A 
ATOM     41  C   UNL A   1      42.156  23.444  27.469  1.00  0.00    -0.014 A 
BRANCH  41  42
ATOM     42  C   UNL A   1      42.566  24.849  27.776  1.00  0.00     0.031 A 
ATOM     43  C   UNL A   1      43.873  25.385  27.247  1.00  0.00     0.074 A 
ATOM     44  C   UNL A   1      41.659  25.722  28.274  1.00  0.00     0.049 A 
ATOM     45  N   UNL A   1      44.379  26.590  27.362  1.00  0.00    -0.248 NA
ATOM     46  C   UNL A   1      44.695  24.461  26.454  1.00  0.00     0.031 C 
ATOM     47  C   UNL A   1      40.278  25.380  28.633  1.00  0.00     0.029 A 
ATOM     48  N   UNL A   1      41.721  27.080  28.494  1.00  0.00    -0.354 N 
ATOM     49  C   UNL A   1      45.593  26.558  26.681  1.00  0.00     0.074 A 
ATOM     50  C   UNL A   1      45.732  25.223  26.139  1.00  0.00     0.031 C 
ATOM     51  C   UNL A   1      39.614  26.500  28.954  1.00  0.00     0.029 A 
ATOM     52  C   UNL A   1      40.538  27.630  28.941  1.00  0.00     0.049 A 
ATOM     53  H   UNL A   1      42.537  27.610  28.346  1.00  0.00     0.167 HD
ATOM     54  C   UNL A   1      46.517  27.544  26.549  1.00  0.00     0.034 A 
ATOM     55  C   UNL A   1      40.235  28.886  29.337  1.00  0.00     0.034 A 
ATOM     56  C   UNL A   1      46.373  28.866  27.116  1.00  0.00     0.049 A 
ATOM     57  C   UNL A   1      41.330  29.926  29.314  1.00  0.00     0.074 A 
ATOM     58  C   UNL A   1      47.306  29.887  27.183  1.00  0.00     0.029 A 
ATOM     59  N   UNL A   1      45.215  29.354  27.711  1.00  0.00    -0.354 N 
ATOM     60  N   UNL A   1      42.550  29.834  28.839  1.00  0.00    -0.248 NA
ATOM     61  C   UNL A   1      41.017  31.234  29.908  1.00  0.00     0.031 C 
ATOM     62  C   UNL A   1      46.734  30.966  27.871  1.00  0.00     0.029 A 
ATOM     63  C   UNL A   1      45.418  30.651  28.167  1.00  0.00     0.049 A 
ATOM     64  H   UNL A   1      44.373  28.852  27.798  1.00  0.00     0.167 HD
ATOM     65  C   UNL A   1      43.145  31.072  29.068  1.00  0.00     0.074 A 
ATOM     66  C   UNL A   1      42.136  31.906  29.688  1.00  0.00     0.031 C 
ATOM     67  C   UNL A   1      44.413  31.477  28.800  1.00  0.00     0.034 A 
BRANCH  54  68
ATOM     68  C   UNL A   1      47.827  27.161  25.901  1.00  0.00     0.023 A 
ATOM     69  C   UNL A   1      48.867  26.508  26.591  1.00  0.00     0.031 A 
ATOM     70  C   UNL A   1      48.045  27.512  24.555  1.00  0.00     0.131 A 
ATOM     71  C   UNL A   1      50.088  26.258  25.939  1.00  0.00     0.055 A 
ATOM     72  C   UNL A   1      49.245  27.229  23.903  1.00  0.00     0.041 A 
ATOM     73  F   UNL A   1      47.092  28.145  23.851  1.00  0.00    -0.206 F 
ATOM     74  C   UNL A   1      50.277  26.609  24.598  1.00  0.00     0.022 A 
BRANCH  71  75
ATOM     75  S   UNL A   1      51.472  25.530  26.866  1.00  0.00     0.124 S 
ATOM     76  O   UNL A   1      52.118  24.686  25.868  1.00  0.00    -0.237 OA
ATOM     77  O   UNL A   1      52.221  26.710  27.286  1.00  0.00    -0.237 OA
ATOM     78  O   UNL A   1      50.814  24.803  27.951  1.00  0.00    -0.744 OA
ENDBRANCH  71  75
ENDBRANCH  54  68
BRANCH  55  79
ATOM     79  C   UNL A   1      38.886  29.221  29.901  1.00  0.00     0.023 A 
ATOM     80  C   UNL A   1      37.909  29.897  29.146  1.00  0.00     0.031 A 
ATOM     81  C   UNL A   1      38.589  28.953  31.252  1.00  0.00     0.131 A 
ATOM     82  C   UNL A   1      36.714  30.318  29.757  1.00  0.00     0.055 A 
ATOM     83  C   UNL A   1      37.370  29.307  31.832  1.00  0.00     0.041 A 
ATOM     84  F   UNL A   1      39.488  28.342  32.039  1.00  0.00    -0.206 F 
ATOM     85  C   UNL A   1      36.431  30.008  31.088  1.00  0.00     0.022 A 
BRANCH  82  86
ATOM     86  S   UNL A   1      35.578  31.392  28.829  1.00  0.00     0.124 S 
ATOM     87  O   UNL A   1      36.502  32.256  28.109  1.00  0.00    -0.237 OA
ATOM     88  O   UNL A   1      34.835  30.428  28.023  1.00  0.00    -0.237 OA
ATOM     89  O   UNL A   1      34.799  32.051  29.877  1.00  0.00    -0.744 OA
ENDBRANCH  82  86
ENDBRANCH  55  79
BRANCH  67  90
ATOM     90  C   UNL A   1      44.762  32.907  29.150  1.00  0.00     0.023 A 
ATOM     91  C   UNL A   1      44.527  33.972  28.260  1.00  0.00     0.031 A 
ATOM     92  C   UNL A   1      45.372  33.201  30.382  1.00  0.00     0.131 A 
ATOM     93  C   UNL A   1      44.955  35.268  28.588  1.00  0.00     0.055 A 
ATOM     94  C   UNL A   1      45.743  34.502  30.727  1.00  0.00     0.041 A 
ATOM     95  F   UNL A   1      45.628  32.227  31.270  1.00  0.00    -0.206 F 
ATOM     96  C   UNL A   1      45.549  35.542  29.823  1.00  0.00     0.022 A 
BRANCH  93  97
ATOM     97  S   UNL A   1      44.830  36.580  27.338  1.00  0.00     0.124 S 
ATOM     98  O   UNL A   1      46.041  36.375  26.552  1.00  0.00    -0.237 OA
ATOM     99  O   UNL A   1      43.573  36.258  26.671  1.00  0.00    -0.237 OA
ATOM    100  O   UNL A   1      44.809  37.810  28.131  1.00  0.00    -0.744 OA
ENDBRANCH  93  97
ENDBRANCH  67  90
ENDBRANCH  41  42
ENDBRANCH  34  36
ENDBRANCH  33  34
ENDBRANCH  32  33
ENDBRANCH   1  32
TORSDOF 19
ENDMDL
MODEL 3
REMARK VINA RESULT:     -11.7      4.893     10.488
REMARK SMILES O=C(CNC(=O)N1CC(OCCOC(=O)c2ccc(-c3c4nc(c(-c5cc(S(=O)(=O)[O-])ccc5F)c5ccc([nH]5)c(-c5cc(S(=O)(=O)[O-])ccc5F)c5nc(c(-c6cc(S(=O)(=O)[O-])ccc6F)c6ccc3[nH]6)C=C5)C=C4)cc2)=Nc2ccccc21)N[C@H](C(=O)[O-])c1ccccc1
REMARK SMILES IDX 11 1 10 2 9 3 7 4 8 5 85 6 80 7 84 8 79 9 81 10 83 11 82 12
REMARK SMILES IDX 5 13 4 14 6 16 3 17 2 18 1 19 86 20 87 22 91 23 92 24 96 25
REMARK SMILES IDX 93 26 95 27 94 28 88 29 89 30 90 31 12 32 13 33 14 34 15 35
REMARK SMILES IDX 16 36 17 37 78 38 18 39 77 40 19 41 20 42 21 43 71 44 22 45
REMARK SMILES IDX 76 46 70 47 72 48 23 49 75 50 69 51 68 52 24 54 56 55 36 56
REMARK SMILES IDX 55 57 37 58 40 59 54 60 73 61 38 62 39 63 53 65 74 66 41 67
REMARK SMILES IDX 25 68 26 69 34 70 27 71 33 72 35 73 32 74 28 75 29 76 30 77
REMARK SMILES IDX 31 78 57 79 58 80 66 81 59 82 65 83 67 84 64 85 60 86 61 87
REMARK SMILES IDX 62 88 63 89 42 90 43 91 51 92 44 93 50 94 52 95 49 96 45 97
REMARK SMILES IDX 46 98 47 99 48 100
REMARK H PARENT 4 15 86 21 72 53 40 64
REMARK Flexibility Score: inf
ROOT
ATOM      1  C   UNL A   1      32.232  31.492  27.002  1.00  0.00     0.272 C 
ENDROOT
BRANCH   1   2
ATOM      2  O   UNL A   1      31.598  31.045  25.779  1.00  0.00    -0.476 OA
BRANCH   2   3
ATOM      3  C   UNL A   1      31.607  29.720  25.488  1.00  0.00     0.209 C 
ATOM      4  N   UNL A   1      30.780  28.191  23.766  1.00  0.00    -0.283 N 
ATOM      5  C   UNL A   1      31.463  29.448  24.011  1.00  0.00     0.224 C 
ATOM      6  C   UNL A   1      31.028  27.134  24.694  1.00  0.00     0.072 A 
ATOM      7  C   UNL A   1      31.580  27.470  25.964  1.00  0.00     0.091 A 
ATOM      8  C   UNL A   1      30.597  25.822  24.464  1.00  0.00     0.029 A 
ATOM      9  N   UNL A   1      31.784  28.803  26.385  1.00  0.00    -0.214 NA
ATOM     10  C   UNL A   1      31.663  26.492  26.965  1.00  0.00     0.030 A 
ATOM     11  C   UNL A   1      30.670  24.866  25.488  1.00  0.00     0.002 A 
ATOM     12  C   UNL A   1      31.193  25.201  26.736  1.00  0.00     0.002 A 
BRANCH   4  13
ATOM     13  C   UNL A   1      30.193  28.058  22.528  1.00  0.00     0.322 C 
ATOM     14  N   UNL A   1      30.823  27.242  21.625  1.00  0.00    -0.329 N 
ATOM     15  H   UNL A   1      30.254  26.814  20.944  1.00  0.00     0.165 HD
ATOM     16  O   UNL A   1      29.059  28.474  22.292  1.00  0.00    -0.248 OA
BRANCH  14  17
ATOM     17  C   UNL A   1      32.246  26.941  21.570  1.00  0.00     0.218 C 
BRANCH  17  18
ATOM     18  C   UNL A   1      32.785  25.507  21.440  1.00  0.00     0.240 C 
ATOM     19  O   UNL A   1      33.215  25.126  20.354  1.00  0.00    -0.273 OA
ATOM     20  N   UNL A   1      32.886  24.789  22.611  1.00  0.00    -0.342 N 
ATOM     21  H   UNL A   1      32.499  25.184  23.426  1.00  0.00     0.164 HD
BRANCH  20  22
ATOM     22  C   UNL A   1      33.543  23.449  22.726  1.00  0.00     0.158 C 
BRANCH  22  23
ATOM     23  C   UNL A   1      34.769  23.433  23.639  1.00  0.00    -0.020 A 
ATOM     24  C   UNL A   1      35.944  22.733  23.319  1.00  0.00     0.006 A 
ATOM     25  C   UNL A   1      34.760  24.163  24.844  1.00  0.00     0.006 A 
ATOM     26  C   UNL A   1      37.027  22.695  24.207  1.00  0.00     0.000 A 
ATOM     27  C   UNL A   1      35.825  24.101  25.744  1.00  0.00     0.000 A 
ATOM     28  C   UNL A   1      36.957  23.361  25.428  1.00  0.00     0.000 A 
ENDBRANCH  22  23
BRANCH  22  29
ATOM     29  C   UNL A   1      32.522  22.253  22.862  1.00  0.00     0.068 C 
ATOM     30  O   UNL A   1      32.246  21.559  21.841  1.00  0.00    -0.548 OA
ATOM     31  O   UNL A   1      32.069  22.082  24.045  1.00  0.00    -0.548 OA
ENDBRANCH  22  29
ENDBRANCH  20  22
ENDBRANCH  17  18
ENDBRANCH  14  17
ENDBRANCH   4  13
ENDBRANCH   2   3
ENDBRANCH   1   2
BRANCH   1  32
ATOM     32  C   UNL A   1      32.249  33.027  27.156  1.00  0.00     0.274 C 
BRANCH  32  33
ATOM     33  O   UNL A   1      32.289  33.476  28.532  1.00  0.00    -0.458 OA
BRANCH  33  34
ATOM     34  C   UNL A   1      33.322  34.311  28.784  1.00  0.00     0.338 C 
ATOM     35  O   UNL A   1      33.195  35.460  29.211  1.00  0.00    -0.246 OA
BRANCH  34  36
ATOM     36  C   UNL A   1      34.634  33.619  28.848  1.00  0.00     0.060 A 
ATOM     37  C   UNL A   1      34.611  32.477  29.632  1.00  0.00     0.016 A 
ATOM     38  C   UNL A   1      35.870  34.092  28.421  1.00  0.00     0.016 A 
ATOM     39  C   UNL A   1      35.756  31.878  30.121  1.00  0.00     0.010 A 
ATOM     40  C   UNL A   1      37.058  33.421  28.832  1.00  0.00     0.010 A 
ATOM     41  C   UNL A   1      37.010  32.325  29.719  1.00  0.00    -0.014 A 
BRANCH  41  42
ATOM     42  C   UNL A   1      38.175  31.657  30.377  1.00  0.00     0.031 A 
ATOM     43  C   UNL A   1      38.436  31.873  31.847  1.00  0.00     0.074 A 
ATOM     44  C   UNL A   1      38.820  30.650  29.743  1.00  0.00     0.049 A 
ATOM     45  N   UNL A   1      39.363  31.342  32.608  1.00  0.00    -0.248 NA
ATOM     46  C   UNL A   1      37.513  32.766  32.559  1.00  0.00     0.031 C 
ATOM     47  C   UNL A   1      38.522  30.191  28.382  1.00  0.00     0.029 A 
ATOM     48  N   UNL A   1      39.796  29.778  30.169  1.00  0.00    -0.354 N 
ATOM     49  C   UNL A   1      39.152  31.862  33.883  1.00  0.00     0.074 A 
ATOM     50  C   UNL A   1      37.996  32.728  33.793  1.00  0.00     0.031 C 
ATOM     51  C   UNL A   1      39.240  29.090  28.117  1.00  0.00     0.029 A 
ATOM     52  C   UNL A   1      40.139  28.821  29.236  1.00  0.00     0.049 A 
ATOM     53  H   UNL A   1      40.213  29.832  31.058  1.00  0.00     0.167 HD
ATOM     54  C   UNL A   1      39.875  31.657  35.013  1.00  0.00     0.034 A 
ATOM     55  C   UNL A   1      41.093  27.863  29.253  1.00  0.00     0.034 A 
ATOM     56  C   UNL A   1      41.041  30.804  35.080  1.00  0.00     0.049 A 
ATOM     57  C   UNL A   1      41.978  27.758  30.473  1.00  0.00     0.074 A 
ATOM     58  C   UNL A   1      41.941  30.646  36.122  1.00  0.00     0.029 A 
ATOM     59  N   UNL A   1      41.468  29.958  34.063  1.00  0.00    -0.354 N 
ATOM     60  N   UNL A   1      41.890  28.395  31.617  1.00  0.00    -0.248 NA
ATOM     61  C   UNL A   1      43.109  26.824  30.393  1.00  0.00     0.031 C 
ATOM     62  C   UNL A   1      42.941  29.755  35.712  1.00  0.00     0.029 A 
ATOM     63  C   UNL A   1      42.628  29.294  34.444  1.00  0.00     0.049 A 
ATOM     64  H   UNL A   1      41.015  29.847  33.197  1.00  0.00     0.167 HD
ATOM     65  C   UNL A   1      42.948  27.932  32.395  1.00  0.00     0.074 A 
ATOM     66  C   UNL A   1      43.636  26.933  31.604  1.00  0.00     0.031 C 
ATOM     67  C   UNL A   1      43.322  28.308  33.645  1.00  0.00     0.034 A 
BRANCH  54  68
ATOM     68  C   UNL A   1      39.510  32.500  36.212  1.00  0.00     0.023 A 
ATOM     69  C   UNL A   1      38.602  32.079  37.202  1.00  0.00     0.031 A 
ATOM     70  C   UNL A   1      40.065  33.788  36.329  1.00  0.00     0.131 A 
ATOM     71  C   UNL A   1      38.251  32.955  38.246  1.00  0.00     0.055 A 
ATOM     72  C   UNL A   1      39.742  34.638  37.386  1.00  0.00     0.041 A 
ATOM     73  F   UNL A   1      40.930  34.245  35.408  1.00  0.00    -0.206 F 
ATOM     74  C   UNL A   1      38.823  34.228  38.344  1.00  0.00     0.022 A 
BRANCH  71  75
ATOM     75  S   UNL A   1      36.984  32.458  39.452  1.00  0.00     0.124 S 
ATOM     76  O   UNL A   1      37.186  33.409  40.538  1.00  0.00    -0.237 OA
ATOM     77  O   UNL A   1      35.750  32.613  38.688  1.00  0.00    -0.237 OA
ATOM     78  O   UNL A   1      37.338  31.076  39.773  1.00  0.00    -0.744 OA
ENDBRANCH  71  75
ENDBRANCH  54  68
BRANCH  55  79
ATOM     79  C   UNL A   1      41.354  27.003  28.053  1.00  0.00     0.023 A 
ATOM     80  C   UNL A   1      41.055  25.628  28.041  1.00  0.00     0.031 A 
ATOM     81  C   UNL A   1      42.006  27.533  26.922  1.00  0.00     0.131 A 
ATOM     82  C   UNL A   1      41.448  24.831  26.951  1.00  0.00     0.055 A 
ATOM     83  C   UNL A   1      42.326  26.752  25.811  1.00  0.00     0.041 A 
ATOM     84  F   UNL A   1      42.351  28.829  26.879  1.00  0.00    -0.206 F 
ATOM     85  C   UNL A   1      42.062  25.389  25.828  1.00  0.00     0.022 A 
BRANCH  82  86
ATOM     86  S   UNL A   1      41.266  23.026  27.064  1.00  0.00     0.124 S 
ATOM     87  O   UNL A   1      41.904  22.581  25.834  1.00  0.00    -0.237 OA
ATOM     88  O   UNL A   1      41.976  22.724  28.304  1.00  0.00    -0.237 OA
ATOM     89  O   UNL A   1      39.817  22.832  27.120  1.00  0.00    -0.744 OA
ENDBRANCH  82  86
ENDBRANCH  55  79
BRANCH  67  90
ATOM     90  C   UNL A   1      44.518  27.600  34.242  1.00  0.00     0.023 A 
ATOM     91  C   UNL A   1      44.389  26.408  34.980  1.00  0.00     0.031 A 
ATOM     92  C   UNL A   1      45.805  28.148  34.098  1.00  0.00     0.131 A 
ATOM     93  C   UNL A   1      45.514  25.838  35.598  1.00  0.00     0.055 A 
ATOM     94  C   UNL A   1      46.929  27.544  34.665  1.00  0.00     0.041 A 
ATOM     95  F   UNL A   1      45.992  29.286  33.411  1.00  0.00    -0.206 F 
ATOM     96  C   UNL A   1      46.786  26.392  35.432  1.00  0.00     0.022 A 
BRANCH  93  97
ATOM     97  S   UNL A   1      45.284  24.424  36.714  1.00  0.00     0.124 S 
ATOM     98  O   UNL A   1      44.403  23.559  35.939  1.00  0.00    -0.237 OA
ATOM     99  O   UNL A   1      46.650  23.945  36.897  1.00  0.00    -0.237 OA
ATOM    100  O   UNL A   1      44.676  25.020  37.904  1.00  0.00    -0.744 OA
ENDBRANCH  93  97
ENDBRANCH  67  90
ENDBRANCH  41  42
ENDBRANCH  34  36
ENDBRANCH  33  34
ENDBRANCH  32  33
ENDBRANCH   1  32
TORSDOF 19
ENDMDL
