MODEL 1
REMARK VINA RESULT:     -13.0      0.000      0.000
REMARK SMILES C[C@@H](NC(=O)[C@@H]1CC[C@@H]2CCCC[C@@H]2[NH2+]1)C(=O)OCCOC(=O)c1ccc(-c2c3nc(c(-c4cc(S(=O)(=O)[O-])ccc4F)c4ccc([nH]4)c(-c4cc(S(=O)(=O)[O-])ccc4F)c4nc(c(-c5cc(S(=O)(=O)[O-])ccc5F)c5ccc2[nH]5)C=C4)C=C3)cc1
REMARK SMILES IDX 20 1 19 2 18 3 16 4 17 5 2 6 1 7 3 8 4 9 5 11 6 12 7 13
REMARK SMILES IDX 15 14 8 15 14 16 9 19 13 20 10 21 12 22 11 23 21 24 22 25
REMARK SMILES IDX 23 26 24 27 25 28 86 29 26 30 85 31 27 32 28 33 29 34 79 35
REMARK SMILES IDX 30 36 84 37 78 38 80 39 31 40 83 41 77 42 76 43 32 45 64 46
REMARK SMILES IDX 44 47 63 48 45 49 48 50 62 51 81 52 46 53 47 54 61 56 82 57
REMARK SMILES IDX 49 58 33 59 34 60 42 61 35 62 41 63 43 64 40 65 36 66 37 67
REMARK SMILES IDX 38 68 39 69 65 70 66 71 74 72 67 73 73 74 75 75 72 76 68 77
REMARK SMILES IDX 69 78 70 79 71 80 50 81 51 82 59 83 52 84 58 85 60 86 57 87
REMARK SMILES IDX 53 88 54 89 55 90 56 91
REMARK H PARENT 3 10 15 17 15 18 80 44 48 55
REMARK Flexibility Score: inf
ROOT
ATOM      1  C   UNL A   1      35.648  20.756  25.006  1.00  0.00     0.275 C 
ENDROOT
BRANCH   1   2
ATOM      2  C   UNL A   1      34.276  21.426  25.223  1.00  0.00     0.274 C 
BRANCH   2   3
ATOM      3  O   UNL A   1      34.120  22.699  24.516  1.00  0.00    -0.461 OA
BRANCH   3   4
ATOM      4  C   UNL A   1      33.687  23.875  25.238  1.00  0.00     0.328 C 
ATOM      5  O   UNL A   1      34.746  24.504  25.474  1.00  0.00    -0.250 OA
BRANCH   4   6
ATOM      6  C   UNL A   1      31.698  24.233  25.875  1.00  0.00     0.189 C 
ATOM      7  C   UNL A   1      30.442  23.265  26.545  1.00  0.00     0.043 C 
BRANCH   6   8
ATOM      8  N   UNL A   1      31.343  25.325  26.875  1.00  0.00    -0.338 N 
ATOM      9  C   UNL A   1      31.302  26.498  26.162  1.00  0.00     0.278 C 
ATOM     10  H   UNL A   1      31.177  25.213  27.838  1.00  0.00     0.164 HD
ATOM     11  O   UNL A   1      31.380  27.643  26.542  1.00  0.00    -0.268 OA
BRANCH   9  12
ATOM     12  C   UNL A   1      30.970  25.917  24.829  1.00  0.00     0.272 C 
ATOM     13  C   UNL A   1      32.416  26.904  23.950  1.00  0.00     0.076 C 
ATOM     14  N   UNL A   1      29.147  26.320  24.471  1.00  0.00    -0.333 N 
ATOM     15  C   UNL A   1      31.943  28.511  22.989  1.00  0.00     0.016 C 
ATOM     16  C   UNL A   1      28.743  27.620  23.167  1.00  0.00     0.186 C 
ATOM     17  H   UNL A   1      28.732  26.636  25.348  1.00  0.00     0.347 HD
ATOM     18  H   UNL A   1      28.775  25.454  24.080  1.00  0.00     0.347 HD
ATOM     19  C   UNL A   1      30.097  28.731  22.437  1.00  0.00     0.048 C 
ATOM     20  C   UNL A   1      27.400  28.393  23.178  1.00  0.00     0.065 C 
ATOM     21  C   UNL A   1      29.643  30.167  22.205  1.00  0.00     0.010 C 
ATOM     22  C   UNL A   1      27.424  29.901  23.486  1.00  0.00     0.006 C 
ATOM     23  C   UNL A   1      28.713  30.700  23.268  1.00  0.00     0.001 C 
ENDBRANCH   9  12
ENDBRANCH   6   8
ENDBRANCH   4   6
ENDBRANCH   3   4
ENDBRANCH   2   3
ENDBRANCH   1   2
BRANCH   1  24
ATOM     24  O   UNL A   1      36.708  21.727  24.917  1.00  0.00    -0.458 OA
BRANCH  24  25
ATOM     25  C   UNL A   1      37.933  21.317  25.342  1.00  0.00     0.338 C 
ATOM     26  O   UNL A   1      38.451  20.248  25.058  1.00  0.00    -0.246 OA
BRANCH  25  27
ATOM     27  C   UNL A   1      38.624  22.392  26.123  1.00  0.00     0.060 A 
ATOM     28  C   UNL A   1      38.211  23.718  26.056  1.00  0.00     0.016 A 
ATOM     29  C   UNL A   1      39.781  22.106  26.851  1.00  0.00     0.016 A 
ATOM     30  C   UNL A   1      39.045  24.749  26.501  1.00  0.00     0.010 A 
ATOM     31  C   UNL A   1      40.519  23.143  27.460  1.00  0.00     0.010 A 
ATOM     32  C   UNL A   1      40.199  24.499  27.252  1.00  0.00    -0.014 A 
BRANCH  32  33
ATOM     33  C   UNL A   1      41.072  25.613  27.788  1.00  0.00     0.031 A 
ATOM     34  C   UNL A   1      40.485  26.661  28.714  1.00  0.00     0.074 A 
ATOM     35  C   UNL A   1      42.389  25.727  27.490  1.00  0.00     0.049 A 
ATOM     36  N   UNL A   1      40.884  27.887  28.950  1.00  0.00    -0.248 NA
ATOM     37  C   UNL A   1      39.272  26.280  29.451  1.00  0.00     0.031 C 
ATOM     38  C   UNL A   1      43.187  24.779  26.713  1.00  0.00     0.029 A 
ATOM     39  N   UNL A   1      43.303  26.711  27.817  1.00  0.00    -0.354 N 
ATOM     40  C   UNL A   1      39.912  28.459  29.769  1.00  0.00     0.074 A 
ATOM     41  C   UNL A   1      38.919  27.431  30.008  1.00  0.00     0.031 C 
ATOM     42  C   UNL A   1      44.466  25.175  26.692  1.00  0.00     0.029 A 
ATOM     43  C   UNL A   1      44.553  26.505  27.275  1.00  0.00     0.049 A 
ATOM     44  H   UNL A   1      43.081  27.486  28.384  1.00  0.00     0.167 HD
ATOM     45  C   UNL A   1      39.848  29.728  30.252  1.00  0.00     0.034 A 
ATOM     46  C   UNL A   1      45.625  27.315  27.143  1.00  0.00     0.034 A 
ATOM     47  C   UNL A   1      40.900  30.707  30.080  1.00  0.00     0.049 A 
ATOM     48  C   UNL A   1      45.524  28.738  27.621  1.00  0.00     0.074 A 
ATOM     49  C   UNL A   1      40.938  32.025  30.503  1.00  0.00     0.029 A 
ATOM     50  N   UNL A   1      42.120  30.460  29.462  1.00  0.00    -0.354 N 
ATOM     51  N   UNL A   1      44.520  29.339  28.214  1.00  0.00    -0.248 NA
ATOM     52  C   UNL A   1      46.687  29.601  27.374  1.00  0.00     0.031 C 
ATOM     53  C   UNL A   1      42.153  32.589  30.096  1.00  0.00     0.029 A 
ATOM     54  C   UNL A   1      42.907  31.603  29.481  1.00  0.00     0.049 A 
ATOM     55  H   UNL A   1      42.387  29.600  29.067  1.00  0.00     0.167 HD
ATOM     56  C   UNL A   1      44.932  30.653  28.411  1.00  0.00     0.074 A 
ATOM     57  C   UNL A   1      46.284  30.748  27.901  1.00  0.00     0.031 C 
ATOM     58  C   UNL A   1      44.250  31.691  28.957  1.00  0.00     0.034 A 
BRANCH  45  59
ATOM     59  C   UNL A   1      38.562  30.161  30.924  1.00  0.00     0.023 A 
ATOM     60  C   UNL A   1      37.523  30.814  30.239  1.00  0.00     0.031 A 
ATOM     61  C   UNL A   1      38.394  29.940  32.306  1.00  0.00     0.131 A 
ATOM     62  C   UNL A   1      36.407  31.290  30.948  1.00  0.00     0.055 A 
ATOM     63  C   UNL A   1      37.243  30.338  32.989  1.00  0.00     0.041 A 
ATOM     64  F   UNL A   1      39.356  29.338  33.024  1.00  0.00    -0.206 F 
ATOM     65  C   UNL A   1      36.247  31.034  32.312  1.00  0.00     0.022 A 
BRANCH  62  66
ATOM     66  S   UNL A   1      35.238  32.386  30.095  1.00  0.00     0.124 S 
ATOM     67  O   UNL A   1      36.107  33.491  29.698  1.00  0.00    -0.237 OA
ATOM     68  O   UNL A   1      34.745  31.540  29.014  1.00  0.00    -0.237 OA
ATOM     69  O   UNL A   1      34.258  32.715  31.129  1.00  0.00    -0.744 OA
ENDBRANCH  62  66
ENDBRANCH  45  59
BRANCH  46  70
ATOM     70  C   UNL A   1      46.835  26.847  26.397  1.00  0.00     0.023 A 
ATOM     71  C   UNL A   1      47.927  26.268  27.061  1.00  0.00     0.031 A 
ATOM     72  C   UNL A   1      46.923  26.998  24.999  1.00  0.00     0.131 A 
ATOM     73  C   UNL A   1      49.062  25.875  26.331  1.00  0.00     0.055 A 
ATOM     74  C   UNL A   1      48.023  26.545  24.270  1.00  0.00     0.041 A 
ATOM     75  F   UNL A   1      45.917  27.563  24.311  1.00  0.00    -0.206 F 
ATOM     76  C   UNL A   1      49.106  25.987  24.939  1.00  0.00     0.022 A 
BRANCH  73  77
ATOM     77  S   UNL A   1      50.519  25.281  27.232  1.00  0.00     0.124 S 
ATOM     78  O   UNL A   1      50.905  26.468  27.988  1.00  0.00    -0.237 OA
ATOM     79  O   UNL A   1      49.966  24.178  28.010  1.00  0.00    -0.237 OA
ATOM     80  O   UNL A   1      51.441  24.890  26.169  1.00  0.00    -0.744 OA
ENDBRANCH  73  77
ENDBRANCH  46  70
BRANCH  58  81
ATOM     81  C   UNL A   1      44.987  33.000  29.071  1.00  0.00     0.023 A 
ATOM     82  C   UNL A   1      44.871  34.002  28.090  1.00  0.00     0.031 A 
ATOM     83  C   UNL A   1      45.852  33.231  30.156  1.00  0.00     0.131 A 
ATOM     84  C   UNL A   1      45.651  35.164  28.184  1.00  0.00     0.055 A 
ATOM     85  C   UNL A   1      46.584  34.413  30.271  1.00  0.00     0.041 A 
ATOM     86  F   UNL A   1      46.004  32.306  31.117  1.00  0.00    -0.206 F 
ATOM     87  C   UNL A   1      46.497  35.381  29.275  1.00  0.00     0.022 A 
BRANCH  84  88
ATOM     88  S   UNL A   1      45.623  36.346  26.809  1.00  0.00     0.124 S 
ATOM     89  O   UNL A   1      46.266  35.586  25.742  1.00  0.00    -0.237 OA
ATOM     90  O   UNL A   1      44.194  36.596  26.642  1.00  0.00    -0.237 OA
ATOM     91  O   UNL A   1      46.394  37.479  27.315  1.00  0.00    -0.744 OA
ENDBRANCH  84  88
ENDBRANCH  58  81
ENDBRANCH  32  33
ENDBRANCH  25  27
ENDBRANCH  24  25
ENDBRANCH   1  24
TORSDOF 16
ENDMDL
MODEL 2
REMARK VINA RESULT:     -12.7      4.794     10.216
REMARK SMILES C[C@@H](NC(=O)[C@@H]1CC[C@@H]2CCCC[C@@H]2[NH2+]1)C(=O)OCCOC(=O)c1ccc(-c2c3nc(c(-c4cc(S(=O)(=O)[O-])ccc4F)c4ccc([nH]4)c(-c4cc(S(=O)(=O)[O-])ccc4F)c4nc(c(-c5cc(S(=O)(=O)[O-])ccc5F)c5ccc2[nH]5)C=C4)C=C3)cc1
REMARK SMILES IDX 20 1 19 2 18 3 16 4 17 5 2 6 1 7 3 8 4 9 5 11 6 12 7 13
REMARK SMILES IDX 15 14 8 15 14 16 9 19 13 20 10 21 12 22 11 23 21 24 22 25
REMARK SMILES IDX 23 26 24 27 25 28 86 29 26 30 85 31 27 32 28 33 29 34 79 35
REMARK SMILES IDX 30 36 84 37 78 38 80 39 31 40 83 41 77 42 76 43 32 45 64 46
REMARK SMILES IDX 44 47 63 48 45 49 48 50 62 51 81 52 46 53 47 54 61 56 82 57
REMARK SMILES IDX 49 58 33 59 34 60 42 61 35 62 41 63 43 64 40 65 36 66 37 67
REMARK SMILES IDX 38 68 39 69 65 70 66 71 74 72 67 73 73 74 75 75 72 76 68 77
REMARK SMILES IDX 69 78 70 79 71 80 50 81 51 82 59 83 52 84 58 85 60 86 57 87
REMARK SMILES IDX 53 88 54 89 55 90 56 91
REMARK H PARENT 3 10 15 17 15 18 80 44 48 55
REMARK Flexibility Score: inf
ROOT
ATOM      1  C   UNL A   1      31.493  29.633  25.206  1.00  0.00     0.275 C 
ENDROOT
BRANCH   1   2
ATOM      2  C   UNL A   1      31.527  28.290  24.450  1.00  0.00     0.274 C 
BRANCH   2   3
ATOM      3  O   UNL A   1      31.634  27.120  25.326  1.00  0.00    -0.461 OA
BRANCH   3   4
ATOM      4  C   UNL A   1      32.679  26.147  25.101  1.00  0.00     0.328 C 
ATOM      5  O   UNL A   1      33.432  26.262  26.097  1.00  0.00    -0.250 OA
BRANCH   4   6
ATOM      6  C   UNL A   1      32.887  24.988  23.338  1.00  0.00     0.189 C 
ATOM      7  C   UNL A   1      32.473  25.209  21.682  1.00  0.00     0.043 C 
BRANCH   6   8
ATOM      8  N   UNL A   1      34.224  24.412  22.892  1.00  0.00    -0.338 N 
ATOM      9  C   UNL A   1      34.399  23.253  23.609  1.00  0.00     0.278 C 
ATOM     10  H   UNL A   1      34.839  24.793  22.225  1.00  0.00     0.164 HD
ATOM     11  O   UNL A   1      35.407  22.628  23.844  1.00  0.00    -0.268 OA
BRANCH   9  12
ATOM     12  C   UNL A   1      32.960  22.941  23.849  1.00  0.00     0.272 C 
ATOM     13  C   UNL A   1      33.259  22.660  25.764  1.00  0.00     0.076 C 
ATOM     14  N   UNL A   1      32.494  21.496  22.705  1.00  0.00    -0.333 N 
ATOM     15  C   UNL A   1      33.409  20.837  26.385  1.00  0.00     0.016 C 
ATOM     16  C   UNL A   1      32.214  19.792  23.461  1.00  0.00     0.186 C 
ATOM     17  H   UNL A   1      33.245  21.401  22.021  1.00  0.00     0.347 HD
ATOM     18  H   UNL A   1      31.578  21.757  22.339  1.00  0.00     0.347 HD
ATOM     19  C   UNL A   1      32.679  19.432  25.266  1.00  0.00     0.048 C 
ATOM     20  C   UNL A   1      32.369  18.495  22.626  1.00  0.00     0.065 C 
ATOM     21  C   UNL A   1      33.275  18.045  25.473  1.00  0.00     0.010 C 
ATOM     22  C   UNL A   1      33.532  17.543  22.959  1.00  0.00     0.006 C 
ATOM     23  C   UNL A   1      34.173  17.585  24.350  1.00  0.00     0.001 C 
ENDBRANCH   9  12
ENDBRANCH   6   8
ENDBRANCH   4   6
ENDBRANCH   3   4
ENDBRANCH   2   3
ENDBRANCH   1   2
BRANCH   1  24
ATOM     24  O   UNL A   1      32.293  29.592  26.403  1.00  0.00    -0.458 OA
BRANCH  24  25
ATOM     25  C   UNL A   1      32.767  30.787  26.849  1.00  0.00     0.338 C 
ATOM     26  O   UNL A   1      32.108  31.811  26.939  1.00  0.00    -0.246 OA
BRANCH  25  27
ATOM     27  C   UNL A   1      34.183  30.667  27.320  1.00  0.00     0.060 A 
ATOM     28  C   UNL A   1      34.764  29.428  27.566  1.00  0.00     0.016 A 
ATOM     29  C   UNL A   1      34.922  31.808  27.640  1.00  0.00     0.016 A 
ATOM     30  C   UNL A   1      35.941  29.327  28.316  1.00  0.00     0.010 A 
ATOM     31  C   UNL A   1      36.199  31.693  28.229  1.00  0.00     0.010 A 
ATOM     32  C   UNL A   1      36.717  30.448  28.635  1.00  0.00    -0.014 A 
BRANCH  32  33
ATOM     33  C   UNL A   1      38.022  30.338  29.393  1.00  0.00     0.031 A 
ATOM     34  C   UNL A   1      39.171  29.533  28.818  1.00  0.00     0.074 A 
ATOM     35  C   UNL A   1      38.235  30.943  30.586  1.00  0.00     0.049 A 
ATOM     36  N   UNL A   1      40.178  28.958  29.428  1.00  0.00    -0.248 NA
ATOM     37  C   UNL A   1      39.166  29.330  27.362  1.00  0.00     0.031 C 
ATOM     38  C   UNL A   1      37.317  31.852  31.274  1.00  0.00     0.029 A 
ATOM     39  N   UNL A   1      39.316  30.884  31.445  1.00  0.00    -0.354 N 
ATOM     40  C   UNL A   1      40.859  28.233  28.452  1.00  0.00     0.074 A 
ATOM     41  C   UNL A   1      40.160  28.466  27.204  1.00  0.00     0.031 C 
ATOM     42  C   UNL A   1      37.894  32.322  32.386  1.00  0.00     0.029 A 
ATOM     43  C   UNL A   1      39.138  31.601  32.608  1.00  0.00     0.049 A 
ATOM     44  H   UNL A   1      40.136  30.376  31.244  1.00  0.00     0.167 HD
ATOM     45  C   UNL A   1      41.948  27.432  28.594  1.00  0.00     0.034 A 
ATOM     46  C   UNL A   1      39.813  31.609  33.776  1.00  0.00     0.034 A 
ATOM     47  C   UNL A   1      42.686  27.291  29.831  1.00  0.00     0.049 A 
ATOM     48  C   UNL A   1      40.978  30.672  33.950  1.00  0.00     0.074 A 
ATOM     49  C   UNL A   1      43.787  26.495  30.101  1.00  0.00     0.029 A 
ATOM     50  N   UNL A   1      42.418  27.995  31.000  1.00  0.00    -0.354 N 
ATOM     51  N   UNL A   1      41.495  29.832  33.085  1.00  0.00    -0.248 NA
ATOM     52  C   UNL A   1      41.622  30.657  35.270  1.00  0.00     0.031 C 
ATOM     53  C   UNL A   1      44.150  26.677  31.442  1.00  0.00     0.029 A 
ATOM     54  C   UNL A   1      43.321  27.640  31.991  1.00  0.00     0.049 A 
ATOM     55  H   UNL A   1      41.691  28.649  31.109  1.00  0.00     0.167 HD
ATOM     56  C   UNL A   1      42.528  29.187  33.759  1.00  0.00     0.074 A 
ATOM     57  C   UNL A   1      42.577  29.757  35.090  1.00  0.00     0.031 C 
ATOM     58  C   UNL A   1      43.354  28.205  33.320  1.00  0.00     0.034 A 
BRANCH  45  59
ATOM     59  C   UNL A   1      42.348  26.571  27.415  1.00  0.00     0.023 A 
ATOM     60  C   UNL A   1      41.934  25.237  27.266  1.00  0.00     0.031 A 
ATOM     61  C   UNL A   1      43.201  27.103  26.426  1.00  0.00     0.131 A 
ATOM     62  C   UNL A   1      42.435  24.461  26.207  1.00  0.00     0.055 A 
ATOM     63  C   UNL A   1      43.626  26.353  25.327  1.00  0.00     0.041 A 
ATOM     64  F   UNL A   1      43.648  28.366  26.517  1.00  0.00    -0.206 F 
ATOM     65  C   UNL A   1      43.256  25.017  25.222  1.00  0.00     0.022 A 
BRANCH  62  66
ATOM     66  S   UNL A   1      42.125  22.673  26.215  1.00  0.00     0.124 S 
ATOM     67  O   UNL A   1      42.884  22.248  27.390  1.00  0.00    -0.237 OA
ATOM     68  O   UNL A   1      40.673  22.605  26.335  1.00  0.00    -0.237 OA
ATOM     69  O   UNL A   1      42.670  22.222  24.936  1.00  0.00    -0.744 OA
ENDBRANCH  62  66
ENDBRANCH  45  59
BRANCH  46  70
ATOM     70  C   UNL A   1      39.316  32.425  34.928  1.00  0.00     0.023 A 
ATOM     71  C   UNL A   1      39.815  33.710  35.185  1.00  0.00     0.031 A 
ATOM     72  C   UNL A   1      38.343  31.911  35.808  1.00  0.00     0.131 A 
ATOM     73  C   UNL A   1      39.351  34.431  36.299  1.00  0.00     0.055 A 
ATOM     74  C   UNL A   1      37.835  32.657  36.873  1.00  0.00     0.041 A 
ATOM     75  F   UNL A   1      37.841  30.679  35.624  1.00  0.00    -0.206 F 
ATOM     76  C   UNL A   1      38.347  33.924  37.128  1.00  0.00     0.022 A 
BRANCH  73  77
ATOM     77  S   UNL A   1      40.130  36.020  36.699  1.00  0.00     0.124 S 
ATOM     78  O   UNL A   1      41.538  35.648  36.779  1.00  0.00    -0.237 OA
ATOM     79  O   UNL A   1      39.748  36.841  35.556  1.00  0.00    -0.237 OA
ATOM     80  O   UNL A   1      39.509  36.394  37.967  1.00  0.00    -0.744 OA
ENDBRANCH  73  77
ENDBRANCH  46  70
BRANCH  58  81
ATOM     81  C   UNL A   1      44.413  27.732  34.282  1.00  0.00     0.023 A 
ATOM     82  C   UNL A   1      44.166  26.696  35.202  1.00  0.00     0.031 A 
ATOM     83  C   UNL A   1      45.673  28.354  34.307  1.00  0.00     0.131 A 
ATOM     84  C   UNL A   1      45.145  26.354  36.146  1.00  0.00     0.055 A 
ATOM     85  C   UNL A   1      46.663  27.971  35.213  1.00  0.00     0.041 A 
ATOM     86  F   UNL A   1      45.960  29.351  33.454  1.00  0.00    -0.206 F 
ATOM     87  C   UNL A   1      46.396  26.976  36.149  1.00  0.00     0.022 A 
BRANCH  84  88
ATOM     88  S   UNL A   1      44.727  25.152  37.439  1.00  0.00     0.124 S 
ATOM     89  O   UNL A   1      45.425  23.957  36.979  1.00  0.00    -0.237 OA
ATOM     90  O   UNL A   1      45.266  25.785  38.639  1.00  0.00    -0.237 OA
ATOM     91  O   UNL A   1      43.268  25.080  37.381  1.00  0.00    -0.744 OA
ENDBRANCH  84  88
ENDBRANCH  58  81
ENDBRANCH  32  33
ENDBRANCH  25  27
ENDBRANCH  24  25
ENDBRANCH   1  24
TORSDOF 16
ENDMDL
MODEL 3
REMARK VINA RESULT:     -12.7      1.441      1.738
REMARK SMILES C[C@@H](NC(=O)[C@@H]1CC[C@@H]2CCCC[C@@H]2[NH2+]1)C(=O)OCCOC(=O)c1ccc(-c2c3nc(c(-c4cc(S(=O)(=O)[O-])ccc4F)c4ccc([nH]4)c(-c4cc(S(=O)(=O)[O-])ccc4F)c4nc(c(-c5cc(S(=O)(=O)[O-])ccc5F)c5ccc2[nH]5)C=C4)C=C3)cc1
REMARK SMILES IDX 20 1 19 2 18 3 16 4 17 5 2 6 1 7 3 8 4 9 5 11 6 12 7 13
REMARK SMILES IDX 15 14 8 15 14 16 9 19 13 20 10 21 12 22 11 23 21 24 22 25
REMARK SMILES IDX 23 26 24 27 25 28 86 29 26 30 85 31 27 32 28 33 29 34 79 35
REMARK SMILES IDX 30 36 84 37 78 38 80 39 31 40 83 41 77 42 76 43 32 45 64 46
REMARK SMILES IDX 44 47 63 48 45 49 48 50 62 51 81 52 46 53 47 54 61 56 82 57
REMARK SMILES IDX 49 58 33 59 34 60 42 61 35 62 41 63 43 64 40 65 36 66 37 67
REMARK SMILES IDX 38 68 39 69 65 70 66 71 74 72 67 73 73 74 75 75 72 76 68 77
REMARK SMILES IDX 69 78 70 79 71 80 50 81 51 82 59 83 52 84 58 85 60 86 57 87
REMARK SMILES IDX 53 88 54 89 55 90 56 91
REMARK H PARENT 3 10 15 17 15 18 80 44 48 55
REMARK Flexibility Score: inf
ROOT
ATOM      1  C   UNL A   1      36.003  21.238  25.302  1.00  0.00     0.275 C 
ENDROOT
BRANCH   1   2
ATOM      2  C   UNL A   1      34.917  21.766  26.261  1.00  0.00     0.274 C 
BRANCH   2   3
ATOM      3  O   UNL A   1      34.641  23.196  26.113  1.00  0.00    -0.461 OA
BRANCH   3   4
ATOM      4  C   UNL A   1      33.558  23.636  25.262  1.00  0.00     0.328 C 
ATOM      5  O   UNL A   1      34.082  23.759  24.129  1.00  0.00    -0.250 OA
BRANCH   4   6
ATOM      6  C   UNL A   1      31.612  24.125  25.944  1.00  0.00     0.189 C 
ATOM      7  C   UNL A   1      30.331  23.252  26.695  1.00  0.00     0.043 C 
BRANCH   6   8
ATOM      8  N   UNL A   1      31.346  25.275  26.905  1.00  0.00    -0.338 N 
ATOM      9  C   UNL A   1      31.362  26.419  26.145  1.00  0.00     0.278 C 
ATOM     10  H   UNL A   1      31.195  25.211  27.875  1.00  0.00     0.164 HD
ATOM     11  O   UNL A   1      31.518  27.572  26.477  1.00  0.00    -0.268 OA
BRANCH   9  12
ATOM     12  C   UNL A   1      30.966  25.808  24.844  1.00  0.00     0.272 C 
ATOM     13  C   UNL A   1      32.418  26.709  23.888  1.00  0.00     0.076 C 
ATOM     14  N   UNL A   1      29.148  26.268  24.530  1.00  0.00    -0.333 N 
ATOM     15  C   UNL A   1      31.974  28.301  22.888  1.00  0.00     0.016 C 
ATOM     16  C   UNL A   1      28.750  27.538  23.196  1.00  0.00     0.186 C 
ATOM     17  H   UNL A   1      28.774  26.627  25.408  1.00  0.00     0.347 HD
ATOM     18  H   UNL A   1      28.732  25.404  24.180  1.00  0.00     0.347 HD
ATOM     19  C   UNL A   1      30.121  28.573  22.386  1.00  0.00     0.048 C 
ATOM     20  C   UNL A   1      27.438  28.362  23.222  1.00  0.00     0.065 C 
ATOM     21  C   UNL A   1      29.713  30.017  22.120  1.00  0.00     0.010 C 
ATOM     22  C   UNL A   1      27.527  29.877  23.478  1.00  0.00     0.006 C 
ATOM     23  C   UNL A   1      28.838  30.619  23.192  1.00  0.00     0.001 C 
ENDBRANCH   9  12
ENDBRANCH   6   8
ENDBRANCH   4   6
ENDBRANCH   3   4
ENDBRANCH   2   3
ENDBRANCH   1   2
BRANCH   1  24
ATOM     24  O   UNL A   1      37.090  22.171  25.162  1.00  0.00    -0.458 OA
BRANCH  24  25
ATOM     25  C   UNL A   1      38.284  21.785  25.688  1.00  0.00     0.338 C 
ATOM     26  O   UNL A   1      38.822  20.708  25.485  1.00  0.00    -0.246 OA
BRANCH  25  27
ATOM     27  C   UNL A   1      38.916  22.894  26.471  1.00  0.00     0.060 A 
ATOM     28  C   UNL A   1      38.450  24.201  26.385  1.00  0.00     0.016 A 
ATOM     29  C   UNL A   1      40.072  22.663  27.221  1.00  0.00     0.016 A 
ATOM     30  C   UNL A   1      39.233  25.270  26.834  1.00  0.00     0.010 A 
ATOM     31  C   UNL A   1      40.756  23.734  27.832  1.00  0.00     0.010 A 
ATOM     32  C   UNL A   1      40.384  25.074  27.607  1.00  0.00    -0.014 A 
BRANCH  32  33
ATOM     33  C   UNL A   1      41.201  26.227  28.147  1.00  0.00     0.031 A 
ATOM     34  C   UNL A   1      40.547  27.277  29.024  1.00  0.00     0.074 A 
ATOM     35  C   UNL A   1      42.524  26.377  27.896  1.00  0.00     0.049 A 
ATOM     36  N   UNL A   1      40.899  28.520  29.245  1.00  0.00    -0.248 NA
ATOM     37  C   UNL A   1      39.319  26.875  29.726  1.00  0.00     0.031 C 
ATOM     38  C   UNL A   1      43.380  25.436  27.171  1.00  0.00     0.029 A 
ATOM     39  N   UNL A   1      43.394  27.396  28.231  1.00  0.00    -0.354 N 
ATOM     40  C   UNL A   1      39.879  29.080  30.014  1.00  0.00     0.074 A 
ATOM     41  C   UNL A   1      38.910  28.027  30.240  1.00  0.00     0.031 C 
ATOM     42  C   UNL A   1      44.646  25.873  27.188  1.00  0.00     0.029 A 
ATOM     43  C   UNL A   1      44.670  27.218  27.741  1.00  0.00     0.049 A 
ATOM     44  H   UNL A   1      43.127  28.176  28.771  1.00  0.00     0.167 HD
ATOM     45  C   UNL A   1      39.757  30.357  30.462  1.00  0.00     0.034 A 
ATOM     46  C   UNL A   1      45.720  28.058  27.629  1.00  0.00     0.034 A 
ATOM     47  C   UNL A   1      40.784  31.365  30.305  1.00  0.00     0.049 A 
ATOM     48  C   UNL A   1      45.557  29.488  28.068  1.00  0.00     0.074 A 
ATOM     49  C   UNL A   1      40.765  32.694  30.697  1.00  0.00     0.029 A 
ATOM     50  N   UNL A   1      42.034  31.143  29.739  1.00  0.00    -0.354 N 
ATOM     51  N   UNL A   1      44.513  30.070  28.608  1.00  0.00    -0.248 NA
ATOM     52  C   UNL A   1      46.701  30.382  27.843  1.00  0.00     0.031 C 
ATOM     53  C   UNL A   1      41.977  33.286  30.321  1.00  0.00     0.029 A 
ATOM     54  C   UNL A   1      42.783  32.311  29.758  1.00  0.00     0.049 A 
ATOM     55  H   UNL A   1      42.342  30.283  29.375  1.00  0.00     0.167 HD
ATOM     56  C   UNL A   1      44.876  31.401  28.788  1.00  0.00     0.074 A 
ATOM     57  C   UNL A   1      46.243  31.527  28.326  1.00  0.00     0.031 C 
ATOM     58  C   UNL A   1      44.142  32.429  29.283  1.00  0.00     0.034 A 
BRANCH  45  59
ATOM     59  C   UNL A   1      38.435  30.765  31.075  1.00  0.00     0.023 A 
ATOM     60  C   UNL A   1      37.394  31.349  30.333  1.00  0.00     0.031 A 
ATOM     61  C   UNL A   1      38.229  30.591  32.459  1.00  0.00     0.131 A 
ATOM     62  C   UNL A   1      36.238  31.808  30.986  1.00  0.00     0.055 A 
ATOM     63  C   UNL A   1      37.041  30.969  33.089  1.00  0.00     0.041 A 
ATOM     64  F   UNL A   1      39.190  30.056  33.230  1.00  0.00    -0.206 F 
ATOM     65  C   UNL A   1      36.043  31.598  32.354  1.00  0.00     0.022 A 
BRANCH  62  66
ATOM     66  S   UNL A   1      35.056  32.822  30.054  1.00  0.00     0.124 S 
ATOM     67  O   UNL A   1      34.124  33.228  31.105  1.00  0.00    -0.237 OA
ATOM     68  O   UNL A   1      35.905  33.876  29.511  1.00  0.00    -0.237 OA
ATOM     69  O   UNL A   1      34.506  31.892  29.070  1.00  0.00    -0.744 OA
ENDBRANCH  62  66
ENDBRANCH  45  59
BRANCH  46  70
ATOM     70  C   UNL A   1      46.971  27.612  26.940  1.00  0.00     0.023 A 
ATOM     71  C   UNL A   1      47.141  27.768  25.556  1.00  0.00     0.031 A 
ATOM     72  C   UNL A   1      48.012  26.998  27.664  1.00  0.00     0.131 A 
ATOM     73  C   UNL A   1      48.315  27.303  24.939  1.00  0.00     0.055 A 
ATOM     74  C   UNL A   1      49.204  26.599  27.057  1.00  0.00     0.041 A 
ATOM     75  F   UNL A   1      47.899  26.804  28.988  1.00  0.00    -0.206 F 
ATOM     76  C   UNL A   1      49.357  26.744  25.683  1.00  0.00     0.022 A 
BRANCH  73  77
ATOM     77  S   UNL A   1      48.437  27.371  23.131  1.00  0.00     0.124 S 
ATOM     78  O   UNL A   1      49.729  28.021  22.944  1.00  0.00    -0.237 OA
ATOM     79  O   UNL A   1      48.371  25.959  22.770  1.00  0.00    -0.237 OA
ATOM     80  O   UNL A   1      47.276  28.165  22.740  1.00  0.00    -0.744 OA
ENDBRANCH  73  77
ENDBRANCH  46  70
BRANCH  58  81
ATOM     81  C   UNL A   1      44.834  33.763  29.392  1.00  0.00     0.023 A 
ATOM     82  C   UNL A   1      44.705  34.746  28.394  1.00  0.00     0.031 A 
ATOM     83  C   UNL A   1      45.667  34.039  30.490  1.00  0.00     0.131 A 
ATOM     84  C   UNL A   1      45.445  35.935  28.485  1.00  0.00     0.055 A 
ATOM     85  C   UNL A   1      46.358  35.246  30.603  1.00  0.00     0.041 A 
ATOM     86  F   UNL A   1      45.829  33.133  31.468  1.00  0.00    -0.206 F 
ATOM     87  C   UNL A   1      46.260  36.196  29.590  1.00  0.00     0.022 A 
BRANCH  84  88
ATOM     88  S   UNL A   1      45.406  37.095  27.092  1.00  0.00     0.124 S 
ATOM     89  O   UNL A   1      45.980  38.299  27.684  1.00  0.00    -0.237 OA
ATOM     90  O   UNL A   1      46.233  36.417  26.098  1.00  0.00    -0.237 OA
ATOM     91  O   UNL A   1      43.986  37.184  26.759  1.00  0.00    -0.744 OA
ENDBRANCH  84  88
ENDBRANCH  58  81
ENDBRANCH  32  33
ENDBRANCH  25  27
ENDBRANCH  24  25
ENDBRANCH   1  24
TORSDOF 16
ENDMDL
