MODEL 1
REMARK VINA RESULT:     -12.6      0.000      0.000
REMARK SMILES CC(=O)n1cc2c3c(cccc31)C(=O)C[C@@H]2C(=O)OCCOC(=O)c1ccc(-c2c3nc(c(-c4cc(S(=O)(=O)[O-])ccc4F)c4ccc([nH]4)c(-c4cc(S(=O)(=O)[O-])ccc4F)c4nc(c(-c5cc(S(=O)(=O)[O-])ccc5F)c5ccc2[nH]5)C=C4)C=C3)cc1
REMARK SMILES IDX 21 1 20 2 19 3 17 4 18 5 16 6 4 7 5 8 12 9 6 10 7 11 11 12
REMARK SMILES IDX 8 13 10 14 15 15 9 16 13 17 14 18 2 19 1 20 3 21 22 22 23 23
REMARK SMILES IDX 24 24 25 25 26 26 87 27 27 28 86 29 28 30 29 31 30 32 80 33
REMARK SMILES IDX 31 34 85 35 79 36 81 37 32 38 84 39 78 40 77 41 33 43 65 44
REMARK SMILES IDX 45 45 64 46 46 47 49 48 63 49 82 50 47 51 48 52 62 54 83 55
REMARK SMILES IDX 50 56 34 57 35 58 43 59 36 60 42 61 44 62 41 63 37 64 38 65
REMARK SMILES IDX 39 66 40 67 66 68 67 69 75 70 68 71 74 72 76 73 73 74 69 75
REMARK SMILES IDX 70 76 71 77 72 78 51 79 52 80 60 81 53 82 59 83 61 84 58 85
REMARK SMILES IDX 54 86 55 87 56 88 57 89
REMARK H PARENT 81 42 49 53
REMARK Flexibility Score: inf
ROOT
ATOM      1  C   UNL A   1      37.503  20.438  25.001  1.00  0.00     0.275 C 
ENDROOT
BRANCH   1   2
ATOM      2  C   UNL A   1      36.491  21.451  24.468  1.00  0.00     0.274 C 
BRANCH   2   3
ATOM      3  O   UNL A   1      35.176  21.298  25.045  1.00  0.00    -0.462 OA
BRANCH   3   4
ATOM      4  C   UNL A   1      34.666  22.396  25.675  1.00  0.00     0.314 C 
ATOM      5  O   UNL A   1      35.326  23.152  26.382  1.00  0.00    -0.252 OA
BRANCH   4   6
ATOM      6  C   UNL A   1      33.153  22.533  25.524  1.00  0.00     0.139 C 
ATOM      7  N   UNL A   1      32.864  25.258  22.997  1.00  0.00    -0.287 N 
ATOM      8  C   UNL A   1      33.493  24.101  23.449  1.00  0.00     0.100 A 
ATOM      9  C   UNL A   1      31.794  25.523  23.860  1.00  0.00     0.057 A 
ATOM     10  C   UNL A   1      32.880  23.673  24.601  1.00  0.00    -0.006 A 
ATOM     11  C   UNL A   1      31.803  24.530  24.827  1.00  0.00     0.015 A 
ATOM     12  C   UNL A   1      30.792  26.510  23.887  1.00  0.00     0.027 A 
ATOM     13  C   UNL A   1      30.839  24.470  25.829  1.00  0.00     0.027 A 
ATOM     14  C   UNL A   1      29.804  26.423  24.888  1.00  0.00     0.003 A 
ATOM     15  C   UNL A   1      32.371  22.669  26.859  1.00  0.00     0.101 C 
ATOM     16  C   UNL A   1      29.813  25.409  25.849  1.00  0.00     0.012 A 
ATOM     17  C   UNL A   1      31.002  23.366  26.797  1.00  0.00     0.164 C 
ATOM     18  O   UNL A   1      30.086  23.100  27.568  1.00  0.00    -0.294 OA
BRANCH   7  19
ATOM     19  C   UNL A   1      33.232  26.013  21.863  1.00  0.00     0.227 C 
ATOM     20  C   UNL A   1      33.638  27.430  22.149  1.00  0.00     0.115 C 
ATOM     21  O   UNL A   1      33.243  25.501  20.752  1.00  0.00    -0.274 OA
ENDBRANCH   7  19
ENDBRANCH   4   6
ENDBRANCH   3   4
ENDBRANCH   2   3
ENDBRANCH   1   2
BRANCH   1  22
ATOM     22  O   UNL A   1      38.680  21.081  25.492  1.00  0.00    -0.458 OA
BRANCH  22  23
ATOM     23  C   UNL A   1      39.692  20.217  25.719  1.00  0.00     0.338 C 
ATOM     24  O   UNL A   1      39.691  19.018  25.496  1.00  0.00    -0.246 OA
BRANCH  23  25
ATOM     25  C   UNL A   1      40.822  20.874  26.361  1.00  0.00     0.060 A 
ATOM     26  C   UNL A   1      40.880  20.796  27.760  1.00  0.00     0.016 A 
ATOM     27  C   UNL A   1      41.503  21.849  25.628  1.00  0.00     0.016 A 
ATOM     28  C   UNL A   1      41.433  21.850  28.447  1.00  0.00     0.010 A 
ATOM     29  C   UNL A   1      42.031  22.911  26.320  1.00  0.00     0.010 A 
ATOM     30  C   UNL A   1      41.904  22.937  27.711  1.00  0.00    -0.014 A 
BRANCH  30  31
ATOM     31  C   UNL A   1      42.174  24.157  28.430  1.00  0.00     0.031 A 
ATOM     32  C   UNL A   1      41.188  25.237  28.236  1.00  0.00     0.074 A 
ATOM     33  C   UNL A   1      43.166  24.221  29.334  1.00  0.00     0.049 A 
ATOM     34  N   UNL A   1      41.354  26.398  27.691  1.00  0.00    -0.248 NA
ATOM     35  C   UNL A   1      39.798  24.918  28.590  1.00  0.00     0.031 C 
ATOM     36  C   UNL A   1      43.951  23.113  29.890  1.00  0.00     0.029 A 
ATOM     37  N   UNL A   1      43.578  25.291  30.057  1.00  0.00    -0.354 N 
ATOM     38  C   UNL A   1      40.116  27.025  27.789  1.00  0.00     0.074 A 
ATOM     39  C   UNL A   1      39.167  26.008  28.166  1.00  0.00     0.031 C 
ATOM     40  C   UNL A   1      44.558  23.537  31.021  1.00  0.00     0.029 A 
ATOM     41  C   UNL A   1      44.309  24.960  31.182  1.00  0.00     0.049 A 
ATOM     42  H   UNL A   1      43.376  26.221  29.803  1.00  0.00     0.167 HD
ATOM     43  C   UNL A   1      39.970  28.378  27.779  1.00  0.00     0.034 A 
ATOM     44  C   UNL A   1      44.559  25.783  32.227  1.00  0.00     0.034 A 
ATOM     45  C   UNL A   1      41.155  29.055  27.340  1.00  0.00     0.049 A 
ATOM     46  C   UNL A   1      44.305  27.181  31.784  1.00  0.00     0.074 A 
ATOM     47  C   UNL A   1      41.874  29.092  26.164  1.00  0.00     0.029 A 
ATOM     48  N   UNL A   1      41.977  29.581  28.306  1.00  0.00    -0.354 N 
ATOM     49  N   UNL A   1      45.022  27.826  30.905  1.00  0.00    -0.248 NA
ATOM     50  C   UNL A   1      42.983  27.738  32.034  1.00  0.00     0.031 C 
ATOM     51  C   UNL A   1      43.235  29.234  26.560  1.00  0.00     0.029 A 
ATOM     52  C   UNL A   1      43.270  29.284  27.956  1.00  0.00     0.049 A 
ATOM     53  H   UNL A   1      41.692  30.081  29.105  1.00  0.00     0.167 HD
ATOM     54  C   UNL A   1      44.112  28.606  30.203  1.00  0.00     0.074 A 
ATOM     55  C   UNL A   1      42.901  28.601  31.017  1.00  0.00     0.031 C 
ATOM     56  C   UNL A   1      44.324  28.956  28.899  1.00  0.00     0.034 A 
BRANCH  43  57
ATOM     57  C   UNL A   1      38.835  29.076  28.474  1.00  0.00     0.023 A 
ATOM     58  C   UNL A   1      38.761  29.158  29.879  1.00  0.00     0.031 A 
ATOM     59  C   UNL A   1      37.896  29.836  27.758  1.00  0.00     0.131 A 
ATOM     60  C   UNL A   1      37.751  29.877  30.522  1.00  0.00     0.055 A 
ATOM     61  C   UNL A   1      36.935  30.627  28.402  1.00  0.00     0.041 A 
ATOM     62  F   UNL A   1      37.910  29.861  26.417  1.00  0.00    -0.206 F 
ATOM     63  C   UNL A   1      36.847  30.637  29.790  1.00  0.00     0.022 A 
BRANCH  60  64
ATOM     64  S   UNL A   1      37.584  29.790  32.325  1.00  0.00     0.124 S 
ATOM     65  O   UNL A   1      38.841  30.381  32.768  1.00  0.00    -0.237 OA
ATOM     66  O   UNL A   1      36.386  30.596  32.554  1.00  0.00    -0.237 OA
ATOM     67  O   UNL A   1      37.421  28.362  32.582  1.00  0.00    -0.744 OA
ENDBRANCH  60  64
ENDBRANCH  43  57
BRANCH  44  68
ATOM     68  C   UNL A   1      44.536  25.383  33.654  1.00  0.00     0.023 A 
ATOM     69  C   UNL A   1      43.419  25.683  34.461  1.00  0.00     0.031 A 
ATOM     70  C   UNL A   1      45.700  24.948  34.305  1.00  0.00     0.131 A 
ATOM     71  C   UNL A   1      43.490  25.575  35.854  1.00  0.00     0.055 A 
ATOM     72  C   UNL A   1      45.770  24.837  35.698  1.00  0.00     0.041 A 
ATOM     73  F   UNL A   1      46.811  24.676  33.602  1.00  0.00    -0.206 F 
ATOM     74  C   UNL A   1      44.663  25.158  36.481  1.00  0.00     0.022 A 
BRANCH  71  75
ATOM     75  S   UNL A   1      42.050  26.006  36.871  1.00  0.00     0.124 S 
ATOM     76  O   UNL A   1      41.277  24.765  36.869  1.00  0.00    -0.237 OA
ATOM     77  O   UNL A   1      42.674  26.356  38.141  1.00  0.00    -0.237 OA
ATOM     78  O   UNL A   1      41.437  27.110  36.137  1.00  0.00    -0.744 OA
ENDBRANCH  71  75
ENDBRANCH  44  68
BRANCH  56  79
ATOM     79  C   UNL A   1      45.689  28.713  28.294  1.00  0.00     0.023 A 
ATOM     80  C   UNL A   1      46.057  27.385  28.014  1.00  0.00     0.031 A 
ATOM     81  C   UNL A   1      46.691  29.698  28.215  1.00  0.00     0.131 A 
ATOM     82  C   UNL A   1      47.387  27.074  27.700  1.00  0.00     0.055 A 
ATOM     83  C   UNL A   1      48.003  29.393  27.840  1.00  0.00     0.041 A 
ATOM     84  F   UNL A   1      46.454  30.962  28.585  1.00  0.00    -0.206 F 
ATOM     85  C   UNL A   1      48.359  28.072  27.593  1.00  0.00     0.022 A 
BRANCH  82  86
ATOM     86  S   UNL A   1      47.918  25.349  27.548  1.00  0.00     0.124 S 
ATOM     87  O   UNL A   1      46.721  24.617  27.956  1.00  0.00    -0.237 OA
ATOM     88  O   UNL A   1      48.255  25.253  26.130  1.00  0.00    -0.237 OA
ATOM     89  O   UNL A   1      49.051  25.245  28.463  1.00  0.00    -0.744 OA
ENDBRANCH  82  86
ENDBRANCH  56  79
ENDBRANCH  30  31
ENDBRANCH  23  25
ENDBRANCH  22  23
ENDBRANCH   1  22
TORSDOF 15
ENDMDL
MODEL 2
REMARK VINA RESULT:     -12.3      2.104      2.423
REMARK SMILES CC(=O)n1cc2c3c(cccc31)C(=O)C[C@@H]2C(=O)OCCOC(=O)c1ccc(-c2c3nc(c(-c4cc(S(=O)(=O)[O-])ccc4F)c4ccc([nH]4)c(-c4cc(S(=O)(=O)[O-])ccc4F)c4nc(c(-c5cc(S(=O)(=O)[O-])ccc5F)c5ccc2[nH]5)C=C4)C=C3)cc1
REMARK SMILES IDX 21 1 20 2 19 3 17 4 18 5 16 6 4 7 5 8 12 9 6 10 7 11 11 12
REMARK SMILES IDX 8 13 10 14 15 15 9 16 13 17 14 18 2 19 1 20 3 21 22 22 23 23
REMARK SMILES IDX 24 24 25 25 26 26 87 27 27 28 86 29 28 30 29 31 30 32 80 33
REMARK SMILES IDX 31 34 85 35 79 36 81 37 32 38 84 39 78 40 77 41 33 43 65 44
REMARK SMILES IDX 45 45 64 46 46 47 49 48 63 49 82 50 47 51 48 52 62 54 83 55
REMARK SMILES IDX 50 56 34 57 35 58 43 59 36 60 42 61 44 62 41 63 37 64 38 65
REMARK SMILES IDX 39 66 40 67 66 68 67 69 75 70 68 71 74 72 76 73 73 74 69 75
REMARK SMILES IDX 70 76 71 77 72 78 51 79 52 80 60 81 53 82 59 83 61 84 58 85
REMARK SMILES IDX 54 86 55 87 56 88 57 89
REMARK H PARENT 81 42 49 53
REMARK Flexibility Score: inf
ROOT
ATOM      1  C   UNL A   1      37.696  20.222  25.121  1.00  0.00     0.275 C 
ENDROOT
BRANCH   1   2
ATOM      2  C   UNL A   1      36.543  21.170  24.790  1.00  0.00     0.274 C 
BRANCH   2   3
ATOM      3  O   UNL A   1      36.959  22.547  24.665  1.00  0.00    -0.462 OA
BRANCH   3   4
ATOM      4  C   UNL A   1      36.239  23.458  25.381  1.00  0.00     0.314 C 
ATOM      5  O   UNL A   1      36.736  24.394  26.001  1.00  0.00    -0.252 OA
BRANCH   4   6
ATOM      6  C   UNL A   1      34.749  23.133  25.451  1.00  0.00     0.139 C 
ATOM      7  N   UNL A   1      33.310  25.536  22.990  1.00  0.00    -0.287 N 
ATOM      8  C   UNL A   1      34.313  24.638  23.348  1.00  0.00     0.100 A 
ATOM      9  C   UNL A   1      32.339  25.509  23.999  1.00  0.00     0.057 A 
ATOM     10  C   UNL A   1      34.022  24.099  24.576  1.00  0.00    -0.006 A 
ATOM     11  C   UNL A   1      32.779  24.607  24.955  1.00  0.00     0.015 A 
ATOM     12  C   UNL A   1      31.101  26.154  24.170  1.00  0.00     0.027 A 
ATOM     13  C   UNL A   1      32.025  24.308  26.086  1.00  0.00     0.027 A 
ATOM     14  C   UNL A   1      30.332  25.822  25.304  1.00  0.00     0.003 A 
ATOM     15  C   UNL A   1      34.153  23.089  26.885  1.00  0.00     0.101 C 
ATOM     16  C   UNL A   1      30.778  24.900  26.254  1.00  0.00     0.012 A 
ATOM     17  C   UNL A   1      32.643  23.345  27.021  1.00  0.00     0.164 C 
ATOM     18  O   UNL A   1      31.964  22.854  27.917  1.00  0.00    -0.294 OA
BRANCH   7  19
ATOM     19  C   UNL A   1      33.275  26.315  21.815  1.00  0.00     0.227 C 
ATOM     20  C   UNL A   1      32.457  25.737  20.696  1.00  0.00     0.115 C 
ATOM     21  O   UNL A   1      33.850  27.394  21.765  1.00  0.00    -0.274 OA
ENDBRANCH   7  19
ENDBRANCH   4   6
ENDBRANCH   3   4
ENDBRANCH   2   3
ENDBRANCH   1   2
BRANCH   1  22
ATOM     22  O   UNL A   1      38.889  20.938  25.441  1.00  0.00    -0.458 OA
BRANCH  22  23
ATOM     23  C   UNL A   1      39.922  20.124  25.746  1.00  0.00     0.338 C 
ATOM     24  O   UNL A   1      39.959  18.911  25.613  1.00  0.00    -0.246 OA
BRANCH  23  25
ATOM     25  C   UNL A   1      41.022  20.860  26.354  1.00  0.00     0.060 A 
ATOM     26  C   UNL A   1      41.146  20.762  27.748  1.00  0.00     0.016 A 
ATOM     27  C   UNL A   1      41.589  21.899  25.614  1.00  0.00     0.016 A 
ATOM     28  C   UNL A   1      41.641  21.846  28.432  1.00  0.00     0.010 A 
ATOM     29  C   UNL A   1      42.059  22.989  26.305  1.00  0.00     0.010 A 
ATOM     30  C   UNL A   1      41.990  22.980  27.700  1.00  0.00    -0.014 A 
BRANCH  30  31
ATOM     31  C   UNL A   1      42.191  24.206  28.433  1.00  0.00     0.031 A 
ATOM     32  C   UNL A   1      41.131  25.220  28.273  1.00  0.00     0.074 A 
ATOM     33  C   UNL A   1      43.194  24.324  29.320  1.00  0.00     0.049 A 
ATOM     34  N   UNL A   1      41.208  26.396  27.743  1.00  0.00    -0.248 NA
ATOM     35  C   UNL A   1      39.773  24.803  28.648  1.00  0.00     0.031 C 
ATOM     36  C   UNL A   1      44.062  23.264  29.845  1.00  0.00     0.029 A 
ATOM     37  N   UNL A   1      43.547  25.410  30.051  1.00  0.00    -0.354 N 
ATOM     38  C   UNL A   1      39.934  26.937  27.872  1.00  0.00     0.074 A 
ATOM     39  C   UNL A   1      39.062  25.853  28.251  1.00  0.00     0.031 C 
ATOM     40  C   UNL A   1      44.661  23.712  30.971  1.00  0.00     0.029 A 
ATOM     41  C   UNL A   1      44.320  25.113  31.158  1.00  0.00     0.049 A 
ATOM     42  H   UNL A   1      43.277  26.327  29.815  1.00  0.00     0.167 HD
ATOM     43  C   UNL A   1      39.697  28.277  27.886  1.00  0.00     0.034 A 
ATOM     44  C   UNL A   1      44.534  25.937  32.210  1.00  0.00     0.034 A 
ATOM     45  C   UNL A   1      40.825  29.039  27.435  1.00  0.00     0.049 A 
ATOM     46  C   UNL A   1      44.178  27.320  31.793  1.00  0.00     0.074 A 
ATOM     47  C   UNL A   1      41.517  29.140  26.247  1.00  0.00     0.029 A 
ATOM     48  N   UNL A   1      41.628  29.606  28.395  1.00  0.00    -0.354 N 
ATOM     49  N   UNL A   1      44.833  28.024  30.911  1.00  0.00    -0.248 NA
ATOM     50  C   UNL A   1      42.826  27.783  32.075  1.00  0.00     0.031 C 
ATOM     51  C   UNL A   1      42.873  29.368  26.620  1.00  0.00     0.029 A 
ATOM     52  C   UNL A   1      42.931  29.401  28.017  1.00  0.00     0.049 A 
ATOM     53  H   UNL A   1      41.325  30.074  29.205  1.00  0.00     0.167 HD
ATOM     54  C   UNL A   1      43.859  28.751  30.237  1.00  0.00     0.074 A 
ATOM     55  C   UNL A   1      42.667  28.652  31.073  1.00  0.00     0.031 C 
ATOM     56  C   UNL A   1      44.023  29.132  28.935  1.00  0.00     0.034 A 
BRANCH  43  57
ATOM     57  C   UNL A   1      38.531  28.887  28.612  1.00  0.00     0.023 A 
ATOM     58  C   UNL A   1      37.468  29.506  27.924  1.00  0.00     0.031 A 
ATOM     59  C   UNL A   1      38.355  28.709  29.994  1.00  0.00     0.131 A 
ATOM     60  C   UNL A   1      36.346  30.000  28.595  1.00  0.00     0.055 A 
ATOM     61  C   UNL A   1      37.193  29.126  30.655  1.00  0.00     0.041 A 
ATOM     62  F   UNL A   1      39.290  28.091  30.732  1.00  0.00    -0.206 F 
ATOM     63  C   UNL A   1      36.188  29.791  29.959  1.00  0.00     0.022 A 
BRANCH  60  64
ATOM     64  S   UNL A   1      35.101  30.959  27.692  1.00  0.00     0.124 S 
ATOM     65  O   UNL A   1      34.799  30.074  26.573  1.00  0.00    -0.237 OA
ATOM     66  O   UNL A   1      34.047  31.100  28.694  1.00  0.00    -0.237 OA
ATOM     67  O   UNL A   1      35.801  32.196  27.359  1.00  0.00    -0.744 OA
ENDBRANCH  60  64
ENDBRANCH  43  57
BRANCH  44  68
ATOM     68  C   UNL A   1      44.564  25.516  33.631  1.00  0.00     0.023 A 
ATOM     69  C   UNL A   1      43.450  25.739  34.465  1.00  0.00     0.031 A 
ATOM     70  C   UNL A   1      45.766  25.141  34.251  1.00  0.00     0.131 A 
ATOM     71  C   UNL A   1      43.556  25.616  35.855  1.00  0.00     0.055 A 
ATOM     72  C   UNL A   1      45.872  25.015  35.641  1.00  0.00     0.041 A 
ATOM     73  F   UNL A   1      46.875  24.944  33.522  1.00  0.00    -0.206 F 
ATOM     74  C   UNL A   1      44.765  25.260  36.452  1.00  0.00     0.022 A 
BRANCH  71  75
ATOM     75  S   UNL A   1      42.117  25.948  36.908  1.00  0.00     0.124 S 
ATOM     76  O   UNL A   1      42.732  26.386  38.159  1.00  0.00    -0.237 OA
ATOM     77  O   UNL A   1      41.424  26.983  36.151  1.00  0.00    -0.237 OA
ATOM     78  O   UNL A   1      41.444  24.653  36.978  1.00  0.00    -0.744 OA
ENDBRANCH  71  75
ENDBRANCH  44  68
BRANCH  56  79
ATOM     79  C   UNL A   1      45.388  28.990  28.302  1.00  0.00     0.023 A 
ATOM     80  C   UNL A   1      46.198  30.138  28.220  1.00  0.00     0.031 A 
ATOM     81  C   UNL A   1      45.800  27.850  27.587  1.00  0.00     0.131 A 
ATOM     82  C   UNL A   1      47.352  30.131  27.424  1.00  0.00     0.055 A 
ATOM     83  C   UNL A   1      46.984  27.827  26.845  1.00  0.00     0.041 A 
ATOM     84  F   UNL A   1      45.026  26.760  27.511  1.00  0.00    -0.206 F 
ATOM     85  C   UNL A   1      47.760  28.976  26.750  1.00  0.00     0.022 A 
BRANCH  82  86
ATOM     86  S   UNL A   1      48.282  31.658  27.139  1.00  0.00     0.124 S 
ATOM     87  O   UNL A   1      48.381  32.220  28.483  1.00  0.00    -0.237 OA
ATOM     88  O   UNL A   1      49.534  31.156  26.579  1.00  0.00    -0.237 OA
ATOM     89  O   UNL A   1      47.447  32.414  26.210  1.00  0.00    -0.744 OA
ENDBRANCH  82  86
ENDBRANCH  56  79
ENDBRANCH  30  31
ENDBRANCH  23  25
ENDBRANCH  22  23
ENDBRANCH   1  22
TORSDOF 15
ENDMDL
MODEL 3
REMARK VINA RESULT:     -12.2      3.617      7.290
REMARK SMILES CC(=O)n1cc2c3c(cccc31)C(=O)C[C@@H]2C(=O)OCCOC(=O)c1ccc(-c2c3nc(c(-c4cc(S(=O)(=O)[O-])ccc4F)c4ccc([nH]4)c(-c4cc(S(=O)(=O)[O-])ccc4F)c4nc(c(-c5cc(S(=O)(=O)[O-])ccc5F)c5ccc2[nH]5)C=C4)C=C3)cc1
REMARK SMILES IDX 21 1 20 2 19 3 17 4 18 5 16 6 4 7 5 8 12 9 6 10 7 11 11 12
REMARK SMILES IDX 8 13 10 14 15 15 9 16 13 17 14 18 2 19 1 20 3 21 22 22 23 23
REMARK SMILES IDX 24 24 25 25 26 26 87 27 27 28 86 29 28 30 29 31 30 32 80 33
REMARK SMILES IDX 31 34 85 35 79 36 81 37 32 38 84 39 78 40 77 41 33 43 65 44
REMARK SMILES IDX 45 45 64 46 46 47 49 48 63 49 82 50 47 51 48 52 62 54 83 55
REMARK SMILES IDX 50 56 34 57 35 58 43 59 36 60 42 61 44 62 41 63 37 64 38 65
REMARK SMILES IDX 39 66 40 67 66 68 67 69 75 70 68 71 74 72 76 73 73 74 69 75
REMARK SMILES IDX 70 76 71 77 72 78 51 79 52 80 60 81 53 82 59 83 61 84 58 85
REMARK SMILES IDX 54 86 55 87 56 88 57 89
REMARK H PARENT 81 42 49 53
REMARK Flexibility Score: inf
ROOT
ATOM      1  C   UNL A   1      38.808  21.678  25.567  1.00  0.00     0.275 C 
ENDROOT
BRANCH   1   2
ATOM      2  C   UNL A   1      37.355  21.266  25.335  1.00  0.00     0.274 C 
BRANCH   2   3
ATOM      3  O   UNL A   1      36.454  22.391  25.243  1.00  0.00    -0.462 OA
BRANCH   3   4
ATOM      4  C   UNL A   1      35.966  22.668  24.000  1.00  0.00     0.314 C 
ATOM      5  O   UNL A   1      36.630  23.165  23.094  1.00  0.00    -0.252 OA
BRANCH   4   6
ATOM      6  C   UNL A   1      34.465  22.419  23.868  1.00  0.00     0.139 C 
ATOM      7  N   UNL A   1      33.034  25.682  24.964  1.00  0.00    -0.287 N 
ATOM      8  C   UNL A   1      33.999  24.971  24.255  1.00  0.00     0.100 A 
ATOM      9  C   UNL A   1      32.125  24.755  25.488  1.00  0.00     0.057 A 
ATOM     10  C   UNL A   1      33.748  23.626  24.374  1.00  0.00    -0.006 A 
ATOM     11  C   UNL A   1      32.564  23.499  25.100  1.00  0.00     0.015 A 
ATOM     12  C   UNL A   1      30.941  24.875  26.238  1.00  0.00     0.027 A 
ATOM     13  C   UNL A   1      31.861  22.341  25.423  1.00  0.00     0.027 A 
ATOM     14  C   UNL A   1      30.222  23.700  26.535  1.00  0.00     0.003 A 
ATOM     15  C   UNL A   1      33.954  21.117  24.543  1.00  0.00     0.101 C 
ATOM     16  C   UNL A   1      30.665  22.440  26.125  1.00  0.00     0.012 A 
ATOM     17  C   UNL A   1      32.474  21.081  24.957  1.00  0.00     0.164 C 
ATOM     18  O   UNL A   1      31.820  20.043  24.995  1.00  0.00    -0.294 OA
BRANCH   7  19
ATOM     19  C   UNL A   1      32.977  27.084  25.108  1.00  0.00     0.227 C 
ATOM     20  C   UNL A   1      33.949  27.660  26.097  1.00  0.00     0.115 C 
ATOM     21  O   UNL A   1      32.205  27.749  24.431  1.00  0.00    -0.274 OA
ENDBRANCH   7  19
ENDBRANCH   4   6
ENDBRANCH   3   4
ENDBRANCH   2   3
ENDBRANCH   1   2
BRANCH   1  22
ATOM     22  O   UNL A   1      38.903  22.788  26.460  1.00  0.00    -0.458 OA
BRANCH  22  23
ATOM     23  C   UNL A   1      40.030  22.768  27.202  1.00  0.00     0.338 C 
ATOM     24  O   UNL A   1      40.429  21.849  27.898  1.00  0.00    -0.246 OA
BRANCH  23  25
ATOM     25  C   UNL A   1      40.727  24.046  27.151  1.00  0.00     0.060 A 
ATOM     26  C   UNL A   1      41.750  24.240  28.090  1.00  0.00     0.016 A 
ATOM     27  C   UNL A   1      40.089  25.102  26.497  1.00  0.00     0.016 A 
ATOM     28  C   UNL A   1      41.971  25.514  28.555  1.00  0.00     0.010 A 
ATOM     29  C   UNL A   1      40.297  26.369  26.984  1.00  0.00     0.010 A 
ATOM     30  C   UNL A   1      41.164  26.540  28.066  1.00  0.00    -0.014 A 
BRANCH  30  31
ATOM     31  C   UNL A   1      41.174  27.791  28.783  1.00  0.00     0.031 A 
ATOM     32  C   UNL A   1      42.157  28.784  28.311  1.00  0.00     0.074 A 
ATOM     33  C   UNL A   1      40.232  28.068  29.700  1.00  0.00     0.049 A 
ATOM     34  N   UNL A   1      43.178  29.273  28.934  1.00  0.00    -0.248 NA
ATOM     35  C   UNL A   1      42.048  29.186  26.901  1.00  0.00     0.031 C 
ATOM     36  C   UNL A   1      38.992  27.331  29.970  1.00  0.00     0.029 A 
ATOM     37  N   UNL A   1      40.122  29.165  30.489  1.00  0.00    -0.354 N 
ATOM     38  C   UNL A   1      43.747  30.180  28.046  1.00  0.00     0.074 A 
ATOM     39  C   UNL A   1      43.134  29.940  26.763  1.00  0.00     0.031 C 
ATOM     40  C   UNL A   1      38.157  28.129  30.673  1.00  0.00     0.029 A 
ATOM     41  C   UNL A   1      38.855  29.360  31.006  1.00  0.00     0.049 A 
ATOM     42  H   UNL A   1      40.877  29.769  30.677  1.00  0.00     0.167 HD
ATOM     43  C   UNL A   1      44.518  31.226  28.448  1.00  0.00     0.034 A 
ATOM     44  C   UNL A   1      38.394  30.515  31.541  1.00  0.00     0.034 A 
ATOM     45  C   UNL A   1      44.940  31.103  29.814  1.00  0.00     0.049 A 
ATOM     46  C   UNL A   1      39.565  31.370  31.871  1.00  0.00     0.074 A 
ATOM     47  C   UNL A   1      45.727  30.212  30.511  1.00  0.00     0.029 A 
ATOM     48  N   UNL A   1      44.239  31.814  30.757  1.00  0.00    -0.354 N 
ATOM     49  N   UNL A   1      40.441  31.108  32.802  1.00  0.00    -0.248 NA
ATOM     50  C   UNL A   1      39.995  32.341  30.874  1.00  0.00     0.031 C 
ATOM     51  C   UNL A   1      45.144  30.132  31.809  1.00  0.00     0.029 A 
ATOM     52  C   UNL A   1      44.037  30.986  31.833  1.00  0.00     0.049 A 
ATOM     53  H   UNL A   1      43.936  32.747  30.678  1.00  0.00     0.167 HD
ATOM     54  C   UNL A   1      41.654  31.553  32.291  1.00  0.00     0.074 A 
ATOM     55  C   UNL A   1      41.298  32.405  31.162  1.00  0.00     0.031 C 
ATOM     56  C   UNL A   1      42.839  30.975  32.651  1.00  0.00     0.034 A 
BRANCH  43  57
ATOM     57  C   UNL A   1      44.617  32.507  27.670  1.00  0.00     0.023 A 
ATOM     58  C   UNL A   1      43.884  33.655  28.030  1.00  0.00     0.031 A 
ATOM     59  C   UNL A   1      45.581  32.678  26.663  1.00  0.00     0.131 A 
ATOM     60  C   UNL A   1      44.039  34.869  27.356  1.00  0.00     0.055 A 
ATOM     61  C   UNL A   1      45.799  33.917  26.045  1.00  0.00     0.041 A 
ATOM     62  F   UNL A   1      46.363  31.658  26.278  1.00  0.00    -0.206 F 
ATOM     63  C   UNL A   1      45.014  35.016  26.378  1.00  0.00     0.022 A 
BRANCH  60  64
ATOM     64  S   UNL A   1      42.933  36.258  27.726  1.00  0.00     0.124 S 
ATOM     65  O   UNL A   1      41.823  35.585  28.389  1.00  0.00    -0.237 OA
ATOM     66  O   UNL A   1      43.776  37.090  28.583  1.00  0.00    -0.237 OA
ATOM     67  O   UNL A   1      42.648  36.824  26.411  1.00  0.00    -0.744 OA
ENDBRANCH  60  64
ENDBRANCH  43  57
BRANCH  44  68
ATOM     68  C   UNL A   1      37.036  31.070  31.332  1.00  0.00     0.023 A 
ATOM     69  C   UNL A   1      36.556  31.310  30.028  1.00  0.00     0.031 A 
ATOM     70  C   UNL A   1      36.303  31.616  32.397  1.00  0.00     0.131 A 
ATOM     71  C   UNL A   1      35.411  32.087  29.816  1.00  0.00     0.055 A 
ATOM     72  C   UNL A   1      35.157  32.391  32.185  1.00  0.00     0.041 A 
ATOM     73  F   UNL A   1      36.720  31.455  33.662  1.00  0.00    -0.206 F 
ATOM     74  C   UNL A   1      34.710  32.637  30.887  1.00  0.00     0.022 A 
BRANCH  71  75
ATOM     75  S   UNL A   1      34.839  32.415  28.125  1.00  0.00     0.124 S 
ATOM     76  O   UNL A   1      35.935  33.204  27.566  1.00  0.00    -0.237 OA
ATOM     77  O   UNL A   1      34.698  31.067  27.590  1.00  0.00    -0.237 OA
ATOM     78  O   UNL A   1      33.594  33.153  28.327  1.00  0.00    -0.744 OA
ENDBRANCH  71  75
ENDBRANCH  44  68
BRANCH  56  79
ATOM     79  C   UNL A   1      42.854  30.015  33.819  1.00  0.00     0.023 A 
ATOM     80  C   UNL A   1      43.328  30.490  35.055  1.00  0.00     0.031 A 
ATOM     81  C   UNL A   1      42.648  28.629  33.689  1.00  0.00     0.131 A 
ATOM     82  C   UNL A   1      43.607  29.593  36.095  1.00  0.00     0.055 A 
ATOM     83  C   UNL A   1      42.867  27.744  34.748  1.00  0.00     0.041 A 
ATOM     84  F   UNL A   1      42.318  28.083  32.512  1.00  0.00    -0.206 F 
ATOM     85  C   UNL A   1      43.362  28.223  35.956  1.00  0.00     0.022 A 
BRANCH  82  86
ATOM     86  S   UNL A   1      44.417  30.163  37.611  1.00  0.00     0.124 S 
ATOM     87  O   UNL A   1      44.620  28.916  38.344  1.00  0.00    -0.237 OA
ATOM     88  O   UNL A   1      45.631  30.789  37.095  1.00  0.00    -0.237 OA
ATOM     89  O   UNL A   1      43.450  31.082  38.205  1.00  0.00    -0.744 OA
ENDBRANCH  82  86
ENDBRANCH  56  79
ENDBRANCH  30  31
ENDBRANCH  23  25
ENDBRANCH  22  23
ENDBRANCH   1  22
TORSDOF 15
ENDMDL
