MODEL 1
REMARK VINA RESULT:     -12.8      0.000      0.000
REMARK SMILES C[C@@H]1CN(C(=O)Nc2ccc(O)c(C(=O)OCCOC(=O)c3ccc(-c4c5nc(c(-c6cc(S(=O)(=O)[O-])ccc6F)c6ccc([nH]6)c(-c6cc(S(=O)(=O)[O-])ccc6F)c6nc(c(-c7cc(S(=O)(=O)[O-])ccc7F)c7ccc4[nH]7)C=C6)C=C5)cc3)c2)C[C@H]1C
REMARK SMILES IDX 18 1 17 2 16 3 14 4 15 5 13 6 8 7 9 8 85 9 10 10 11 11 7 12
REMARK SMILES IDX 1 13 2 14 3 15 87 16 4 17 86 18 88 19 5 20 6 21 12 23 19 25
REMARK SMILES IDX 20 26 21 27 22 28 23 29 84 30 24 31 83 32 25 33 26 34 27 35
REMARK SMILES IDX 77 36 28 37 82 38 76 39 78 40 29 41 81 42 75 43 74 44 30 46
REMARK SMILES IDX 62 47 42 48 61 49 43 50 46 51 60 52 79 53 44 54 45 55 59 57
REMARK SMILES IDX 80 58 47 59 31 60 32 61 40 62 33 63 39 64 41 65 38 66 34 67
REMARK SMILES IDX 35 68 36 69 37 70 63 71 64 72 72 73 65 74 71 75 73 76 70 77
REMARK SMILES IDX 66 78 67 79 68 80 69 81 48 82 49 83 57 84 50 85 56 86 58 87
REMARK SMILES IDX 55 88 51 89 52 90 53 91 54 92
REMARK H PARENT 7 22 12 24 78 45 46 56
REMARK Flexibility Score: inf
ROOT
ATOM      1  C   UNL A   1      31.347  31.601  26.492  1.00  0.00     0.275 C 
ENDROOT
BRANCH   1   2
ATOM      2  C   UNL A   1      31.052  30.659  25.327  1.00  0.00     0.275 C 
BRANCH   2   3
ATOM      3  O   UNL A   1      32.161  29.767  25.124  1.00  0.00    -0.458 OA
BRANCH   3   4
ATOM      4  C   UNL A   1      32.122  28.992  24.014  1.00  0.00     0.342 C 
ATOM      5  O   UNL A   1      32.919  29.006  23.093  1.00  0.00    -0.246 OA
BRANCH   4   6
ATOM      6  C   UNL A   1      31.052  27.973  24.126  1.00  0.00     0.103 A 
ATOM      7  C   UNL A   1      30.209  26.065  25.362  1.00  0.00     0.044 A 
ATOM      8  C   UNL A   1      29.094  26.011  24.527  1.00  0.00     0.030 A 
ATOM      9  C   UNL A   1      31.171  27.050  25.173  1.00  0.00     0.045 A 
ATOM     10  C   UNL A   1      28.983  26.905  23.457  1.00  0.00     0.049 A 
ATOM     11  C   UNL A   1      29.971  27.872  23.245  1.00  0.00     0.130 A 
BRANCH   7  12
ATOM     12  N   UNL A   1      30.387  25.169  26.416  1.00  0.00    -0.308 N 
ATOM     13  C   UNL A   1      33.170  22.946  22.306  1.00  0.00     0.010 C 
ATOM     14  C   UNL A   1      32.092  22.546  23.300  1.00  0.00     0.010 C 
ATOM     15  C   UNL A   1      31.586  23.739  24.103  1.00  0.00     0.125 C 
ATOM     16  C   UNL A   1      32.551  21.588  24.403  1.00  0.00     0.010 C 
ATOM     17  N   UNL A   1      31.056  23.172  25.334  1.00  0.00    -0.324 N 
ATOM     18  C   UNL A   1      31.466  21.781  25.469  1.00  0.00     0.125 C 
ATOM     19  C   UNL A   1      32.679  20.147  23.943  1.00  0.00     0.010 C 
ATOM     20  C   UNL A   1      30.519  23.816  26.419  1.00  0.00     0.321 C 
ATOM     21  O   UNL A   1      30.279  23.218  27.470  1.00  0.00    -0.248 OA
ATOM     22  H   UNL A   1      30.423  25.587  27.306  1.00  0.00     0.171 HD
ENDBRANCH   7  12
BRANCH  11  23
ATOM     23  O   UNL A   1      29.896  28.673  22.141  1.00  0.00    -0.507 OA
ATOM     24  H   UNL A   1      29.321  28.447  21.437  1.00  0.00     0.293 HD
ENDBRANCH  11  23
ENDBRANCH   4   6
ENDBRANCH   3   4
ENDBRANCH   2   3
ENDBRANCH   1   2
BRANCH   1  25
ATOM     25  O   UNL A   1      32.591  31.235  27.118  1.00  0.00    -0.458 OA
BRANCH  25  26
ATOM     26  C   UNL A   1      33.372  32.272  27.495  1.00  0.00     0.338 C 
ATOM     27  O   UNL A   1      33.043  33.439  27.628  1.00  0.00    -0.246 OA
BRANCH  26  28
ATOM     28  C   UNL A   1      34.725  31.792  27.809  1.00  0.00     0.060 A 
ATOM     29  C   UNL A   1      34.888  30.443  28.108  1.00  0.00     0.016 A 
ATOM     30  C   UNL A   1      35.778  32.683  27.996  1.00  0.00     0.016 A 
ATOM     31  C   UNL A   1      36.059  29.994  28.717  1.00  0.00     0.010 A 
ATOM     32  C   UNL A   1      36.989  32.212  28.519  1.00  0.00     0.010 A 
ATOM     33  C   UNL A   1      37.124  30.876  28.948  1.00  0.00    -0.014 A 
BRANCH  33  34
ATOM     34  C   UNL A   1      38.316  30.436  29.740  1.00  0.00     0.031 A 
ATOM     35  C   UNL A   1      39.317  29.488  29.120  1.00  0.00     0.074 A 
ATOM     36  C   UNL A   1      38.542  30.906  30.985  1.00  0.00     0.049 A 
ATOM     37  N   UNL A   1      40.318  28.851  29.675  1.00  0.00    -0.248 NA
ATOM     38  C   UNL A   1      39.151  29.205  27.687  1.00  0.00     0.031 C 
ATOM     39  C   UNL A   1      37.698  31.868  31.696  1.00  0.00     0.029 A 
ATOM     40  N   UNL A   1      39.562  30.648  31.869  1.00  0.00    -0.354 N 
ATOM     41  C   UNL A   1      40.859  28.044  28.675  1.00  0.00     0.074 A 
ATOM     42  C   UNL A   1      40.057  28.260  27.489  1.00  0.00     0.031 C 
ATOM     43  C   UNL A   1      38.257  32.153  32.882  1.00  0.00     0.029 A 
ATOM     44  C   UNL A   1      39.452  31.333  33.058  1.00  0.00     0.049 A 
ATOM     45  H   UNL A   1      40.303  30.031  31.670  1.00  0.00     0.167 HD
ATOM     46  C   UNL A   1      41.924  27.203  28.739  1.00  0.00     0.034 A 
ATOM     47  C   UNL A   1      40.202  31.283  34.178  1.00  0.00     0.034 A 
ATOM     48  C   UNL A   1      42.753  27.043  29.910  1.00  0.00     0.049 A 
ATOM     49  C   UNL A   1      41.377  30.340  34.230  1.00  0.00     0.074 A 
ATOM     50  C   UNL A   1      43.851  26.215  30.088  1.00  0.00     0.029 A 
ATOM     51  N   UNL A   1      42.596  27.745  31.099  1.00  0.00    -0.354 N 
ATOM     52  N   UNL A   1      41.816  29.512  33.310  1.00  0.00    -0.248 NA
ATOM     53  C   UNL A   1      42.154  30.321  35.475  1.00  0.00     0.031 C 
ATOM     54  C   UNL A   1      44.325  26.380  31.395  1.00  0.00     0.029 A 
ATOM     55  C   UNL A   1      43.567  27.362  32.014  1.00  0.00     0.049 A 
ATOM     56  H   UNL A   1      41.896  28.416  31.268  1.00  0.00     0.167 HD
ATOM     57  C   UNL A   1      42.930  28.886  33.864  1.00  0.00     0.074 A 
ATOM     58  C   UNL A   1      43.111  29.454  35.184  1.00  0.00     0.031 C 
ATOM     59  C   UNL A   1      43.728  27.924  33.334  1.00  0.00     0.034 A 
BRANCH  46  60
ATOM     60  C   UNL A   1      42.207  26.348  27.523  1.00  0.00     0.023 A 
ATOM     61  C   UNL A   1      41.756  25.022  27.415  1.00  0.00     0.031 A 
ATOM     62  C   UNL A   1      42.988  26.863  26.471  1.00  0.00     0.131 A 
ATOM     63  C   UNL A   1      42.157  24.232  26.325  1.00  0.00     0.055 A 
ATOM     64  C   UNL A   1      43.312  26.099  25.348  1.00  0.00     0.041 A 
ATOM     65  F   UNL A   1      43.467  28.116  26.525  1.00  0.00    -0.206 F 
ATOM     66  C   UNL A   1      42.910  24.769  25.278  1.00  0.00     0.022 A 
BRANCH  63  67
ATOM     67  S   UNL A   1      41.813  22.450  26.368  1.00  0.00     0.124 S 
ATOM     68  O   UNL A   1      42.610  21.969  25.242  1.00  0.00    -0.237 OA
ATOM     69  O   UNL A   1      42.284  22.069  27.695  1.00  0.00    -0.237 OA
ATOM     70  O   UNL A   1      40.366  22.376  26.174  1.00  0.00    -0.744 OA
ENDBRANCH  63  67
ENDBRANCH  46  60
BRANCH  47  71
ATOM     71  C   UNL A   1      39.839  32.103  35.371  1.00  0.00     0.023 A 
ATOM     72  C   UNL A   1      38.993  31.598  36.372  1.00  0.00     0.031 A 
ATOM     73  C   UNL A   1      40.293  33.428  35.500  1.00  0.00     0.131 A 
ATOM     74  C   UNL A   1      38.592  32.427  37.433  1.00  0.00     0.055 A 
ATOM     75  C   UNL A   1      39.939  34.229  36.587  1.00  0.00     0.041 A 
ATOM     76  F   UNL A   1      41.101  33.962  34.570  1.00  0.00    -0.206 F 
ATOM     77  C   UNL A   1      39.073  33.733  37.554  1.00  0.00     0.022 A 
BRANCH  74  78
ATOM     78  S   UNL A   1      37.362  31.803  38.612  1.00  0.00     0.124 S 
ATOM     79  O   UNL A   1      37.119  30.458  38.105  1.00  0.00    -0.237 OA
ATOM     80  O   UNL A   1      38.082  31.893  39.879  1.00  0.00    -0.237 OA
ATOM     81  O   UNL A   1      36.246  32.736  38.466  1.00  0.00    -0.744 OA
ENDBRANCH  74  78
ENDBRANCH  47  71
BRANCH  59  82
ATOM     82  C   UNL A   1      44.891  27.466  34.180  1.00  0.00     0.023 A 
ATOM     83  C   UNL A   1      44.780  26.378  35.063  1.00  0.00     0.031 A 
ATOM     84  C   UNL A   1      46.113  28.162  34.139  1.00  0.00     0.131 A 
ATOM     85  C   UNL A   1      45.844  26.060  35.920  1.00  0.00     0.055 A 
ATOM     86  C   UNL A   1      47.189  27.805  34.953  1.00  0.00     0.041 A 
ATOM     87  F   UNL A   1      46.275  29.210  33.316  1.00  0.00    -0.206 F 
ATOM     88  C   UNL A   1      47.053  26.759  35.862  1.00  0.00     0.022 A 
BRANCH  85  89
ATOM     89  S   UNL A   1      45.588  24.797  37.198  1.00  0.00     0.124 S 
ATOM     90  O   UNL A   1      46.928  24.648  37.754  1.00  0.00    -0.237 OA
ATOM     91  O   UNL A   1      44.602  25.431  38.068  1.00  0.00    -0.237 OA
ATOM     92  O   UNL A   1      45.097  23.643  36.446  1.00  0.00    -0.744 OA
ENDBRANCH  85  89
ENDBRANCH  59  82
ENDBRANCH  33  34
ENDBRANCH  26  28
ENDBRANCH  25  26
ENDBRANCH   1  25
TORSDOF 16
ENDMDL
MODEL 2
REMARK VINA RESULT:     -12.6      0.488      7.527
REMARK SMILES C[C@@H]1CN(C(=O)Nc2ccc(O)c(C(=O)OCCOC(=O)c3ccc(-c4c5nc(c(-c6cc(S(=O)(=O)[O-])ccc6F)c6ccc([nH]6)c(-c6cc(S(=O)(=O)[O-])ccc6F)c6nc(c(-c7cc(S(=O)(=O)[O-])ccc7F)c7ccc4[nH]7)C=C6)C=C5)cc3)c2)C[C@H]1C
REMARK SMILES IDX 18 1 17 2 16 3 14 4 15 5 13 6 8 7 9 8 85 9 10 10 11 11 7 12
REMARK SMILES IDX 1 13 2 14 3 15 87 16 4 17 86 18 88 19 5 20 6 21 12 23 19 25
REMARK SMILES IDX 20 26 21 27 22 28 23 29 84 30 24 31 83 32 25 33 26 34 27 35
REMARK SMILES IDX 77 36 28 37 82 38 76 39 78 40 29 41 81 42 75 43 74 44 30 46
REMARK SMILES IDX 62 47 42 48 61 49 43 50 46 51 60 52 79 53 44 54 45 55 59 57
REMARK SMILES IDX 80 58 47 59 31 60 32 61 40 62 33 63 39 64 41 65 38 66 34 67
REMARK SMILES IDX 35 68 36 69 37 70 63 71 64 72 72 73 65 74 71 75 73 76 70 77
REMARK SMILES IDX 66 78 67 79 68 80 69 81 48 82 49 83 57 84 50 85 56 86 58 87
REMARK SMILES IDX 55 88 51 89 52 90 53 91 54 92
REMARK H PARENT 7 22 12 24 78 45 46 56
REMARK Flexibility Score: inf
ROOT
ATOM      1  C   UNL A   1      31.350  31.757  26.501  1.00  0.00     0.275 C 
ENDROOT
BRANCH   1   2
ATOM      2  C   UNL A   1      31.128  30.746  25.377  1.00  0.00     0.275 C 
BRANCH   2   3
ATOM      3  O   UNL A   1      32.264  29.871  25.272  1.00  0.00    -0.458 OA
BRANCH   3   4
ATOM      4  C   UNL A   1      32.302  29.054  24.193  1.00  0.00     0.342 C 
ATOM      5  O   UNL A   1      33.173  29.020  23.341  1.00  0.00    -0.246 OA
BRANCH   4   6
ATOM      6  C   UNL A   1      31.209  28.056  24.255  1.00  0.00     0.103 A 
ATOM      7  C   UNL A   1      30.284  26.152  25.437  1.00  0.00     0.044 A 
ATOM      8  C   UNL A   1      29.199  26.131  24.563  1.00  0.00     0.030 A 
ATOM      9  C   UNL A   1      31.272  27.118  25.294  1.00  0.00     0.045 A 
ATOM     10  C   UNL A   1      29.143  27.039  23.501  1.00  0.00     0.049 A 
ATOM     11  C   UNL A   1      30.158  27.988  23.336  1.00  0.00     0.130 A 
BRANCH   7  12
ATOM     12  N   UNL A   1      30.407  25.240  26.485  1.00  0.00    -0.308 N 
ATOM     13  C   UNL A   1      33.224  22.972  22.423  1.00  0.00     0.010 C 
ATOM     14  C   UNL A   1      32.109  22.596  23.385  1.00  0.00     0.010 C 
ATOM     15  C   UNL A   1      31.620  23.795  24.188  1.00  0.00     0.125 C 
ATOM     16  C   UNL A   1      32.509  21.613  24.489  1.00  0.00     0.010 C 
ATOM     17  N   UNL A   1      31.041  23.234  25.399  1.00  0.00    -0.324 N 
ATOM     18  C   UNL A   1      31.404  21.829  25.529  1.00  0.00     0.125 C 
ATOM     19  C   UNL A   1      32.604  20.173  24.017  1.00  0.00     0.010 C 
ATOM     20  C   UNL A   1      30.496  23.883  26.478  1.00  0.00     0.321 C 
ATOM     21  O   UNL A   1      30.211  23.283  27.515  1.00  0.00    -0.248 OA
ATOM     22  H   UNL A   1      30.433  25.647  27.381  1.00  0.00     0.171 HD
ENDBRANCH   7  12
BRANCH  11  23
ATOM     23  O   UNL A   1      30.138  28.803  22.240  1.00  0.00    -0.507 OA
ATOM     24  H   UNL A   1      29.413  28.773  21.647  1.00  0.00     0.293 HD
ENDBRANCH  11  23
ENDBRANCH   4   6
ENDBRANCH   3   4
ENDBRANCH   2   3
ENDBRANCH   1   2
BRANCH   1  25
ATOM     25  O   UNL A   1      32.496  31.374  27.287  1.00  0.00    -0.458 OA
BRANCH  25  26
ATOM     26  C   UNL A   1      33.344  32.381  27.594  1.00  0.00     0.338 C 
ATOM     27  O   UNL A   1      33.083  33.569  27.686  1.00  0.00    -0.246 OA
BRANCH  26  28
ATOM     28  C   UNL A   1      34.678  31.839  27.887  1.00  0.00     0.060 A 
ATOM     29  C   UNL A   1      34.813  30.460  28.011  1.00  0.00     0.016 A 
ATOM     30  C   UNL A   1      35.736  32.679  28.224  1.00  0.00     0.016 A 
ATOM     31  C   UNL A   1      35.955  29.915  28.595  1.00  0.00     0.010 A 
ATOM     32  C   UNL A   1      36.922  32.123  28.721  1.00  0.00     0.010 A 
ATOM     33  C   UNL A   1      37.023  30.740  28.974  1.00  0.00    -0.014 A 
BRANCH  33  34
ATOM     34  C   UNL A   1      38.180  30.179  29.741  1.00  0.00     0.031 A 
ATOM     35  C   UNL A   1      38.359  30.543  31.198  1.00  0.00     0.074 A 
ATOM     36  C   UNL A   1      39.045  29.314  29.172  1.00  0.00     0.049 A 
ATOM     37  N   UNL A   1      39.369  30.313  31.999  1.00  0.00    -0.248 NA
ATOM     38  C   UNL A   1      37.257  31.287  31.827  1.00  0.00     0.031 C 
ATOM     39  C   UNL A   1      38.972  28.824  27.794  1.00  0.00     0.029 A 
ATOM     40  N   UNL A   1      40.149  28.679  29.688  1.00  0.00    -0.354 N 
ATOM     41  C   UNL A   1      39.053  30.939  33.204  1.00  0.00     0.074 A 
ATOM     42  C   UNL A   1      37.766  31.575  33.015  1.00  0.00     0.031 C 
ATOM     43  C   UNL A   1      39.957  27.934  27.590  1.00  0.00     0.029 A 
ATOM     44  C   UNL A   1      40.785  27.852  28.790  1.00  0.00     0.049 A 
ATOM     45  H   UNL A   1      40.458  28.806  30.614  1.00  0.00     0.167 HD
ATOM     46  C   UNL A   1      39.767  30.978  34.358  1.00  0.00     0.034 A 
ATOM     47  C   UNL A   1      41.922  27.136  28.901  1.00  0.00     0.034 A 
ATOM     48  C   UNL A   1      41.021  30.288  34.554  1.00  0.00     0.049 A 
ATOM     49  C   UNL A   1      42.702  27.197  30.190  1.00  0.00     0.074 A 
ATOM     50  C   UNL A   1      41.831  30.266  35.678  1.00  0.00     0.029 A 
ATOM     51  N   UNL A   1      41.635  29.473  33.611  1.00  0.00    -0.354 N 
ATOM     52  N   UNL A   1      42.439  27.872  31.285  1.00  0.00    -0.248 NA
ATOM     53  C   UNL A   1      43.936  26.404  30.253  1.00  0.00     0.031 C 
ATOM     54  C   UNL A   1      42.956  29.479  35.398  1.00  0.00     0.029 A 
ATOM     55  C   UNL A   1      42.817  28.954  34.123  1.00  0.00     0.049 A 
ATOM     56  H   UNL A   1      41.285  29.291  32.709  1.00  0.00     0.167 HD
ATOM     57  C   UNL A   1      43.470  27.570  32.172  1.00  0.00     0.074 A 
ATOM     58  C   UNL A   1      44.340  26.631  31.493  1.00  0.00     0.031 C 
ATOM     59  C   UNL A   1      43.684  28.030  33.431  1.00  0.00     0.034 A 
BRANCH  46  60
ATOM     60  C   UNL A   1      39.234  31.850  35.474  1.00  0.00     0.023 A 
ATOM     61  C   UNL A   1      38.634  31.313  36.627  1.00  0.00     0.031 A 
ATOM     62  C   UNL A   1      39.285  33.251  35.355  1.00  0.00     0.131 A 
ATOM     63  C   UNL A   1      38.039  32.167  37.569  1.00  0.00     0.055 A 
ATOM     64  C   UNL A   1      38.768  34.097  36.338  1.00  0.00     0.041 A 
ATOM     65  F   UNL A   1      39.825  33.825  34.268  1.00  0.00    -0.206 F 
ATOM     66  C   UNL A   1      38.125  33.555  37.446  1.00  0.00     0.022 A 
BRANCH  63  67
ATOM     67  S   UNL A   1      37.016  31.438  38.879  1.00  0.00     0.124 S 
ATOM     68  O   UNL A   1      35.856  32.326  38.876  1.00  0.00    -0.237 OA
ATOM     69  O   UNL A   1      36.787  30.084  38.387  1.00  0.00    -0.237 OA
ATOM     70  O   UNL A   1      37.861  31.535  40.069  1.00  0.00    -0.744 OA
ENDBRANCH  63  67
ENDBRANCH  46  60
BRANCH  47  71
ATOM     71  C   UNL A   1      42.435  26.343  27.745  1.00  0.00     0.023 A 
ATOM     72  C   UNL A   1      42.012  25.022  27.522  1.00  0.00     0.031 A 
ATOM     73  C   UNL A   1      43.401  26.880  26.875  1.00  0.00     0.131 A 
ATOM     74  C   UNL A   1      42.584  24.270  26.483  1.00  0.00     0.055 A 
ATOM     75  C   UNL A   1      43.924  26.148  25.809  1.00  0.00     0.041 A 
ATOM     76  F   UNL A   1      43.844  28.137  27.044  1.00  0.00    -0.206 F 
ATOM     77  C   UNL A   1      43.526  24.830  25.616  1.00  0.00     0.022 A 
BRANCH  74  78
ATOM     78  S   UNL A   1      42.147  22.516  26.331  1.00  0.00     0.124 S 
ATOM     79  O   UNL A   1      42.653  22.197  25.001  1.00  0.00    -0.237 OA
ATOM     80  O   UNL A   1      42.869  21.924  27.453  1.00  0.00    -0.237 OA
ATOM     81  O   UNL A   1      40.691  22.515  26.461  1.00  0.00    -0.744 OA
ENDBRANCH  74  78
ENDBRANCH  47  71
BRANCH  59  82
ATOM     82  C   UNL A   1      44.889  27.483  34.158  1.00  0.00     0.023 A 
ATOM     83  C   UNL A   1      44.821  26.302  34.917  1.00  0.00     0.031 A 
ATOM     84  C   UNL A   1      46.108  28.184  34.133  1.00  0.00     0.131 A 
ATOM     85  C   UNL A   1      45.927  25.893  35.676  1.00  0.00     0.055 A 
ATOM     86  C   UNL A   1      47.224  27.741  34.844  1.00  0.00     0.041 A 
ATOM     87  F   UNL A   1      46.229  29.319  33.427  1.00  0.00    -0.206 F 
ATOM     88  C   UNL A   1      47.133  26.599  35.635  1.00  0.00     0.022 A 
BRANCH  85  89
ATOM     89  S   UNL A   1      45.735  24.493  36.815  1.00  0.00     0.124 S 
ATOM     90  O   UNL A   1      46.776  23.580  36.355  1.00  0.00    -0.237 OA
ATOM     91  O   UNL A   1      45.960  25.116  38.115  1.00  0.00    -0.237 OA
ATOM     92  O   UNL A   1      44.365  24.042  36.574  1.00  0.00    -0.744 OA
ENDBRANCH  85  89
ENDBRANCH  59  82
ENDBRANCH  33  34
ENDBRANCH  26  28
ENDBRANCH  25  26
ENDBRANCH   1  25
TORSDOF 16
ENDMDL
MODEL 3
REMARK VINA RESULT:     -12.6      1.328      7.663
REMARK SMILES C[C@@H]1CN(C(=O)Nc2ccc(O)c(C(=O)OCCOC(=O)c3ccc(-c4c5nc(c(-c6cc(S(=O)(=O)[O-])ccc6F)c6ccc([nH]6)c(-c6cc(S(=O)(=O)[O-])ccc6F)c6nc(c(-c7cc(S(=O)(=O)[O-])ccc7F)c7ccc4[nH]7)C=C6)C=C5)cc3)c2)C[C@H]1C
REMARK SMILES IDX 18 1 17 2 16 3 14 4 15 5 13 6 8 7 9 8 85 9 10 10 11 11 7 12
REMARK SMILES IDX 1 13 2 14 3 15 87 16 4 17 86 18 88 19 5 20 6 21 12 23 19 25
REMARK SMILES IDX 20 26 21 27 22 28 23 29 84 30 24 31 83 32 25 33 26 34 27 35
REMARK SMILES IDX 77 36 28 37 82 38 76 39 78 40 29 41 81 42 75 43 74 44 30 46
REMARK SMILES IDX 62 47 42 48 61 49 43 50 46 51 60 52 79 53 44 54 45 55 59 57
REMARK SMILES IDX 80 58 47 59 31 60 32 61 40 62 33 63 39 64 41 65 38 66 34 67
REMARK SMILES IDX 35 68 36 69 37 70 63 71 64 72 72 73 65 74 71 75 73 76 70 77
REMARK SMILES IDX 66 78 67 79 68 80 69 81 48 82 49 83 57 84 50 85 56 86 58 87
REMARK SMILES IDX 55 88 51 89 52 90 53 91 54 92
REMARK H PARENT 7 22 12 24 78 45 46 56
REMARK Flexibility Score: inf
ROOT
ATOM      1  C   UNL A   1      31.409  31.886  26.497  1.00  0.00     0.275 C 
ENDROOT
BRANCH   1   2
ATOM      2  C   UNL A   1      31.112  30.835  25.430  1.00  0.00     0.275 C 
BRANCH   2   3
ATOM      3  O   UNL A   1      32.184  29.878  25.370  1.00  0.00    -0.458 OA
BRANCH   3   4
ATOM      4  C   UNL A   1      32.236  29.092  24.269  1.00  0.00     0.342 C 
ATOM      5  O   UNL A   1      33.106  29.097  23.416  1.00  0.00    -0.246 OA
BRANCH   4   6
ATOM      6  C   UNL A   1      31.159  28.075  24.302  1.00  0.00     0.103 A 
ATOM      7  C   UNL A   1      30.241  26.150  25.456  1.00  0.00     0.044 A 
ATOM      8  C   UNL A   1      29.177  26.114  24.557  1.00  0.00     0.030 A 
ATOM      9  C   UNL A   1      31.216  27.134  25.339  1.00  0.00     0.045 A 
ATOM     10  C   UNL A   1      29.129  27.025  23.498  1.00  0.00     0.049 A 
ATOM     11  C   UNL A   1      30.130  27.992  23.359  1.00  0.00     0.130 A 
BRANCH   7  12
ATOM     12  N   UNL A   1      30.357  25.237  26.503  1.00  0.00    -0.308 N 
ATOM     13  C   UNL A   1      33.274  23.017  22.485  1.00  0.00     0.010 C 
ATOM     14  C   UNL A   1      32.147  22.624  23.426  1.00  0.00     0.010 C 
ATOM     15  C   UNL A   1      31.628  23.815  24.224  1.00  0.00     0.125 C 
ATOM     16  C   UNL A   1      32.539  21.642  24.534  1.00  0.00     0.010 C 
ATOM     17  N   UNL A   1      31.035  23.242  25.422  1.00  0.00    -0.324 N 
ATOM     18  C   UNL A   1      31.413  21.841  25.554  1.00  0.00     0.125 C 
ATOM     19  C   UNL A   1      32.660  20.206  24.059  1.00  0.00     0.010 C 
ATOM     20  C   UNL A   1      30.463  23.881  26.493  1.00  0.00     0.321 C 
ATOM     21  O   UNL A   1      30.166  23.273  27.523  1.00  0.00    -0.248 OA
ATOM     22  H   UNL A   1      30.362  25.641  27.400  1.00  0.00     0.171 HD
ENDBRANCH   7  12
BRANCH  11  23
ATOM     23  O   UNL A   1      30.121  28.811  22.266  1.00  0.00    -0.507 OA
ATOM     24  H   UNL A   1      30.707  28.649  21.553  1.00  0.00     0.293 HD
ENDBRANCH  11  23
ENDBRANCH   4   6
ENDBRANCH   3   4
ENDBRANCH   2   3
ENDBRANCH   1   2
BRANCH   1  25
ATOM     25  O   UNL A   1      32.548  31.481  27.282  1.00  0.00    -0.458 OA
BRANCH  25  26
ATOM     26  C   UNL A   1      33.401  32.477  27.611  1.00  0.00     0.338 C 
ATOM     27  O   UNL A   1      33.155  33.669  27.695  1.00  0.00    -0.246 OA
BRANCH  26  28
ATOM     28  C   UNL A   1      34.720  31.917  27.941  1.00  0.00     0.060 A 
ATOM     29  C   UNL A   1      34.830  30.536  28.078  1.00  0.00     0.016 A 
ATOM     30  C   UNL A   1      35.782  32.742  28.299  1.00  0.00     0.016 A 
ATOM     31  C   UNL A   1      35.948  29.978  28.693  1.00  0.00     0.010 A 
ATOM     32  C   UNL A   1      36.946  32.171  28.828  1.00  0.00     0.010 A 
ATOM     33  C   UNL A   1      37.019  30.789  29.094  1.00  0.00    -0.014 A 
BRANCH  33  34
ATOM     34  C   UNL A   1      38.148  30.216  29.893  1.00  0.00     0.031 A 
ATOM     35  C   UNL A   1      38.319  30.616  31.341  1.00  0.00     0.074 A 
ATOM     36  C   UNL A   1      38.994  29.309  29.361  1.00  0.00     0.049 A 
ATOM     37  N   UNL A   1      39.311  30.379  32.162  1.00  0.00    -0.248 NA
ATOM     38  C   UNL A   1      37.232  31.412  31.933  1.00  0.00     0.031 C 
ATOM     39  C   UNL A   1      38.924  28.781  27.997  1.00  0.00     0.029 A 
ATOM     40  N   UNL A   1      40.071  28.656  29.911  1.00  0.00    -0.354 N 
ATOM     41  C   UNL A   1      38.998  31.049  33.344  1.00  0.00     0.074 A 
ATOM     42  C   UNL A   1      37.734  31.718  33.118  1.00  0.00     0.031 C 
ATOM     43  C   UNL A   1      39.884  27.856  27.832  1.00  0.00     0.029 A 
ATOM     44  C   UNL A   1      40.693  27.785  29.045  1.00  0.00     0.049 A 
ATOM     45  H   UNL A   1      40.371  28.800  30.837  1.00  0.00     0.167 HD
ATOM     46  C   UNL A   1      39.697  31.101  34.507  1.00  0.00     0.034 A 
ATOM     47  C   UNL A   1      41.806  27.037  29.194  1.00  0.00     0.034 A 
ATOM     48  C   UNL A   1      40.927  30.378  34.740  1.00  0.00     0.049 A 
ATOM     49  C   UNL A   1      42.570  27.112  30.491  1.00  0.00     0.074 A 
ATOM     50  C   UNL A   1      41.721  30.364  35.876  1.00  0.00     0.029 A 
ATOM     51  N   UNL A   1      41.528  29.519  33.830  1.00  0.00    -0.354 N 
ATOM     52  N   UNL A   1      42.314  27.827  31.563  1.00  0.00    -0.248 NA
ATOM     53  C   UNL A   1      43.778  26.284  30.594  1.00  0.00     0.031 C 
ATOM     54  C   UNL A   1      42.824  29.537  35.635  1.00  0.00     0.029 A 
ATOM     55  C   UNL A   1      42.686  28.979  34.374  1.00  0.00     0.049 A 
ATOM     56  H   UNL A   1      41.185  29.321  32.929  1.00  0.00     0.167 HD
ATOM     57  C   UNL A   1      43.323  27.519  32.472  1.00  0.00     0.074 A 
ATOM     58  C   UNL A   1      44.172  26.535  31.833  1.00  0.00     0.031 C 
ATOM     59  C   UNL A   1      43.534  28.010  33.720  1.00  0.00     0.034 A 
BRANCH  46  60
ATOM     60  C   UNL A   1      39.176  32.020  35.590  1.00  0.00     0.023 A 
ATOM     61  C   UNL A   1      39.592  33.357  35.706  1.00  0.00     0.031 A 
ATOM     62  C   UNL A   1      38.279  31.526  36.556  1.00  0.00     0.131 A 
ATOM     63  C   UNL A   1      39.178  34.127  36.805  1.00  0.00     0.055 A 
ATOM     64  C   UNL A   1      37.803  32.324  37.598  1.00  0.00     0.041 A 
ATOM     65  F   UNL A   1      37.861  30.252  36.513  1.00  0.00    -0.206 F 
ATOM     66  C   UNL A   1      38.266  33.628  37.737  1.00  0.00     0.022 A 
BRANCH  63  67
ATOM     67  S   UNL A   1      39.968  35.737  37.086  1.00  0.00     0.124 S 
ATOM     68  O   UNL A   1      39.280  36.196  38.291  1.00  0.00    -0.237 OA
ATOM     69  O   UNL A   1      41.372  35.377  37.248  1.00  0.00    -0.237 OA
ATOM     70  O   UNL A   1      39.652  36.490  35.874  1.00  0.00    -0.744 OA
ENDBRANCH  63  67
ENDBRANCH  46  60
BRANCH  47  71
ATOM     71  C   UNL A   1      42.310  26.196  28.068  1.00  0.00     0.023 A 
ATOM     72  C   UNL A   1      41.834  24.890  27.865  1.00  0.00     0.031 A 
ATOM     73  C   UNL A   1      43.318  26.670  27.210  1.00  0.00     0.131 A 
ATOM     74  C   UNL A   1      42.396  24.089  26.857  1.00  0.00     0.055 A 
ATOM     75  C   UNL A   1      43.833  25.891  26.173  1.00  0.00     0.041 A 
ATOM     76  F   UNL A   1      43.812  27.909  27.362  1.00  0.00    -0.206 F 
ATOM     77  C   UNL A   1      43.381  24.588  26.000  1.00  0.00     0.022 A 
BRANCH  74  78
ATOM     78  S   UNL A   1      41.884  22.354  26.733  1.00  0.00     0.124 S 
ATOM     79  O   UNL A   1      42.308  22.013  25.380  1.00  0.00    -0.237 OA
ATOM     80  O   UNL A   1      42.640  21.736  27.818  1.00  0.00    -0.237 OA
ATOM     81  O   UNL A   1      40.438  22.409  26.938  1.00  0.00    -0.744 OA
ENDBRANCH  74  78
ENDBRANCH  47  71
BRANCH  59  82
ATOM     82  C   UNL A   1      44.711  27.448  34.480  1.00  0.00     0.023 A 
ATOM     83  C   UNL A   1      44.584  26.325  35.316  1.00  0.00     0.031 A 
ATOM     84  C   UNL A   1      45.966  28.079  34.406  1.00  0.00     0.131 A 
ATOM     85  C   UNL A   1      45.671  25.907  36.099  1.00  0.00     0.055 A 
ATOM     86  C   UNL A   1      47.061  27.623  35.143  1.00  0.00     0.041 A 
ATOM     87  F   UNL A   1      46.145  29.156  33.626  1.00  0.00    -0.206 F 
ATOM     88  C   UNL A   1      46.913  26.543  36.008  1.00  0.00     0.022 A 
BRANCH  85  89
ATOM     89  S   UNL A   1      45.410  24.598  37.328  1.00  0.00     0.124 S 
ATOM     90  O   UNL A   1      45.272  23.414  36.488  1.00  0.00    -0.237 OA
ATOM     91  O   UNL A   1      46.628  24.676  38.128  1.00  0.00    -0.237 OA
ATOM     92  O   UNL A   1      44.189  25.014  38.017  1.00  0.00    -0.744 OA
ENDBRANCH  85  89
ENDBRANCH  59  82
ENDBRANCH  33  34
ENDBRANCH  26  28
ENDBRANCH  25  26
ENDBRANCH   1  25
TORSDOF 16
ENDMDL
